# generated using pymatgen
data_H2O
_symmetry_space_group_name_H-M   'P 1'
_cell_length_a   17.99374024
_cell_length_b   17.98868467
_cell_length_c   21.98673041
_cell_angle_alpha   90.00678663
_cell_angle_beta   89.99486593
_cell_angle_gamma   119.99943415
_symmetry_Int_Tables_number   1
_chemical_formula_structural   H2O
_chemical_formula_sum   'H384 O192'
_cell_volume   6163.31850604
_cell_formula_units_Z   192
loop_
 _symmetry_equiv_pos_site_id
 _symmetry_equiv_pos_as_xyz
  1  'x, y, z'
loop_
 _atom_type_symbol
 _atom_type_oxidation_number
  H+  1.0
  O2-  -2.0
loop_
 _atom_site_type_symbol
 _atom_site_label
 _atom_site_symmetry_multiplicity
 _atom_site_fract_x
 _atom_site_fract_y
 _atom_site_fract_z
 _atom_site_occupancy
  H+  H0  1  0.42796597  0.11555912  0.89176709  1
  H+  H1  1  0.63942818  0.87273890  0.64715844  1
  H+  H2  1  0.71502220  0.37574409  -0.00655672  1
  H+  H3  1  0.27361242  0.14131267  0.82292926  1
  H+  H4  1  0.37557999  0.36600360  0.83427340  1
  H+  H5  1  0.37316396  0.27389550  0.83018466  1
  H+  H6  1  0.26675067  0.64571169  0.66646117  1
  H+  H7  1  0.04664544  0.39173439  0.17922738  1
  H+  H8  1  0.57644810  0.66326946  0.75656536  1
  H+  H9  1  0.57758081  0.66240207  0.40865714  1
  H+  H10  1  0.88973056  0.12017855  0.83262381  1
  H+  H11  1  0.36712101  0.95691316  0.33432057  1
  H+  H12  1  0.34081782  0.62835835  0.02003480  1
  H+  H13  1  0.87768698  0.39295356  0.35040386  1
  H+  H14  1  0.91643285  0.82106576  0.42410169  1
  H+  H15  1  0.38546328  0.00659536  0.16231830  1
  H+  H16  1  0.77223838  0.63554990  0.16183722  1
  H+  H17  1  0.59988872  0.62597531  0.81572577  1
  H+  H18  1  0.52362014  0.89924205  0.80308438  1
  H+  H19  1  0.91425041  0.08519187  0.93080154  1
  H+  H20  1  0.37423700  0.99059099  0.83561928  1
  H+  H21  1  0.63176821  0.50059111  0.50824348  1
  H+  H22  1  0.36788555  0.98035436  0.68060049  1
  H+  H23  1  0.33750576  0.69205211  0.42632471  1
  H+  H24  1  0.49900596  0.08593921  0.01057041  1
  H+  H25  1  0.89504714  0.86353207  0.47770916  1
  H+  H26  1  0.80938193  0.38249880  0.17378994  1
  H+  H27  1  0.81178321  0.67512155  0.80885618  1
  H+  H28  1  0.64051819  0.36377828  0.66047948  1
  H+  H29  1  0.59068960  0.76606811  0.49538006  1
  H+  H30  1  0.52667004  0.89599358  0.65997976  1
  H+  H31  1  0.50537347  0.39765545  0.14456208  1
  H+  H32  1  0.13733766  0.84710299  0.33264647  1
  H+  H33  1  0.67869883  0.83888702  0.47436854  1
  H+  H34  1  0.38804939  0.09272384  0.31998306  1
  H+  H35  1  0.15285380  1.04322567  0.00239436  1
  H+  H36  1  0.47853626  0.89418756  0.89153520  1
  H+  H37  1  0.02775166  0.14660515  0.82496381  1
  H+  H38  1  0.36806771  0.24020255  -0.00161286  1
  H+  H39  1  0.86119668  0.63633566  0.34016329  1
  H+  H40  1  0.37082607  0.83121100  0.33204754  1
  H+  H41  1  0.36172569  0.13157518  0.67136982  1
  H+  H42  1  0.94483782  0.63946591  1.02391904  1
  H+  H43  1  0.59413259  0.37424269  0.82551369  1
  H+  H44  1  0.13874622  0.41013687  0.33144237  1
  H+  H45  1  0.52954432  0.14712482  0.82134311  1
  H+  H46  1  0.28664413  0.90145850  0.84442807  1
  H+  H47  1  0.12380547  0.47027594  -0.04875043  1
  H+  H48  1  0.71987303  0.36884684  0.84162615  1
  H+  H49  1  0.58817815  0.66438695  0.53244860  1
  H+  H50  1  0.89872576  0.26632108  0.51433591  1
  H+  H51  1  0.12857382  0.90986908  1.01573465  1
  H+  H52  1  0.85372269  0.22408295  -0.00048045  1
  H+  H53  1  0.78593909  0.38668321  0.35748206  1
  H+  H54  1  0.51995129  0.12159508  0.14886922  1
  H+  H55  1  0.59688577  0.47923167  0.99100454  1
  H+  H56  1  0.92615870  0.37937735  0.17298840  1
  H+  H57  1  0.13254254  0.85506192  0.50533334  1
  H+  H58  1  0.87405412  0.48904108  0.82170253  1
  H+  H59  1  0.11702874  0.13188627  0.67284216  1
  H+  H60  1  0.11879533  0.64242635  0.49608739  1
  H+  H61  1  0.46950093  0.60734695  0.83270144  1
  H+  H62  1  0.84717030  0.47628949  0.01527934  1
  H+  H63  1  0.61188941  0.21751895  0.34711382  1
  H+  H64  1  0.02335818  0.30755987  0.06045340  1
  H+  H65  1  0.85812406  0.13655616  0.00113575  1
  H+  H66  1  0.58362577  0.41542568  0.72874427  1
  H+  H67  1  0.76517837  0.88844651  0.34157214  1
  H+  H68  1  0.96214719  0.36107709  1.00417772  1
  H+  H69  1  0.33269395  0.46088677  0.00159725  1
  H+  H70  1  0.69045008  0.36653386  0.15735871  1
  H+  H71  1  0.14952081  0.36704714  0.18375468  1
  H+  H72  1  0.73810866  0.88051787  -0.01336748  1
  H+  H73  1  0.61292124  0.22812800  0.67077723  1
  H+  H74  1  0.83650826  0.92153778  0.06501776  1
  H+  H75  1  0.13218683  0.27590950  0.83384849  1
  H+  H76  1  0.39009021  0.74437082  0.84664218  1
  H+  H77  1  0.89627380  0.27981355  0.17179059  1
  H+  H78  1  0.65034435  0.00839364  0.18135758  1
  H+  H79  1  0.23243323  0.62459828  0.50108405  1
  H+  H80  1  0.72154288  0.10838405  -0.01280463  1
  H+  H81  1  0.08481896  0.56889111  0.64780542  1
  H+  H82  1  0.42345160  0.60317139  0.25693675  1
  H+  H83  1  0.98382305  0.86804370  0.66535794  1
  H+  H84  1  0.59868079  0.88106969  0.81662190  1
  H+  H85  1  0.88710938  0.85564872  1.00432368  1
  H+  H86  1  0.10882150  0.37785187  0.82441838  1
  H+  H87  1  0.16425149  0.15262414  0.38850872  1
  H+  H88  1  0.27353454  0.14736276  0.00706176  1
  H+  H89  1  1.02499264  0.63825622  0.49892154  1
  H+  H90  1  0.60763053  -0.02695203  1.00553292  1
  H+  H91  1  0.16042798  0.66065659  0.00266821  1
  H+  H92  1  0.02767457  0.87942699  0.48289171  1
  H+  H93  1  0.11051851  0.23042134  0.16779679  1
  H+  H94  1  0.88249998  0.77389940  0.32993206  1
  H+  H95  1  0.62610840  0.74183547  0.15876195  1
  H+  H96  1  0.38532986  0.35012537  0.32882905  1
  H+  H97  1  0.51518119  0.36792051  0.33934490  1
  H+  H98  1  0.90804862  0.91183640  0.81557385  1
  H+  H99  1  0.47568296  0.63049343  0.65128815  1
  H+  H100  1  0.92450842  0.57850927  0.56587922  1
  H+  H101  1  0.34242775  0.38102570  0.48568271  1
  H+  H102  1  0.37117645  0.01432745  0.50507036  1
  H+  H103  1  0.27491707  0.87156634  0.33769670  1
  H+  H104  1  0.27253326  0.13212691  0.67007715  1
  H+  H105  1  0.13687687  1.02027117  0.66477462  1
  H+  H106  1  0.73904164  0.12692645  0.65872722  1
  H+  H107  1  0.63367552  0.01861689  0.33362914  1
  H+  H108  1  0.59324297  0.12208765  0.49616823  1
  H+  H109  1  0.64387256  0.03248347  0.82871628  1
  H+  H110  1  0.51922664  0.88788042  0.16314802  1
  H+  H111  1  0.39484829  0.62993880  0.18605376  1
  H+  H112  1  0.22701789  0.35779188  0.33738392  1
  H+  H113  1  0.13509686  0.10485930  0.38736061  1
  H+  H114  1  0.17657625  0.10318252  0.90368487  1
  H+  H115  1  0.35703427  0.65014158  0.66582891  1
  H+  H116  1  0.34782997  0.38065951  0.99810613  1
  H+  H117  1  0.77391135  0.37874107  0.66727683  1
  H+  H118  1  0.77664167  0.14393524  0.15727265  1
  H+  H119  1  0.29824892  0.65943748  0.82324960  1
  H+  H120  1  0.81431481  0.91981707  0.50607936  1
  H+  H121  1  0.29642618  0.12954314  0.14302757  1
  H+  H122  1  0.91088977  0.28766638  0.33546293  1
  H+  H123  1  0.45861433  0.10411699  0.50530696  1
  H+  H124  1  0.40176330  0.64911306  0.32657564  1
  H+  H125  1  0.83800509  0.48155088  0.16650861  1
  H+  H126  1  0.27495952  0.38068623  0.68117047  1
  H+  H127  1  0.10764923  0.22341736  0.00624243  1
  H+  H128  1  0.91686635  0.63760228  0.80734582  1
  H+  H129  1  0.38819549  0.12790404  0.83101229  1
  H+  H130  1  0.36810037  0.51943417  0.49838437  1
  H+  H131  1  0.62897186  0.58671156  0.50154129  1
  H+  H132  1  0.36896758  0.73787932  0.16921112  1
  H+  H133  1  0.12524866  0.95661337  0.32751766  1
  H+  H134  1  0.12156297  0.62924366  0.30731635  1
  H+  H135  1  0.06827432  0.69562552  0.78706426  1
  H+  H136  1  0.03061798  0.13749722  0.66929444  1
  H+  H137  1  0.89399633  0.37263446  0.84390015  1
  H+  H138  1  0.64176011  0.12016735  0.83283279  1
  H+  H139  1  0.61498700  0.64941871  0.34529456  1
  H+  H140  1  0.00970094  0.61691490  0.17894725  1
  H+  H141  1  0.60514699  0.49741043  0.83322497  1
  H+  H142  1  0.62100728  0.48006555  0.67224605  1
  H+  H143  1  0.21168392  -0.01524227  0.25342909  1
  H+  H144  1  0.61925042  0.64520883  0.66607206  1
  H+  H145  1  0.61584315  -0.00034687  0.48910626  1
  H+  H146  1  0.60782884  0.37137848  0.49846880  1
  H+  H147  1  0.15929698  0.80877558  0.63436304  1
  H+  H148  1  0.88623953  0.50328183  0.65579248  1
  H+  H149  1  0.62880965  0.86483092  0.33114647  1
  H+  H150  1  0.59576793  0.21813918  0.13678274  1
  H+  H151  1  0.11688905  0.88913960  0.68884173  1
  H+  H152  1  0.08414324  0.25040057  0.36747095  1
  H+  H153  1  0.47092242  0.87922317  0.50812774  1
  H+  H154  1  0.14516463  0.12813920  0.00161957  1
  H+  H155  1  0.15846550  0.88563901  0.86129051  1
  H+  H156  1  0.54685486  0.77325678  0.88231373  1
  H+  H157  1  0.36129165  0.46762244  0.33966607  1
  H+  H158  1  0.47153466  0.85771624  0.01533104  1
  H+  H159  1  0.00641442  0.35692931  0.68098726  1
  H+  H160  1  0.35720100  0.20176872  0.33259700  1
  H+  H161  1  0.48154814  0.63074672  0.33360460  1
  H+  H162  1  0.35344983  0.88280238  0.49413528  1
  H+  H163  1  0.63581213  0.27484877  0.83792952  1
  H+  H164  1  0.46073896  0.55379508  1.07275156  1
  H+  H165  1  0.47746197  0.09594591  0.32150998  1
  H+  H166  1  0.59908736  0.75150443  0.83659194  1
  H+  H167  1  0.36881521  -0.01687033  1.03687502  1
  H+  H168  1  0.61629131  0.14115201  0.67058757  1
  H+  H169  1  0.69729776  0.57720805  0.83537122  1
  H+  H170  1  0.39100385  0.87057437  0.66271407  1
  H+  H171  1  0.87790192  0.61061175  0.17541937  1
  H+  H172  1  0.15738379  0.08513580  0.13973224  1
  H+  H173  1  0.87874493  0.12507556  0.16715625  1
  H+  H174  1  0.66793185  0.84249094  0.93132339  1
  H+  H175  1  0.89394619  0.35115542  0.52451816  1
  H+  H176  1  0.85517634  0.19881966  0.72250236  1
  H+  H177  1  0.90425623  0.13299694  0.64747764  1
  H+  H178  1  0.61980197  0.38157260  0.98930023  1
  H+  H179  1  0.77993562  0.14713339  0.81664745  1
  H+  H180  1  0.73618365  0.03191058  0.21346267  1
  H+  H181  1  0.16127506  0.66025415  1.03695499  1
  H+  H182  1  0.08676850  0.13520065  0.17942177  1
  H+  H183  1  0.62248116  0.64716234  0.15530300  1
  H+  H184  1  0.71760113  0.17115838  0.51652567  1
  H+  H185  1  0.76857019  0.61839092  0.49499175  1
  H+  H186  1  0.14814935  0.53514751  0.49563541  1
  H+  H187  1  0.90219708  0.29187988  0.61395611  1
  H+  H188  1  0.64049324  0.35776526  0.33976875  1
  H+  H189  1  0.04211705  0.90019699  0.84233864  1
  H+  H190  1  0.17113645  0.57723209  0.79424078  1
  H+  H191  1  1.01804082  0.38360768  0.82628781  1
  H+  H192  1  0.79970738  0.12928669  0.49332943  1
  H+  H193  1  0.92175291  0.33904761  0.90120918  1
  H+  H194  1  0.88049972  0.86398722  0.33259799  1
  H+  H195  1  0.86046565  0.98494263  0.16165333  1
  H+  H196  1  0.61435745  0.13021053  0.34329387  1
  H+  H197  1  0.59115608  0.39658622  0.13763131  1
  H+  H198  1  0.96579478  0.12315113  0.17367576  1
  H+  H199  1  0.04552905  0.91781898  0.00663251  1
  H+  H200  1  0.26978890  0.39518140  0.82716650  1
  H+  H201  1  -0.00150694  0.60580800  0.70925157  1
  H+  H202  1  0.38577676  0.64392645  0.83401348  1
  H+  H203  1  0.16239951  0.80270189  0.84713476  1
  H+  H204  1  0.47684283  0.11182412  0.65764452  1
  H+  H205  1  0.60101224  0.90465802  0.48878414  1
  H+  H206  1  0.34143506  0.86151295  0.06472628  1
  H+  H207  1  0.07188355  0.40344365  0.75714723  1
  H+  H208  1  0.39280140  0.88034153  0.85911685  1
  H+  H209  1  1.05467179  0.41873697  0.33114393  1
  H+  H210  1  0.14157274  0.12608901  0.84302406  1
  H+  H211  1  0.27608205  0.54040136  0.95478750  1
  H+  H212  1  0.87514082  0.36433253  -0.00336244  1
  H+  H213  1  0.62035849  0.73505630  0.66496991  1
  H+  H214  1  0.23181051  0.35673770  0.18707576  1
  H+  H215  1  0.47659696  0.36328259  0.66077415  1
  H+  H216  1  0.90648192  0.89676050  0.18241749  1
  H+  H217  1  0.45420638  0.57756891  0.04710480  1
  H+  H218  1  0.82471316  0.70807071  0.00291859  1
  H+  H219  1  0.84801804  0.93197155  0.71369680  1
  H+  H220  1  0.07683735  0.65507208  0.25949121  1
  H+  H221  1  0.73429721  0.62005641  0.65613034  1
  H+  H222  1  0.36554111  0.74033820  0.49003223  1
  H+  H223  1  0.49679635  0.62022922  0.49888050  1
  H+  H224  1  0.16104877  0.07505284  0.60220369  1
  H+  H225  1  0.21346389  0.85295511  1.02498322  1
  H+  H226  1  0.10381567  -0.12978708  0.16815278  1
  H+  H227  1  0.60190960  0.10889340  1.00053956  1
  H+  H228  1  0.89699535  0.86739745  0.65013961  1
  H+  H229  1  0.36314014  0.73154662  0.03012142  1
  H+  H230  1  0.62249556  0.52847590  0.16471670  1
  H+  H231  1  0.23420824  0.86719456  0.68049226  1
  H+  H232  1  0.74021803  0.64377492  0.32109456  1
  H+  H233  1  0.77873355  0.89096448  0.16540256  1
  H+  H234  1  0.63476034  0.26462206  0.50632327  1
  H+  H235  1  0.13987771  0.76608570  0.74509587  1
  H+  H236  1  0.63363706  0.86231093  0.17581214  1
  H+  H237  1  0.57136958  0.14164307  0.06791879  1
  H+  H238  1  0.00414443  0.15864805  0.35743136  1
  H+  H239  1  0.37521074  0.86148662  0.16989361  1
  H+  H240  1  0.22234892  0.85440322  0.50268026  1
  H+  H241  1  0.86832690  0.23473317  0.82273547  1
  H+  H242  1  0.85927460  0.12262295  0.33435883  1
  H+  H243  1  0.97208205  0.11308440  0.99108277  1
  H+  H244  1  0.25971372  0.39497589  0.49205483  1
  H+  H245  1  0.76719464  0.12940404  0.34642202  1
  H+  H246  1  0.62948540  0.77657997  0.33529706  1
  H+  H247  1  0.12248604  0.74527436  0.50189561  1
  H+  H248  1  0.06001832  0.77156380  0.02814212  1
  H+  H249  1  0.50285799  0.37321202  0.82188261  1
  H+  H250  1  0.12574608  0.34681608  0.99692573  1
  H+  H251  1  0.13989623  0.76074206  0.31536604  1
  H+  H252  1  0.82832561  0.62182457  0.00516292  1
  H+  H253  1  0.37555512  0.61369341  0.49459401  1
  H+  H254  1  0.84536563  0.44837546  0.88553895  1
  H+  H255  1  0.11544477  0.09819857  0.51151389  1
  H+  H256  1  0.04773009  0.34685219  0.52210889  1
  H+  H257  1  0.91130941  0.79156240  0.83758114  1
  H+  H258  1  0.21679330  0.35101092  0.99010525  1
  H+  H259  1  0.38370321  0.77854424  0.65746232  1
  H+  H260  1  0.12671216  1.01564772  0.50761089  1
  H+  H261  1  0.23460166  0.89052703  0.17610656  1
  H+  H262  1  0.46496165  0.36200614  -0.01890810  1
  H+  H263  1  0.60132746  0.45810923  0.34356301  1
  H+  H264  1  0.99731219  0.87485031  0.17534247  1
  H+  H265  1  0.32527798  0.90659644  0.43143230  1
  H+  H266  1  0.13464398  0.35172067  0.66753495  1
  H+  H267  1  0.72782112  0.35149365  0.50973768  1
  H+  H268  1  0.86959087  0.46380811  0.50727336  1
  H+  H269  1  0.70059896  0.60000354  0.98471276  1
  H+  H270  1  0.86972487  1.01988573  0.32229371  1
  H+  H271  1  0.33002434  0.41934931  0.76559063  1
  H+  H272  1  0.87868785  0.73686865  0.66094760  1
  H+  H273  1  0.86983012  -0.02102542  1.00469303  1
  H+  H274  1  0.64970376  0.75488444  0.00617737  1
  H+  H275  1  0.14889334  0.60633674  0.20256261  1
  H+  H276  1  0.93997644  0.80281367  1.01380747  1
  H+  H277  1  0.16407601  0.53259714  0.29968160  1
  H+  H278  1  0.36577087  0.26290372  0.48061113  1
  H+  H279  1  0.14002933  0.26700813  0.65930389  1
  H+  H280  1  0.34381835  0.12226626  0.48858585  1
  H+  H281  1  1.02869760  0.88333476  0.34133661  1
  H+  H282  1  0.63181042  0.65509951  0.00411670  1
  H+  H283  1  0.39000142  0.50263591  0.15074559  1
  H+  H284  1  0.39392475  0.26259155  0.16555313  1
  H+  H285  1  0.30140489  0.68023338  0.31491264  1
  H+  H286  1  0.89315602  0.03803170  0.64687488  1
  H+  H287  1  0.77985342  0.89988028  0.65836530  1
  H+  H288  1  0.33388693  0.66610354  0.09358841  1
  H+  H289  1  0.80742432  0.41027603  0.06898209  1
  H+  H290  1  0.12773740  0.99192426  0.83873512  1
  H+  H291  1  0.32954792  0.41236846  0.40017313  1
  H+  H292  1  0.68926923  0.10263950  0.56923454  1
  H+  H293  1  0.24799542  0.06822373  0.29728523  1
  H+  H294  1  0.58002990  0.91555435  0.10423835  1
  H+  H295  1  0.25594040  0.12373307  0.48563454  1
  H+  H296  1  0.56690243  0.42197743  0.05265855  1
  H+  H297  1  0.61939854  0.69463572  0.08723998  1
  H+  H298  1  0.58980183  0.17451149  0.76259395  1
  H+  H299  1  0.64056829  0.57265648  0.92404272  1
  H+  H300  1  0.39662241  0.82783661  0.96625924  1
  H+  H301  1  0.32022239  0.13897616  0.38935804  1
  H+  H302  1  0.16607004  0.35734557  0.57457090  1
  H+  H303  1  0.92092704  0.83475812  0.90343668  1
  H+  H304  1  0.45346999  0.34946446  0.49290402  1
  H+  H305  1  0.85583178  0.70961001  0.48747911  1
  H+  H306  1  0.34441036  0.92445019  0.74246443  1
  H+  H307  1  0.65033568  0.03435797  0.65477851  1
  H+  H308  1  0.15351974  0.33016507  0.89625943  1
  H+  H309  1  0.08907907  0.45388622  0.67320274  1
  H+  H310  1  0.07639780  0.16633484  0.06770154  1
  H+  H311  1  0.97634721  0.62030945  0.85086312  1
  H+  H312  1  0.86248437  0.69236063  0.74709205  1
  H+  H313  1  0.04437987  0.16942056  0.45417514  1
  H+  H314  1  0.42110137  0.06678388  0.22222631  1
  H+  H315  1  0.66413839  0.83982009  0.58805743  1
  H+  H316  1  0.57118715  0.15349651  0.43476371  1
  H+  H317  1  0.37442879  0.52275946  0.83420500  1
  H+  H318  1  0.08768343  0.16963805  0.76510925  1
  H+  H319  1  0.40113030  0.32640752  0.92315032  1
  H+  H320  1  0.10035942  0.69428688  0.15683780  1
  H+  H321  1  0.09892368  0.91745930  0.43307167  1
  H+  H322  1  0.17555358  0.84158584  0.95573399  1
  H+  H323  1  0.38617656  0.13239314  0.14701986  1
  H+  H324  1  0.89889893  0.08529792  0.26290673  1
  H+  H325  1  0.13592438  0.48066129  0.18170204  1
  H+  H326  1  0.89879172  0.57536961  0.23802455  1
  H+  H327  1  0.65624802  0.34268454  0.92876467  1
  H+  H328  1  0.28426352  0.64284035  0.17955949  1
  H+  H329  1  0.33027168  0.16645739  0.76052693  1
  H+  H330  1  0.38900010  0.27476847  0.66265975  1
  H+  H331  1  0.07142133  0.90061822  0.10811238  1
  H+  H332  1  0.83314611  0.92797017  0.39717713  1
  H+  H333  1  0.84468363  0.40633685  0.44897343  1
  H+  H334  1  0.41409314  0.32228404  0.26814949  1
  H+  H335  1  0.68803733  0.33463276  0.28881248  1
  H+  H336  1  0.40628834  0.83145615  0.23071418  1
  H+  H337  1  0.71671583  0.70044971  0.28104349  1
  H+  H338  1  0.66248001  0.83305446  0.23617990  1
  H+  H339  1  0.87432792  0.64357806  0.66344759  1
  H+  H340  1  0.96509318  0.98276869  0.76928920  1
  H+  H341  1  0.82276180  0.65723251  0.10113394  1
  H+  H342  1  0.00714791  0.76269971  0.08752735  1
  H+  H343  1  0.89024424  0.60317362  0.50600530  1
  H+  H344  1  0.37204646  0.57581555  0.93257341  1
  H+  H345  1  0.37906952  -0.00147287  0.96660289  1
  H+  H346  1  0.16214714  0.56620876  0.96900311  1
  H+  H347  1  0.35145361  0.17507890  0.06179247  1
  H+  H348  1  0.18681889  0.05665207  0.20034729  1
  H+  H349  1  0.61228714  0.88764562  0.00801846  1
  H+  H350  1  0.36792038  0.33393209  0.17146730  1
  H+  H351  1  0.66455573  0.07938344  0.92612218  1
  H+  H352  1  0.82709794  0.65832771  0.40054699  1
  H+  H353  1  0.14368491  0.55785595  0.59996917  1
  H+  H354  1  0.41285926  0.84046210  0.56820733  1
  H+  H355  1  0.90234619  0.99892009  0.48800318  1
  H+  H356  1  0.36409128  0.38098471  0.68407628  1
  H+  H357  1  0.09120229  0.92506167  0.74586807  1
  H+  H358  1  0.95431043  0.10462873  0.55766330  1
  H+  H359  1  0.60835753  0.31992782  0.20042203  1
  H+  H360  1  0.56934553  0.92107697  0.39887124  1
  H+  H361  1  0.93518465  0.86327538  0.24499759  1
  H+  H362  1  0.51193616  0.87614880  0.33991280  1
  H+  H363  1  0.67664804  0.07653339  0.27552522  1
  H+  H364  1  0.90406344  0.03860979  0.83000696  1
  H+  H365  1  0.85636625  0.36805633  0.67195786  1
  H+  H366  1  0.18139765  0.57079695  0.86553644  1
  H+  H367  1  0.92664336  0.59609085  0.96001351  1
  H+  H368  1  0.88524699  0.52150932  0.33653602  1
  H+  H369  1  0.08047036  0.40049864  0.08362424  1
  H+  H370  1  0.82814292  0.17615748  0.09344009  1
  H+  H371  1  0.67025598  0.58064302  0.59991360  1
  H+  H372  1  0.97236449  0.60733287  0.32120480  1
  H+  H373  1  0.84059063  0.16041689  0.40372974  1
  H+  H374  1  0.65965922  0.58958447  0.22520327  1
  H+  H375  1  0.66564351  0.32837431  0.60141369  1
  H+  H376  1  0.41057136  0.59618895  0.59562129  1
  H+  H377  1  0.16440949  0.32335133  0.28060574  1
  H+  H378  1  0.93050687  0.34001869  0.27440832  1
  H+  H379  1  0.89454475  0.14134110  0.48477591  1
  H+  H380  1  0.41063456  0.07557229  0.60107446  1
  H+  H381  1  0.17865304  0.85494610  0.23894045  1
  H+  H382  1  0.59026203  0.92464854  0.71659208  1
  H+  H383  1  0.57662654  0.39976758  0.43967697  1
  O2-  O384  1  0.07241165  0.16959851  0.15279380  1
  O2-  O385  1  0.04484156  0.14223150  0.49490488  1
  O2-  O386  1  0.08875718  0.17486033  0.81089351  1
  O2-  O387  1  0.10572795  0.42284876  0.16195728  1
  O2-  O388  1  0.08677487  0.32834974  0.50564139  1
  O2-  O389  1  0.07746689  0.40896153  0.80681335  1
  O2-  O390  1  0.07369498  0.64150339  0.18059079  1
  O2-  O391  1  0.08729935  0.67379053  0.48489148  1
  O2-  O392  1  0.12964057  0.73743885  0.78520477  1
  O2-  O393  1  0.04972146  0.86127633  0.14393999  1
  O2-  O394  1  0.09133238  0.91268462  0.47829006  1
  O2-  O395  1  0.10211618  0.93025576  0.82658154  1
  O2-  O396  1  0.35925857  0.16663585  0.13189539  1
  O2-  O397  1  0.31355905  0.14778440  0.46639041  1
  O2-  O398  1  0.33353889  0.17113220  0.80679010  1
  O2-  O399  1  0.36332932  0.50614150  0.18913230  1
  O2-  O400  1  0.31799529  0.41892225  0.47408341  1
  O2-  O401  1  0.33060498  0.42676110  0.81418769  1
  O2-  O402  1  0.34204483  0.67344350  0.15866826  1
  O2-  O403  1  0.33451473  0.68196121  0.47061600  1
  O2-  O404  1  0.36508481  0.69026219  0.82249675  1
  O2-  O405  1  0.32265643  0.90339279  0.14396056  1
  O2-  O406  1  0.32013884  0.90905980  0.47663463  1
  O2-  O407  1  0.34650257  0.92783348  0.82706945  1
  O2-  O408  1  0.57787326  0.15737307  0.12864385  1
  O2-  O409  1  0.56843463  0.15605965  0.48042280  1
  O2-  O410  1  0.59094840  0.17607481  0.80862635  1
  O2-  O411  1  0.56422355  0.43182131  0.12669440  1
  O2-  O412  1  0.57755573  0.40230902  0.48461686  1
  O2-  O413  1  0.56493189  0.40428134  0.80859099  1
  O2-  O414  1  0.60086133  0.68480967  0.13639933  1
  O2-  O415  1  0.56304161  0.65288253  0.49170157  1
  O2-  O416  1  0.57028358  0.65729855  0.80232781  1
  O2-  O417  1  0.58030059  0.91392125  0.14962730  1
  O2-  O418  1  0.57645627  0.94063659  0.47504159  1
  O2-  O419  1  0.58532876  0.92325774  0.79689330  1
  O2-  O420  1  0.83392602  0.18267018  0.13894008  1
  O2-  O421  1  0.85520180  0.16317175  0.47189234  1
  O2-  O422  1  0.84070987  0.17796835  0.80216510  1
  O2-  O423  1  0.79877805  0.42102241  0.14870028  1
  O2-  O424  1  0.83940743  0.40253486  0.49419614  1
  O2-  O425  1  0.84023901  0.43256475  0.84258884  1
  O2-  O426  1  0.83120044  0.65964707  0.14561994  1
  O2-  O427  1  0.82829148  0.64746383  0.47806627  1
  O2-  O428  1  0.87001349  0.69743711  0.79398168  1
  O2-  O429  1  0.83905141  0.92364306  0.15038786  1
  O2-  O430  1  0.85939487  0.93778795  0.47555684  1
  O2-  O431  1  0.90779250  0.95529770  0.78724819  1
  O2-  O432  1  0.19481822  0.06509432  0.15529881  1
  O2-  O433  1  0.15360346  0.07563869  0.52324187  1
  O2-  O434  1  0.17385425  0.09799990  0.85870314  1
  O2-  O435  1  0.17073832  0.32695830  0.19692113  1
  O2-  O436  1  0.16893795  0.38765615  0.53519612  1
  O2-  O437  1  0.15556212  0.33594820  0.85082317  1
  O2-  O438  1  0.18896019  0.58487876  0.21374947  1
  O2-  O439  1  0.17151200  0.59067436  0.51597737  1
  O2-  O440  1  0.20232315  0.60985510  0.83009926  1
  O2-  O441  1  0.18465067  0.88733422  0.20044190  1
  O2-  O442  1  0.16148458  0.82215471  0.51949899  1
  O2-  O443  1  0.18672474  0.85305763  0.87600813  1
  O2-  O444  1  0.42144492  0.06870549  0.17674547  1
  O2-  O445  1  0.39925011  0.07394925  0.52184083  1
  O2-  O446  1  0.42314760  0.10225030  0.84847016  1
  O2-  O447  1  0.41323375  0.32170907  0.18255687  1
  O2-  O448  1  0.39232475  0.32603830  0.48375575  1
  O2-  O449  1  0.40396154  0.33296131  0.84876200  1
  O2-  O450  1  0.42462085  0.59892123  0.20432242  1
  O2-  O451  1  0.40249321  0.58150255  0.51154476  1
  O2-  O452  1  0.41015347  0.58538280  0.84992641  1
  O2-  O453  1  0.41058252  0.83413633  0.18581894  1
  O2-  O454  1  0.41128644  0.84058911  0.52211865  1
  O2-  O455  1  0.42183736  0.84923523  0.87821505  1
  O2-  O456  1  0.70056247  0.05704849  0.20322724  1
  O2-  O457  1  0.69438427  0.10965993  0.52300764  1
  O2-  O458  1  0.67301695  0.09041845  0.84753787  1
  O2-  O459  1  0.62620256  0.32890626  0.15784620  1
  O2-  O460  1  0.66616272  0.32445915  0.52206755  1
  O2-  O461  1  0.65963302  0.33466438  0.85572749  1
  O2-  O462  1  0.65867643  0.58864048  0.18011703  1
  O2-  O463  1  0.66309309  0.56385502  0.52005746  1
  O2-  O464  1  0.63887760  0.56040274  0.84727863  1
  O2-  O465  1  0.66757220  0.83547896  0.19083864  1
  O2-  O466  1  0.63176578  0.82815516  0.50185826  1
  O2-  O467  1  0.60105480  0.80094147  0.85999595  1
  O2-  O468  1  0.90418404  0.09214010  0.18632961  1
  O2-  O469  1  0.95326565  0.09806551  0.51171934  1
  O2-  O470  1  0.92149279  0.09367741  0.85148117  1
  O2-  O471  1  0.93552437  0.33611256  0.19261149  1
  O2-  O472  1  0.91935299  0.31699274  0.54106313  1
  O2-  O473  1  0.92404029  0.34082913  0.85576885  1
  O2-  O474  1  0.90199129  0.57422460  0.19236198  1
  O2-  O475  1  0.92626962  0.57870873  0.52021714  1
  O2-  O476  1  0.94829237  0.60466364  0.81113551  1
  O2-  O477  1  0.95301948  0.89028112  0.20357065  1
  O2-  O478  1  0.91669782  0.82338963  0.46858774  1
  O2-  O479  1  0.93336121  0.84710712  0.85945566  1
  O2-  O480  1  0.19715599  0.02528262  0.27320520  1
  O2-  O481  1  0.16614343  0.07973300  0.64754472  1
  O2-  O482  1  0.18160262  0.10372223  0.98676031  1
  O2-  O483  1  0.16576506  0.33405176  0.32481145  1
  O2-  O484  1  0.16811989  0.32895245  0.64734679  1
  O2-  O485  1  0.15472603  0.32094945  0.97436109  1
  O2-  O486  1  0.19654042  0.59649428  0.28101042  1
  O2-  O487  1  0.12797699  0.55044644  0.64353367  1
  O2-  O488  1  0.17139121  0.52767724  0.94231554  1
  O2-  O489  1  0.17261578  0.82507043  0.31305920  1
  O2-  O490  1  0.16993291  0.83232623  0.67555501  1
  O2-  O491  1  0.16278144  0.84162481  1.00019364  1
  O2-  O492  1  0.41870794  0.06319907  0.30391897  1
  O2-  O493  1  0.41480946  0.07807942  0.64650372  1
  O2-  O494  1  0.39899780  0.02908088  1.00505181  1
  O2-  O495  1  0.41569820  0.32014669  0.31310406  1
  O2-  O496  1  0.41480463  0.33607090  0.65169179  1
  O2-  O497  1  0.40332513  0.32657838  0.96939493  1
  O2-  O498  1  0.42276430  0.60847720  0.31512243  1
  O2-  O499  1  0.41569223  0.60952839  0.63938407  1
  O2-  O500  1  0.33524077  0.55948060  0.96927532  1
  O2-  O501  1  0.40178684  0.80160422  0.31377836  1
  O2-  O502  1  0.41931072  0.84083633  0.64352191  1
  O2-  O503  1  0.40707664  0.82476425  1.01009261  1
  O2-  O504  1  0.67127581  0.08008005  0.32066269  1
  O2-  O505  1  0.68000965  0.09628847  0.64186462  1
  O2-  O506  1  0.66104267  0.07537060  0.97178302  1
  O2-  O507  1  0.67631763  0.32985719  0.33235197  1
  O2-  O508  1  0.66769392  0.32944973  0.64680481  1
  O2-  O509  1  0.65506872  0.34955514  0.97510378  1
  O2-  O510  1  0.69053211  0.64292161  0.29872078  1
  O2-  O511  1  0.67241385  0.58876807  0.64486882  1
  O2-  O512  1  0.63947128  0.57322814  0.96955810  1
  O2-  O513  1  0.66056559  0.83520534  0.31709293  1
  O2-  O514  1  0.67083681  0.84292105  0.63261862  1
  O2-  O515  1  0.67555189  0.84999530  0.97588388  1
  O2-  O516  1  0.89422338  0.08136216  0.30858940  1
  O2-  O517  1  0.93055880  0.09918024  0.63322619  1
  O2-  O518  1  0.91156358  0.08339435  0.97637906  1
  O2-  O519  1  0.93422645  0.34606066  0.31931056  1
  O2-  O520  1  0.89975260  0.29116274  0.66061901  1
  O2-  O521  1  0.90772305  0.33703853  0.98096749  1
  O2-  O522  1  0.90884770  0.57907119  0.31653306  1
  O2-  O523  1  0.91629865  0.56778535  0.64286813  1
  O2-  O524  1  0.90306287  0.58597519  1.00107369  1
  O2-  O525  1  0.91504431  0.83684093  0.32005868  1
  O2-  O526  1  0.92795956  0.83564841  0.64371049  1
  O2-  O527  1  0.90656402  0.81742818  0.98542937  1
  O2-  O528  1  0.07784260  0.16292474  0.02283657  1
  O2-  O529  1  0.03211591  0.20401778  0.38773396  1
  O2-  O530  1  0.08836705  0.16401193  0.68865888  1
  O2-  O531  1  0.05448617  0.36672338  0.04555221  1
  O2-  O532  1  0.11787346  0.45251766  0.33244867  1
  O2-  O533  1  0.06681905  0.39651801  0.69479241  1
  O2-  O534  1  0.00025990  0.74312394  0.04495771  1
  O2-  O535  1  0.08300289  0.65411039  0.30443725  1
  O2-  O536  1  0.00546806  0.60463205  0.66492287  1
  O2-  O537  1  0.09883332  0.94184135  0.03026954  1
  O2-  O538  1  0.08887777  0.90639866  0.35450010  1
  O2-  O539  1  0.08663819  0.92082547  0.70062872  1
  O2-  O540  1  0.33908016  0.17808252  0.01625777  1
  O2-  O541  1  0.33031533  0.14048900  0.34418717  1
  O2-  O542  1  0.33201516  0.16194922  0.68719283  1
  O2-  O543  1  0.31082755  0.40144153  0.01577203  1
  O2-  O544  1  0.33490629  0.40841497  0.35447499  1
  O2-  O545  1  0.33145844  0.40810653  0.70166818  1
  O2-  O546  1  0.32887844  0.66862625  0.04543298  1
  O2-  O547  1  0.35584044  0.71167587  0.33940209  1
  O2-  O548  1  0.32582253  0.67994897  0.68094799  1
  O2-  O549  1  0.31031680  0.89199501  0.07581563  1
  O2-  O550  1  0.33564543  0.89821907  0.35279924  1
  O2-  O551  1  0.33916879  0.92035580  0.69751358  1
  O2-  O552  1  0.56262547  0.12922908  0.01850156  1
  O2-  O553  1  0.57950961  0.15567915  0.35810435  1
  O2-  O554  1  0.58268683  0.16709444  0.68639953  1
  O2-  O555  1  0.57061393  0.41726215  0.00693983  1
  O2-  O556  1  0.57622634  0.39819948  0.35582660  1
  O2-  O557  1  0.59187441  0.41837663  0.68399078  1
  O2-  O558  1  0.64475181  0.70535211  0.03029158  1
  O2-  O559  1  0.57833090  0.67048374  0.36411593  1
  O2-  O560  1  0.58863723  0.67529047  0.68074662  1
  O2-  O561  1  0.57903368  0.91445121  0.02401587  1
  O2-  O562  1  0.57206723  0.91350333  0.35388391  1
  O2-  O563  1  0.58945821  0.92693384  0.67143164  1
  O2-  O564  1  0.82520440  0.16459659  0.01602764  1
  O2-  O565  1  0.83147617  0.15950762  0.35690096  1
  O2-  O566  1  0.85555008  0.19843555  0.67651870  1
  O2-  O567  1  0.81140109  0.41349123  0.02367130  1
  O2-  O568  1  0.84728242  0.42096741  0.36924854  1
  O2-  O569  1  0.83613751  0.40911793  0.67862499  1
  O2-  O570  1  0.79379066  0.64809864  0.01836122  1
  O2-  O571  1  0.83235307  0.66830595  0.35529105  1
  O2-  O572  1  0.84653250  0.67566503  0.67830564  1
  O2-  O573  1  0.83938726  0.91831317  0.02006228  1
  O2-  O574  1  0.82800767  0.92115147  0.35207945  1
  O2-  O575  1  0.84207501  0.93278882  0.66901389  1
