# generated using pymatgen
data_Cs27Sn13Pb14I81
_symmetry_space_group_name_H-M   'P 1'
_cell_length_a   18.97271049
_cell_length_b   18.98242504
_cell_length_c   18.97436695
_cell_angle_alpha   89.99996585
_cell_angle_beta   90.00066920
_cell_angle_gamma   89.99923909
_symmetry_Int_Tables_number   1
_chemical_formula_structural   Cs27Sn13Pb14I81
_chemical_formula_sum   'Cs27 Sn13 Pb14 I81'
_cell_volume   6833.58134306
_cell_formula_units_Z   1
loop_
 _symmetry_equiv_pos_site_id
 _symmetry_equiv_pos_as_xyz
  1  'x, y, z'
loop_
 _atom_site_type_symbol
 _atom_site_label
 _atom_site_symmetry_multiplicity
 _atom_site_fract_x
 _atom_site_fract_y
 _atom_site_fract_z
 _atom_site_occupancy
  Cs  Cs0  1  0.00181975  0.00205446  -0.00074284  1
  Cs  Cs1  1  0.00225131  -0.00218397  0.33234923  1
  Cs  Cs2  1  -0.00090881  -0.00065174  0.66757675  1
  Cs  Cs3  1  -0.00040375  0.33855705  0.00057944  1
  Cs  Cs4  1  0.00352166  0.33667597  0.32994438  1
  Cs  Cs5  1  -0.00828385  0.33418573  0.66859341  1
  Cs  Cs6  1  0.00164634  0.65823887  -0.00392150  1
  Cs  Cs7  1  -0.00867094  0.66915596  0.33441720  1
  Cs  Cs8  1  0.00074377  0.66463750  0.66796012  1
  Cs  Cs9  1  0.33350494  0.00081992  -0.00108127  1
  Cs  Cs10  1  0.33158407  0.00071662  0.33474169  1
  Cs  Cs11  1  0.33403876  -0.00124388  0.66627068  1
  Cs  Cs12  1  0.33259791  0.33196577  0.00336347  1
  Cs  Cs13  1  0.33153890  0.33277960  0.33396127  1
  Cs  Cs14  1  0.33634985  0.33348123  0.66398502  1
  Cs  Cs15  1  0.33429066  0.66433371  -0.00104880  1
  Cs  Cs16  1  0.33519619  0.66725176  0.33535980  1
  Cs  Cs17  1  0.33311896  0.66741974  0.66647858  1
  Cs  Cs18  1  0.66656783  0.00015479  -0.00014006  1
  Cs  Cs19  1  0.67013615  -0.00065761  0.33309063  1
  Cs  Cs20  1  0.66684870  0.00197050  0.66719243  1
  Cs  Cs21  1  0.66758863  0.33255763  -0.00179246  1
  Cs  Cs22  1  0.66872302  0.33218116  0.33535461  1
  Cs  Cs23  1  0.66986667  0.33055797  0.66647446  1
  Cs  Cs24  1  0.66479111  0.66854444  0.00858463  1
  Cs  Cs25  1  0.67317708  0.66859318  0.32514316  1
  Cs  Cs26  1  0.66463836  0.66740887  0.66625587  1
  Sn  Sn27  1  0.49961284  0.50124187  0.50064096  1
  Sn  Sn28  1  0.50082938  0.16633661  0.16630797  1
  Sn  Sn29  1  0.83267640  0.16651638  0.16655946  1
  Sn  Sn30  1  0.49986935  0.50002183  0.83265440  1
  Sn  Sn31  1  0.83242693  0.83325398  0.83330529  1
  Sn  Sn32  1  0.49964469  0.83250531  0.50036247  1
  Sn  Sn33  1  0.16733056  0.50033828  0.50022356  1
  Sn  Sn34  1  0.16749264  0.83301886  0.49921424  1
  Sn  Sn35  1  0.16732357  0.16683486  0.83225486  1
  Sn  Sn36  1  0.16706719  0.83293954  0.16693674  1
  Sn  Sn37  1  0.49913119  0.16681483  0.83397634  1
  Sn  Sn38  1  0.50087658  0.83313435  0.83275951  1
  Sn  Sn39  1  0.16677092  0.16675039  0.50137316  1
  Pb  Pb40  1  0.16729883  0.83458952  0.83286740  1
  Pb  Pb41  1  0.16709807  0.50347600  0.16964340  1
  Pb  Pb42  1  0.83321776  0.49718344  0.16650882  1
  Pb  Pb43  1  0.49879504  0.16646479  0.50015503  1
  Pb  Pb44  1  0.16907648  0.49686448  0.83089202  1
  Pb  Pb45  1  0.83623858  0.83502290  0.16371934  1
  Pb  Pb46  1  0.83699815  0.16646680  0.49740906  1
  Pb  Pb47  1  0.49989326  0.49731685  0.16742024  1
  Pb  Pb48  1  0.49840252  0.83539252  0.16694777  1
  Pb  Pb49  1  0.82970761  0.50301741  0.83323807  1
  Pb  Pb50  1  0.16692064  0.16554989  0.16648701  1
  Pb  Pb51  1  0.83315363  0.16523651  0.83485244  1
  Pb  Pb52  1  0.83243026  0.50015463  0.50011505  1
  Pb  Pb53  1  0.83295775  0.83346764  0.50207529  1
  I  I54  1  0.16740849  -0.00205259  0.17273561  1
  I  I55  1  0.17096750  -0.00054886  0.49937786  1
  I  I56  1  0.17199233  0.00257180  0.82911581  1
  I  I57  1  0.16580671  0.33335356  0.16761364  1
  I  I58  1  0.17192517  0.33321356  0.50372318  1
  I  I59  1  0.17130572  0.32880755  0.83050620  1
  I  I60  1  0.16780356  0.67127028  0.16913109  1
  I  I61  1  0.17177719  0.66738864  0.49544896  1
  I  I62  1  0.16608299  0.66646385  0.83418625  1
  I  I63  1  0.50137415  0.00324092  0.16237623  1
  I  I64  1  0.49479601  -0.00265705  0.50321449  1
  I  I65  1  0.49968847  -0.00005520  0.83309487  1
  I  I66  1  0.50184983  0.32918622  0.16272134  1
  I  I67  1  0.49476920  0.33553411  0.50262006  1
  I  I68  1  0.49436735  0.33262751  0.83321426  1
  I  I69  1  0.49805004  0.66689439  0.16391694  1
  I  I70  1  0.49052016  0.66739435  0.50923388  1
  I  I71  1  0.50372995  0.66741631  0.82803037  1
  I  I72  1  0.82945038  0.00267523  0.16600113  1
  I  I73  1  0.83288748  -0.00003957  0.50035918  1
  I  I74  1  0.82780699  -0.00246107  0.83359340  1
  I  I75  1  0.83069999  0.32903002  0.16529149  1
  I  I76  1  0.83225171  0.33319404  0.50031253  1
  I  I77  1  0.83374416  0.33340149  0.83492217  1
  I  I78  1  0.83451344  0.66702441  0.16654061  1
  I  I79  1  0.83812039  0.66690434  0.50027460  1
  I  I80  1  0.83167119  0.67085684  0.83276892  1
  I  I81  1  0.16864283  0.16217368  -0.00242763  1
  I  I82  1  0.16733752  0.16738874  0.33610098  1
  I  I83  1  0.17352639  0.16303341  0.66655082  1
  I  I84  1  0.16711543  0.49969761  -0.00026960  1
  I  I85  1  0.17439992  0.49227284  0.33794724  1
  I  I86  1  0.16946302  0.50617410  0.66280579  1
  I  I87  1  0.16674346  0.83948405  0.00142129  1
  I  I88  1  0.17217352  0.83725545  0.33546497  1
  I  I89  1  0.16812665  0.83282144  0.66353586  1
  I  I90  1  0.49725751  0.16580188  -0.00176581  1
  I  I91  1  0.50106166  0.16619064  0.33132383  1
  I  I92  1  0.49675559  0.16587611  0.66956058  1
  I  I93  1  0.50092178  0.50267121  -0.00315947  1
  I  I94  1  0.49505119  0.50276245  0.33713667  1
  I  I95  1  0.49531253  0.49933341  0.66663621  1
  I  I96  1  0.50154871  0.83204689  -0.00305141  1
  I  I97  1  0.49604196  0.83096340  0.33647989  1
  I  I98  1  0.49751089  0.83515249  0.66697588  1
  I  I99  1  0.83391096  0.16377814  0.00252425  1
  I  I100  1  0.82622456  0.16521341  0.32973662  1
  I  I101  1  0.83210912  0.16607808  0.66682049  1
  I  I102  1  0.83325262  0.50057405  -0.00041453  1
  I  I103  1  0.83167067  0.50030253  0.33343484  1
  I  I104  1  0.83618147  0.49836121  0.66686182  1
  I  I105  1  0.82689767  0.83557489  -0.00365457  1
  I  I106  1  0.83183931  0.83420082  0.33308168  1
  I  I107  1  0.83337075  0.83588121  0.66985901  1
  I  I108  1  -0.00160275  0.16336989  0.16750302  1
  I  I109  1  0.00544322  0.16536666  0.50493132  1
  I  I110  1  0.00267356  0.16246455  0.83087215  1
  I  I111  1  0.00041597  0.49694547  0.16767522  1
  I  I112  1  0.00342275  0.50021137  0.49853264  1
  I  I113  1  0.00009979  0.49994373  0.83256778  1
  I  I114  1  0.00374467  0.83810429  0.17321962  1
  I  I115  1  0.00346815  0.83375070  0.49733049  1
  I  I116  1  -0.00130577  0.83836402  0.83374631  1
  I  I117  1  0.33563322  0.16529139  0.16445029  1
  I  I118  1  0.33053679  0.16563478  0.49882522  1
  I  I119  1  0.33467271  0.16337952  0.83570973  1
  I  I120  1  0.33343718  0.49600137  0.16427519  1
  I  I121  1  0.33364079  0.50084316  0.50391482  1
  I  I122  1  0.33722453  0.50561009  0.83146342  1
  I  I123  1  0.33071569  0.83801407  0.16699127  1
  I  I124  1  0.33325940  0.83339475  0.50238220  1
  I  I125  1  0.33661831  0.83321259  0.83195949  1
  I  I126  1  0.66528775  0.16544751  0.16027600  1
  I  I127  1  0.66655890  0.16670970  0.50159831  1
  I  I128  1  0.66314244  0.16776680  0.83557932  1
  I  I129  1  0.66625039  0.50306295  0.16907383  1
  I  I130  1  0.66231556  0.50363636  0.50426837  1
  I  I131  1  0.66153872  0.49293553  0.82580620  1
  I  I132  1  0.66662769  0.83352175  0.16887772  1
  I  I133  1  0.66288051  0.82946665  0.50255622  1
  I  I134  1  0.66397750  0.83643543  0.82792330  1
