# generated using pymatgen
data_Cs27Sn13Pb14I81
_symmetry_space_group_name_H-M   'P 1'
_cell_length_a   19.00026895
_cell_length_b   19.00010089
_cell_length_c   18.97715632
_cell_angle_alpha   90.00110497
_cell_angle_beta   89.99995133
_cell_angle_gamma   89.99993861
_symmetry_Int_Tables_number   1
_chemical_formula_structural   Cs27Sn13Pb14I81
_chemical_formula_sum   'Cs27 Sn13 Pb14 I81'
_cell_volume   6850.88678178
_cell_formula_units_Z   1
loop_
 _symmetry_equiv_pos_site_id
 _symmetry_equiv_pos_as_xyz
  1  'x, y, z'
loop_
 _atom_site_type_symbol
 _atom_site_label
 _atom_site_symmetry_multiplicity
 _atom_site_fract_x
 _atom_site_fract_y
 _atom_site_fract_z
 _atom_site_occupancy
  Cs  Cs0  1  0.00808246  0.00080547  -0.00583301  1
  Cs  Cs1  1  -0.00268904  -0.00094018  0.33239887  1
  Cs  Cs2  1  -0.00039902  0.00120356  0.66960865  1
  Cs  Cs3  1  0.00134979  0.33297898  -0.00080326  1
  Cs  Cs4  1  -0.00160353  0.33541646  0.33420740  1
  Cs  Cs5  1  -0.00147103  0.33798884  0.66764672  1
  Cs  Cs6  1  0.00292335  0.66772120  0.00218532  1
  Cs  Cs7  1  -0.00076442  0.66534494  0.33212002  1
  Cs  Cs8  1  -0.00181719  0.66053061  0.66775671  1
  Cs  Cs9  1  0.32331056  0.00725161  -0.00663219  1
  Cs  Cs10  1  0.33312670  -0.00057861  0.33391547  1
  Cs  Cs11  1  0.33366280  -0.00055472  0.66619692  1
  Cs  Cs12  1  0.33949475  0.32917337  0.00051803  1
  Cs  Cs13  1  0.33601047  0.33238129  0.33248381  1
  Cs  Cs14  1  0.33167838  0.33338382  0.66368618  1
  Cs  Cs15  1  0.33177991  0.66580893  -0.00375126  1
  Cs  Cs16  1  0.33503088  0.66794665  0.33425634  1
  Cs  Cs17  1  0.33397945  0.66715881  0.66512294  1
  Cs  Cs18  1  0.66738596  0.00040499  -0.00764087  1
  Cs  Cs19  1  0.66907798  -0.00255013  0.33529723  1
  Cs  Cs20  1  0.66671092  -0.00090448  0.66655511  1
  Cs  Cs21  1  0.65797871  0.33421650  -0.00386600  1
  Cs  Cs22  1  0.66677806  0.33128817  0.33160275  1
  Cs  Cs23  1  0.66929139  0.33489447  0.67223743  1
  Cs  Cs24  1  0.66465062  0.66473579  -0.00383003  1
  Cs  Cs25  1  0.66690599  0.67101304  0.33207949  1
  Cs  Cs26  1  0.66732534  0.66546532  0.67303858  1
  Sn  Sn27  1  0.16673457  0.49993943  0.16615809  1
  Sn  Sn28  1  0.83340064  0.49992588  0.16694413  1
  Sn  Sn29  1  0.50021559  0.83406758  0.16681386  1
  Sn  Sn30  1  0.83341565  0.16606443  0.49924700  1
  Sn  Sn31  1  0.50047152  0.83328923  0.49924493  1
  Sn  Sn32  1  0.16691027  0.49994611  0.83469657  1
  Sn  Sn33  1  0.16598769  0.16581563  0.49921270  1
  Sn  Sn34  1  0.83244070  0.83391322  0.16697611  1
  Sn  Sn35  1  0.83354148  0.83369853  0.49964689  1
  Sn  Sn36  1  0.50074125  0.50021111  0.49937645  1
  Sn  Sn37  1  0.83314366  0.16613773  0.16707026  1
  Sn  Sn38  1  0.16600132  0.83388800  0.49948343  1
  Sn  Sn39  1  0.50066372  0.16655255  0.49932774  1
  Pb  Pb40  1  0.16449494  0.16891227  0.16919751  1
  Pb  Pb41  1  0.83348593  0.83331379  0.83381857  1
  Pb  Pb42  1  0.83340122  0.16666393  0.83341467  1
  Pb  Pb43  1  0.50237381  0.16322486  0.16858970  1
  Pb  Pb44  1  0.83527623  0.50000261  0.83730410  1
  Pb  Pb45  1  0.49978584  0.83355192  0.83394131  1
  Pb  Pb46  1  0.16653539  0.16929439  0.83024429  1
  Pb  Pb47  1  0.16673302  0.83190800  0.16861457  1
  Pb  Pb48  1  0.49743344  0.50008858  0.83053925  1
  Pb  Pb49  1  0.49997039  0.16639316  0.83040556  1
  Pb  Pb50  1  0.16819572  0.50003228  0.49907373  1
  Pb  Pb51  1  0.83079780  0.50016685  0.49809031  1
  Pb  Pb52  1  0.50021335  0.50207810  0.16844011  1
  Pb  Pb53  1  0.16654764  0.83113815  0.82993458  1
  I  I54  1  0.16673040  0.00005291  0.16620355  1
  I  I55  1  0.17114168  -0.00024233  0.49909339  1
  I  I56  1  0.16688606  0.00021925  0.83469277  1
  I  I57  1  0.16110808  0.33689321  0.16668683  1
  I  I58  1  0.16711907  0.33086860  0.50044058  1
  I  I59  1  0.16578399  0.33679870  0.83464846  1
  I  I60  1  0.16053468  0.66403727  0.16713459  1
  I  I61  1  0.16739069  0.66921128  0.49992450  1
  I  I62  1  0.16653665  0.66348564  0.83513616  1
  I  I63  1  0.50474147  -0.00449314  0.17550948  1
  I  I64  1  0.49950183  -0.00052702  0.49663395  1
  I  I65  1  0.49977405  -0.00009619  0.83114902  1
  I  I66  1  0.50080237  0.33307674  0.16931924  1
  I  I67  1  0.49765487  0.33266396  0.50051958  1
  I  I68  1  0.49985789  0.33345237  0.83185504  1
  I  I69  1  0.50579842  0.66966395  0.17600470  1
  I  I70  1  0.49765739  0.66806468  0.49631669  1
  I  I71  1  0.49948705  0.66667880  0.82878269  1
  I  I72  1  0.82752077  -0.00057609  0.17444819  1
  I  I73  1  0.82988125  -0.00028132  0.49257178  1
  I  I74  1  0.83417494  -0.00001907  0.83609710  1
  I  I75  1  0.84002694  0.33297742  0.17305025  1
  I  I76  1  0.83416040  0.33048434  0.49597817  1
  I  I77  1  0.83494154  0.33343884  0.82962485  1
  I  I78  1  0.83432973  0.66745306  0.17214163  1
  I  I79  1  0.83453092  0.66976342  0.49573474  1
  I  I80  1  0.83407573  0.66655953  0.82985300  1
  I  I81  1  0.16464670  0.16533835  0.00018965  1
  I  I82  1  0.16923342  0.16577039  0.33750950  1
  I  I83  1  0.16503468  0.16495230  0.66165587  1
  I  I84  1  0.16032559  0.50221856  0.00118190  1
  I  I85  1  0.16267696  0.50041931  0.33094354  1
  I  I86  1  0.17051573  0.49995105  0.66779109  1
  I  I87  1  0.16660706  0.83317903  0.00016565  1
  I  I88  1  0.16718303  0.83350015  0.33713592  1
  I  I89  1  0.16802239  0.83509727  0.66121671  1
  I  I90  1  0.50177101  0.16652785  0.00059028  1
  I  I91  1  0.49711659  0.16929894  0.33746682  1
  I  I92  1  0.50248312  0.16369144  0.66083907  1
  I  I93  1  0.50212331  0.50227498  0.00024910  1
  I  I94  1  0.49605890  0.49851826  0.33654773  1
  I  I95  1  0.49820380  0.50253276  0.66208908  1
  I  I96  1  0.50814230  0.82972029  0.00375590  1
  I  I97  1  0.50120412  0.83247524  0.33551112  1
  I  I98  1  0.50022273  0.83367138  0.66219187  1
  I  I99  1  0.83397249  0.16575757  0.00374491  1
  I  I100  1  0.83352981  0.16604773  0.33460558  1
  I  I101  1  0.83263874  0.16149268  0.66235605  1
  I  I102  1  0.83348423  0.50113987  0.00549183  1
  I  I103  1  0.84117407  0.50040998  0.33034089  1
  I  I104  1  0.83406793  0.49994742  0.66654427  1
  I  I105  1  0.82735580  0.83284960  0.00430669  1
  I  I106  1  0.83256377  0.83371692  0.33419262  1
  I  I107  1  0.83204088  0.83855919  0.66254337  1
  I  I108  1  -0.00368649  0.16189765  0.17403904  1
  I  I109  1  -0.00073880  0.16011254  0.49636096  1
  I  I110  1  0.00009861  0.16719881  0.82988804  1
  I  I111  1  -0.00072289  0.50269001  0.16493327  1
  I  I112  1  -0.00022115  0.50016380  0.50225522  1
  I  I113  1  0.00295501  0.50011886  0.82973784  1
  I  I114  1  -0.00323833  0.83330054  0.17231523  1
  I  I115  1  -0.00083937  0.83952711  0.49588653  1
  I  I116  1  0.00008095  0.83260999  0.83280735  1
  I  I117  1  0.33346140  0.16829254  0.16869597  1
  I  I118  1  0.33353934  0.16460417  0.50202785  1
  I  I119  1  0.33308218  0.16730260  0.83222732  1
  I  I120  1  0.33094321  0.50274748  0.16552858  1
  I  I121  1  0.33594892  0.50063883  0.49875242  1
  I  I122  1  0.32995603  0.50070204  0.84006591  1
  I  I123  1  0.33588561  0.82843062  0.17461851  1
  I  I124  1  0.33406554  0.83491903  0.49672170  1
  I  I125  1  0.33315371  0.83158923  0.83249145  1
  I  I126  1  0.67050483  0.17341070  0.17423251  1
  I  I127  1  0.66714973  0.16376942  0.49563658  1
  I  I128  1  0.66678541  0.16851224  0.83117907  1
  I  I129  1  0.66956006  0.49867383  0.17152852  1
  I  I130  1  0.66320210  0.50034789  0.49702593  1
  I  I131  1  0.66651599  0.49975688  0.83275790  1
  I  I132  1  0.66781458  0.83016079  0.17759140  1
  I  I133  1  0.66682363  0.83614628  0.49551027  1
  I  I134  1  0.66666917  0.83190578  0.82811293  1
