# generated using pymatgen
data_Cs27Sn14Pb13I81
_symmetry_space_group_name_H-M   'P 1'
_cell_length_a   18.96299568
_cell_length_b   18.96123748
_cell_length_c   18.95718086
_cell_angle_alpha   90.00340627
_cell_angle_beta   90.00251993
_cell_angle_gamma   90.00139449
_symmetry_Int_Tables_number   1
_chemical_formula_structural   Cs27Sn14Pb13I81
_chemical_formula_sum   'Cs27 Sn14 Pb13 I81'
_cell_volume   6816.27927706
_cell_formula_units_Z   1
loop_
 _symmetry_equiv_pos_site_id
 _symmetry_equiv_pos_as_xyz
  1  'x, y, z'
loop_
 _atom_site_type_symbol
 _atom_site_label
 _atom_site_symmetry_multiplicity
 _atom_site_fract_x
 _atom_site_fract_y
 _atom_site_fract_z
 _atom_site_occupancy
  Cs  Cs0  1  0.00108677  0.00160440  0.00130287  1
  Cs  Cs1  1  -0.00327927  0.00281567  0.33285306  1
  Cs  Cs2  1  -0.00050426  -0.00063149  0.66544742  1
  Cs  Cs3  1  -0.00439587  0.33108234  0.00731913  1
  Cs  Cs4  1  -0.00164486  0.33095183  0.32812208  1
  Cs  Cs5  1  0.00287856  0.33898527  0.66761694  1
  Cs  Cs6  1  -0.00120290  0.66541511  -0.00100412  1
  Cs  Cs7  1  0.00455786  0.66758661  0.33736624  1
  Cs  Cs8  1  0.00045185  0.66585545  0.66632675  1
  Cs  Cs9  1  0.33387302  0.00068618  -0.00085831  1
  Cs  Cs10  1  0.33284839  -0.00305418  0.33100751  1
  Cs  Cs11  1  0.33306227  0.00109158  0.66874588  1
  Cs  Cs12  1  0.33131502  0.32871437  -0.00037429  1
  Cs  Cs13  1  0.33664012  0.34045551  0.33552459  1
  Cs  Cs14  1  0.33334073  0.33088271  0.66587760  1
  Cs  Cs15  1  0.33397645  0.66910256  -0.00007750  1
  Cs  Cs16  1  0.33321268  0.66543153  0.33246453  1
  Cs  Cs17  1  0.33184685  0.66721516  0.66642048  1
  Cs  Cs18  1  0.66460079  -0.00178664  -0.00023351  1
  Cs  Cs19  1  0.66973955  0.00074456  0.33309774  1
  Cs  Cs20  1  0.66744847  0.00059029  0.66551007  1
  Cs  Cs21  1  0.67218241  0.33613465  0.00172700  1
  Cs  Cs22  1  0.66425634  0.33123235  0.33208940  1
  Cs  Cs23  1  0.66399396  0.33162724  0.66519341  1
  Cs  Cs24  1  0.66685337  0.66701727  -0.00242741  1
  Cs  Cs25  1  0.66259863  0.66765967  0.33332520  1
  Cs  Cs26  1  0.66811347  0.66809198  0.66922421  1
  Sn  Sn27  1  0.16751127  0.83373999  0.50087938  1
  Sn  Sn28  1  0.49987129  0.83284571  0.83317045  1
  Sn  Sn29  1  0.83348540  0.16600212  0.83271917  1
  Sn  Sn30  1  0.16762139  0.50065267  0.83323480  1
  Sn  Sn31  1  0.50088039  0.83417946  0.16649809  1
  Sn  Sn32  1  0.16676332  0.16658097  0.49996019  1
  Sn  Sn33  1  0.83358825  0.83446882  0.83406920  1
  Sn  Sn34  1  0.49966063  0.16607127  0.16662233  1
  Sn  Sn35  1  0.83292092  0.83281605  0.16606950  1
  Sn  Sn36  1  0.16659351  0.83278366  0.83260364  1
  Sn  Sn37  1  0.49890446  0.50048705  0.83326898  1
  Sn  Sn38  1  0.16564204  0.49980990  0.50088095  1
  Sn  Sn39  1  0.83348190  0.50006275  0.49983646  1
  Sn  Sn40  1  0.49933412  0.83342200  0.50035798  1
  Pb  Pb41  1  0.49801654  0.16389304  0.49793750  1
  Pb  Pb42  1  0.83321986  0.50323470  0.16996531  1
  Pb  Pb43  1  0.16927298  0.16659245  0.16965576  1
  Pb  Pb44  1  0.83355761  0.83210227  0.50021170  1
  Pb  Pb45  1  0.16467181  0.16684019  0.83200606  1
  Pb  Pb46  1  0.49959827  0.50213101  0.50221365  1
  Pb  Pb47  1  0.83370474  0.50040570  0.83209720  1
  Pb  Pb48  1  0.83536821  0.16938309  0.50201625  1
  Pb  Pb49  1  0.16665331  0.50008436  0.16606753  1
  Pb  Pb50  1  0.83123719  0.16421681  0.16467648  1
  Pb  Pb51  1  0.16668797  0.83326640  0.16636256  1
  Pb  Pb52  1  0.49988626  0.50059896  0.16353906  1
  Pb  Pb53  1  0.50181235  0.16667203  0.83482676  1
  I  I54  1  0.16529538  -0.00039422  0.16699970  1
  I  I55  1  0.17154837  -0.00167135  0.50418766  1
  I  I56  1  0.16912466  -0.00339142  0.82939603  1
  I  I57  1  0.16850784  0.33324622  0.16565368  1
  I  I58  1  0.16233574  0.33465288  0.50443661  1
  I  I59  1  0.17046768  0.33637067  0.82792337  1
  I  I60  1  0.16859086  0.66705210  0.17149779  1
  I  I61  1  0.16601054  0.66716162  0.50384892  1
  I  I62  1  0.16582172  0.66797718  0.82606247  1
  I  I63  1  0.50308396  -0.00264564  0.16485482  1
  I  I64  1  0.49592916  -0.00458843  0.50542192  1
  I  I65  1  0.49760075  -0.00363720  0.83230504  1
  I  I66  1  0.49878673  0.33098500  0.16569429  1
  I  I67  1  0.49945430  0.33345794  0.49952260  1
  I  I68  1  0.49709074  0.33599433  0.83420580  1
  I  I69  1  0.50329000  0.67054578  0.16810158  1
  I  I70  1  0.49549706  0.67055521  0.49576958  1
  I  I71  1  0.50145170  0.66881497  0.83479343  1
  I  I72  1  0.83140612  -0.00390278  0.16646450  1
  I  I73  1  0.83444348  -0.00019630  0.49864129  1
  I  I74  1  0.83306239  -0.00264783  0.83587635  1
  I  I75  1  0.83189804  0.33319616  0.16501972  1
  I  I76  1  0.83818820  0.33711217  0.50375940  1
  I  I77  1  0.83269236  0.33168312  0.83025250  1
  I  I78  1  0.82655455  0.67110489  0.15856070  1
  I  I79  1  0.83915218  0.66449543  0.50249461  1
  I  I80  1  0.83263309  0.66995875  0.83544770  1
  I  I81  1  0.16598222  0.16662183  -0.00007691  1
  I  I82  1  0.16554207  0.16513607  0.33787909  1
  I  I83  1  0.16717713  0.16589722  0.66389373  1
  I  I84  1  0.17075079  0.50655398  -0.00417423  1
  I  I85  1  0.16328599  0.50175061  0.33717349  1
  I  I86  1  0.16621493  0.50204737  0.66645080  1
  I  I87  1  0.16852684  0.82885079  -0.00371023  1
  I  I88  1  0.16958592  0.83174631  0.33674744  1
  I  I89  1  0.16910226  0.83231496  0.66687203  1
  I  I90  1  0.50002447  0.15977415  0.00257091  1
  I  I91  1  0.49999831  0.16080528  0.33009622  1
  I  I92  1  0.50062602  0.16593678  0.66665745  1
  I  I93  1  0.49578643  0.50641342  -0.00453424  1
  I  I94  1  0.49961436  0.50142702  0.33354877  1
  I  I95  1  0.49924436  0.50566689  0.67022583  1
  I  I96  1  0.50053232  0.83313435  -0.00095887  1
  I  I97  1  0.50014113  0.83711456  0.33330003  1
  I  I98  1  0.49974910  0.82873214  0.66765100  1
  I  I99  1  0.83463028  0.16655068  -0.00337793  1
  I  I100  1  0.83393064  0.16618473  0.33330468  1
  I  I101  1  0.83153225  0.15822401  0.66982510  1
  I  I102  1  0.83339181  0.49809735  -0.00016929  1
  I  I103  1  0.84033755  0.50142671  0.33776530  1
  I  I104  1  0.83592377  0.50342207  0.66440355  1
  I  I105  1  0.83007200  0.83603031  -0.00153524  1
  I  I106  1  0.82963609  0.83073295  0.33124991  1
  I  I107  1  0.83095696  0.83477923  0.66968582  1
  I  I108  1  -0.00022443  0.16579790  0.16662958  1
  I  I109  1  0.00343680  0.16023197  0.50109503  1
  I  I110  1  -0.00301952  0.16168110  0.83211912  1
  I  I111  1  -0.00019053  0.50100698  0.16211718  1
  I  I112  1  0.00210498  0.50359201  0.50664611  1
  I  I113  1  0.00292550  0.50430912  0.82909401  1
  I  I114  1  -0.00271623  0.83254333  0.16352417  1
  I  I115  1  0.00309621  0.83337194  0.50293256  1
  I  I116  1  0.00042011  0.83275411  0.83253806  1
  I  I117  1  0.33697067  0.15802079  0.16396465  1
  I  I118  1  0.32994279  0.17125425  0.50157661  1
  I  I119  1  0.33326929  0.16505535  0.83388273  1
  I  I120  1  0.33351767  0.50240615  0.17149530  1
  I  I121  1  0.33011951  0.49895974  0.50183326  1
  I  I122  1  0.33260208  0.50806438  0.82810635  1
  I  I123  1  0.33658681  0.83644122  0.16481765  1
  I  I124  1  0.33263243  0.83144876  0.50219603  1
  I  I125  1  0.33352101  0.82888804  0.83279949  1
  I  I126  1  0.66347854  0.16335890  0.16687328  1
  I  I127  1  0.66656604  0.16729671  0.49985858  1
  I  I128  1  0.66959387  0.16244356  0.83358012  1
  I  I129  1  0.66651165  0.49869131  0.16681495  1
  I  I130  1  0.66837721  0.50345933  0.50258036  1
  I  I131  1  0.66466926  0.50404421  0.83190052  1
  I  I132  1  0.66555282  0.83640431  0.16391383  1
  I  I133  1  0.66423385  0.83051779  0.50210506  1
  I  I134  1  0.66601157  0.83245031  0.83371527  1
