# generated using pymatgen
data_Cs27Sn13Pb14I81
_symmetry_space_group_name_H-M   'P 1'
_cell_length_a   18.98163524
_cell_length_b   18.98053944
_cell_length_c   18.97178635
_cell_angle_alpha   90.00188701
_cell_angle_beta   89.99827413
_cell_angle_gamma   90.00079314
_symmetry_Int_Tables_number   1
_chemical_formula_structural   Cs27Sn13Pb14I81
_chemical_formula_sum   'Cs27 Sn13 Pb14 I81'
_cell_volume   6835.18698285
_cell_formula_units_Z   1
loop_
 _symmetry_equiv_pos_site_id
 _symmetry_equiv_pos_as_xyz
  1  'x, y, z'
loop_
 _atom_site_type_symbol
 _atom_site_label
 _atom_site_symmetry_multiplicity
 _atom_site_fract_x
 _atom_site_fract_y
 _atom_site_fract_z
 _atom_site_occupancy
  Cs  Cs0  1  -0.00033488  0.00042338  -0.00225071  1
  Cs  Cs1  1  -0.00871890  0.00056655  0.33224835  1
  Cs  Cs2  1  0.00321423  0.00048383  0.66968739  1
  Cs  Cs3  1  0.00085400  0.33398229  -0.00124619  1
  Cs  Cs4  1  -0.00196314  0.33276625  0.33726721  1
  Cs  Cs5  1  0.00076934  0.33326047  0.66686553  1
  Cs  Cs6  1  0.00186999  0.66632131  0.00153917  1
  Cs  Cs7  1  -0.00007480  0.66817438  0.33123103  1
  Cs  Cs8  1  0.00029437  0.66651917  0.66701061  1
  Cs  Cs9  1  0.33419556  -0.00032228  0.00157007  1
  Cs  Cs10  1  0.34240659  0.00247653  0.33494220  1
  Cs  Cs11  1  0.33163112  -0.00025963  0.66413847  1
  Cs  Cs12  1  0.33221967  0.33469344  -0.00093503  1
  Cs  Cs13  1  0.33410227  0.33371300  0.33433935  1
  Cs  Cs14  1  0.33248186  0.33370709  0.66657269  1
  Cs  Cs15  1  0.33414117  0.66719840  0.00242806  1
  Cs  Cs16  1  0.33079528  0.66474094  0.32991484  1
  Cs  Cs17  1  0.33450485  0.66597167  0.66781859  1
  Cs  Cs18  1  0.66624679  0.00139725  0.00647571  1
  Cs  Cs19  1  0.66487642  -0.00220652  0.33079782  1
  Cs  Cs20  1  0.66315159  -0.00484531  0.66202206  1
  Cs  Cs21  1  0.66628410  0.33391615  0.00004240  1
  Cs  Cs22  1  0.66739637  0.33028366  0.33218337  1
  Cs  Cs23  1  0.66926267  0.33630372  0.66768723  1
  Cs  Cs24  1  0.66311506  0.66458775  -0.00184541  1
  Cs  Cs25  1  0.66971318  0.66977127  0.33779266  1
  Cs  Cs26  1  0.66411083  0.66773193  0.66452107  1
  Sn  Sn27  1  0.16610635  0.83295409  0.83292324  1
  Sn  Sn28  1  0.50116382  0.49985485  0.16783768  1
  Sn  Sn29  1  0.16656671  0.83264896  0.50027107  1
  Sn  Sn30  1  0.83251148  0.49994673  0.16581649  1
  Sn  Sn31  1  0.16657108  0.16660670  0.16639595  1
  Sn  Sn32  1  0.16734140  0.50099237  0.50090173  1
  Sn  Sn33  1  0.49922905  0.49970309  0.49893822  1
  Sn  Sn34  1  0.83286356  0.16638236  0.83327852  1
  Sn  Sn35  1  0.83384639  0.83307387  0.83356392  1
  Sn  Sn36  1  0.50006009  0.16653170  0.83304623  1
  Sn  Sn37  1  0.16607883  0.50038083  0.83273492  1
  Sn  Sn38  1  0.83418668  0.50040919  0.83415302  1
  Sn  Sn39  1  0.16689802  0.16668232  0.83432816  1
  Pb  Pb40  1  0.83523331  0.16881126  0.16454694  1
  Pb  Pb41  1  0.83602865  0.83331730  0.50238690  1
  Pb  Pb42  1  0.49979661  0.83627379  0.83350900  1
  Pb  Pb43  1  0.83345251  0.83075726  0.16390590  1
  Pb  Pb44  1  0.16670094  0.83641470  0.16702168  1
  Pb  Pb45  1  0.49720305  0.83072416  0.50007331  1
  Pb  Pb46  1  0.50013551  0.16914378  0.50229588  1
  Pb  Pb47  1  0.83379039  0.49994177  0.50028110  1
  Pb  Pb48  1  0.49997660  0.83054643  0.16666664  1
  Pb  Pb49  1  0.83316762  0.16640110  0.50253336  1
  Pb  Pb50  1  0.16652982  0.16635585  0.49993269  1
  Pb  Pb51  1  0.16627797  0.49847221  0.16693372  1
  Pb  Pb52  1  0.49815092  0.16890459  0.16466859  1
  Pb  Pb53  1  0.49992872  0.49864824  0.83323101  1
  I  I54  1  0.16643049  0.00394071  0.15923392  1
  I  I55  1  0.16506436  -0.00275623  0.50626836  1
  I  I56  1  0.16375380  0.00023049  0.83297228  1
  I  I57  1  0.16682164  0.33104780  0.15953766  1
  I  I58  1  0.16982134  0.33647574  0.50416928  1
  I  I59  1  0.16451418  0.33364703  0.83326322  1
  I  I60  1  0.16740288  0.66645794  0.16382083  1
  I  I61  1  0.17033459  0.66538130  0.50892145  1
  I  I62  1  0.16018961  0.66590426  0.82880511  1
  I  I63  1  0.49815654  0.00058305  0.16507272  1
  I  I64  1  0.49807047  -0.00010646  0.50197705  1
  I  I65  1  0.49844725  0.00424395  0.83375755  1
  I  I66  1  0.50288703  0.33699490  0.16919421  1
  I  I67  1  0.49178324  0.33742299  0.49761747  1
  I  I68  1  0.49844411  0.33087106  0.83335569  1
  I  I69  1  0.50084138  0.66173209  0.16692779  1
  I  I70  1  0.49856519  0.66246091  0.49930515  1
  I  I71  1  0.49994331  0.66653133  0.83346907  1
  I  I72  1  0.83537757  0.00019436  0.16540798  1
  I  I73  1  0.83656276  -0.00027361  0.50184319  1
  I  I74  1  0.83886275  0.00036869  0.83119736  1
  I  I75  1  0.83097222  0.33689731  0.15970601  1
  I  I76  1  0.83686983  0.33382853  0.50376393  1
  I  I77  1  0.83648644  0.33386610  0.83665594  1
  I  I78  1  0.83176642  0.66240737  0.16047393  1
  I  I79  1  0.83124007  0.66631285  0.50294095  1
  I  I80  1  0.84106246  0.66575423  0.83704434  1
  I  I81  1  0.16633978  0.16840010  -0.00320757  1
  I  I82  1  0.16752908  0.16990577  0.33076784  1
  I  I83  1  0.16575051  0.16752560  0.67051357  1
  I  I84  1  0.16616873  0.50128283  -0.00316560  1
  I  I85  1  0.16759553  0.50229118  0.33602760  1
  I  I86  1  0.16692055  0.49797722  0.66825313  1
  I  I87  1  0.16285059  0.83044931  -0.00375432  1
  I  I88  1  0.16823041  0.82669625  0.33646451  1
  I  I89  1  0.16297592  0.83406872  0.66867276  1
  I  I90  1  0.50094063  0.17038578  -0.00358281  1
  I  I91  1  0.49583773  0.16722216  0.33310884  1
  I  I92  1  0.49619722  0.16958138  0.67082590  1
  I  I93  1  0.50071266  0.49748128  0.00180652  1
  I  I94  1  0.49770419  0.49960113  0.33349879  1
  I  I95  1  0.49793924  0.49794730  0.66471019  1
  I  I96  1  0.49663204  0.82988434  -0.00042575  1
  I  I97  1  0.49732059  0.83602577  0.33358261  1
  I  I98  1  0.50226995  0.83060408  0.66697345  1
  I  I99  1  0.83289119  0.16564673  -0.00452362  1
  I  I100  1  0.83735329  0.17024852  0.33264908  1
  I  I101  1  0.83853164  0.17199547  0.67234699  1
  I  I102  1  0.83358668  0.49936155  -0.00203365  1
  I  I103  1  0.83347007  0.49891649  0.33065453  1
  I  I104  1  0.83435753  0.49886689  0.67041706  1
  I  I105  1  0.84170054  0.83568329  -0.00475068  1
  I  I106  1  0.83539857  0.83104399  0.33328066  1
  I  I107  1  0.83523598  0.83005227  0.67132166  1
  I  I108  1  0.00311484  0.16964683  0.15998886  1
  I  I109  1  0.00045327  0.17096394  0.50156217  1
  I  I110  1  0.00075893  0.16742638  0.83674845  1
  I  I111  1  -0.00221998  0.49841474  0.16358353  1
  I  I112  1  0.00332453  0.50258824  0.50201713  1
  I  I113  1  0.00064215  0.49609329  0.83343697  1
  I  I114  1  0.00019098  0.82970145  0.16836474  1
  I  I115  1  0.00422030  0.82538252  0.50278099  1
  I  I116  1  0.00112760  0.83647565  0.82972617  1
  I  I117  1  0.33029639  0.16961867  0.15878511  1
  I  I118  1  0.33302847  0.16590909  0.50372547  1
  I  I119  1  0.33167418  0.16863224  0.83665278  1
  I  I120  1  0.33502979  0.49761615  0.16687066  1
  I  I121  1  0.33196802  0.50281451  0.50104143  1
  I  I122  1  0.33032609  0.49915930  0.83285321  1
  I  I123  1  0.33291708  0.83048829  0.16264002  1
  I  I124  1  0.32913455  0.83207348  0.50925203  1
  I  I125  1  0.32952894  0.83237983  0.82977517  1
  I  I126  1  0.66675464  0.16782894  0.16346244  1
  I  I127  1  0.66652216  0.17045046  0.50309558  1
  I  I128  1  0.66761497  0.17005681  0.83197307  1
  I  I129  1  0.66703953  0.49896602  0.16389565  1
  I  I130  1  0.66424046  0.49793903  0.50074799  1
  I  I131  1  0.66938622  0.49889356  0.83399754  1
  I  I132  1  0.66688828  0.83591260  0.16371462  1
  I  I133  1  0.66666219  0.83141652  0.50265333  1
  I  I134  1  0.66992103  0.83135125  0.83452637  1
