# generated using pymatgen
data_Cs27Sn14Pb13I81
_symmetry_space_group_name_H-M   'P 1'
_cell_length_a   18.96906217
_cell_length_b   18.98654929
_cell_length_c   18.97314060
_cell_angle_alpha   90.00084725
_cell_angle_beta   90.00043092
_cell_angle_gamma   90.00006595
_symmetry_Int_Tables_number   1
_chemical_formula_structural   Cs27Sn14Pb13I81
_chemical_formula_sum   'Cs27 Sn14 Pb13 I81'
_cell_volume   6833.31003918
_cell_formula_units_Z   1
loop_
 _symmetry_equiv_pos_site_id
 _symmetry_equiv_pos_as_xyz
  1  'x, y, z'
loop_
 _atom_site_type_symbol
 _atom_site_label
 _atom_site_symmetry_multiplicity
 _atom_site_fract_x
 _atom_site_fract_y
 _atom_site_fract_z
 _atom_site_occupancy
  Cs  Cs0  1  0.00018322  -0.00491708  0.00271551  1
  Cs  Cs1  1  0.00796494  0.00150826  0.32968234  1
  Cs  Cs2  1  -0.00230197  0.00626356  0.66677118  1
  Cs  Cs3  1  0.00133562  0.33560919  0.00054002  1
  Cs  Cs4  1  -0.00064532  0.33191455  0.33318685  1
  Cs  Cs5  1  -0.00052103  0.33374828  0.66542707  1
  Cs  Cs6  1  -0.00126335  0.66635411  0.00016364  1
  Cs  Cs7  1  -0.00059321  0.66808543  0.33269423  1
  Cs  Cs8  1  0.00249115  0.66303935  0.66688591  1
  Cs  Cs9  1  0.33140193  0.00187818  0.00023739  1
  Cs  Cs10  1  0.33280103  0.00045653  0.33196632  1
  Cs  Cs11  1  0.33469825  -0.00297069  0.66827304  1
  Cs  Cs12  1  0.33354034  0.33513341  -0.00073400  1
  Cs  Cs13  1  0.33417441  0.33091671  0.33257651  1
  Cs  Cs14  1  0.33202227  0.33410051  0.66862834  1
  Cs  Cs15  1  0.33515206  0.66181406  -0.00347664  1
  Cs  Cs16  1  0.33610772  0.66925311  0.33763279  1
  Cs  Cs17  1  0.33178611  0.66796593  0.66612592  1
  Cs  Cs18  1  0.66916796  -0.00186029  -0.00479440  1
  Cs  Cs19  1  0.66447722  -0.00050407  0.33410158  1
  Cs  Cs20  1  0.66812318  0.00148651  0.67009904  1
  Cs  Cs21  1  0.66415812  0.33445754  0.00296075  1
  Cs  Cs22  1  0.66639336  0.33321931  0.33239610  1
  Cs  Cs23  1  0.66900486  0.32984142  0.66598172  1
  Cs  Cs24  1  0.66691923  0.66728368  -0.00077105  1
  Cs  Cs25  1  0.66573230  0.66707687  0.33426841  1
  Cs  Cs26  1  0.66607194  0.66825334  0.66244997  1
  Sn  Sn27  1  0.83328831  0.83314918  0.49959753  1
  Sn  Sn28  1  0.16613168  0.50024508  0.16660813  1
  Sn  Sn29  1  0.50077014  0.49970983  0.50014203  1
  Sn  Sn30  1  0.50015406  0.16646407  0.49958021  1
  Sn  Sn31  1  0.83264964  0.16688891  0.16675915  1
  Sn  Sn32  1  0.83240719  0.50068513  0.49980270  1
  Sn  Sn33  1  0.50018017  0.83418255  0.16672716  1
  Sn  Sn34  1  0.16628067  0.83314756  0.83328911  1
  Sn  Sn35  1  0.50106283  0.83375394  0.49923383  1
  Sn  Sn36  1  0.50107579  0.16551846  0.16709443  1
  Sn  Sn37  1  0.16567845  0.49991136  0.83428993  1
  Sn  Sn38  1  0.16641557  0.16691229  0.83343965  1
  Sn  Sn39  1  0.83344838  0.49992918  0.83343147  1
  Sn  Sn40  1  0.83394969  0.49945340  0.16673236  1
  Pb  Pb41  1  0.16953165  0.83032200  0.16472134  1
  Pb  Pb42  1  0.49850498  0.83326166  0.83323700  1
  Pb  Pb43  1  0.83537572  0.16908539  0.83636044  1
  Pb  Pb44  1  0.83149678  0.83310761  0.16873691  1
  Pb  Pb45  1  0.83160739  0.16654746  0.49781061  1
  Pb  Pb46  1  0.16608177  0.49994782  0.49970064  1
  Pb  Pb47  1  0.16954767  0.16661176  0.50219520  1
  Pb  Pb48  1  0.16627479  0.83345331  0.50183044  1
  Pb  Pb49  1  0.50017800  0.50002451  0.16864907  1
  Pb  Pb50  1  0.16695096  0.16870028  0.16493028  1
  Pb  Pb51  1  0.83548540  0.83097720  0.83055425  1
  Pb  Pb52  1  0.50045806  0.49996395  0.83022477  1
  Pb  Pb53  1  0.49846348  0.16675610  0.83394168  1
  I  I54  1  0.16432057  -0.00007625  0.16406781  1
  I  I55  1  0.16531004  -0.00001065  0.50261346  1
  I  I56  1  0.17077927  0.00003195  0.83130968  1
  I  I57  1  0.16777093  0.33656433  0.16045609  1
  I  I58  1  0.16786726  0.33352815  0.50320096  1
  I  I59  1  0.16402231  0.33489699  0.83699770  1
  I  I60  1  0.16141340  0.66261995  0.16118715  1
  I  I61  1  0.17245245  0.66646563  0.50281846  1
  I  I62  1  0.16361624  0.66510887  0.83643457  1
  I  I63  1  0.50375223  0.00081333  0.17525339  1
  I  I64  1  0.50263586  -0.00048121  0.49600506  1
  I  I65  1  0.49654888  0.00002761  0.82900704  1
  I  I66  1  0.50038327  0.33114613  0.17104927  1
  I  I67  1  0.50297761  0.33344264  0.49635680  1
  I  I68  1  0.49579546  0.33352540  0.83290629  1
  I  I69  1  0.49876895  0.66856449  0.17127878  1
  I  I70  1  0.50336962  0.66692485  0.49621655  1
  I  I71  1  0.49585009  0.66643920  0.83475272  1
  I  I72  1  0.83075625  0.00236004  0.16854763  1
  I  I73  1  0.82869506  -0.00245616  0.49973255  1
  I  I74  1  0.83556614  0.00004227  0.83260816  1
  I  I75  1  0.83121970  0.33482673  0.16846451  1
  I  I76  1  0.82958240  0.33650485  0.50189280  1
  I  I77  1  0.83929526  0.33724881  0.82730521  1
  I  I78  1  0.83597469  0.66337422  0.16501441  1
  I  I79  1  0.82516811  0.66503673  0.49868178  1
  I  I80  1  0.83902567  0.66271407  0.83832978  1
  I  I81  1  0.16932940  0.16632568  -0.00298041  1
  I  I82  1  0.16535170  0.16881102  0.33288220  1
  I  I83  1  0.16748847  0.17079951  0.67041038  1
  I  I84  1  0.15993944  0.50016254  -0.00088059  1
  I  I85  1  0.16383150  0.49897530  0.33059292  1
  I  I86  1  0.16458700  0.50006943  0.66975705  1
  I  I87  1  0.16792241  0.83478822  -0.00323025  1
  I  I88  1  0.16589568  0.83144251  0.33311015  1
  I  I89  1  0.16971679  0.82860760  0.66991244  1
  I  I90  1  0.50216258  0.16255811  0.00369394  1
  I  I91  1  0.50291435  0.16672695  0.33319544  1
  I  I92  1  0.49772077  0.16623887  0.66357177  1
  I  I93  1  0.50115749  0.49990833  0.00014860  1
  I  I94  1  0.50332308  0.50047586  0.33660980  1
  I  I95  1  0.50235860  0.50093086  0.66198525  1
  I  I96  1  0.49798830  0.83819992  0.00296929  1
  I  I97  1  0.50257234  0.83309050  0.33452403  1
  I  I98  1  0.50168005  0.83320831  0.66303880  1
  I  I99  1  0.82618940  0.17196934  0.00416383  1
  I  I100  1  0.83227240  0.17397520  0.33004844  1
  I  I101  1  0.83295072  0.16745561  0.66666969  1
  I  I102  1  0.83922682  0.49527869  0.00052366  1
  I  I103  1  0.83314185  0.49982578  0.33325087  1
  I  I104  1  0.83415030  0.50484936  0.66620497  1
  I  I105  1  0.83210099  0.83263411  0.00007848  1
  I  I106  1  0.83097563  0.82597525  0.33663041  1
  I  I107  1  0.82586607  0.82807267  0.66268841  1
  I  I108  1  -0.00243525  0.17019712  0.16531404  1
  I  I109  1  -0.00029048  0.16688550  0.49937957  1
  I  I110  1  0.00338461  0.16520622  0.83405746  1
  I  I111  1  -0.00136840  0.49450845  0.16767096  1
  I  I112  1  -0.00356869  0.50507809  0.50048552  1
  I  I113  1  0.00041611  0.50014865  0.83171476  1
  I  I114  1  0.00000824  0.83608339  0.16803286  1
  I  I115  1  -0.00318296  0.82527269  0.50193397  1
  I  I116  1  0.00345210  0.83453806  0.83254224  1
  I  I117  1  0.33634759  0.16458001  0.16972002  1
  I  I118  1  0.33815024  0.16715696  0.49301211  1
  I  I119  1  0.33021228  0.17078577  0.83427125  1
  I  I120  1  0.33133184  0.49985812  0.16184710  1
  I  I121  1  0.33619199  0.50106522  0.49972134  1
  I  I122  1  0.33009423  0.49973685  0.83721634  1
  I  I123  1  0.33728590  0.83841540  0.17395712  1
  I  I124  1  0.33688597  0.83205583  0.49809544  1
  I  I125  1  0.33027780  0.82931792  0.83122287  1
  I  I126  1  0.66601394  0.17092467  0.17059802  1
  I  I127  1  0.66324500  0.16774032  0.49886760  1
  I  I128  1  0.66702486  0.16862582  0.83169605  1
  I  I129  1  0.66957215  0.49875293  0.16423418  1
  I  I130  1  0.66736727  0.50116103  0.49969843  1
  I  I131  1  0.67009549  0.49999225  0.83690958  1
  I  I132  1  0.66338950  0.83167380  0.16870811  1
  I  I133  1  0.66550539  0.83031409  0.49681320  1
  I  I134  1  0.66702985  0.83126865  0.83461287  1
