# generated using pymatgen
data_Cs27Sn14Pb13I81
_symmetry_space_group_name_H-M   'P 1'
_cell_length_a   18.97205088
_cell_length_b   18.97592309
_cell_length_c   18.98202092
_cell_angle_alpha   89.99883253
_cell_angle_beta   89.99755377
_cell_angle_gamma   90.00057558
_symmetry_Int_Tables_number   1
_chemical_formula_structural   Cs27Sn14Pb13I81
_chemical_formula_sum   'Cs27 Sn14 Pb13 I81'
_cell_volume   6833.75869282
_cell_formula_units_Z   1
loop_
 _symmetry_equiv_pos_site_id
 _symmetry_equiv_pos_as_xyz
  1  'x, y, z'
loop_
 _atom_site_type_symbol
 _atom_site_label
 _atom_site_symmetry_multiplicity
 _atom_site_fract_x
 _atom_site_fract_y
 _atom_site_fract_z
 _atom_site_occupancy
  Cs  Cs0  1  -0.00093118  0.00068324  0.00189110  1
  Cs  Cs1  1  0.00125751  -0.00012642  0.33295025  1
  Cs  Cs2  1  -0.00265513  -0.00525526  0.66296707  1
  Cs  Cs3  1  0.00107840  0.33271643  -0.00187952  1
  Cs  Cs4  1  0.00109914  0.33227416  0.33348409  1
  Cs  Cs5  1  0.00186870  0.33283737  0.67021609  1
  Cs  Cs6  1  0.00374018  0.66645501  0.00032649  1
  Cs  Cs7  1  -0.00392707  0.67003747  0.33450558  1
  Cs  Cs8  1  -0.01065900  0.67254468  0.66366645  1
  Cs  Cs9  1  0.33327982  -0.00186362  -0.00080917  1
  Cs  Cs10  1  0.33250801  0.00065497  0.33429308  1
  Cs  Cs11  1  0.33405866  0.00010315  0.66559892  1
  Cs  Cs12  1  0.33288133  0.33339958  -0.00075942  1
  Cs  Cs13  1  0.33434056  0.33300340  0.33414000  1
  Cs  Cs14  1  0.33221656  0.33438471  0.66638858  1
  Cs  Cs15  1  0.33019794  0.66737507  -0.00405473  1
  Cs  Cs16  1  0.33380737  0.66628587  0.33347456  1
  Cs  Cs17  1  0.33595750  0.66166519  0.67042643  1
  Cs  Cs18  1  0.66721843  0.00081047  0.00024815  1
  Cs  Cs19  1  0.66557758  0.00157579  0.33161910  1
  Cs  Cs20  1  0.66587483  0.00052827  0.66935375  1
  Cs  Cs21  1  0.66805957  0.33370106  0.00268664  1
  Cs  Cs22  1  0.66519523  0.33314613  0.33055634  1
  Cs  Cs23  1  0.66648020  0.33126590  0.66688510  1
  Cs  Cs24  1  0.66936585  0.66674044  0.00202066  1
  Cs  Cs25  1  0.66852481  0.66586417  0.33300640  1
  Cs  Cs26  1  0.66932760  0.66953639  0.66536118  1
  Sn  Sn27  1  0.83260395  0.16729899  0.49930802  1
  Sn  Sn28  1  0.16757155  0.16675258  0.83381804  1
  Sn  Sn29  1  0.49898795  0.16776636  0.83266122  1
  Sn  Sn30  1  0.16688097  0.50013396  0.50042969  1
  Sn  Sn31  1  0.49951811  0.83324527  0.49902264  1
  Sn  Sn32  1  0.49945403  0.49994243  0.50054037  1
  Sn  Sn33  1  0.83417016  0.16626009  0.16761684  1
  Sn  Sn34  1  0.50042585  0.83331635  0.16723420  1
  Sn  Sn35  1  0.49989846  0.49876665  0.83272194  1
  Sn  Sn36  1  0.83231418  0.83426261  0.16664294  1
  Sn  Sn37  1  0.16711635  0.49924396  0.83267278  1
  Sn  Sn38  1  0.16616848  0.16752402  0.16605224  1
  Sn  Sn39  1  0.50067200  0.16684121  0.50069471  1
  Sn  Sn40  1  0.16685239  0.49906144  0.16693179  1
  Pb  Pb41  1  0.49950297  0.16530535  0.16630967  1
  Pb  Pb42  1  0.83314662  0.49987989  0.83319590  1
  Pb  Pb43  1  0.49782801  0.50231557  0.16628991  1
  Pb  Pb44  1  0.16677664  0.83372785  0.16678187  1
  Pb  Pb45  1  0.83268097  0.49730195  0.49998831  1
  Pb  Pb46  1  0.50001132  0.83316390  0.83319310  1
  Pb  Pb47  1  0.16943911  0.82987987  0.50019010  1
  Pb  Pb48  1  0.16666023  0.83346553  0.83296846  1
  Pb  Pb49  1  0.16689501  0.16813974  0.50037934  1
  Pb  Pb50  1  0.83353233  0.16670255  0.83348529  1
  Pb  Pb51  1  0.83048000  0.83622170  0.49779917  1
  Pb  Pb52  1  0.83323220  0.83353129  0.83656125  1
  Pb  Pb53  1  0.83626806  0.49955698  0.16671971  1
  I  I54  1  0.16561021  0.00335655  0.16179516  1
  I  I55  1  0.16710061  0.00017939  0.49913284  1
  I  I56  1  0.17147020  0.00395110  0.84000938  1
  I  I57  1  0.16157784  0.33261196  0.16558470  1
  I  I58  1  0.17246106  0.33625007  0.49885079  1
  I  I59  1  0.17115393  0.33341691  0.83509257  1
  I  I60  1  0.16804925  0.66372891  0.16529784  1
  I  I61  1  0.17188687  0.66133908  0.49883841  1
  I  I62  1  0.17306586  0.66257702  0.83618306  1
  I  I63  1  0.49903745  -0.00255271  0.17058258  1
  I  I64  1  0.50514344  0.00098535  0.50007635  1
  I  I65  1  0.49619836  0.00323574  0.83034378  1
  I  I66  1  0.50273835  0.33336034  0.16921537  1
  I  I67  1  0.49976955  0.33324926  0.50441070  1
  I  I68  1  0.49559516  0.33294555  0.82548196  1
  I  I69  1  0.50457148  0.67010687  0.17080533  1
  I  I70  1  0.49362734  0.66577495  0.49979880  1
  I  I71  1  0.49390485  0.66335295  0.83076875  1
  I  I72  1  0.83559974  0.00128646  0.17069129  1
  I  I73  1  0.82971764  0.00406393  0.49880086  1
  I  I74  1  0.83294254  0.00054220  0.83081957  1
  I  I75  1  0.83503242  0.32986270  0.16973325  1
  I  I76  1  0.82703729  0.32949710  0.49273298  1
  I  I77  1  0.83261094  0.33299667  0.83665336  1
  I  I78  1  0.82980281  0.66932638  0.16611829  1
  I  I79  1  0.83418298  0.66686607  0.49859307  1
  I  I80  1  0.83351220  0.66663632  0.83465933  1
  I  I81  1  0.16667832  0.17406676  0.00028894  1
  I  I82  1  0.16581440  0.17064522  0.33100654  1
  I  I83  1  0.16800554  0.17155913  0.66927133  1
  I  I84  1  0.17038720  0.49645829  -0.00044741  1
  I  I85  1  0.17122086  0.49563331  0.33345606  1
  I  I86  1  0.17336817  0.49417868  0.66719429  1
  I  I87  1  0.16882609  0.82850492  0.00025706  1
  I  I88  1  0.16605542  0.83336206  0.33332297  1
  I  I89  1  0.16800443  0.83649182  0.66645285  1
  I  I90  1  0.49927416  0.16980589  -0.00263644  1
  I  I91  1  0.50056702  0.16884313  0.33591799  1
  I  I92  1  0.50029992  0.16490723  0.66594646  1
  I  I93  1  0.49591448  0.49627127  -0.00290016  1
  I  I94  1  0.49554313  0.49750117  0.33623518  1
  I  I95  1  0.49152307  0.50079802  0.66597544  1
  I  I96  1  0.50396374  0.83416188  0.00269225  1
  I  I97  1  0.50320415  0.83359617  0.33393635  1
  I  I98  1  0.49847086  0.83356254  0.66356367  1
  I  I99  1  0.83434713  0.16221264  0.00311584  1
  I  I100  1  0.83339218  0.16335745  0.33256896  1
  I  I101  1  0.83148343  0.16842705  0.66400454  1
  I  I102  1  0.83132853  0.49900847  0.00021382  1
  I  I103  1  0.83364526  0.50111773  0.33329357  1
  I  I104  1  0.83871402  0.49832680  0.66641710  1
  I  I105  1  0.82610248  0.84058455  0.00482502  1
  I  I106  1  0.83202067  0.83516219  0.33006070  1
  I  I107  1  0.83342052  0.83389723  0.66608185  1
  I  I108  1  0.00028229  0.16452942  0.16699245  1
  I  I109  1  -0.00194750  0.16917954  0.49835803  1
  I  I110  1  0.00325679  0.17251495  0.83502330  1
  I  I111  1  0.00461947  0.50086217  0.16582039  1
  I  I112  1  0.00302033  0.49702037  0.50005247  1
  I  I113  1  0.00404763  0.49438895  0.83429341  1
  I  I114  1  -0.00250952  0.83461712  0.16574759  1
  I  I115  1  -0.00038723  0.83309167  0.49900393  1
  I  I116  1  0.00003346  0.83276316  0.83493261  1
  I  I117  1  0.33066074  0.16929584  0.16621378  1
  I  I118  1  0.33645779  0.16506141  0.49987890  1
  I  I119  1  0.33367096  0.17064346  0.83389958  1
  I  I120  1  0.32986440  0.49448786  0.16708399  1
  I  I121  1  0.33429166  0.49767445  0.50021239  1
  I  I122  1  0.33329775  0.49607614  0.83248869  1
  I  I123  1  0.33598029  0.83348416  0.17043867  1
  I  I124  1  0.33779821  0.84032882  0.49257145  1
  I  I125  1  0.33365900  0.83422769  0.83761466  1
  I  I126  1  0.66865106  0.16321662  0.16747880  1
  I  I127  1  0.66493512  0.16833612  0.49961328  1
  I  I128  1  0.66341041  0.17032370  0.83217391  1
  I  I129  1  0.66652825  0.49857518  0.16657999  1
  I  I130  1  0.66269915  0.50230743  0.50500399  1
  I  I131  1  0.66264680  0.49587541  0.82798472  1
  I  I132  1  0.66653939  0.83918578  0.17032656  1
  I  I133  1  0.66251597  0.82724084  0.49837218  1
  I  I134  1  0.66617051  0.83335134  0.83188251  1
