# generated using pymatgen
data_Cs27Sn14Pb13I81
_symmetry_space_group_name_H-M   'P 1'
_cell_length_a   18.96968428
_cell_length_b   18.98931156
_cell_length_c   18.96968420
_cell_angle_alpha   90.00080198
_cell_angle_beta   90.00026424
_cell_angle_gamma   89.99919802
_symmetry_Int_Tables_number   1
_chemical_formula_structural   Cs27Sn14Pb13I81
_chemical_formula_sum   'Cs27 Sn14 Pb13 I81'
_cell_volume   6833.28325834
_cell_formula_units_Z   1
loop_
 _symmetry_equiv_pos_site_id
 _symmetry_equiv_pos_as_xyz
  1  'x, y, z'
loop_
 _atom_site_type_symbol
 _atom_site_label
 _atom_site_symmetry_multiplicity
 _atom_site_fract_x
 _atom_site_fract_y
 _atom_site_fract_z
 _atom_site_occupancy
  Cs  Cs0  1  -0.00027840  -0.00062098  -0.00389767  1
  Cs  Cs1  1  0.00111503  -0.00242615  0.33221824  1
  Cs  Cs2  1  -0.00119741  -0.00028177  0.67338302  1
  Cs  Cs3  1  0.00123761  0.33099694  0.00315121  1
  Cs  Cs4  1  0.00144494  0.33346796  0.33188852  1
  Cs  Cs5  1  -0.00603248  0.32905465  0.66526936  1
  Cs  Cs6  1  -0.00062080  0.66895014  0.00249243  1
  Cs  Cs7  1  0.00167180  0.66773050  0.33166151  1
  Cs  Cs8  1  -0.00092580  0.67041354  0.66588943  1
  Cs  Cs9  1  0.33679731  0.00120709  -0.00346403  1
  Cs  Cs10  1  0.33723088  -0.00062092  0.33361183  1
  Cs  Cs11  1  0.33340203  -0.00047244  0.67044251  1
  Cs  Cs12  1  0.33321465  0.33417340  0.00011862  1
  Cs  Cs13  1  0.33018194  0.33099688  0.33209568  1
  Cs  Cs14  1  0.33387332  0.33584430  0.66859314  1
  Cs  Cs15  1  0.33313733  0.66475430  0.00019594  1
  Cs  Cs16  1  0.33084096  0.66895019  0.33395422  1
  Cs  Cs17  1  0.33511218  0.66534236  0.66611375  1
  Cs  Cs18  1  0.66289062  -0.00047239  -0.00006888  1
  Cs  Cs19  1  0.65995015  -0.00028184  0.33453059  1
  Cs  Cs20  1  0.66724879  0.00369322  0.66608484  1
  Cs  Cs21  1  0.66474010  0.33584442  -0.00053985  1
  Cs  Cs22  1  0.66806383  0.32905479  0.33936581  1
  Cs  Cs23  1  0.67308091  0.33934634  0.66025251  1
  Cs  Cs24  1  0.66721935  0.66534250  -0.00177893  1
  Cs  Cs25  1  0.66744388  0.67041363  0.33425902  1
  Cs  Cs26  1  0.66464670  0.65674455  0.66868676  1
  Sn  Sn27  1  0.16619467  0.16601004  0.16713863  1
  Sn  Sn28  1  0.50010001  0.83367300  0.83323330  1
  Sn  Sn29  1  0.16590474  0.50003106  0.83325765  1
  Sn  Sn30  1  0.16668511  0.16612067  0.49941842  1
  Sn  Sn31  1  0.83391490  0.16612067  0.16664822  1
  Sn  Sn32  1  0.16594618  0.83386864  0.49929286  1
  Sn  Sn33  1  0.50040026  0.16693251  0.83293303  1
  Sn  Sn34  1  0.16649833  0.50012433  0.16683494  1
  Sn  Sn35  1  0.16644506  0.83381939  0.16688824  1
  Sn  Sn36  1  0.83319204  0.49995452  0.16690760  1
  Sn  Sn37  1  0.83407582  0.83339461  0.49925749  1
  Sn  Sn38  1  0.16642572  0.49995455  0.50014136  1
  Sn  Sn39  1  0.50007570  0.50003108  0.16742856  1
  Sn  Sn40  1  0.83404045  0.83386869  0.16738714  1
  Pb  Pb41  1  0.50003710  0.83328322  0.50252025  1
  Pb  Pb42  1  0.49769816  0.49997593  0.49683888  1
  Pb  Pb43  1  0.83058506  0.16679691  0.83594697  1
  Pb  Pb44  1  0.16803359  0.83141781  0.83341239  1
  Pb  Pb45  1  0.16773801  0.16885278  0.83349730  1
  Pb  Pb46  1  0.49992087  0.83141781  0.16529975  1
  Pb  Pb47  1  0.83081312  0.83328325  0.83329639  1
  Pb  Pb48  1  0.83604334  0.50233458  0.49728993  1
  Pb  Pb49  1  0.49983603  0.16885276  0.16559531  1
  Pb  Pb50  1  0.49738642  0.16679689  0.50274830  1
  Pb  Pb51  1  0.83649450  0.49997592  0.83563520  1
  Pb  Pb52  1  0.49844259  0.49962399  0.83489074  1
  Pb  Pb53  1  0.83594782  0.16394007  0.49738549  1
  I  I54  1  0.16047865  -0.00023581  0.17285465  1
  I  I55  1  0.16391396  -0.00064054  0.49239150  1
  I  I56  1  0.16757094  0.00001912  0.83379200  1
  I  I57  1  0.16502057  0.33400542  0.16831277  1
  I  I58  1  0.16956885  0.33361211  0.49572941  1
  I  I59  1  0.17108470  0.33659034  0.83620219  1
  I  I60  1  0.16516575  0.66623840  0.16816757  1
  I  I61  1  0.16392684  0.66688645  0.49634485  1
  I  I62  1  0.17054505  0.66364143  0.83595934  1
  I  I63  1  0.49954129  0.00001917  0.16576227  1
  I  I64  1  0.49695191  -0.00007177  0.49711184  1
  I  I65  1  0.49709799  -0.00012340  0.83623590  1
  I  I66  1  0.49713092  0.33659036  0.16224861  1
  I  I67  1  0.49864003  0.33342382  0.50277080  1
  I  I68  1  0.49580588  0.33130572  0.83752716  1
  I  I69  1  0.49737459  0.66364142  0.16278836  1
  I  I70  1  0.49705188  0.66669227  0.50341865  1
  I  I71  1  0.49819782  0.66834855  0.83513533  1
  I  I72  1  0.84094195  -0.00064054  0.16941973  1
  I  I73  1  0.83912055  -0.00371558  0.49421306  1
  I  I74  1  0.83622107  -0.00007178  0.83638088  1
  I  I75  1  0.83760407  0.33361210  0.16376406  1
  I  I76  1  0.83357659  0.33328778  0.49975660  1
  I  I77  1  0.83056294  0.33342382  0.83469407  1
  I  I78  1  0.83698813  0.66688648  0.16940666  1
  I  I79  1  0.83913651  0.67003875  0.49419692  1
  I  I80  1  0.82991476  0.66669229  0.83628114  1
  I  I81  1  0.16452771  0.16765779  0.00352857  1
  I  I82  1  0.16395915  0.17158585  0.33187994  1
  I  I83  1  0.17006153  0.16662351  0.66379054  1
  I  I84  1  0.16747934  0.50001133  0.00232013  1
  I  I85  1  0.16673214  0.50019857  0.33192243  1
  I  I86  1  0.16996758  0.50102091  0.66589448  1
  I  I87  1  0.16354359  0.83226648  0.00345779  1
  I  I88  1  0.16412500  0.82875857  0.33231048  1
  I  I89  1  0.16380591  0.83277252  0.66346126  1
  I  I90  1  0.49697572  0.16343867  -0.00205833  1
  I  I91  1  0.50102768  0.16827984  0.33324806  1
  I  I92  1  0.49604697  0.16158068  0.67050859  1
  I  I93  1  0.49616893  0.50029972  0.00306964  1
  I  I94  1  0.49730005  0.50069359  0.32875214  1
  I  I95  1  0.49675236  0.50089884  0.66659678  1
  I  I96  1  0.49858571  0.83583619  -0.00231022  1
  I  I97  1  0.49940496  0.83142195  0.33331015  1
  I  I98  1  0.49731930  0.83670158  0.67016548  1
  I  I99  1  0.84166701  0.16451662  0.00472350  1
  I  I100  1  0.83439585  0.17100762  0.32905800  1
  I  I101  1  0.83439075  0.16450547  0.66618032  1
  I  I102  1  0.83596838  0.50350821  0.00468226  1
  I  I103  1  0.83578641  0.49770431  0.32882501  1
  I  I104  1  0.83355941  0.50202394  0.66611961  1
  I  I105  1  0.83766213  0.83230591  0.00386844  1
  I  I106  1  0.83816046  0.83166230  0.33158056  1
  I  I107  1  0.83952637  0.83419040  0.66351409  1
  I  I108  1  0.00145340  0.17158575  0.16937435  1
  I  I109  1  0.00427530  0.17100742  0.49893757  1
  I  I110  1  0.00008527  0.16827961  0.83230547  1
  I  I111  1  0.00141091  0.50019886  0.16660108  1
  I  I112  1  0.00450828  0.49770446  0.49754712  1
  I  I113  1  0.00458119  0.50069368  0.83603331  1
  I  I114  1  0.00102284  0.82875844  0.16920830  1
  I  I115  1  0.00175287  0.83166232  0.49517309  1
  I  I116  1  0.00002321  0.83142207  0.83392834  1
  I  I117  1  0.32980477  0.16765776  0.16880552  1
  I  I118  1  0.32860989  0.16451722  0.49166634  1
  I  I119  1  0.33539168  0.16343848  0.83635792  1
  I  I120  1  0.33101318  0.50001162  0.16585412  1
  I  I121  1  0.32865105  0.50350780  0.49736492  1
  I  I122  1  0.33026368  0.50029967  0.83716430  1
  I  I123  1  0.32987553  0.83226632  0.16978947  1
  I  I124  1  0.32946488  0.83230580  0.49567101  1
  I  I125  1  0.33564356  0.83583654  0.83474870  1
  I  I126  1  0.66954284  0.16662355  0.16327190  1
  I  I127  1  0.66715303  0.16450494  0.49894246  1
  I  I128  1  0.66282478  0.16158120  0.83728608  1
  I  I129  1  0.66743882  0.50102027  0.16336579  1
  I  I130  1  0.66721370  0.50202438  0.49977373  1
  I  I131  1  0.66673657  0.50089873  0.83658108  1
  I  I132  1  0.66987208  0.83277288  0.16952783  1
  I  I133  1  0.66981925  0.83419048  0.49380699  1
  I  I134  1  0.66316786  0.83670114  0.83601325  1
