# generated using pymatgen
data_Cs27Sn14Pb13I81
_symmetry_space_group_name_H-M   'P 1'
_cell_length_a   18.97864894
_cell_length_b   18.97295508
_cell_length_c   18.97428777
_cell_angle_alpha   90.00037572
_cell_angle_beta   89.99689727
_cell_angle_gamma   90.00085108
_symmetry_Int_Tables_number   1
_chemical_formula_structural   Cs27Sn14Pb13I81
_chemical_formula_sum   'Cs27 Sn14 Pb13 I81'
_cell_volume   6832.28152205
_cell_formula_units_Z   1
loop_
 _symmetry_equiv_pos_site_id
 _symmetry_equiv_pos_as_xyz
  1  'x, y, z'
loop_
 _atom_site_type_symbol
 _atom_site_label
 _atom_site_symmetry_multiplicity
 _atom_site_fract_x
 _atom_site_fract_y
 _atom_site_fract_z
 _atom_site_occupancy
  Cs  Cs0  1  -0.00135093  -0.00261817  0.00436560  1
  Cs  Cs1  1  -0.00271919  0.00284881  0.33404517  1
  Cs  Cs2  1  0.00161325  0.00285333  0.66147525  1
  Cs  Cs3  1  -0.00343964  0.33337047  -0.01137011  1
  Cs  Cs4  1  -0.00311364  0.32660439  0.33512427  1
  Cs  Cs5  1  0.00364135  0.32896745  0.67543957  1
  Cs  Cs6  1  0.00241878  0.66703661  -0.00110170  1
  Cs  Cs7  1  0.00040138  0.66885944  0.33320480  1
  Cs  Cs8  1  -0.00093518  0.66667236  0.66720695  1
  Cs  Cs9  1  0.33541323  -0.00112396  -0.00013531  1
  Cs  Cs10  1  0.33272016  0.00034689  0.33239266  1
  Cs  Cs11  1  0.33456597  0.00085355  0.66987472  1
  Cs  Cs12  1  0.32965686  0.33563380  0.00102971  1
  Cs  Cs13  1  0.33589381  0.33380220  0.33384431  1
  Cs  Cs14  1  0.33104892  0.33103249  0.66550788  1
  Cs  Cs15  1  0.32938765  0.66626229  0.00484733  1
  Cs  Cs16  1  0.33295132  0.66622380  0.33256842  1
  Cs  Cs17  1  0.33542986  0.66827199  0.66444664  1
  Cs  Cs18  1  0.66473113  0.00056233  -0.00078716  1
  Cs  Cs19  1  0.66854620  -0.00029581  0.33268997  1
  Cs  Cs20  1  0.66464371  -0.00168472  0.66832745  1
  Cs  Cs21  1  0.67118727  0.33213926  -0.00035770  1
  Cs  Cs22  1  0.66371849  0.33462592  0.33145759  1
  Cs  Cs23  1  0.66607883  0.33744168  0.67102661  1
  Cs  Cs24  1  0.66744554  0.66788310  0.00038660  1
  Cs  Cs25  1  0.66659455  0.66583717  0.33439466  1
  Cs  Cs26  1  0.66616394  0.66718538  0.66524733  1
  Sn  Sn27  1  0.16584695  0.83321508  0.83226233  1
  Sn  Sn28  1  0.16748741  0.83269328  0.50071609  1
  Sn  Sn29  1  0.16631767  0.50036263  0.49956475  1
  Sn  Sn30  1  0.83383418  0.49990660  0.49937896  1
  Sn  Sn31  1  0.49919795  0.83368600  0.49901825  1
  Sn  Sn32  1  0.16736751  0.16704141  0.16658836  1
  Sn  Sn33  1  0.50075341  0.83384855  0.16768819  1
  Sn  Sn34  1  0.50025587  0.16641880  0.49941052  1
  Sn  Sn35  1  0.83238547  0.83215808  0.16611041  1
  Sn  Sn36  1  0.83425075  0.83310378  0.83376944  1
  Sn  Sn37  1  0.83375808  0.50076808  0.16744587  1
  Sn  Sn38  1  0.49895234  0.16595522  0.16746290  1
  Sn  Sn39  1  0.49982260  0.49991192  0.50082624  1
  Sn  Sn40  1  0.49962882  0.50046469  0.83304988  1
  Pb  Pb41  1  0.49975811  0.83163894  0.83366598  1
  Pb  Pb42  1  0.16661213  0.83446066  0.16750940  1
  Pb  Pb43  1  0.50134210  0.49997439  0.16691023  1
  Pb  Pb44  1  0.16326056  0.49722495  0.16924188  1
  Pb  Pb45  1  0.83005517  0.17022448  0.50022694  1
  Pb  Pb46  1  0.83312973  0.16286026  0.83306230  1
  Pb  Pb47  1  0.49984231  0.16940487  0.83389710  1
  Pb  Pb48  1  0.83335817  0.83190247  0.49975295  1
  Pb  Pb49  1  0.83268280  0.16660198  0.16664578  1
  Pb  Pb50  1  0.16696662  0.16346179  0.83620005  1
  Pb  Pb51  1  0.16906743  0.50236652  0.83078560  1
  Pb  Pb52  1  0.83178523  0.50213772  0.83305825  1
  Pb  Pb53  1  0.16880588  0.16639010  0.49855497  1
  I  I54  1  0.16698462  0.00214243  0.16856847  1
  I  I55  1  0.17092625  -0.00322586  0.50267210  1
  I  I56  1  0.16418927  -0.00446348  0.82512353  1
  I  I57  1  0.17486616  0.32998559  0.17018962  1
  I  I58  1  0.16827120  0.33602313  0.49642646  1
  I  I59  1  0.16744797  0.33352055  0.83288329  1
  I  I60  1  0.16901834  0.66660252  0.16498166  1
  I  I61  1  0.17218637  0.66710973  0.50256958  1
  I  I62  1  0.16342174  0.67020645  0.83375578  1
  I  I63  1  0.50207646  -0.00106035  0.17385619  1
  I  I64  1  0.49508209  -0.00120711  0.49523814  1
  I  I65  1  0.50086223  -0.00031127  0.83083900  1
  I  I66  1  0.49816138  0.33103502  0.17038878  1
  I  I67  1  0.50054820  0.33417084  0.49893819  1
  I  I68  1  0.50128585  0.33727605  0.82821816  1
  I  I69  1  0.50262914  0.66944575  0.16953472  1
  I  I70  1  0.49974363  0.66672722  0.50008449  1
  I  I71  1  0.50111187  0.66414970  0.82744669  1
  I  I72  1  0.83212360  -0.00318520  0.16219363  1
  I  I73  1  0.83396906  -0.00013409  0.49966684  1
  I  I74  1  0.83451157  -0.00538979  0.84053102  1
  I  I75  1  0.83171164  0.33607972  0.17273196  1
  I  I76  1  0.83331920  0.33860577  0.49194483  1
  I  I77  1  0.83152499  0.33382839  0.83469577  1
  I  I78  1  0.82680501  0.66775887  0.16718694  1
  I  I79  1  0.82774229  0.66386739  0.49881818  1
  I  I80  1  0.83580159  0.66988277  0.83527772  1
  I  I81  1  0.17421442  0.16529741  0.00400084  1
  I  I82  1  0.16887986  0.16363004  0.33078368  1
  I  I83  1  0.16759804  0.16844189  0.66653950  1
  I  I84  1  0.16797795  0.50050843  0.00004394  1
  I  I85  1  0.17401225  0.50800785  0.33728217  1
  I  I86  1  0.16233921  0.50074502  0.66241949  1
  I  I87  1  0.16619358  0.83614087  -0.00158870  1
  I  I88  1  0.16849600  0.83031156  0.33631997  1
  I  I89  1  0.16719015  0.82911848  0.66530345  1
  I  I90  1  0.49747737  0.16181513  0.00360580  1
  I  I91  1  0.49639534  0.16815232  0.33337921  1
  I  I92  1  0.50048560  0.16372193  0.66337538  1
  I  I93  1  0.50337011  0.50129656  -0.00168611  1
  I  I94  1  0.49906157  0.50023472  0.33656104  1
  I  I95  1  0.50309578  0.50110843  0.66374827  1
  I  I96  1  0.50103919  0.83610938  0.00287346  1
  I  I97  1  0.50002668  0.83146376  0.33407130  1
  I  I98  1  0.49990303  0.83466763  0.66363178  1
  I  I99  1  0.83108934  0.17269189  0.00030298  1
  I  I100  1  0.83610073  0.16167984  0.33336473  1
  I  I101  1  0.83203991  0.16685652  0.66639897  1
  I  I102  1  0.82940819  0.50149101  0.00246255  1
  I  I103  1  0.82973013  0.50664674  0.33382025  1
  I  I104  1  0.83238962  0.50219396  0.66366106  1
  I  I105  1  0.83288086  0.82761743  0.00136996  1
  I  I106  1  0.83181235  0.83130216  0.33077896  1
  I  I107  1  0.83308959  0.83082942  0.66845533  1
  I  I108  1  0.00206015  0.16521828  0.16767368  1
  I  I109  1  0.00016999  0.16562221  0.49731515  1
  I  I110  1  0.00022381  0.17137814  0.83538956  1
  I  I111  1  -0.00440670  0.50668433  0.17167399  1
  I  I112  1  0.00015554  0.50762484  0.49352605  1
  I  I113  1  0.00010315  0.49918012  0.83297571  1
  I  I114  1  -0.00246619  0.83159655  0.16569014  1
  I  I115  1  0.00247081  0.82818912  0.50064837  1
  I  I116  1  -0.00012619  0.83142108  0.83440483  1
  I  I117  1  0.33524151  0.16043449  0.17089666  1
  I  I118  1  0.33696413  0.17117113  0.49715372  1
  I  I119  1  0.33348783  0.16390407  0.83195847  1
  I  I120  1  0.33322652  0.50244894  0.16636486  1
  I  I121  1  0.33434081  0.50105768  0.50484606  1
  I  I122  1  0.33678176  0.50256349  0.82842984  1
  I  I123  1  0.33604790  0.83543307  0.16725855  1
  I  I124  1  0.33443191  0.82836366  0.49978724  1
  I  I125  1  0.33120058  0.83177589  0.83189584  1
  I  I126  1  0.66341466  0.16546529  0.17130430  1
  I  I127  1  0.66168333  0.16390129  0.49206059  1
  I  I128  1  0.66621446  0.16514455  0.83543520  1
  I  I129  1  0.66913892  0.50029654  0.17219679  1
  I  I130  1  0.66563058  0.50060699  0.49963454  1
  I  I131  1  0.66408107  0.50281434  0.82677629  1
  I  I132  1  0.66598091  0.83519325  0.16678389  1
  I  I133  1  0.66363223  0.83235424  0.49939447  1
  I  I134  1  0.66847907  0.83086006  0.83452909  1
