# generated using pymatgen
data_Cs27Sn14Pb13I81
_symmetry_space_group_name_H-M   'P 1'
_cell_length_a   18.98844342
_cell_length_b   18.96921645
_cell_length_c   18.96986857
_cell_angle_alpha   90.00062881
_cell_angle_beta   90.00030039
_cell_angle_gamma   89.99998757
_symmetry_Int_Tables_number   1
_chemical_formula_structural   Cs27Sn14Pb13I81
_chemical_formula_sum   'Cs27 Sn14 Pb13 I81'
_cell_volume   6832.86875436
_cell_formula_units_Z   1
loop_
 _symmetry_equiv_pos_site_id
 _symmetry_equiv_pos_as_xyz
  1  'x, y, z'
loop_
 _atom_site_type_symbol
 _atom_site_label
 _atom_site_symmetry_multiplicity
 _atom_site_fract_x
 _atom_site_fract_y
 _atom_site_fract_z
 _atom_site_occupancy
  Cs  Cs0  1  0.00416304  0.00967056  -0.00680918  1
  Cs  Cs1  1  -0.00052184  0.00211722  0.33367814  1
  Cs  Cs2  1  -0.00105589  -0.00147976  0.66718133  1
  Cs  Cs3  1  -0.00105113  0.33099732  0.00208778  1
  Cs  Cs4  1  -0.00069939  0.33138025  0.33259310  1
  Cs  Cs5  1  0.00167987  0.33533271  0.66490444  1
  Cs  Cs6  1  -0.00054425  0.66507604  -0.00156886  1
  Cs  Cs7  1  -0.00219005  0.66688155  0.33504258  1
  Cs  Cs8  1  -0.00064852  0.66646358  0.66537401  1
  Cs  Cs9  1  0.32839564  -0.00698117  -0.00519629  1
  Cs  Cs10  1  0.33246604  -0.00387896  0.33251606  1
  Cs  Cs11  1  0.33611971  0.00405546  0.66973824  1
  Cs  Cs12  1  0.33350142  0.33577904  0.00053142  1
  Cs  Cs13  1  0.33580221  0.33357269  0.33350362  1
  Cs  Cs14  1  0.33614242  0.33185700  0.66614932  1
  Cs  Cs15  1  0.33536110  0.66762838  0.00211700  1
  Cs  Cs16  1  0.33322785  0.66924041  0.33154683  1
  Cs  Cs17  1  0.33031572  0.66520966  0.66567187  1
  Cs  Cs18  1  0.66739890  0.00067517  -0.00946260  1
  Cs  Cs19  1  0.66856574  -0.00189215  0.33365213  1
  Cs  Cs20  1  0.66534465  0.00150933  0.67263004  1
  Cs  Cs21  1  0.66750135  0.33329086  0.00294999  1
  Cs  Cs22  1  0.66442725  0.33357900  0.33333359  1
  Cs  Cs23  1  0.66041974  0.33365124  0.66328362  1
  Cs  Cs24  1  0.66562415  0.66669568  0.00117482  1
  Cs  Cs25  1  0.66885877  0.66754625  0.33355704  1
  Cs  Cs26  1  0.66962583  0.66531179  0.66479368  1
  Sn  Sn27  1  0.16606912  0.16665952  0.49956746  1
  Sn  Sn28  1  0.16669481  0.83372047  0.49985906  1
  Sn  Sn29  1  0.83317914  0.83449815  0.49925238  1
  Sn  Sn30  1  0.83339821  0.50073111  0.16609470  1
  Sn  Sn31  1  0.50030312  0.83323852  0.50014506  1
  Sn  Sn32  1  0.50018917  0.49940401  0.16613610  1
  Sn  Sn33  1  0.83386056  0.83349974  0.16648939  1
  Sn  Sn34  1  0.49984281  0.16597797  0.16641793  1
  Sn  Sn35  1  0.16665122  0.50008390  0.83360928  1
  Sn  Sn36  1  0.83315361  0.49994938  0.83416059  1
  Sn  Sn37  1  0.50019606  0.50026654  0.83407052  1
  Sn  Sn38  1  0.16675559  0.49976174  0.49953649  1
  Sn  Sn39  1  0.16643075  0.50016410  0.16684377  1
  Sn  Sn40  1  0.83356486  0.16588448  0.49981693  1
  Pb  Pb41  1  0.83502561  0.49985167  0.49961322  1
  Pb  Pb42  1  0.49737102  0.50181092  0.49939248  1
  Pb  Pb43  1  0.49982761  0.16912039  0.83668323  1
  Pb  Pb44  1  0.50218451  0.83334715  0.16786961  1
  Pb  Pb45  1  0.83168142  0.16639747  0.16826954  1
  Pb  Pb46  1  0.49991665  0.16412199  0.49816591  1
  Pb  Pb47  1  0.83358724  0.83134682  0.83361656  1
  Pb  Pb48  1  0.83327951  0.17010637  0.83014398  1
  Pb  Pb49  1  0.50000890  0.83045611  0.83073724  1
  Pb  Pb50  1  0.16366924  0.83155999  0.16824472  1
  Pb  Pb51  1  0.16671329  0.16934776  0.83079322  1
  Pb  Pb52  1  0.16897615  0.16854894  0.16868943  1
  Pb  Pb53  1  0.16647703  0.83107822  0.83091384  1
  I  I54  1  0.16795897  -0.00006778  0.16998536  1
  I  I55  1  0.16547512  -0.00046856  0.49823790  1
  I  I56  1  0.16687264  0.00016380  0.83251833  1
  I  I57  1  0.16165761  0.33784087  0.16927789  1
  I  I58  1  0.16132711  0.33406767  0.50042085  1
  I  I59  1  0.16659631  0.33829064  0.83044432  1
  I  I60  1  0.17182911  0.66232886  0.16918145  1
  I  I61  1  0.16638054  0.66624414  0.50068883  1
  I  I62  1  0.16637998  0.66196393  0.83024000  1
  I  I63  1  0.50239709  0.00206405  0.17384404  1
  I  I64  1  0.49567335  -0.00357426  0.49595818  1
  I  I65  1  0.50037535  -0.00000766  0.83372614  1
  I  I66  1  0.50200013  0.33608817  0.16505147  1
  I  I67  1  0.50018485  0.33353695  0.50206242  1
  I  I68  1  0.49954471  0.33787488  0.83132891  1
  I  I69  1  0.49802674  0.66316136  0.16412463  1
  I  I70  1  0.50161373  0.66950431  0.49850519  1
  I  I71  1  0.49928362  0.66204134  0.84046349  1
  I  I72  1  0.83002892  -0.00275389  0.17352652  1
  I  I73  1  0.83832785  -0.00128751  0.49314451  1
  I  I74  1  0.83283994  0.00018162  0.83564584  1
  I  I75  1  0.83506457  0.33676863  0.16466326  1
  I  I76  1  0.83872600  0.33143265  0.50041413  1
  I  I77  1  0.83451109  0.33837113  0.83892901  1
  I  I78  1  0.83141588  0.66494581  0.17048764  1
  I  I79  1  0.83428718  0.66898318  0.49955976  1
  I  I80  1  0.83397297  0.66261363  0.83100486  1
  I  I81  1  0.16711588  0.16831403  0.00013440  1
  I  I82  1  0.16305650  0.17012270  0.33719977  1
  I  I83  1  0.16388618  0.16883471  0.66205982  1
  I  I84  1  0.16685325  0.50004449  0.00042611  1
  I  I85  1  0.16643534  0.50045446  0.33353494  1
  I  I86  1  0.16601716  0.50085157  0.66613625  1
  I  I87  1  0.16638376  0.83134610  0.00016453  1
  I  I88  1  0.16847936  0.82911843  0.33720648  1
  I  I89  1  0.16324753  0.82949016  0.66177517  1
  I  I90  1  0.50245430  0.16985491  0.00442300  1
  I  I91  1  0.50029005  0.17682481  0.33092801  1
  I  I92  1  0.50007678  0.16757917  0.66653652  1
  I  I93  1  0.49582517  0.49669924  0.00091627  1
  I  I94  1  0.50071828  0.49781442  0.33023697  1
  I  I95  1  0.50052133  0.50296106  0.66888655  1
  I  I96  1  0.50226295  0.83482142  0.00007834  1
  I  I97  1  0.49798205  0.82949321  0.33620253  1
  I  I98  1  0.50201078  0.83218120  0.66229185  1
  I  I99  1  0.83158921  0.16410472  0.00001717  1
  I  I100  1  0.83703928  0.16836240  0.33644628  1
  I  I101  1  0.83695073  0.16119977  0.66202738  1
  I  I102  1  0.83698405  0.50541785  0.00126103  1
  I  I103  1  0.83294534  0.50095735  0.33060458  1
  I  I104  1  0.83380220  0.49987535  0.66866414  1
  I  I105  1  0.83050375  0.82767930  0.00317503  1
  I  I106  1  0.83325315  0.82887467  0.33467745  1
  I  I107  1  0.83430083  0.83471127  0.66303434  1
  I  I108  1  0.00004334  0.16846986  0.16756914  1
  I  I109  1  0.00045599  0.16364082  0.49861770  1
  I  I110  1  -0.00005219  0.16994239  0.83605474  1
  I  I111  1  -0.00017861  0.50484437  0.16547950  1
  I  I112  1  0.00319948  0.50380622  0.50040082  1
  I  I113  1  0.00025021  0.50090593  0.83447370  1
  I  I114  1  -0.00414501  0.82562999  0.17481555  1
  I  I115  1  -0.00013025  0.83235179  0.49648120  1
  I  I116  1  -0.00005982  0.82835844  0.83011478  1
  I  I117  1  0.33658232  0.17467767  0.17083314  1
  I  I118  1  0.33052759  0.16797665  0.49880388  1
  I  I119  1  0.33334200  0.17013815  0.82901159  1
  I  I120  1  0.33332810  0.49535908  0.16557839  1
  I  I121  1  0.32919772  0.49965799  0.50037897  1
  I  I122  1  0.33305455  0.50016091  0.83463697  1
  I  I123  1  0.33320123  0.83109056  0.17057039  1
  I  I124  1  0.33241244  0.83059600  0.50003758  1
  I  I125  1  0.33328740  0.82999885  0.83175280  1
  I  I126  1  0.66418240  0.17519207  0.17149023  1
  I  I127  1  0.66908868  0.16329619  0.49830168  1
  I  I128  1  0.66659948  0.16946603  0.82937987  1
  I  I129  1  0.66686015  0.50014374  0.16057435  1
  I  I130  1  0.66658549  0.50016494  0.50107766  1
  I  I131  1  0.66671352  0.50075763  0.83995403  1
  I  I132  1  0.66990996  0.82503974  0.17594823  1
  I  I133  1  0.66794180  0.83615570  0.49570915  1
  I  I134  1  0.66682794  0.82965901  0.82936774  1
