# generated using pymatgen
data_Cs27Sn13Pb14I81
_symmetry_space_group_name_H-M   'P 1'
_cell_length_a   18.98720305
_cell_length_b   18.98187561
_cell_length_c   19.00504632
_cell_angle_alpha   89.99909660
_cell_angle_beta   89.99988078
_cell_angle_gamma   89.99372087
_symmetry_Int_Tables_number   1
_chemical_formula_structural   Cs27Sn13Pb14I81
_chemical_formula_sum   'Cs27 Sn13 Pb14 I81'
_cell_volume   6849.66052064
_cell_formula_units_Z   1
loop_
 _symmetry_equiv_pos_site_id
 _symmetry_equiv_pos_as_xyz
  1  'x, y, z'
loop_
 _atom_site_type_symbol
 _atom_site_label
 _atom_site_symmetry_multiplicity
 _atom_site_fract_x
 _atom_site_fract_y
 _atom_site_fract_z
 _atom_site_occupancy
  Cs  Cs0  1  0.00020741  0.00158587  -0.00089991  1
  Cs  Cs1  1  -0.00108982  0.00020969  0.33465054  1
  Cs  Cs2  1  0.00020029  0.00064067  0.66677799  1
  Cs  Cs3  1  -0.00067190  0.33557764  0.00059432  1
  Cs  Cs4  1  0.00544839  0.33410600  0.33115620  1
  Cs  Cs5  1  0.00218486  0.33548467  0.66828105  1
  Cs  Cs6  1  -0.01116017  0.65946040  -0.00287640  1
  Cs  Cs7  1  -0.00243406  0.66523296  0.33256333  1
  Cs  Cs8  1  -0.00070297  0.66208115  0.66975387  1
  Cs  Cs9  1  0.33187775  -0.00115207  -0.00105940  1
  Cs  Cs10  1  0.33128767  -0.00313587  0.33174049  1
  Cs  Cs11  1  0.33235580  -0.00181748  0.66826092  1
  Cs  Cs12  1  0.33439361  0.33181601  0.01117332  1
  Cs  Cs13  1  0.33151982  0.33339752  0.32227232  1
  Cs  Cs14  1  0.33345973  0.33511482  0.66707872  1
  Cs  Cs15  1  0.33529487  0.67134232  -0.00195404  1
  Cs  Cs16  1  0.33479390  0.66920069  0.33626738  1
  Cs  Cs17  1  0.33417983  0.66751786  0.66573138  1
  Cs  Cs18  1  0.66878370  0.00099398  -0.00235105  1
  Cs  Cs19  1  0.67199533  0.00143081  0.33966828  1
  Cs  Cs20  1  0.66881884  0.00394056  0.66380715  1
  Cs  Cs21  1  0.66513240  0.33306098  0.00374352  1
  Cs  Cs22  1  0.66421305  0.33304742  0.33589026  1
  Cs  Cs23  1  0.66392381  0.33025588  0.66303522  1
  Cs  Cs24  1  0.67218970  0.66428497  0.00071200  1
  Cs  Cs25  1  0.66687706  0.66565757  0.33262713  1
  Cs  Cs26  1  0.66511320  0.66642222  0.66651688  1
  Sn  Sn27  1  0.83265224  0.50005034  0.50037108  1
  Sn  Sn28  1  0.83339724  0.16630888  0.16601671  1
  Sn  Sn29  1  0.16671268  0.83360368  0.83345602  1
  Sn  Sn30  1  0.50037662  0.50065635  0.50085938  1
  Sn  Sn31  1  0.50006576  0.83364763  0.16660067  1
  Sn  Sn32  1  0.16739563  0.16609486  0.50089517  1
  Sn  Sn33  1  0.49936410  0.50046490  0.83280406  1
  Sn  Sn34  1  0.16706666  0.83394141  0.50036632  1
  Sn  Sn35  1  0.49954570  0.83300434  0.50025867  1
  Sn  Sn36  1  0.16630734  0.16629539  0.83264873  1
  Sn  Sn37  1  0.16647456  0.83304833  0.16611349  1
  Sn  Sn38  1  0.49974507  0.83275862  0.83316732  1
  Sn  Sn39  1  0.83407177  0.16654766  0.83384908  1
  Pb  Pb40  1  0.83339201  0.83503631  0.16663573  1
  Pb  Pb41  1  0.49992025  0.50285723  0.16686407  1
  Pb  Pb42  1  0.49906643  0.16661017  0.83330174  1
  Pb  Pb43  1  0.50249509  0.16303493  0.16683775  1
  Pb  Pb44  1  0.83374724  0.83126287  0.50027797  1
  Pb  Pb45  1  0.16945625  0.49996639  0.83357506  1
  Pb  Pb46  1  0.16671507  0.50418628  0.16622291  1
  Pb  Pb47  1  0.83326246  0.83518774  0.83306220  1
  Pb  Pb48  1  0.83614157  0.16900751  0.50040424  1
  Pb  Pb49  1  0.83026629  0.49682098  0.83132876  1
  Pb  Pb50  1  0.16789848  0.50040645  0.50000916  1
  Pb  Pb51  1  0.16513352  0.16431267  0.16613007  1
  Pb  Pb52  1  0.83305246  0.49712164  0.16930591  1
  Pb  Pb53  1  0.49670232  0.16670203  0.49994145  1
  I  I54  1  0.17122912  -0.00361374  0.16727769  1
  I  I55  1  0.17119007  -0.00156555  0.50050459  1
  I  I56  1  0.16895802  -0.00111501  0.83242825  1
  I  I57  1  0.16546028  0.33293989  0.16804502  1
  I  I58  1  0.16462427  0.33065688  0.50573918  1
  I  I59  1  0.16308603  0.32998666  0.82662413  1
  I  I60  1  0.17152801  0.67250860  0.16928938  1
  I  I61  1  0.16810761  0.67034623  0.50033946  1
  I  I62  1  0.16990591  0.67041209  0.83127585  1
  I  I63  1  0.49435086  -0.00496280  0.16583972  1
  I  I64  1  0.49823268  -0.00364914  0.50116355  1
  I  I65  1  0.49892869  -0.00351955  0.83261152  1
  I  I66  1  0.50093444  0.33333600  0.16646100  1
  I  I67  1  0.50395030  0.33645183  0.50638133  1
  I  I68  1  0.50166926  0.33605243  0.82605019  1
  I  I69  1  0.49547352  0.67093897  0.16728969  1
  I  I70  1  0.49794677  0.66811571  0.50044889  1
  I  I71  1  0.49378875  0.66851217  0.83201487  1
  I  I72  1  0.83299276  0.00281058  0.16391881  1
  I  I73  1  0.83035824  0.00033172  0.49949277  1
  I  I74  1  0.83229483  0.00315669  0.83543783  1
  I  I75  1  0.83489619  0.32945544  0.16105589  1
  I  I76  1  0.82617592  0.33641649  0.50030840  1
  I  I77  1  0.84014598  0.32928448  0.83708494  1
  I  I78  1  0.83430787  0.66656408  0.16763895  1
  I  I79  1  0.83361901  0.66356813  0.49982627  1
  I  I80  1  0.83663204  0.66628452  0.83281796  1
  I  I81  1  0.16497115  0.16186718  -0.00304174  1
  I  I82  1  0.16516974  0.16305847  0.33558917  1
  I  I83  1  0.16074108  0.15799103  0.66732284  1
  I  I84  1  0.16836337  0.49769942  -0.00025632  1
  I  I85  1  0.16761420  0.49714134  0.33353935  1
  I  I86  1  0.16396206  0.50285525  0.66664748  1
  I  I87  1  0.17545160  0.83901988  -0.00098060  1
  I  I88  1  0.17336308  0.83746028  0.33414398  1
  I  I89  1  0.17345999  0.83853567  0.66676558  1
  I  I90  1  0.49626428  0.16788418  -0.00009751  1
  I  I91  1  0.50103804  0.16773058  0.33350309  1
  I  I92  1  0.50579446  0.16290578  0.66667175  1
  I  I93  1  0.49856638  0.50373164  -0.00289115  1
  I  I94  1  0.50388056  0.50409131  0.33663304  1
  I  I95  1  0.50346990  0.50870846  0.66598644  1
  I  I96  1  0.49289994  0.83069269  -0.00082495  1
  I  I97  1  0.49321635  0.82985422  0.33430266  1
  I  I98  1  0.49339731  0.82847465  0.66653036  1
  I  I99  1  0.83936373  0.16468148  -0.00111463  1
  I  I100  1  0.83399903  0.16685988  0.33171140  1
  I  I101  1  0.83546505  0.16724662  0.66915406  1
  I  I102  1  0.83251743  0.50139523  -0.00026313  1
  I  I103  1  0.82635612  0.49922525  0.33697385  1
  I  I104  1  0.83192629  0.49874618  0.66381971  1
  I  I105  1  0.83277749  0.83184910  -0.00016526  1
  I  I106  1  0.83347983  0.83661740  0.33349743  1
  I  I107  1  0.83301501  0.83667720  0.66663346  1
  I  I108  1  -0.00239854  0.16333543  0.16615120  1
  I  I109  1  0.00363821  0.16086594  0.50086675  1
  I  I110  1  0.00127979  0.15977395  0.83271671  1
  I  I111  1  -0.00031762  0.50304181  0.16958459  1
  I  I112  1  -0.00168954  0.49914158  0.49864076  1
  I  I113  1  -0.00013494  0.50314408  0.83167262  1
  I  I114  1  0.00329245  0.83602106  0.16833540  1
  I  I115  1  0.00373050  0.83647769  0.49914963  1
  I  I116  1  0.00350796  0.83648867  0.83286356  1
  I  I117  1  0.33306266  0.16946337  0.16664281  1
  I  I118  1  0.32900314  0.16573517  0.50739232  1
  I  I119  1  0.32994898  0.16406604  0.82784934  1
  I  I120  1  0.33358691  0.49309704  0.16959106  1
  I  I121  1  0.33675864  0.50296801  0.50487471  1
  I  I122  1  0.33718180  0.50086141  0.82430319  1
  I  I123  1  0.33331326  0.83419608  0.16722982  1
  I  I124  1  0.33352162  0.83131047  0.49978575  1
  I  I125  1  0.33320905  0.83561523  0.83321017  1
  I  I126  1  0.67022974  0.16511378  0.15961576  1
  I  I127  1  0.66665485  0.16402301  0.50021292  1
  I  I128  1  0.66885455  0.16648539  0.83769775  1
  I  I129  1  0.66646258  0.50253986  0.16475265  1
  I  I130  1  0.66494489  0.50506560  0.50364900  1
  I  I131  1  0.66275280  0.50710527  0.83156665  1
  I  I132  1  0.66335051  0.83432762  0.16694869  1
  I  I133  1  0.66326193  0.83156709  0.49948281  1
  I  I134  1  0.66306607  0.83077232  0.83359171  1
