# generated using pymatgen
data_Cs27Sn14Pb13I81
_symmetry_space_group_name_H-M   'P 1'
_cell_length_a   18.98346587
_cell_length_b   18.96510014
_cell_length_c   18.98271600
_cell_angle_alpha   89.99900047
_cell_angle_beta   90.00089056
_cell_angle_gamma   89.99941935
_symmetry_Int_Tables_number   1
_chemical_formula_structural   Cs27Sn14Pb13I81
_chemical_formula_sum   'Cs27 Sn14 Pb13 I81'
_cell_volume   6834.22064728
_cell_formula_units_Z   1
loop_
 _symmetry_equiv_pos_site_id
 _symmetry_equiv_pos_as_xyz
  1  'x, y, z'
loop_
 _atom_site_type_symbol
 _atom_site_label
 _atom_site_symmetry_multiplicity
 _atom_site_fract_x
 _atom_site_fract_y
 _atom_site_fract_z
 _atom_site_occupancy
  Cs  Cs0  1  0.00284143  0.00511663  -0.00063854  1
  Cs  Cs1  1  -0.00142698  -0.00272655  0.33304539  1
  Cs  Cs2  1  0.00474975  -0.00103819  0.66909768  1
  Cs  Cs3  1  0.00254337  0.32780325  0.00276429  1
  Cs  Cs4  1  0.00170293  0.33208810  0.33267940  1
  Cs  Cs5  1  -0.00086268  0.33654254  0.66505325  1
  Cs  Cs6  1  -0.00319808  0.66669329  0.00024024  1
  Cs  Cs7  1  -0.00135597  0.66767644  0.33354460  1
  Cs  Cs8  1  -0.00014845  0.66655752  0.66625517  1
  Cs  Cs9  1  0.33187767  0.00808335  0.00005490  1
  Cs  Cs10  1  0.33731517  -0.00155872  0.33279088  1
  Cs  Cs11  1  0.32997744  -0.00010916  0.66901893  1
  Cs  Cs12  1  0.33001876  0.32856626  0.00869189  1
  Cs  Cs13  1  0.33075870  0.33325824  0.32849466  1
  Cs  Cs14  1  0.33549862  0.33539099  0.66522819  1
  Cs  Cs15  1  0.33754368  0.66533758  0.00237974  1
  Cs  Cs16  1  0.33569209  0.66635468  0.33147154  1
  Cs  Cs17  1  0.33380425  0.66672897  0.66635795  1
  Cs  Cs18  1  0.66501825  0.00202958  0.00049349  1
  Cs  Cs19  1  0.66494025  0.00389162  0.33383029  1
  Cs  Cs20  1  0.66568146  0.00388615  0.66564259  1
  Cs  Cs21  1  0.66656090  0.32745642  -0.00193144  1
  Cs  Cs22  1  0.66615220  0.32598304  0.33644864  1
  Cs  Cs23  1  0.66512109  0.33254601  0.66587650  1
  Cs  Cs24  1  0.66802851  0.66730658  -0.00189697  1
  Cs  Cs25  1  0.66800032  0.66736617  0.33351970  1
  Cs  Cs26  1  0.66712456  0.66550612  0.66760125  1
  Sn  Sn27  1  0.16684222  0.50054216  0.83315787  1
  Sn  Sn28  1  0.83242871  0.83259280  0.50046603  1
  Sn  Sn29  1  0.83266178  0.83289610  0.83302000  1
  Sn  Sn30  1  0.83334493  0.50045891  0.83359711  1
  Sn  Sn31  1  0.49989176  0.50069212  0.83288813  1
  Sn  Sn32  1  0.83426939  0.83243690  0.16644045  1
  Sn  Sn33  1  0.16669007  0.49942659  0.50053036  1
  Sn  Sn34  1  0.83306050  0.50076719  0.49969353  1
  Sn  Sn35  1  0.50073982  0.83248056  0.83234685  1
  Sn  Sn36  1  0.50108204  0.83211612  0.50128186  1
  Sn  Sn37  1  0.16614550  0.83241559  0.16635954  1
  Sn  Sn38  1  0.50025670  0.50110418  0.50040149  1
  Sn  Sn39  1  0.16651774  0.16744337  0.50032657  1
  Sn  Sn40  1  0.83290002  0.50041903  0.16670391  1
  Pb  Pb41  1  0.49998718  0.16696733  0.83292610  1
  Pb  Pb42  1  0.16703740  0.83097385  0.83555187  1
  Pb  Pb43  1  0.83338781  0.16648393  0.83290780  1
  Pb  Pb44  1  0.83542703  0.16633158  0.50029072  1
  Pb  Pb45  1  0.16663504  0.17031121  0.83079689  1
  Pb  Pb46  1  0.83335937  0.16627995  0.16683792  1
  Pb  Pb47  1  0.16440919  0.50182535  0.16683044  1
  Pb  Pb48  1  0.16626576  0.16345314  0.16962150  1
  Pb  Pb49  1  0.50340085  0.50000546  0.16660137  1
  Pb  Pb50  1  0.16695071  0.83226587  0.49875226  1
  Pb  Pb51  1  0.50104240  0.83316700  0.16620889  1
  Pb  Pb52  1  0.50020941  0.16686619  0.16681391  1
  Pb  Pb53  1  0.49756130  0.16667377  0.50027485  1
  I  I54  1  0.15963458  -0.00425799  0.16738756  1
  I  I55  1  0.16615670  0.00118107  0.49575250  1
  I  I56  1  0.16649921  -0.00019066  0.83346775  1
  I  I57  1  0.16555623  0.33353739  0.16433634  1
  I  I58  1  0.16601852  0.33614445  0.50379598  1
  I  I59  1  0.16553702  0.33877773  0.83337808  1
  I  I60  1  0.16368292  0.66936753  0.17039455  1
  I  I61  1  0.16570929  0.66321485  0.50285473  1
  I  I62  1  0.16545793  0.66294234  0.82478770  1
  I  I63  1  0.50110772  -0.00075108  0.16774165  1
  I  I64  1  0.50344398  -0.00367274  0.50238596  1
  I  I65  1  0.50553551  -0.00383846  0.82978732  1
  I  I66  1  0.50101109  0.33409448  0.16685952  1
  I  I67  1  0.50382049  0.33721416  0.50446896  1
  I  I68  1  0.50225797  0.33765394  0.82783317  1
  I  I69  1  0.49556113  0.66668274  0.16787584  1
  I  I70  1  0.49868888  0.66606582  0.50379722  1
  I  I71  1  0.50155527  0.66605024  0.82871819  1
  I  I72  1  0.83671457  -0.00421619  0.16733485  1
  I  I73  1  0.83025906  -0.00397159  0.49874764  1
  I  I74  1  0.82852199  -0.00423531  0.83366995  1
  I  I75  1  0.83287310  0.33691104  0.16672883  1
  I  I76  1  0.83059717  0.33731759  0.50017263  1
  I  I77  1  0.83250938  0.33786243  0.83296774  1
  I  I78  1  0.83768158  0.66727020  0.16723744  1
  I  I79  1  0.83529251  0.66595649  0.49988175  1
  I  I80  1  0.83273394  0.66600136  0.83311360  1
  I  I81  1  0.16736341  0.16718633  0.00010867  1
  I  I82  1  0.16670947  0.17615649  0.33688475  1
  I  I83  1  0.16618047  0.16531801  0.66318514  1
  I  I84  1  0.16688069  0.50406302  -0.00267699  1
  I  I85  1  0.16680940  0.49744661  0.33656548  1
  I  I86  1  0.16235029  0.49712058  0.66586007  1
  I  I87  1  0.16153142  0.82997407  0.00297259  1
  I  I88  1  0.16157177  0.83182356  0.33112943  1
  I  I89  1  0.16414671  0.83647525  0.66672279  1
  I  I90  1  0.49884221  0.16615289  -0.00042680  1
  I  I91  1  0.49983512  0.16560775  0.33408585  1
  I  I92  1  0.49950238  0.16615983  0.66647074  1
  I  I93  1  0.49951948  0.50538593  -0.00367520  1
  I  I94  1  0.49841760  0.50463147  0.33702159  1
  I  I95  1  0.50311711  0.50334429  0.66617535  1
  I  I96  1  0.50321188  0.82769095  -0.00347493  1
  I  I97  1  0.50168982  0.82953889  0.33646186  1
  I  I98  1  0.50694218  0.82918459  0.66629396  1
  I  I99  1  0.83444077  0.16772434  -0.00009355  1
  I  I100  1  0.83385755  0.16704616  0.33360759  1
  I  I101  1  0.83452393  0.16669527  0.66651530  1
  I  I102  1  0.83363317  0.50696217  -0.00097661  1
  I  I103  1  0.83462209  0.50652867  0.33451207  1
  I  I104  1  0.83446463  0.50471067  0.66644938  1
  I  I105  1  0.83314594  0.82621880  -0.00060336  1
  I  I106  1  0.83442668  0.82725596  0.33403188  1
  I  I107  1  0.82955691  0.82719986  0.66649904  1
  I  I108  1  0.00000045  0.16827078  0.16722315  1
  I  I109  1  0.00304390  0.17184594  0.49966698  1
  I  I110  1  0.00014717  0.16521380  0.83297813  1
  I  I111  1  -0.00362715  0.50309248  0.16713100  1
  I  I112  1  -0.00079185  0.50006297  0.50263153  1
  I  I113  1  -0.00103370  0.50400469  0.82945499  1
  I  I114  1  -0.00209327  0.82919783  0.16860239  1
  I  I115  1  -0.00298432  0.83047606  0.50147030  1
  I  I116  1  -0.00314197  0.82886362  0.83031277  1
  I  I117  1  0.33273158  0.16500910  0.16704859  1
  I  I118  1  0.32997622  0.17077462  0.49988589  1
  I  I119  1  0.33322005  0.16385352  0.83285036  1
  I  I120  1  0.33330298  0.50073669  0.16666325  1
  I  I121  1  0.33366891  0.50048718  0.50712271  1
  I  I122  1  0.33401036  0.50484930  0.82432155  1
  I  I123  1  0.33141251  0.83406406  0.16893887  1
  I  I124  1  0.33613549  0.83083958  0.50220453  1
  I  I125  1  0.33634608  0.82869017  0.82901382  1
  I  I126  1  0.66711054  0.16497082  0.16772400  1
  I  I127  1  0.66654563  0.16866672  0.49907816  1
  I  I128  1  0.66669053  0.17104763  0.83326176  1
  I  I129  1  0.67140907  0.50919792  0.16692405  1
  I  I130  1  0.66716209  0.50498980  0.50206115  1
  I  I131  1  0.66715392  0.50417975  0.83078870  1
  I  I132  1  0.67041315  0.82840076  0.16693904  1
  I  I133  1  0.66746742  0.82601960  0.49810428  1
  I  I134  1  0.66754947  0.82534722  0.83475205  1
