# generated using pymatgen
data_Cs27Sn14Pb13I81
_symmetry_space_group_name_H-M   'P 1'
_cell_length_a   18.97886697
_cell_length_b   18.97104895
_cell_length_c   18.97886696
_cell_angle_alpha   90.00097517
_cell_angle_beta   89.99799996
_cell_angle_gamma   90.00097527
_symmetry_Int_Tables_number   1
_chemical_formula_structural   Cs27Sn14Pb13I81
_chemical_formula_sum   'Cs27 Sn14 Pb13 I81'
_cell_volume   6833.32233219
_cell_formula_units_Z   1
loop_
 _symmetry_equiv_pos_site_id
 _symmetry_equiv_pos_as_xyz
  1  'x, y, z'
loop_
 _atom_site_type_symbol
 _atom_site_label
 _atom_site_symmetry_multiplicity
 _atom_site_fract_x
 _atom_site_fract_y
 _atom_site_fract_z
 _atom_site_occupancy
  Cs  Cs0  1  0.00240367  -0.00130356  -0.00162385  1
  Cs  Cs1  1  -0.00121819  -0.00100871  0.33305524  1
  Cs  Cs2  1  0.00241015  -0.00075317  0.66907683  1
  Cs  Cs3  1  -0.00315986  0.33659930  -0.00426968  1
  Cs  Cs4  1  0.00401781  0.33404351  0.33623132  1
  Cs  Cs5  1  0.00060940  0.33092581  0.66727623  1
  Cs  Cs6  1  -0.00075032  0.66615780  0.00251558  1
  Cs  Cs7  1  -0.00168604  0.66661437  0.33098338  1
  Cs  Cs8  1  0.00068351  0.67090861  0.66735030  1
  Cs  Cs9  1  0.33370400  -0.00031829  0.00037058  1
  Cs  Cs10  1  0.33530294  0.00074470  0.33074755  1
  Cs  Cs11  1  0.33170945  -0.00130343  0.66907021  1
  Cs  Cs12  1  0.33738643  0.33669327  0.00405313  1
  Cs  Cs13  1  0.32846543  0.33783484  0.33328071  1
  Cs  Cs14  1  0.32906370  0.33659922  0.66350658  1
  Cs  Cs15  1  0.33178400  0.66593143  -0.00154946  1
  Cs  Cs16  1  0.33365074  0.66110112  0.33634816  1
  Cs  Cs17  1  0.33584890  0.66615774  0.66591645  1
  Cs  Cs18  1  0.66408083  0.00074477  0.00196970  1
  Cs  Cs19  1  0.66635181  0.00042923  0.33301838  1
  Cs  Cs20  1  0.66638854  -0.00100871  0.66544845  1
  Cs  Cs21  1  0.66661409  0.33783482  -0.00486797  1
  Cs  Cs22  1  0.66617669  0.32617487  0.33284325  1
  Cs  Cs23  1  0.66956457  0.33404351  0.67068438  1
  Cs  Cs24  1  0.66968151  0.66110097  0.00031735  1
  Cs  Cs25  1  0.66841538  0.66616446  0.33508210  1
  Cs  Cs26  1  0.66431670  0.66661451  0.66498057  1
  Sn  Sn27  1  0.49933065  0.83345942  0.16599728  1
  Sn  Sn28  1  0.50120071  0.83412473  0.83445142  1
  Sn  Sn29  1  0.49985785  0.16592515  0.83322860  1
  Sn  Sn30  1  0.83285119  0.16662251  0.49951779  1
  Sn  Sn31  1  0.16778477  0.83412473  0.16786736  1
  Sn  Sn32  1  0.16656190  0.16592513  0.16652447  1
  Sn  Sn33  1  0.50017162  0.16638490  0.50016296  1
  Sn  Sn34  1  0.83210990  0.83389389  0.83295456  1
  Sn  Sn35  1  0.16628786  0.83389383  0.49877658  1
  Sn  Sn36  1  0.83319366  0.49980661  0.49986033  1
  Sn  Sn37  1  0.49995770  0.16583978  0.16662432  1
  Sn  Sn38  1  0.83349633  0.16638489  0.16683828  1
  Sn  Sn39  1  0.16660846  0.49993992  0.83327508  1
  Sn  Sn40  1  0.83403333  0.83346991  0.50069998  1
  Pb  Pb41  1  0.49842165  0.50044580  0.83319719  1
  Pb  Pb42  1  0.83511939  0.50301826  0.83096285  1
  Pb  Pb43  1  0.50263877  0.49633997  0.49999927  1
  Pb  Pb44  1  0.50027889  0.50040761  0.16694556  1
  Pb  Pb45  1  0.16429617  0.50301828  0.50178615  1
  Pb  Pb46  1  0.16722251  0.83232117  0.83388920  1
  Pb  Pb47  1  0.50009633  0.83503735  0.49960861  1
  Pb  Pb48  1  0.83333260  0.49633995  0.16930540  1
  Pb  Pb49  1  0.16653049  0.50044585  0.16508832  1
  Pb  Pb50  1  0.83294194  0.83503734  0.16676300  1
  Pb  Pb51  1  0.16959050  0.16868355  0.83625720  1
  Pb  Pb52  1  0.83154904  0.16456826  0.83317380  1
  Pb  Pb53  1  0.16650716  0.16456827  0.49821565  1
  I  I54  1  0.16807041  -0.00034198  0.16975816  1
  I  I55  1  0.16034272  -0.00331525  0.50020569  1
  I  I56  1  0.16500157  -0.00003518  0.83166811  1
  I  I57  1  0.16848615  0.33006817  0.16562423  1
  I  I58  1  0.16661912  0.33314867  0.49941714  1
  I  I59  1  0.16700365  0.33596563  0.83367017  1
  I  I60  1  0.17113092  0.67044101  0.16894570  1
  I  I61  1  0.16215266  0.67107920  0.49405276  1
  I  I62  1  0.16754904  0.66493320  0.83421608  1
  I  I63  1  0.49907993  0.00090149  0.16574658  1
  I  I64  1  0.50626992  0.00311927  0.49892204  1
  I  I65  1  0.50309151  -0.00034199  0.83473720  1
  I  I66  1  0.49938351  0.32907592  0.16605016  1
  I  I67  1  0.50412541  0.32780068  0.49911064  1
  I  I68  1  0.49895765  0.33006814  0.83515268  1
  I  I69  1  0.49464809  0.67069586  0.16131483  1
  I  I70  1  0.50020338  0.66690845  0.50064304  1
  I  I71  1  0.50227881  0.67044102  0.83779766  1
  I  I72  1  0.83225542  0.00311929  0.17293634  1
  I  I73  1  0.83265249  0.00015964  0.49931940  1
  I  I74  1  0.83353885  -0.00331529  0.82700922  1
  I  I75  1  0.83244364  0.32780069  0.17079220  1
  I  I76  1  0.82788613  0.33176757  0.49455254  1
  I  I77  1  0.83275036  0.33314869  0.83328588  1
  I  I78  1  0.83397657  0.66690846  0.16687021  1
  I  I79  1  0.83857252  0.66822250  0.50523911  1
  I  I80  1  0.82738647  0.67107917  0.82881918  1
  I  I81  1  0.16521688  0.15893562  0.00438428  1
  I  I82  1  0.17094198  0.16538109  0.33006409  1
  I  I83  1  0.16698906  0.16640578  0.66673499  1
  I  I84  1  0.16653825  0.50243282  -0.00247534  1
  I  I85  1  0.16587108  0.49861722  0.33352244  1
  I  I86  1  0.16734886  0.50161972  0.66920750  1
  I  I87  1  0.16713984  0.83600386  0.00289099  1
  I  I88  1  0.16580108  0.83730546  0.33265737  1
  I  I89  1  0.16493296  0.83109567  0.66471179  1
  I  I90  1  0.49935029  0.16211051  0.00086791  1
  I  I91  1  0.50260154  0.16218631  0.33250824  1
  I  I92  1  0.50600024  0.16230811  0.66662000  1
  I  I93  1  0.50022177  0.49523902  -0.00005341  1
  I  I94  1  0.49882529  0.50172307  0.33358625  1
  I  I95  1  0.49845577  0.50073077  0.66660090  1
  I  I96  1  0.49904181  0.84194453  0.00021692  1
  I  I97  1  0.49939622  0.83881467  0.33066312  1
  I  I98  1  0.50037815  0.83774034  0.66885108  1
  I  I99  1  0.83285298  0.16337489  0.00265882  1
  I  I100  1  0.82785972  0.16429469  0.33413504  1
  I  I101  1  0.82825812  0.16809515  0.66344362  1
  I  I102  1  0.83440639  0.50008417  -0.00025221  1
  I  I103  1  0.83453982  0.50734430  0.33715764  1
  I  I104  1  0.83406477  0.49384359  0.66329053  1
  I  I105  1  0.83336698  0.83599528  -0.00206372  1
  I  I106  1  0.83434495  0.83232420  0.33620145  1
  I  I107  1  0.83418108  0.83542243  0.66530005  1
  I  I108  1  -0.00004669  0.16230832  0.17266692  1
  I  I109  1  -0.00322306  0.16809495  0.49492462  1
  I  I110  1  0.00006834  0.16640575  0.83365583  1
  I  I111  1  -0.00006578  0.50073059  0.16512279  1
  I  I112  1  -0.00337612  0.49384383  0.50073084  1
  I  I113  1  0.00254078  0.50161935  0.83401554  1
  I  I114  1  0.00218440  0.83774027  0.16704461  1
  I  I115  1  -0.00136662  0.83542256  0.50084781  1
  I  I116  1  -0.00195489  0.83109597  0.83159959  1
  I  I117  1  0.33420124  0.16211051  0.16601680  1
  I  I118  1  0.33599213  0.16337480  0.49951988  1
  I  I119  1  0.33771762  0.15893567  0.83188366  1
  I  I120  1  0.33327995  0.49523901  0.16688809  1
  I  I121  1  0.33308114  0.50008400  0.50107307  1
  I  I122  1  0.33085795  0.50243306  0.83320522  1
  I  I123  1  0.33355025  0.84194456  0.16570882  1
  I  I124  1  0.33126959  0.83599541  0.50003356  1
  I  I125  1  0.33622435  0.83600383  0.83380621  1
  I  I126  1  0.66584152  0.16218618  0.16926837  1
  I  I127  1  0.66746836  0.16429501  0.49452643  1
  I  I128  1  0.66339743  0.16538110  0.83760858  1
  I  I129  1  0.66691961  0.50172329  0.16549188  1
  I  I130  1  0.67049095  0.50734430  0.50120711  1
  I  I131  1  0.66685578  0.49861746  0.83253747  1
  I  I132  1  0.66399643  0.83881470  0.16606276  1
  I  I133  1  0.66953471  0.83232394  0.50101161  1
  I  I134  1  0.66599072  0.83730520  0.83246793  1
