# generated using pymatgen
data_Cs27Sn13Pb14I81
_symmetry_space_group_name_H-M   'P 1'
_cell_length_a   18.97286282
_cell_length_b   18.97687710
_cell_length_c   18.97804321
_cell_angle_alpha   90.00062510
_cell_angle_beta   90.00071988
_cell_angle_gamma   90.00074232
_symmetry_Int_Tables_number   1
_chemical_formula_structural   Cs27Sn13Pb14I81
_chemical_formula_sum   'Cs27 Sn13 Pb14 I81'
_cell_volume   6832.96258395
_cell_formula_units_Z   1
loop_
 _symmetry_equiv_pos_site_id
 _symmetry_equiv_pos_as_xyz
  1  'x, y, z'
loop_
 _atom_site_type_symbol
 _atom_site_label
 _atom_site_symmetry_multiplicity
 _atom_site_fract_x
 _atom_site_fract_y
 _atom_site_fract_z
 _atom_site_occupancy
  Cs  Cs0  1  -0.00091493  0.00080507  -0.00010033  1
  Cs  Cs1  1  -0.00020029  0.00171810  0.33497832  1
  Cs  Cs2  1  -0.00117363  0.00064618  0.66640814  1
  Cs  Cs3  1  -0.00119539  0.33173559  0.00146950  1
  Cs  Cs4  1  0.00187383  0.33312081  0.33039022  1
  Cs  Cs5  1  0.00162483  0.33024696  0.66793267  1
  Cs  Cs6  1  0.00422330  0.66912334  -0.00438294  1
  Cs  Cs7  1  -0.00015415  0.66470810  0.33782763  1
  Cs  Cs8  1  -0.00017823  0.66664978  0.66691949  1
  Cs  Cs9  1  0.33302390  -0.00242461  0.00343685  1
  Cs  Cs10  1  0.33294844  -0.00010543  0.33298453  1
  Cs  Cs11  1  0.33618972  0.00235196  0.66337416  1
  Cs  Cs12  1  0.33408587  0.33400268  -0.00255408  1
  Cs  Cs13  1  0.33050441  0.33145078  0.33693891  1
  Cs  Cs14  1  0.34139788  0.33204805  0.66574762  1
  Cs  Cs15  1  0.33157189  0.66704813  0.00157134  1
  Cs  Cs16  1  0.33376387  0.66828053  0.32960108  1
  Cs  Cs17  1  0.33111501  0.66555827  0.66936994  1
  Cs  Cs18  1  0.66819770  0.00060993  -0.00134017  1
  Cs  Cs19  1  0.66929824  -0.00191672  0.33108027  1
  Cs  Cs20  1  0.66704794  -0.00194667  0.66805679  1
  Cs  Cs21  1  0.66666822  0.33423247  0.00177018  1
  Cs  Cs22  1  0.66780283  0.34368790  0.33008441  1
  Cs  Cs23  1  0.65825375  0.33370770  0.66711615  1
  Cs  Cs24  1  0.66421396  0.66793467  0.00230803  1
  Cs  Cs25  1  0.66621689  0.65944165  0.33487617  1
  Cs  Cs26  1  0.66933698  0.66954726  0.66292674  1
  Sn  Sn27  1  0.16744880  0.83277099  0.50018490  1
  Sn  Sn28  1  0.83327230  0.49981110  0.83316491  1
  Sn  Sn29  1  0.49943629  0.16668884  0.16685083  1
  Sn  Sn30  1  0.16659147  0.16636045  0.83389988  1
  Sn  Sn31  1  0.83267360  0.83310276  0.83432464  1
  Sn  Sn32  1  0.83374524  0.16718940  0.83222125  1
  Sn  Sn33  1  0.16663163  0.50059318  0.49985315  1
  Sn  Sn34  1  0.83278212  0.16717860  0.50057992  1
  Sn  Sn35  1  0.16646484  0.49944515  0.16692239  1
  Sn  Sn36  1  0.83362381  0.83299689  0.16619482  1
  Sn  Sn37  1  0.49916133  0.83349326  0.50043238  1
  Sn  Sn38  1  0.16757669  0.16720323  0.16564247  1
  Sn  Sn39  1  0.50033725  0.83347108  0.83286669  1
  Pb  Pb40  1  0.83548454  0.49697953  0.50238149  1
  Pb  Pb41  1  0.83597269  0.50290745  0.16432693  1
  Pb  Pb42  1  0.50277667  0.50325549  0.83341246  1
  Pb  Pb43  1  0.16519658  0.49742199  0.83308863  1
  Pb  Pb44  1  0.83359229  0.16576200  0.16634527  1
  Pb  Pb45  1  0.16561212  0.16684950  0.50007436  1
  Pb  Pb46  1  0.50207278  0.83471051  0.16683447  1
  Pb  Pb47  1  0.49706158  0.49730928  0.16653911  1
  Pb  Pb48  1  0.16662183  0.83573100  0.83115693  1
  Pb  Pb49  1  0.50032856  0.16463967  0.83502802  1
  Pb  Pb50  1  0.50324863  0.16469418  0.49730119  1
  Pb  Pb51  1  0.83324027  0.83436308  0.50030204  1
  Pb  Pb52  1  0.16460181  0.83364785  0.16881098  1
  Pb  Pb53  1  0.49717938  0.50282048  0.50005298  1
  I  I54  1  0.16807280  0.00283527  0.16439268  1
  I  I55  1  0.16793860  -0.00209348  0.50021060  1
  I  I56  1  0.16019910  0.00350034  0.83784921  1
  I  I57  1  0.16868563  0.33235214  0.16928718  1
  I  I58  1  0.16195971  0.33530984  0.49802973  1
  I  I59  1  0.16018838  0.32949305  0.83359363  1
  I  I60  1  0.16335077  0.66452383  0.16911680  1
  I  I61  1  0.16869557  0.66692999  0.49478521  1
  I  I62  1  0.16541663  0.66683666  0.83506924  1
  I  I63  1  0.49361211  0.00249441  0.16639448  1
  I  I64  1  0.49355172  -0.00319225  0.50367969  1
  I  I65  1  0.50612233  -0.00312311  0.83032263  1
  I  I66  1  0.50132617  0.32927509  0.16569652  1
  I  I67  1  0.49941744  0.33318973  0.49954502  1
  I  I68  1  0.50049803  0.33308634  0.83439349  1
  I  I69  1  0.49997755  0.66678447  0.16640414  1
  I  I70  1  0.50143560  0.67103759  0.50291894  1
  I  I71  1  0.50421824  0.67147678  0.83046174  1
  I  I72  1  0.83514262  -0.00211017  0.16173610  1
  I  I73  1  0.83659666  0.00214513  0.50473687  1
  I  I74  1  0.83352915  0.00004372  0.83344023  1
  I  I75  1  0.83180730  0.33354682  0.16638607  1
  I  I76  1  0.83647848  0.32922727  0.50344142  1
  I  I77  1  0.84015539  0.33195961  0.82928650  1
  I  I78  1  0.83373487  0.67061915  0.16270884  1
  I  I79  1  0.83271259  0.66649791  0.50047021  1
  I  I80  1  0.82979780  0.66794425  0.83804241  1
  I  I81  1  0.16346129  0.17084561  0.00045795  1
  I  I82  1  0.16750522  0.16708658  0.33088505  1
  I  I83  1  0.16181631  0.16530175  0.66896114  1
  I  I84  1  0.16439843  0.49707272  0.00235692  1
  I  I85  1  0.16547408  0.49764459  0.33314475  1
  I  I86  1  0.16362905  0.50380449  0.66420270  1
  I  I87  1  0.16812160  0.83148848  -0.00013860  1
  I  I88  1  0.16965862  0.83491746  0.33665756  1
  I  I89  1  0.16483625  0.82955363  0.66334806  1
  I  I90  1  0.50007064  0.16303280  0.00269251  1
  I  I91  1  0.49389221  0.16272545  0.32997017  1
  I  I92  1  0.49760565  0.16658297  0.66664636  1
  I  I93  1  0.49766128  0.50273645  -0.00002791  1
  I  I94  1  0.50393873  0.50250819  0.33328951  1
  I  I95  1  0.49687213  0.49634635  0.66674000  1
  I  I96  1  0.50407821  0.83559228  -0.00251972  1
  I  I97  1  0.49726107  0.83627182  0.33588627  1
  I  I98  1  0.50299785  0.83512497  0.66699349  1
  I  I99  1  0.83505170  0.16639520  -0.00307836  1
  I  I100  1  0.83480955  0.16113542  0.33494915  1
  I  I101  1  0.84039831  0.16298624  0.66866628  1
  I  I102  1  0.83610631  0.49444283  -0.00343715  1
  I  I103  1  0.83288930  0.50031423  0.33333785  1
  I  I104  1  0.83691455  0.50611332  0.67012279  1
  I  I105  1  0.82894528  0.83669956  -0.00200661  1
  I  I106  1  0.83457765  0.83849718  0.33171842  1
  I  I107  1  0.83251289  0.83320963  0.66969849  1
  I  I108  1  0.00266168  0.16870324  0.16564797  1
  I  I109  1  -0.00225263  0.16292216  0.50041938  1
  I  I110  1  -0.00106175  0.16410607  0.83530425  1
  I  I111  1  0.00354308  0.49231086  0.17049752  1
  I  I112  1  0.00328879  0.50715177  0.49637574  1
  I  I113  1  -0.00284247  0.50497636  0.83342150  1
  I  I114  1  -0.00303593  0.83661869  0.16093323  1
  I  I115  1  0.00216647  0.83174049  0.49947367  1
  I  I116  1  -0.00300232  0.83302809  0.83550873  1
  I  I117  1  0.33154822  0.16829533  0.16166694  1
  I  I118  1  0.33345815  0.16740675  0.50207521  1
  I  I119  1  0.33085123  0.16496830  0.83565995  1
  I  I120  1  0.32887656  0.50063991  0.16917070  1
  I  I121  1  0.32897654  0.49916991  0.49737540  1
  I  I122  1  0.33311812  0.49994076  0.83342071  1
  I  I123  1  0.33310303  0.83248600  0.16472533  1
  I  I124  1  0.33315300  0.83130529  0.50485656  1
  I  I125  1  0.33560995  0.83623849  0.83071239  1
  I  I126  1  0.66513497  0.16135048  0.16647414  1
  I  I127  1  0.67073918  0.16244674  0.50640147  1
  I  I128  1  0.66997382  0.16665866  0.83140993  1
  I  I129  1  0.66699288  0.49896572  0.16615282  1
  I  I130  1  0.66685357  0.50063249  0.50034015  1
  I  I131  1  0.67104229  0.49360219  0.83347083  1
  I  I132  1  0.66988759  0.83783585  0.16600854  1
  I  I133  1  0.66472889  0.83780431  0.50174956  1
  I  I134  1  0.66810371  0.83601511  0.83124603  1
