# generated using pymatgen
data_Cs27Sn13Pb14I81
_symmetry_space_group_name_H-M   'P 1'
_cell_length_a   18.97850582
_cell_length_b   18.97257058
_cell_length_c   18.98242374
_cell_angle_alpha   90.00026827
_cell_angle_beta   90.00055228
_cell_angle_gamma   90.00350584
_symmetry_Int_Tables_number   1
_chemical_formula_structural   Cs27Sn13Pb14I81
_chemical_formula_sum   'Cs27 Sn13 Pb14 I81'
_cell_volume   6835.02106434
_cell_formula_units_Z   1
loop_
 _symmetry_equiv_pos_site_id
 _symmetry_equiv_pos_as_xyz
  1  'x, y, z'
loop_
 _atom_site_type_symbol
 _atom_site_label
 _atom_site_symmetry_multiplicity
 _atom_site_fract_x
 _atom_site_fract_y
 _atom_site_fract_z
 _atom_site_occupancy
  Cs  Cs0  1  0.00259190  -0.00087689  -0.00005815  1
  Cs  Cs1  1  -0.00130537  0.00049978  0.33447930  1
  Cs  Cs2  1  0.00092186  0.00036480  0.66424466  1
  Cs  Cs3  1  -0.00415890  0.33399925  -0.00073186  1
  Cs  Cs4  1  0.00162442  0.33391176  0.33323793  1
  Cs  Cs5  1  -0.00349573  0.33309181  0.66756080  1
  Cs  Cs6  1  0.00306112  0.66671640  0.00390183  1
  Cs  Cs7  1  0.00240593  0.66116028  0.33149660  1
  Cs  Cs8  1  -0.00116488  0.66696449  0.66508316  1
  Cs  Cs9  1  0.33053388  0.00040455  -0.00158012  1
  Cs  Cs10  1  0.33270862  0.00273408  0.33482371  1
  Cs  Cs11  1  0.33063497  0.00226001  0.66536127  1
  Cs  Cs12  1  0.33789174  0.33300656  -0.00282621  1
  Cs  Cs13  1  0.33217833  0.33130385  0.33577722  1
  Cs  Cs14  1  0.33535899  0.33526428  0.66769330  1
  Cs  Cs15  1  0.33330965  0.66674994  -0.00080160  1
  Cs  Cs16  1  0.33191587  0.66353535  0.33381313  1
  Cs  Cs17  1  0.33605996  0.66419673  0.66799848  1
  Cs  Cs18  1  0.66674502  -0.00114613  0.00278594  1
  Cs  Cs19  1  0.66877618  -0.00094781  0.33211388  1
  Cs  Cs20  1  0.66738750  -0.00221198  0.66482474  1
  Cs  Cs21  1  0.66578652  0.33412191  -0.00276182  1
  Cs  Cs22  1  0.66581947  0.33232561  0.33393387  1
  Cs  Cs23  1  0.66797285  0.33494087  0.66973406  1
  Cs  Cs24  1  0.66503929  0.66752299  -0.00039954  1
  Cs  Cs25  1  0.66625334  0.66838052  0.33338074  1
  Cs  Cs26  1  0.66517636  0.66755947  0.66700607  1
  Sn  Sn27  1  0.83306492  0.83336892  0.83372354  1
  Sn  Sn28  1  0.50014175  0.50083332  0.16631006  1
  Sn  Sn29  1  0.50046674  0.83320719  0.83420561  1
  Sn  Sn30  1  0.83428953  0.16589977  0.16727091  1
  Sn  Sn31  1  0.49922608  0.50123962  0.83451728  1
  Sn  Sn32  1  0.16605405  0.83350829  0.49970802  1
  Sn  Sn33  1  0.50016145  0.83271936  0.16603658  1
  Sn  Sn34  1  0.16588366  0.16643052  0.16683654  1
  Sn  Sn35  1  0.83311869  0.83381324  0.16668756  1
  Sn  Sn36  1  0.83445952  0.83364285  0.49949886  1
  Sn  Sn37  1  0.16564554  0.16581556  0.49918455  1
  Sn  Sn38  1  0.16672702  0.50016069  0.83351864  1
  Sn  Sn39  1  0.83405637  0.16584379  0.49908673  1
  Pb  Pb40  1  0.50061922  0.16653187  0.50006546  1
  Pb  Pb41  1  0.83335208  0.49986453  0.49971594  1
  Pb  Pb42  1  0.16914099  0.49692727  0.16460398  1
  Pb  Pb43  1  0.83105011  0.49986957  0.16674275  1
  Pb  Pb44  1  0.50015015  0.50007295  0.50004590  1
  Pb  Pb45  1  0.50042911  0.16615410  0.16665316  1
  Pb  Pb46  1  0.16694024  0.83485200  0.16881842  1
  Pb  Pb47  1  0.83283143  0.50299647  0.83352041  1
  Pb  Pb48  1  0.83332573  0.16377276  0.83349704  1
  Pb  Pb49  1  0.16692120  0.83183116  0.83110530  1
  Pb  Pb50  1  0.16645123  0.16910687  0.83296286  1
  Pb  Pb51  1  0.50019930  0.16583976  0.83327834  1
  Pb  Pb52  1  0.50004198  0.83339874  0.49974590  1
  Pb  Pb53  1  0.16653180  0.49945279  0.50210856  1
  I  I54  1  0.16793247  0.00289154  0.16732446  1
  I  I55  1  0.16305588  0.00035230  0.49805453  1
  I  I56  1  0.16769725  -0.00010211  0.83393274  1
  I  I57  1  0.16167299  0.32914564  0.17353857  1
  I  I58  1  0.16238754  0.32965569  0.49674497  1
  I  I59  1  0.17493805  0.33686246  0.83210090  1
  I  I60  1  0.16427937  0.66667344  0.16803707  1
  I  I61  1  0.16233973  0.66948726  0.50152613  1
  I  I62  1  0.16884146  0.66412412  0.83172074  1
  I  I63  1  0.50203977  -0.00337029  0.16237800  1
  I  I64  1  0.49856903  -0.00035325  0.50096658  1
  I  I65  1  0.50451532  -0.00422680  0.83781491  1
  I  I66  1  0.49949169  0.33588357  0.16152480  1
  I  I67  1  0.49976471  0.33330646  0.50009847  1
  I  I68  1  0.49556077  0.33678869  0.83735902  1
  I  I69  1  0.50552654  0.66806998  0.16260847  1
  I  I70  1  0.49996445  0.66709621  0.49981801  1
  I  I71  1  0.50019877  0.66737635  0.83733704  1
  I  I72  1  0.83020064  -0.00110283  0.16742848  1
  I  I73  1  0.83718066  -0.00099425  0.49971887  1
  I  I74  1  0.82748920  -0.00445804  0.83293404  1
  I  I75  1  0.83589914  0.32984354  0.17238272  1
  I  I76  1  0.83770743  0.32935358  0.49508918  1
  I  I77  1  0.83223896  0.33337339  0.83206543  1
  I  I78  1  0.83094640  0.67034591  0.16709142  1
  I  I79  1  0.83670147  0.67080896  0.49980945  1
  I  I80  1  0.83155217  0.67128503  0.83259671  1
  I  I81  1  0.16300348  0.16738709  0.00288527  1
  I  I82  1  0.16343157  0.16318515  0.33383483  1
  I  I83  1  0.16232191  0.16334162  0.66312873  1
  I  I84  1  0.16869646  0.50058441  -0.00304323  1
  I  I85  1  0.16859050  0.50127186  0.33317001  1
  I  I86  1  0.17493429  0.49942495  0.66979059  1
  I  I87  1  0.16421898  0.83441958  0.00012230  1
  I  I88  1  0.16367440  0.83467217  0.33673863  1
  I  I89  1  0.16288316  0.83917352  0.66325685  1
  I  I90  1  0.49935361  0.16716667  0.00029269  1
  I  I91  1  0.49897042  0.16761898  0.33306183  1
  I  I92  1  0.49927705  0.16752167  0.66665887  1
  I  I93  1  0.49595882  0.50437770  -0.00057765  1
  I  I94  1  0.50170784  0.50472990  0.32986312  1
  I  I95  1  0.49622897  0.50461127  0.67049529  1
  I  I96  1  0.50818734  0.82924997  0.00021221  1
  I  I97  1  0.50364195  0.82968000  0.33008023  1
  I  I98  1  0.50344787  0.82830071  0.66964667  1
  I  I99  1  0.83685946  0.16305711  0.00343017  1
  I  I100  1  0.83688010  0.15782917  0.33311857  1
  I  I101  1  0.83800313  0.16307280  0.66334453  1
  I  I102  1  0.83604418  0.49795689  0.00003262  1
  I  I103  1  0.83053621  0.50499933  0.33307095  1
  I  I104  1  0.83074747  0.49941513  0.66684878  1
  I  I105  1  0.82782660  0.83679794  0.00076720  1
  I  I106  1  0.83135730  0.83794587  0.33292665  1
  I  I107  1  0.83258669  0.83627786  0.66623663  1
  I  I108  1  -0.00100628  0.16108535  0.17029089  1
  I  I109  1  -0.00026055  0.16136560  0.49583820  1
  I  I110  1  -0.00011267  0.16836795  0.83434355  1
  I  I111  1  0.00016305  0.50236514  0.16496057  1
  I  I112  1  0.00009841  0.50172119  0.50330959  1
  I  I113  1  0.00220074  0.49987398  0.83076733  1
  I  I114  1  -0.00306945  0.83615798  0.16355676  1
  I  I115  1  -0.00123306  0.83770822  0.50166467  1
  I  I116  1  -0.00280643  0.83221575  0.83523106  1
  I  I117  1  0.33078469  0.16705946  0.17154020  1
  I  I118  1  0.32971730  0.16243158  0.49574927  1
  I  I119  1  0.33315697  0.16240671  0.83340536  1
  I  I120  1  0.33697158  0.50609656  0.16476888  1
  I  I121  1  0.33320213  0.50022985  0.49867251  1
  I  I122  1  0.33485965  0.50564607  0.83630436  1
  I  I123  1  0.33617793  0.83128286  0.16276540  1
  I  I124  1  0.33050420  0.83788665  0.50053893  1
  I  I125  1  0.33628782  0.83082099  0.83699221  1
  I  I126  1  0.66998387  0.16493280  0.17168352  1
  I  I127  1  0.67087559  0.16142633  0.49517246  1
  I  I128  1  0.66692072  0.17221239  0.83253726  1
  I  I129  1  0.66308801  0.49944619  0.15892891  1
  I  I130  1  0.66670833  0.49913821  0.50307301  1
  I  I131  1  0.66323457  0.50152112  0.83713602  1
  I  I132  1  0.66753370  0.83533792  0.16785166  1
  I  I133  1  0.67005257  0.83792468  0.50034046  1
  I  I134  1  0.66659622  0.82816618  0.83164161  1
