# generated using pymatgen
data_Cs27Sn14Pb13I81
_symmetry_space_group_name_H-M   'P 1'
_cell_length_a   18.97348469
_cell_length_b   18.97954494
_cell_length_c   18.97698864
_cell_angle_alpha   90.00009351
_cell_angle_beta   90.00047639
_cell_angle_gamma   90.00036213
_symmetry_Int_Tables_number   1
_chemical_formula_structural   Cs27Sn14Pb13I81
_chemical_formula_sum   'Cs27 Sn14 Pb13 I81'
_cell_volume   6833.76742189
_cell_formula_units_Z   1
loop_
 _symmetry_equiv_pos_site_id
 _symmetry_equiv_pos_as_xyz
  1  'x, y, z'
loop_
 _atom_site_type_symbol
 _atom_site_label
 _atom_site_symmetry_multiplicity
 _atom_site_fract_x
 _atom_site_fract_y
 _atom_site_fract_z
 _atom_site_occupancy
  Cs  Cs0  1  -0.00077088  -0.00248899  0.00072570  1
  Cs  Cs1  1  0.00086362  0.00118597  0.33372346  1
  Cs  Cs2  1  0.00023952  -0.00143563  0.66525822  1
  Cs  Cs3  1  0.00360188  0.33456900  -0.00136526  1
  Cs  Cs4  1  -0.00983465  0.33510078  0.34051311  1
  Cs  Cs5  1  0.00559254  0.33389169  0.66132553  1
  Cs  Cs6  1  -0.00075572  0.66784743  0.00055147  1
  Cs  Cs7  1  -0.00177302  0.66397214  0.33455411  1
  Cs  Cs8  1  0.00195579  0.66623985  0.66562024  1
  Cs  Cs9  1  0.33304096  0.00024346  0.00131939  1
  Cs  Cs10  1  0.33191201  0.00013813  0.33313915  1
  Cs  Cs11  1  0.33143336  0.00399349  0.66449337  1
  Cs  Cs12  1  0.33099454  0.33244717  0.00080057  1
  Cs  Cs13  1  0.33540051  0.33176686  0.32919178  1
  Cs  Cs14  1  0.32597197  0.32618134  0.66772416  1
  Cs  Cs15  1  0.33433965  0.66631319  0.00106580  1
  Cs  Cs16  1  0.33480112  0.66741344  0.33235264  1
  Cs  Cs17  1  0.33570351  0.66710870  0.66545775  1
  Cs  Cs18  1  0.66789683  0.00028596  -0.00083308  1
  Cs  Cs19  1  0.66867039  0.00609333  0.33279822  1
  Cs  Cs20  1  0.66642897  -0.00227463  0.66902361  1
  Cs  Cs21  1  0.66608029  0.33277216  -0.00020635  1
  Cs  Cs22  1  0.67410757  0.32683217  0.33608406  1
  Cs  Cs23  1  0.66703614  0.33181629  0.66607730  1
  Cs  Cs24  1  0.66585471  0.66717660  -0.00200661  1
  Cs  Cs25  1  0.66429406  0.66631262  0.33404281  1
  Cs  Cs26  1  0.66480762  0.66820764  0.66861951  1
  Sn  Sn27  1  0.83294295  0.50001813  0.83343637  1
  Sn  Sn28  1  0.83230635  0.83286247  0.50061002  1
  Sn  Sn29  1  0.49955625  0.83280353  0.16662304  1
  Sn  Sn30  1  0.50027797  0.50040448  0.83293633  1
  Sn  Sn31  1  0.49970152  0.50028764  0.50018254  1
  Sn  Sn32  1  0.16698623  0.50034850  0.16680665  1
  Sn  Sn33  1  0.16624089  0.16682952  0.16675608  1
  Sn  Sn34  1  0.49974873  0.50067596  0.16687836  1
  Sn  Sn35  1  0.49947691  0.83283605  0.83335397  1
  Sn  Sn36  1  0.83346950  0.16701663  0.83352525  1
  Sn  Sn37  1  0.83337282  0.83287962  0.83257631  1
  Sn  Sn38  1  0.16722290  0.83292036  0.83396589  1
  Sn  Sn39  1  0.16735817  0.83281232  0.16589581  1
  Sn  Sn40  1  0.50096266  0.83292320  0.49987633  1
  Pb  Pb41  1  0.16663541  0.16674950  0.49681115  1
  Pb  Pb42  1  0.83317451  0.16364238  0.50300099  1
  Pb  Pb43  1  0.83070083  0.50252995  0.50303252  1
  Pb  Pb44  1  0.49860524  0.16676433  0.16640419  1
  Pb  Pb45  1  0.16427596  0.16379220  0.83504599  1
  Pb  Pb46  1  0.49998442  0.16656168  0.50008471  1
  Pb  Pb47  1  0.83235907  0.50018827  0.16452971  1
  Pb  Pb48  1  0.83281433  0.83319422  0.16684287  1
  Pb  Pb49  1  0.16718761  0.83314562  0.49954630  1
  Pb  Pb50  1  0.16986660  0.50031490  0.49683016  1
  Pb  Pb51  1  0.16736767  0.50217852  0.83490626  1
  Pb  Pb52  1  0.50157121  0.16684310  0.83345675  1
  Pb  Pb53  1  0.83610234  0.16676475  0.16419603  1
  I  I54  1  0.17025204  -0.00175985  0.16219000  1
  I  I55  1  0.16848114  -0.00055757  0.49844434  1
  I  I56  1  0.16792548  -0.00457311  0.83903003  1
  I  I57  1  0.17282312  0.33428068  0.16545184  1
  I  I58  1  0.16824127  0.33369124  0.50054089  1
  I  I59  1  0.16625210  0.33343596  0.83583108  1
  I  I60  1  0.17167377  0.66757147  0.16216340  1
  I  I61  1  0.16293728  0.66693800  0.49838167  1
  I  I62  1  0.16238200  0.67042498  0.83913958  1
  I  I63  1  0.49651734  -0.00373098  0.16601890  1
  I  I64  1  0.50328321  -0.00427015  0.50031280  1
  I  I65  1  0.50081212  -0.00395593  0.83380140  1
  I  I66  1  0.49532418  0.33706076  0.16524505  1
  I  I67  1  0.49890010  0.33696495  0.49928935  1
  I  I68  1  0.50513651  0.33712279  0.83450575  1
  I  I69  1  0.49232041  0.66734875  0.16580325  1
  I  I70  1  0.50373571  0.66787433  0.49983675  1
  I  I71  1  0.50437411  0.66768669  0.83438742  1
  I  I72  1  0.83293833  -0.00037259  0.16418806  1
  I  I73  1  0.82693387  -0.00435153  0.50511256  1
  I  I74  1  0.83361326  -0.00205038  0.83014131  1
  I  I75  1  0.83301455  0.33356023  0.16413874  1
  I  I76  1  0.83234401  0.33358279  0.50042611  1
  I  I77  1  0.82671960  0.33428338  0.83752344  1
  I  I78  1  0.83953897  0.66688577  0.16422045  1
  I  I79  1  0.83216332  0.67036213  0.50555522  1
  I  I80  1  0.83166494  0.66787523  0.83066641  1
  I  I81  1  0.16665962  0.16800589  0.00295571  1
  I  I82  1  0.16850260  0.16104744  0.32852818  1
  I  I83  1  0.16612967  0.16522425  0.66698953  1
  I  I84  1  0.17197058  0.49902670  0.00310737  1
  I  I85  1  0.17162080  0.50470274  0.32834387  1
  I  I86  1  0.16648445  0.50119085  0.66674630  1
  I  I87  1  0.16877234  0.83340189  0.00044589  1
  I  I88  1  0.16983379  0.83396336  0.32967111  1
  I  I89  1  0.16785833  0.83350059  0.66966224  1
  I  I90  1  0.50123311  0.16577055  -0.00009248  1
  I  I91  1  0.49891802  0.16552592  0.33319818  1
  I  I92  1  0.49977921  0.16599997  0.66682619  1
  I  I93  1  0.50038265  0.50623468  -0.00013091  1
  I  I94  1  0.49285207  0.50843837  0.33263974  1
  I  I95  1  0.50702487  0.50860590  0.66748715  1
  I  I96  1  0.49964584  0.82842331  -0.00043662  1
  I  I97  1  0.49913279  0.82725255  0.33285133  1
  I  I98  1  0.50138537  0.82766067  0.66757248  1
  I  I99  1  0.83198023  0.16140264  -0.00370039  1
  I  I100  1  0.83459427  0.16553024  0.33363453  1
  I  I101  1  0.83319796  0.16795285  0.67081860  1
  I  I102  1  0.82798099  0.50473240  -0.00382827  1
  I  I103  1  0.83412792  0.50099613  0.33370758  1
  I  I104  1  0.82849309  0.49906016  0.67118278  1
  I  I105  1  0.83157095  0.83348759  -0.00351278  1
  I  I106  1  0.83046386  0.83316709  0.33609478  1
  I  I107  1  0.83020805  0.83390086  0.66857678  1
  I  I108  1  0.00424203  0.16359419  0.16462184  1
  I  I109  1  -0.00031137  0.16454709  0.49958387  1
  I  I110  1  -0.00362804  0.16624709  0.83581832  1
  I  I111  1  0.00285985  0.50167702  0.16300824  1
  I  I112  1  -0.00023758  0.50046237  0.49925337  1
  I  I113  1  -0.00235709  0.50225877  0.83683461  1
  I  I114  1  0.00307534  0.83336603  0.16256305  1
  I  I115  1  -0.00254758  0.83525254  0.50431835  1
  I  I116  1  -0.00063057  0.83376228  0.83419957  1
  I  I117  1  0.33047237  0.16557413  0.16442125  1
  I  I118  1  0.33334354  0.16360889  0.50226674  1
  I  I119  1  0.33285213  0.16671816  0.83394852  1
  I  I120  1  0.33440022  0.50120000  0.16416560  1
  I  I121  1  0.33806588  0.50932289  0.50590367  1
  I  I122  1  0.33692303  0.50575430  0.83243901  1
  I  I123  1  0.33370506  0.83313913  0.16337390  1
  I  I124  1  0.33699860  0.82927529  0.50223703  1
  I  I125  1  0.33448202  0.82819987  0.83449522  1
  I  I126  1  0.66690400  0.16627706  0.16708573  1
  I  I127  1  0.66681526  0.16814100  0.49764106  1
  I  I128  1  0.66964735  0.16087931  0.83381925  1
  I  I129  1  0.66262011  0.50717341  0.16702323  1
  I  I130  1  0.66269571  0.50271173  0.49386991  1
  I  I131  1  0.66557378  0.50519782  0.83606940  1
  I  I132  1  0.66298765  0.82733183  0.16382264  1
  I  I133  1  0.66546518  0.82956812  0.50413336  1
  I  I134  1  0.66631462  0.83322806  0.83323728  1
