# generated using pymatgen
data_Cs27Sn14Pb13I81
_symmetry_space_group_name_H-M   'P 1'
_cell_length_a   18.98202129
_cell_length_b   18.97257266
_cell_length_c   18.97269407
_cell_angle_alpha   89.99902023
_cell_angle_beta   90.00246564
_cell_angle_gamma   90.00053215
_symmetry_Int_Tables_number   1
_chemical_formula_structural   Cs27Sn14Pb13I81
_chemical_formula_sum   'Cs27 Sn14 Pb13 I81'
_cell_volume   6832.78387924
_cell_formula_units_Z   1
loop_
 _symmetry_equiv_pos_site_id
 _symmetry_equiv_pos_as_xyz
  1  'x, y, z'
loop_
 _atom_site_type_symbol
 _atom_site_label
 _atom_site_symmetry_multiplicity
 _atom_site_fract_x
 _atom_site_fract_y
 _atom_site_fract_z
 _atom_site_occupancy
  Cs  Cs0  1  -0.00477635  0.00137367  -0.00289285  1
  Cs  Cs1  1  0.00250254  0.00118552  0.33340981  1
  Cs  Cs2  1  -0.00317394  -0.00401139  0.67013551  1
  Cs  Cs3  1  0.00009480  0.33260681  0.00020325  1
  Cs  Cs4  1  -0.00081401  0.33157402  0.33214545  1
  Cs  Cs5  1  0.00742328  0.33639831  0.66662397  1
  Cs  Cs6  1  -0.00002784  0.66585702  0.00179763  1
  Cs  Cs7  1  0.00033526  0.66990118  0.33838737  1
  Cs  Cs8  1  0.00125085  0.66854930  0.65922560  1
  Cs  Cs9  1  0.33452650  -0.00615183  -0.00259845  1
  Cs  Cs10  1  0.33266542  0.00008341  0.33330006  1
  Cs  Cs11  1  0.33584523  0.00378868  0.66845363  1
  Cs  Cs12  1  0.33191255  0.33478206  -0.00025601  1
  Cs  Cs13  1  0.33586071  0.33087608  0.33222604  1
  Cs  Cs14  1  0.33183274  0.33246027  0.66845087  1
  Cs  Cs15  1  0.33304554  0.66868655  0.00230337  1
  Cs  Cs16  1  0.33280208  0.67110838  0.33074488  1
  Cs  Cs17  1  0.32905657  0.66411501  0.66577515  1
  Cs  Cs18  1  0.67079886  -0.00333785  -0.00981603  1
  Cs  Cs19  1  0.66472848  0.00532652  0.33378214  1
  Cs  Cs20  1  0.66738688  -0.00314078  0.67281444  1
  Cs  Cs21  1  0.66852842  0.33582497  0.00277178  1
  Cs  Cs22  1  0.66567019  0.33271333  0.33294870  1
  Cs  Cs23  1  0.66319951  0.33459955  0.66357763  1
  Cs  Cs24  1  0.66674324  0.66577032  -0.00013082  1
  Cs  Cs25  1  0.66673001  0.66501102  0.33281277  1
  Cs  Cs26  1  0.66999791  0.66757079  0.66709341  1
  Sn  Sn27  1  0.83341716  0.50108908  0.16639295  1
  Sn  Sn28  1  0.50001811  0.16644879  0.49938254  1
  Sn  Sn29  1  0.83309893  0.49962409  0.83343981  1
  Sn  Sn30  1  0.50064545  0.49981513  0.83363726  1
  Sn  Sn31  1  0.16671773  0.83305909  0.83342196  1
  Sn  Sn32  1  0.16785602  0.16728240  0.16706603  1
  Sn  Sn33  1  0.83325944  0.16696186  0.50046342  1
  Sn  Sn34  1  0.50013850  0.83341534  0.49968828  1
  Sn  Sn35  1  0.16674754  0.49955373  0.16717218  1
  Sn  Sn36  1  0.16674413  0.16682692  0.49938532  1
  Sn  Sn37  1  0.49936275  0.16685095  0.16645590  1
  Sn  Sn38  1  0.49985014  0.50036700  0.49975630  1
  Sn  Sn39  1  0.83295227  0.83289995  0.16725743  1
  Sn  Sn40  1  0.49977211  0.49942902  0.16667932  1
  Pb  Pb41  1  0.16938150  0.49800470  0.49703452  1
  Pb  Pb42  1  0.49851649  0.83006635  0.83070892  1
  Pb  Pb43  1  0.83292174  0.16710333  0.16768028  1
  Pb  Pb44  1  0.83330408  0.17008214  0.83007582  1
  Pb  Pb45  1  0.83519057  0.83024204  0.83516466  1
  Pb  Pb46  1  0.16887397  0.83625124  0.50183084  1
  Pb  Pb47  1  0.16650840  0.50149169  0.83559691  1
  Pb  Pb48  1  0.83102636  0.83575737  0.49774528  1
  Pb  Pb49  1  0.50197541  0.83392964  0.16800860  1
  Pb  Pb50  1  0.50011384  0.16903856  0.83410641  1
  Pb  Pb51  1  0.16468577  0.83410649  0.16554924  1
  Pb  Pb52  1  0.83164358  0.49827876  0.49962606  1
  Pb  Pb53  1  0.16678660  0.16474803  0.83419916  1
  I  I54  1  0.17025709  0.00349289  0.17031501  1
  I  I55  1  0.16922600  0.00424381  0.49250174  1
  I  I56  1  0.16693524  -0.00281507  0.83468173  1
  I  I57  1  0.16569675  0.33344579  0.16940227  1
  I  I58  1  0.16846649  0.32985238  0.50018096  1
  I  I59  1  0.16653975  0.33356287  0.83134655  1
  I  I60  1  0.17004577  0.66394354  0.16330761  1
  I  I61  1  0.16842417  0.66661636  0.49996058  1
  I  I62  1  0.16795902  0.66886532  0.83568632  1
  I  I63  1  0.49602377  0.00329816  0.17387860  1
  I  I64  1  0.49916088  0.00184682  0.49381872  1
  I  I65  1  0.49866779  -0.00025237  0.83312423  1
  I  I66  1  0.50155612  0.33441910  0.17131829  1
  I  I67  1  0.50072536  0.33296228  0.49902972  1
  I  I68  1  0.50203658  0.33728343  0.82918511  1
  I  I69  1  0.49777480  0.66330708  0.16792892  1
  I  I70  1  0.50086028  0.66541283  0.49943470  1
  I  I71  1  0.50342510  0.66207750  0.83547848  1
  I  I72  1  0.83411773  -0.00156525  0.17030115  1
  I  I73  1  0.83121728  0.00371062  0.49619181  1
  I  I74  1  0.83473868  -0.00022755  0.83494900  1
  I  I75  1  0.83266880  0.33643567  0.16430659  1
  I  I76  1  0.83002607  0.33035710  0.49705205  1
  I  I77  1  0.83014374  0.33763191  0.84248892  1
  I  I78  1  0.83248172  0.66433062  0.16298857  1
  I  I79  1  0.83117687  0.66649311  0.50176200  1
  I  I80  1  0.82797334  0.66258849  0.83503025  1
  I  I81  1  0.17130486  0.17034563  0.00391847  1
  I  I82  1  0.16805839  0.17022925  0.33288642  1
  I  I83  1  0.16857089  0.16532295  0.66365953  1
  I  I84  1  0.17081915  0.49435695  0.00379266  1
  I  I85  1  0.16476566  0.49983398  0.32889558  1
  I  I86  1  0.16680335  0.49952414  0.66639967  1
  I  I87  1  0.16746315  0.83403701  -0.00202154  1
  I  I88  1  0.16622912  0.83163723  0.33337257  1
  I  I89  1  0.16662250  0.83230029  0.66930743  1
  I  I90  1  0.49468746  0.17182293  0.00381554  1
  I  I91  1  0.49976619  0.17160592  0.33395656  1
  I  I92  1  0.49890075  0.16788715  0.66317536  1
  I  I93  1  0.50069799  0.49518696  0.00154049  1
  I  I94  1  0.50070035  0.49822122  0.33263523  1
  I  I95  1  0.50511917  0.49965958  0.66613090  1
  I  I96  1  0.50007015  0.83415768  -0.00012473  1
  I  I97  1  0.49974726  0.82956292  0.33604858  1
  I  I98  1  0.49996774  0.83639983  0.66278303  1
  I  I99  1  0.83369913  0.16397504  0.00007910  1
  I  I100  1  0.83185001  0.16925170  0.33572317  1
  I  I101  1  0.83150151  0.16672884  0.66199072  1
  I  I102  1  0.82777431  0.50301407  0.00161735  1
  I  I103  1  0.83206812  0.50179004  0.33006415  1
  I  I104  1  0.82744735  0.49709908  0.66883087  1
  I  I105  1  0.83211752  0.83386662  0.00316432  1
  I  I106  1  0.83475683  0.82437755  0.33017854  1
  I  I107  1  0.83377761  0.83345940  0.66655444  1
  I  I108  1  0.00234450  0.16966356  0.17160262  1
  I  I109  1  0.00067690  0.16741884  0.49426791  1
  I  I110  1  0.00003397  0.16851561  0.83364689  1
  I  I111  1  -0.00032897  0.49876618  0.16030816  1
  I  I112  1  0.00027628  0.49762824  0.50119652  1
  I  I113  1  -0.00252209  0.50049671  0.83919223  1
  I  I114  1  -0.00298422  0.82881774  0.16575141  1
  I  I115  1  -0.00002378  0.83481661  0.50095734  1
  I  I116  1  0.00254436  0.83259866  0.83374890  1
  I  I117  1  0.33388148  0.17537603  0.17565739  1
  I  I118  1  0.33449148  0.16687728  0.49575601  1
  I  I119  1  0.33347607  0.16894240  0.82833015  1
  I  I120  1  0.33440836  0.49513461  0.16673952  1
  I  I121  1  0.33782195  0.49790268  0.50209180  1
  I  I122  1  0.33615702  0.50104763  0.83323903  1
  I  I123  1  0.33345220  0.83076682  0.16626430  1
  I  I124  1  0.33678349  0.83375124  0.49846649  1
  I  I125  1  0.33111551  0.83198902  0.83534330  1
  I  I126  1  0.66373201  0.17118288  0.17324316  1
  I  I127  1  0.66476535  0.16814336  0.49457198  1
  I  I128  1  0.66665290  0.16309459  0.83390831  1
  I  I129  1  0.66571641  0.49936302  0.16636837  1
  I  I130  1  0.66303972  0.49646805  0.49565998  1
  I  I131  1  0.66583122  0.49985409  0.83839695  1
  I  I132  1  0.66953907  0.82860322  0.16770673  1
  I  I133  1  0.66311671  0.83476378  0.49972990  1
  I  I134  1  0.66673636  0.83480111  0.83301568  1
