# generated using pymatgen
data_Cs27Sn13Pb14I81
_symmetry_space_group_name_H-M   'P 1'
_cell_length_a   18.98756141
_cell_length_b   18.99158570
_cell_length_c   18.99454601
_cell_angle_alpha   90.00036750
_cell_angle_beta   89.99960916
_cell_angle_gamma   89.99988731
_symmetry_Int_Tables_number   1
_chemical_formula_structural   Cs27Sn13Pb14I81
_chemical_formula_sum   'Cs27 Sn13 Pb14 I81'
_cell_volume   6849.50736519
_cell_formula_units_Z   1
loop_
 _symmetry_equiv_pos_site_id
 _symmetry_equiv_pos_as_xyz
  1  'x, y, z'
loop_
 _atom_site_type_symbol
 _atom_site_label
 _atom_site_symmetry_multiplicity
 _atom_site_fract_x
 _atom_site_fract_y
 _atom_site_fract_z
 _atom_site_occupancy
  Cs  Cs0  1  -0.00158256  0.00102440  0.00336577  1
  Cs  Cs1  1  -0.00161426  -0.00049724  0.33274385  1
  Cs  Cs2  1  0.00038453  -0.00170819  0.66462478  1
  Cs  Cs3  1  -0.00106889  0.33425078  0.00031234  1
  Cs  Cs4  1  0.00049977  0.33486522  0.33269762  1
  Cs  Cs5  1  -0.00016112  0.33639934  0.66774495  1
  Cs  Cs6  1  -0.00161718  0.66336888  -0.00766775  1
  Cs  Cs7  1  0.00246476  0.66237956  0.33408612  1
  Cs  Cs8  1  -0.00160702  0.66327767  0.67313673  1
  Cs  Cs9  1  0.33314689  0.00405604  -0.00154954  1
  Cs  Cs10  1  0.32950880  0.00035633  0.33339012  1
  Cs  Cs11  1  0.33386224  0.00112078  0.66813514  1
  Cs  Cs12  1  0.33484557  0.33120774  -0.00062546  1
  Cs  Cs13  1  0.33310818  0.33546265  0.33266621  1
  Cs  Cs14  1  0.33476276  0.33135994  0.66761562  1
  Cs  Cs15  1  0.33531471  0.67065055  -0.00021927  1
  Cs  Cs16  1  0.33532023  0.66411750  0.33183376  1
  Cs  Cs17  1  0.33329823  0.67125390  0.66918566  1
  Cs  Cs18  1  0.66799867  -0.00389153  0.00301517  1
  Cs  Cs19  1  0.67777790  -0.00646132  0.34060880  1
  Cs  Cs20  1  0.66716925  -0.00571717  0.65738585  1
  Cs  Cs21  1  0.66416987  0.33263602  -0.00199581  1
  Cs  Cs22  1  0.66730964  0.33482033  0.33681794  1
  Cs  Cs23  1  0.66335775  0.33186303  0.66763072  1
  Cs  Cs24  1  0.66545108  0.67567373  0.00087050  1
  Cs  Cs25  1  0.65822671  0.66905604  0.33175998  1
  Cs  Cs26  1  0.66800807  0.67625997  0.66717694  1
  Sn  Sn27  1  0.16661839  0.16703574  0.49965663  1
  Sn  Sn28  1  0.50015412  0.49968786  0.83336946  1
  Sn  Sn29  1  0.16605107  0.16722468  0.83349787  1
  Sn  Sn30  1  0.50022177  0.16661188  0.16704006  1
  Sn  Sn31  1  0.50072729  0.16723986  0.83415747  1
  Sn  Sn32  1  0.16613846  0.50009565  0.16675496  1
  Sn  Sn33  1  0.16723697  0.16692586  0.16678712  1
  Sn  Sn34  1  0.16625428  0.50013911  0.49972200  1
  Sn  Sn35  1  0.16640665  0.83299314  0.16715595  1
  Sn  Sn36  1  0.83365473  0.49974994  0.49930435  1
  Sn  Sn37  1  0.16642344  0.83271429  0.49911181  1
  Sn  Sn38  1  0.83342374  0.49967946  0.16712097  1
  Sn  Sn39  1  0.83290016  0.16667171  0.83327724  1
  Pb  Pb40  1  0.49686413  0.83337467  0.49955548  1
  Pb  Pb41  1  0.16852349  0.49793373  0.83357198  1
  Pb  Pb42  1  0.83313910  0.16855379  0.16541506  1
  Pb  Pb43  1  0.49980107  0.49807110  0.16485331  1
  Pb  Pb44  1  0.49982213  0.83481722  0.83345797  1
  Pb  Pb45  1  0.83677338  0.82965104  0.49964398  1
  Pb  Pb46  1  0.83653703  0.82982854  0.16682609  1
  Pb  Pb47  1  0.49963635  0.49999707  0.50254084  1
  Pb  Pb48  1  0.49739571  0.83727653  0.16693020  1
  Pb  Pb49  1  0.83057178  0.49844263  0.83338959  1
  Pb  Pb50  1  0.49822133  0.16664956  0.49930180  1
  Pb  Pb51  1  0.16645616  0.83634306  0.83366393  1
  Pb  Pb52  1  0.83366504  0.83692974  0.83341580  1
  Pb  Pb53  1  0.83609295  0.16903028  0.50216077  1
  I  I54  1  0.17205757  0.00127030  0.16829181  1
  I  I55  1  0.16924249  0.00080309  0.49831963  1
  I  I56  1  0.17023927  0.00497294  0.83298812  1
  I  I57  1  0.16669182  0.33298557  0.16888992  1
  I  I58  1  0.16352761  0.33340128  0.49768147  1
  I  I59  1  0.16561973  0.32952914  0.83335771  1
  I  I60  1  0.16238525  0.66573907  0.17477041  1
  I  I61  1  0.16340533  0.66578007  0.49211185  1
  I  I62  1  0.16907188  0.66653116  0.83307052  1
  I  I63  1  0.49265460  0.00521172  0.15701105  1
  I  I64  1  0.49806887  0.00026262  0.50380032  1
  I  I65  1  0.49700479  0.00453617  0.83776951  1
  I  I66  1  0.49166902  0.33023213  0.16322535  1
  I  I67  1  0.49624400  0.33330434  0.49957189  1
  I  I68  1  0.49853244  0.33129420  0.83650026  1
  I  I69  1  0.49945511  0.66675113  0.16399909  1
  I  I70  1  0.49776716  0.66640657  0.50301098  1
  I  I71  1  0.49882008  0.66428160  0.83255278  1
  I  I72  1  0.83352833  -0.00002605  0.16327904  1
  I  I73  1  0.83347471  -0.00013430  0.50299178  1
  I  I74  1  0.83307355  0.00521302  0.83481854  1
  I  I75  1  0.84128941  0.33626319  0.16935630  1
  I  I76  1  0.84088637  0.33654232  0.49645069  1
  I  I77  1  0.83689001  0.33056037  0.83356462  1
  I  I78  1  0.83821836  0.66172403  0.16900592  1
  I  I79  1  0.83979781  0.66197950  0.49842446  1
  I  I80  1  0.83181521  0.66633506  0.83285936  1
  I  I81  1  0.16778550  0.16686713  0.00048681  1
  I  I82  1  0.17185442  0.16696630  0.33267619  1
  I  I83  1  0.16689534  0.16707506  0.66669379  1
  I  I84  1  0.16289440  0.49953497  0.00318347  1
  I  I85  1  0.16370018  0.49545704  0.33304153  1
  I  I86  1  0.16328397  0.49958866  0.66377978  1
  I  I87  1  0.16736344  0.83306150  0.00334392  1
  I  I88  1  0.16702997  0.83881921  0.33318241  1
  I  I89  1  0.16669978  0.83314954  0.66357872  1
  I  I90  1  0.49237358  0.17144057  -0.00071872  1
  I  I91  1  0.49156753  0.16833385  0.33002847  1
  I  I92  1  0.49752798  0.17103592  0.66984814  1
  I  I93  1  0.49855617  0.49488808  -0.00280093  1
  I  I94  1  0.49982628  0.49831469  0.33322305  1
  I  I95  1  0.49846261  0.49055656  0.67014603  1
  I  I96  1  0.49658603  0.83061199  0.00022548  1
  I  I97  1  0.50088378  0.83318359  0.33295459  1
  I  I98  1  0.49740970  0.83463562  0.66673912  1
  I  I99  1  0.83923635  0.17084110  -0.00259016  1
  I  I100  1  0.83251394  0.16582002  0.33352767  1
  I  I101  1  0.83336519  0.17027497  0.67010001  1
  I  I102  1  0.83981459  0.49756560  0.00259285  1
  I  I103  1  0.83997877  0.49738638  0.33316615  1
  I  I104  1  0.83984451  0.49767887  0.66416527  1
  I  I105  1  0.83638312  0.82989916  0.00022571  1
  I  I106  1  0.83173440  0.84000598  0.33328667  1
  I  I107  1  0.83597451  0.83082389  0.66639959  1
  I  I108  1  0.00371506  0.16502508  0.16549930  1
  I  I109  1  0.00480154  0.16448949  0.49890809  1
  I  I110  1  0.00130059  0.16661841  0.83343401  1
  I  I111  1  0.00210416  0.49704844  0.17001950  1
  I  I112  1  0.00205697  0.49891913  0.49671690  1
  I  I113  1  0.00000423  0.49807570  0.83322647  1
  I  I114  1  0.00474478  0.84175990  0.17090980  1
  I  I115  1  0.00463045  0.83873168  0.49545540  1
  I  I116  1  0.00044909  0.83331238  0.83303784  1
  I  I117  1  0.33089869  0.16846418  0.16168686  1
  I  I118  1  0.32883586  0.16944357  0.50437124  1
  I  I119  1  0.33272561  0.17021275  0.83394675  1
  I  I120  1  0.32970207  0.50093563  0.17069521  1
  I  I121  1  0.32934112  0.49932285  0.49566962  1
  I  I122  1  0.33591836  0.49208759  0.83341853  1
  I  I123  1  0.32887738  0.82746268  0.17077904  1
  I  I124  1  0.32815982  0.83097975  0.49687925  1
  I  I125  1  0.33296138  0.83443348  0.83198747  1
  I  I126  1  0.66401900  0.17119009  0.15821035  1
  I  I127  1  0.66703869  0.16893179  0.50096696  1
  I  I128  1  0.66568207  0.17345981  0.83999219  1
  I  I129  1  0.66921493  0.49536242  0.17020054  1
  I  I130  1  0.66965787  0.49732704  0.49606460  1
  I  I131  1  0.66344246  0.49043263  0.83334100  1
  I  I132  1  0.66680216  0.83323814  0.16495372  1
  I  I133  1  0.66729243  0.83302557  0.50170945  1
  I  I134  1  0.66660122  0.83329026  0.83333149  1
