# generated using pymatgen
data_Cs27Sn14Pb13I81
_symmetry_space_group_name_H-M   'P 1'
_cell_length_a   18.97307466
_cell_length_b   18.98587219
_cell_length_c   18.96759002
_cell_angle_alpha   89.99900526
_cell_angle_beta   89.99808355
_cell_angle_gamma   89.99992079
_symmetry_Int_Tables_number   1
_chemical_formula_structural   Cs27Sn14Pb13I81
_chemical_formula_sum   'Cs27 Sn14 Pb13 I81'
_cell_volume   6832.51229838
_cell_formula_units_Z   1
loop_
 _symmetry_equiv_pos_site_id
 _symmetry_equiv_pos_as_xyz
  1  'x, y, z'
loop_
 _atom_site_type_symbol
 _atom_site_label
 _atom_site_symmetry_multiplicity
 _atom_site_fract_x
 _atom_site_fract_y
 _atom_site_fract_z
 _atom_site_occupancy
  Cs  Cs0  1  -0.00055893  0.00037532  -0.00346322  1
  Cs  Cs1  1  0.00043839  -0.00367886  0.33363718  1
  Cs  Cs2  1  0.00029958  0.00099851  0.66879862  1
  Cs  Cs3  1  0.00246821  0.33420199  -0.00041304  1
  Cs  Cs4  1  0.00339102  0.33419305  0.33538210  1
  Cs  Cs5  1  -0.00284251  0.33378087  0.66456077  1
  Cs  Cs6  1  -0.00208685  0.66587186  -0.00105728  1
  Cs  Cs7  1  0.00039085  0.66765161  0.33414285  1
  Cs  Cs8  1  0.00058879  0.66620305  0.66688145  1
  Cs  Cs9  1  0.33051871  0.00088671  -0.00639725  1
  Cs  Cs10  1  0.33267541  -0.00089584  0.33395891  1
  Cs  Cs11  1  0.33778040  -0.00058871  0.67360171  1
  Cs  Cs12  1  0.33084588  0.33256211  0.00078265  1
  Cs  Cs13  1  0.32776133  0.33193779  0.33071331  1
  Cs  Cs14  1  0.34110852  0.33567611  0.66758233  1
  Cs  Cs15  1  0.33407111  0.66571606  -0.00239406  1
  Cs  Cs16  1  0.33083565  0.66774906  0.33317501  1
  Cs  Cs17  1  0.33842870  0.66693424  0.66988577  1
  Cs  Cs18  1  0.66932513  0.00098957  0.00456069  1
  Cs  Cs19  1  0.66531792  -0.00069852  0.33021799  1
  Cs  Cs20  1  0.65985961  0.00923953  0.66595381  1
  Cs  Cs21  1  0.66667585  0.33416584  -0.00000291  1
  Cs  Cs22  1  0.66750105  0.33296309  0.33619801  1
  Cs  Cs23  1  0.66047724  0.32693679  0.66001102  1
  Cs  Cs24  1  0.67005329  0.66617238  0.00174067  1
  Cs  Cs25  1  0.66776742  0.66720857  0.33215300  1
  Cs  Cs26  1  0.66023267  0.66369745  0.66647064  1
  Sn  Sn27  1  0.16655728  0.16587530  0.50047348  1
  Sn  Sn28  1  0.83370271  0.50049818  0.83330979  1
  Sn  Sn29  1  0.16647053  0.50054630  0.50160588  1
  Sn  Sn30  1  0.83286414  0.49976771  0.16634336  1
  Sn  Sn31  1  0.83314401  0.83268835  0.83249674  1
  Sn  Sn32  1  0.49964014  0.83329065  0.16672313  1
  Sn  Sn33  1  0.50089352  0.49999540  0.16687408  1
  Sn  Sn34  1  0.83336441  0.16700873  0.16691121  1
  Sn  Sn35  1  0.83374281  0.83321322  0.16675661  1
  Sn  Sn36  1  0.16566060  0.50027509  0.83202403  1
  Sn  Sn37  1  0.50047165  0.16670452  0.16688171  1
  Sn  Sn38  1  0.16641335  0.83321689  0.16664652  1
  Sn  Sn39  1  0.16601892  0.83363491  0.49996821  1
  Sn  Sn40  1  0.83348297  0.83318135  0.50079252  1
  Pb  Pb41  1  0.16634894  0.16372535  0.16782545  1
  Pb  Pb42  1  0.83339453  0.16736162  0.83531375  1
  Pb  Pb43  1  0.49702875  0.50016849  0.49672783  1
  Pb  Pb44  1  0.16633488  0.16987446  0.82998737  1
  Pb  Pb45  1  0.49999228  0.83329222  0.49816184  1
  Pb  Pb46  1  0.16478459  0.83153784  0.83273254  1
  Pb  Pb47  1  0.50113247  0.49996354  0.83581225  1
  Pb  Pb48  1  0.50386887  0.83327586  0.83631493  1
  Pb  Pb49  1  0.83463754  0.50193873  0.50019348  1
  Pb  Pb50  1  0.50017100  0.16676191  0.83655604  1
  Pb  Pb51  1  0.49722962  0.16651363  0.49702783  1
  Pb  Pb52  1  0.83512698  0.16379737  0.49740019  1
  Pb  Pb53  1  0.16615343  0.50208473  0.16658353  1
  I  I54  1  0.16569964  -0.00432193  0.17237745  1
  I  I55  1  0.16201982  -0.00154084  0.49112329  1
  I  I56  1  0.16567865  -0.00016287  0.83418220  1
  I  I57  1  0.16714129  0.33344735  0.16808194  1
  I  I58  1  0.16693002  0.33399538  0.50210891  1
  I  I59  1  0.15977583  0.33791909  0.83220169  1
  I  I60  1  0.16606203  0.66998689  0.17206179  1
  I  I61  1  0.16219047  0.66751915  0.49751641  1
  I  I62  1  0.16417340  0.66372007  0.82996191  1
  I  I63  1  0.50435968  -0.00064870  0.16790928  1
  I  I64  1  0.49858740  -0.00013894  0.49651268  1
  I  I65  1  0.49978006  -0.00027502  0.83517766  1
  I  I66  1  0.50679807  0.33355618  0.16663682  1
  I  I67  1  0.49877191  0.33338094  0.49705316  1
  I  I68  1  0.50033320  0.33365989  0.83648813  1
  I  I69  1  0.50307318  0.66706495  0.16699610  1
  I  I70  1  0.49760876  0.66673530  0.49640647  1
  I  I71  1  0.49687967  0.66662549  0.83580410  1
  I  I72  1  0.83079944  -0.00160751  0.16717531  1
  I  I73  1  0.83982705  -0.00444798  0.49870518  1
  I  I74  1  0.83424219  -0.00306031  0.83617987  1
  I  I75  1  0.82694611  0.33423111  0.16193455  1
  I  I76  1  0.83638950  0.33333176  0.49865503  1
  I  I77  1  0.83827135  0.33712758  0.84034753  1
  I  I78  1  0.83130042  0.66749719  0.16615882  1
  I  I79  1  0.84022239  0.67002955  0.49290281  1
  I  I80  1  0.83839219  0.66659586  0.84093430  1
  I  I81  1  0.16787595  0.16682826  0.00004734  1
  I  I82  1  0.16661158  0.17193831  0.33567015  1
  I  I83  1  0.16458361  0.15895036  0.66215635  1
  I  I84  1  0.16579578  0.50271013  -0.00180186  1
  I  I85  1  0.16736635  0.49933394  0.33547780  1
  I  I86  1  0.15944556  0.50180767  0.66638931  1
  I  I87  1  0.16622908  0.83152209  0.00270268  1
  I  I88  1  0.16220680  0.83071541  0.33318634  1
  I  I89  1  0.16048040  0.83474235  0.66336284  1
  I  I90  1  0.50314319  0.16613815  0.00520026  1
  I  I91  1  0.50462347  0.16556426  0.32886206  1
  I  I92  1  0.49929256  0.16713156  0.66634366  1
  I  I93  1  0.49850749  0.50092758  0.00429656  1
  I  I94  1  0.50565774  0.50134286  0.32848153  1
  I  I95  1  0.50163122  0.49947045  0.66664727  1
  I  I96  1  0.49810062  0.83295051  0.00515404  1
  I  I97  1  0.50432672  0.83316937  0.32905658  1
  I  I98  1  0.49900743  0.83325860  0.66693512  1
  I  I99  1  0.83028733  0.16140540  0.00422018  1
  I  I100  1  0.82967400  0.16724803  0.32894702  1
  I  I101  1  0.83536321  0.16634109  0.66628688  1
  I  I102  1  0.83561388  0.50496278  0.00139501  1
  I  I103  1  0.83113743  0.50144801  0.33003633  1
  I  I104  1  0.83841491  0.50648353  0.66946863  1
  I  I105  1  0.83300340  0.83265262  0.00190334  1
  I  I106  1  0.83441020  0.83334442  0.33152897  1
  I  I107  1  0.84253548  0.82707462  0.66649820  1
  I  I108  1  -0.00286172  0.16672833  0.16792527  1
  I  I109  1  0.00303114  0.16878149  0.49558587  1
  I  I110  1  -0.00006664  0.16466204  0.83816142  1
  I  I111  1  -0.00295204  0.50068483  0.16603073  1
  I  I112  1  0.00311264  0.49928966  0.49700934  1
  I  I113  1  -0.00097555  0.50410564  0.83713826  1
  I  I114  1  -0.00131033  0.83276514  0.16814248  1
  I  I115  1  0.00054233  0.83262463  0.49268887  1
  I  I116  1  -0.00323479  0.83131466  0.84006698  1
  I  I117  1  0.33581373  0.16775744  0.16940269  1
  I  I118  1  0.32925570  0.16448430  0.49578008  1
  I  I119  1  0.33303137  0.16751523  0.83648477  1
  I  I120  1  0.33531848  0.50029225  0.16774795  1
  I  I121  1  0.32849885  0.50351413  0.50410864  1
  I  I122  1  0.33082586  0.49986040  0.83057269  1
  I  I123  1  0.33305133  0.83246249  0.17318781  1
  I  I124  1  0.32965009  0.83278170  0.49304926  1
  I  I125  1  0.33343391  0.83212667  0.83443156  1
  I  I126  1  0.66729660  0.16156848  0.16645492  1
  I  I127  1  0.66672879  0.16571434  0.50131524  1
  I  I128  1  0.66698983  0.16793762  0.83023348  1
  I  I129  1  0.66813363  0.50448011  0.16134194  1
  I  I130  1  0.66672314  0.50176323  0.50182075  1
  I  I131  1  0.67046404  0.50584173  0.83860732  1
  I  I132  1  0.66796859  0.83348805  0.16644431  1
  I  I133  1  0.67001785  0.83196833  0.49719366  1
  I  I134  1  0.67197871  0.82536312  0.83390270  1
