# generated using pymatgen
data_Cs27Sn13Pb14I81
_symmetry_space_group_name_H-M   'P 1'
_cell_length_a   18.97722301
_cell_length_b   18.97791406
_cell_length_c   18.97722311
_cell_angle_alpha   89.99896882
_cell_angle_beta   90.00194316
_cell_angle_gamma   89.99896897
_symmetry_Int_Tables_number   1
_chemical_formula_structural   Cs27Sn13Pb14I81
_chemical_formula_sum   'Cs27 Sn13 Pb14 I81'
_cell_volume   6834.61097959
_cell_formula_units_Z   1
loop_
 _symmetry_equiv_pos_site_id
 _symmetry_equiv_pos_as_xyz
  1  'x, y, z'
loop_
 _atom_site_type_symbol
 _atom_site_label
 _atom_site_symmetry_multiplicity
 _atom_site_fract_x
 _atom_site_fract_y
 _atom_site_fract_z
 _atom_site_occupancy
  Cs  Cs0  1  -0.00114688  0.00135994  -0.00221913  1
  Cs  Cs1  1  -0.00118536  0.00035510  0.33194604  1
  Cs  Cs2  1  0.00691741  -0.00586200  0.67358392  1
  Cs  Cs3  1  0.00592975  0.33096566  0.00202212  1
  Cs  Cs4  1  -0.00335068  0.33546168  0.33422603  1
  Cs  Cs5  1  -0.00052446  0.34177374  0.66614188  1
  Cs  Cs6  1  -0.00215791  0.66633261  -0.00325800  1
  Cs  Cs7  1  0.00266964  0.66517944  0.33482825  1
  Cs  Cs8  1  0.00173391  0.66482006  0.66840066  1
  Cs  Cs9  1  0.33480376  0.00121596  0.00147051  1
  Cs  Cs10  1  0.33413657  -0.00049005  0.33334900  1
  Cs  Cs11  1  0.33111417  0.00135984  0.66551986  1
  Cs  Cs12  1  0.33219399  0.33380624  -0.00113937  1
  Cs  Cs13  1  0.33351146  0.33267750  0.33283606  1
  Cs  Cs14  1  0.33535551  0.33096580  0.67259630  1
  Cs  Cs15  1  0.33676279  0.65933735  0.00342937  1
  Cs  Cs16  1  0.33210110  0.66749960  0.33259034  1
  Cs  Cs17  1  0.33007535  0.66633275  0.66450898  1
  Cs  Cs18  1  0.66668230  -0.00048992  0.00080325  1
  Cs  Cs19  1  0.66729278  0.00005172  0.33395944  1
  Cs  Cs20  1  0.66527944  0.00035494  0.66548131  1
  Cs  Cs21  1  0.66616930  0.33267742  0.00017807  1
  Cs  Cs22  1  0.66877861  0.33092086  0.33544545  1
  Cs  Cs23  1  0.66755942  0.33546160  0.66331609  1
  Cs  Cs24  1  0.66592368  0.66749945  -0.00123223  1
  Cs  Cs25  1  0.66541619  0.66896410  0.33208282  1
  Cs  Cs26  1  0.66816175  0.66517958  0.66933633  1
  Sn  Sn27  1  0.49979715  0.83406980  0.83218084  1
  Sn  Sn28  1  0.50071385  0.83254996  0.50108292  1
  Sn  Sn29  1  0.83441624  0.83254994  0.16738053  1
  Sn  Sn30  1  0.83246693  0.16675014  0.83301502  1
  Sn  Sn31  1  0.16748560  0.16553706  0.16820051  1
  Sn  Sn32  1  0.50153378  0.16553704  0.83415224  1
  Sn  Sn33  1  0.83234272  0.50084777  0.16658759  1
  Sn  Sn34  1  0.49992094  0.50084787  0.49900938  1
  Sn  Sn35  1  0.50124888  0.49855767  0.16791554  1
  Sn  Sn36  1  0.16634841  0.16675015  0.49913354  1
  Sn  Sn37  1  0.83303962  0.83374795  0.49970631  1
  Sn  Sn38  1  0.16551415  0.83406976  0.16646380  1
  Sn  Sn39  1  0.49960544  0.16752796  0.16627211  1
  Pb  Pb40  1  0.83305266  0.49726260  0.83624649  1
  Pb  Pb41  1  0.50010540  0.49982690  0.83328595  1
  Pb  Pb42  1  0.83333373  0.16646442  0.16568149  1
  Pb  Pb43  1  0.16657973  0.50035803  0.83324637  1
  Pb  Pb44  1  0.17013105  0.83315409  0.83679782  1
  Pb  Pb45  1  0.16957984  0.49726266  0.49971934  1
  Pb  Pb46  1  0.49901483  0.16646438  0.50000038  1
  Pb  Pb47  1  0.83138232  0.83476366  0.83340517  1
  Pb  Pb48  1  0.50019050  0.83345628  0.16685715  1
  Pb  Pb49  1  0.16661929  0.49982695  0.16677205  1
  Pb  Pb50  1  0.83112491  0.50256708  0.49779158  1
  Pb  Pb51  1  0.16697514  0.16670396  0.83364183  1
  Pb  Pb52  1  0.16673850  0.83476361  0.49804888  1
  Pb  Pb53  1  0.83626360  0.16393792  0.50293034  1
  I  I54  1  0.16804654  0.00089241  0.17005544  1
  I  I55  1  0.17027960  0.00261194  0.49711553  1
  I  I56  1  0.16555523  0.00004068  0.83222173  1
  I  I57  1  0.16808774  0.33010831  0.16854966  1
  I  I58  1  0.16809499  0.32930792  0.49289757  1
  I  I59  1  0.16938214  0.33263062  0.83604886  1
  I  I60  1  0.16735346  0.66941483  0.16653037  1
  I  I61  1  0.16633685  0.66680489  0.49833380  1
  I  I62  1  0.16846096  0.66731184  0.83512781  1
  I  I63  1  0.49891743  0.00234203  0.16558419  1
  I  I64  1  0.50171968  -0.00264898  0.50000854  1
  I  I65  1  0.50338884  0.00089238  0.83471308  1
  I  I66  1  0.49955668  0.33279385  0.16622306  1
  I  I67  1  0.49718707  0.33532393  0.49836163  1
  I  I68  1  0.50188287  0.33010834  0.83475463  1
  I  I69  1  0.50004239  0.66473376  0.16670929  1
  I  I70  1  0.50326500  0.66760762  0.49878085  1
  I  I71  1  0.49986373  0.66941482  0.83402007  1
  I  I72  1  0.83334192  -0.00264892  0.16838633  1
  I  I73  1  0.82473904  -0.00368122  0.49140561  1
  I  I74  1  0.83044852  0.00261191  0.83694652  1
  I  I75  1  0.83169481  0.33532400  0.16385369  1
  I  I76  1  0.83280190  0.33324783  0.49946849  1
  I  I77  1  0.82623083  0.32930793  0.83476180  1
  I  I78  1  0.83211434  0.66760768  0.16993182  1
  I  I79  1  0.83174674  0.67068353  0.49841370  1
  I  I80  1  0.83166729  0.66680486  0.83300323  1
  I  I81  1  0.16812253  0.16371868  0.00330252  1
  I  I82  1  0.17374975  0.16246623  0.33131874  1
  I  I83  1  0.16857304  0.16592713  0.66441555  1
  I  I84  1  0.17022543  0.49719172  0.00087632  1
  I  I85  1  0.16647277  0.50087055  0.33303421  1
  I  I86  1  0.16891129  0.49704732  0.66608440  1
  I  I87  1  0.16159610  0.84094008  0.00483309  1
  I  I88  1  0.16851600  0.83626324  0.32997481  1
  I  I89  1  0.16477651  0.83604642  0.66663114  1
  I  I90  1  0.49778377  0.16595455  0.00089469  1
  I  I91  1  0.49707372  0.16707944  0.33053327  1
  I  I92  1  0.50085538  0.16580641  0.66908632  1
  I  I93  1  0.50221884  0.49998653  0.00323948  1
  I  I94  1  0.50300598  0.50014065  0.33214059  1
  I  I95  1  0.49881274  0.50044168  0.66383658  1
  I  I96  1  0.49976067  0.83528160  -0.00155467  1
  I  I97  1  0.50055894  0.83305326  0.33544917  1
  I  I98  1  0.50572466  0.83413747  0.66570975  1
  I  I99  1  0.83243480  0.16456272  -0.00206396  1
  I  I100  1  0.83128186  0.16759659  0.33337018  1
  I  I101  1  0.82577289  0.16474677  0.67027848  1
  I  I102  1  0.82619846  0.50727060  0.00449952  1
  I  I103  1  0.83093872  0.49953864  0.32966898  1
  I  I104  1  0.83225307  0.49990137  0.66650512  1
  I  I105  1  0.83519909  0.83124394  0.00311719  1
  I  I106  1  0.82999329  0.83128913  0.33235908  1
  I  I107  1  0.82960671  0.83708943  0.66410739  1
  I  I108  1  0.00241960  0.16580629  0.16752203  1
  I  I109  1  0.00361180  0.16474686  0.49243996  1
  I  I110  1  -0.00225114  0.16592696  0.83523946  1
  I  I111  1  -0.00283007  0.50044169  0.16547922  1
  I  I112  1  -0.00016159  0.49990159  0.49891986  1
  I  I113  1  -0.00058227  0.49704733  0.83557810  1
  I  I114  1  -0.00095690  0.83413755  0.17239161  1
  I  I115  1  -0.00255928  0.83708919  0.49627318  1
  I  I116  1  -0.00003553  0.83604664  0.83144311  1
  I  I117  1  0.33422802  0.16595479  0.16445038  1
  I  I118  1  0.33126932  0.16456273  0.49910124  1
  I  I119  1  0.33663585  0.16371859  0.83478933  1
  I  I120  1  0.33657279  0.49998628  0.16888576  1
  I  I121  1  0.33783289  0.50727022  0.49286503  1
  I  I122  1  0.33420963  0.49719190  0.83689167  1
  I  I123  1  0.33177868  0.83528170  0.16642723  1
  I  I124  1  0.33645046  0.83124413  0.50186562  1
  I  I125  1  0.33816638  0.84093992  0.82826282  1
  I  I126  1  0.66386662  0.16707918  0.16374034  1
  I  I127  1  0.66670346  0.16759658  0.49794831  1
  I  I128  1  0.66465209  0.16246644  0.84041656  1
  I  I129  1  0.66547396  0.50014102  0.16967256  1
  I  I130  1  0.66300234  0.49953862  0.49760514  1
  I  I131  1  0.66636754  0.50087062  0.83313965  1
  I  I132  1  0.66878250  0.83305327  0.16722545  1
  I  I133  1  0.66569239  0.83128917  0.49666022  1
  I  I134  1  0.66330807  0.83626317  0.83518234  1
