# generated using pymatgen
data_Cs27Sn14Pb13I81
_symmetry_space_group_name_H-M   'P 1'
_cell_length_a   18.97656122
_cell_length_b   18.97736653
_cell_length_c   18.97282158
_cell_angle_alpha   89.99988303
_cell_angle_beta   89.99953132
_cell_angle_gamma   89.99956050
_symmetry_Int_Tables_number   1
_chemical_formula_structural   Cs27Sn14Pb13I81
_chemical_formula_sum   'Cs27 Sn14 Pb13 I81'
_cell_volume   6832.59036438
_cell_formula_units_Z   1
loop_
 _symmetry_equiv_pos_site_id
 _symmetry_equiv_pos_as_xyz
  1  'x, y, z'
loop_
 _atom_site_type_symbol
 _atom_site_label
 _atom_site_symmetry_multiplicity
 _atom_site_fract_x
 _atom_site_fract_y
 _atom_site_fract_z
 _atom_site_occupancy
  Cs  Cs0  1  -0.00195863  0.00795224  0.00718606  1
  Cs  Cs1  1  0.00515567  -0.00122156  0.32492022  1
  Cs  Cs2  1  0.00105607  0.00293375  0.66784729  1
  Cs  Cs3  1  0.00037932  0.32445847  0.00087444  1
  Cs  Cs4  1  0.00015413  0.33313139  0.33229881  1
  Cs  Cs5  1  -0.00050976  0.33464382  0.66732630  1
  Cs  Cs6  1  -0.00000853  0.66834285  -0.00108313  1
  Cs  Cs7  1  -0.00001717  0.66953032  0.33083770  1
  Cs  Cs8  1  -0.00193404  0.66413771  0.66722121  1
  Cs  Cs9  1  0.33814294  0.00051331  -0.00186503  1
  Cs  Cs10  1  0.32890536  -0.00074423  0.34562320  1
  Cs  Cs11  1  0.33267118  0.00055727  0.65889668  1
  Cs  Cs12  1  0.33488225  0.33531750  0.00275310  1
  Cs  Cs13  1  0.33151459  0.33381801  0.32990603  1
  Cs  Cs14  1  0.33273319  0.33291864  0.66689831  1
  Cs  Cs15  1  0.33497849  0.66467755  -0.00125914  1
  Cs  Cs16  1  0.32916149  0.66697727  0.33057064  1
  Cs  Cs17  1  0.33286918  0.66719792  0.66857964  1
  Cs  Cs18  1  0.66734769  0.00004431  0.00085634  1
  Cs  Cs19  1  0.66614485  0.00042891  0.33336619  1
  Cs  Cs20  1  0.66547024  -0.00110332  0.66564607  1
  Cs  Cs21  1  0.66450742  0.33174900  0.00022931  1
  Cs  Cs22  1  0.66676260  0.33606904  0.33635473  1
  Cs  Cs23  1  0.66816931  0.33516380  0.66540064  1
  Cs  Cs24  1  0.66526607  0.66793256  -0.00137194  1
  Cs  Cs25  1  0.66894907  0.66487993  0.33378342  1
  Cs  Cs26  1  0.66843936  0.66622864  0.66728984  1
  Sn  Sn27  1  0.16631181  0.83311193  0.83354579  1
  Sn  Sn28  1  0.16784387  0.50033895  0.50091009  1
  Sn  Sn29  1  0.49854686  0.50040093  0.50076121  1
  Sn  Sn30  1  0.83337421  0.83482916  0.50065716  1
  Sn  Sn31  1  0.83342249  0.16496786  0.50022370  1
  Sn  Sn32  1  0.50012311  0.16515563  0.16661784  1
  Sn  Sn33  1  0.83395334  0.83313562  0.83280359  1
  Sn  Sn34  1  0.49986732  0.83363945  0.83372113  1
  Sn  Sn35  1  0.50015845  0.16656307  0.83352515  1
  Sn  Sn36  1  0.16658003  0.50065722  0.83278937  1
  Sn  Sn37  1  0.49992342  0.83438068  0.16651943  1
  Sn  Sn38  1  0.50001489  0.49985953  0.83242761  1
  Sn  Sn39  1  0.83345161  0.50032941  0.83487316  1
  Sn  Sn40  1  0.83332632  0.50015967  0.16476980  1
  Pb  Pb41  1  0.17002576  0.83331944  0.16334811  1
  Pb  Pb42  1  0.16363880  0.16941676  0.50029198  1
  Pb  Pb43  1  0.16369326  0.50008119  0.16560762  1
  Pb  Pb44  1  0.50134836  0.50033476  0.16637221  1
  Pb  Pb45  1  0.50127711  0.16903981  0.50006051  1
  Pb  Pb46  1  0.17043094  0.16640309  0.16660003  1
  Pb  Pb47  1  0.83085431  0.16895282  0.16917181  1
  Pb  Pb48  1  0.16969996  0.16661007  0.83334989  1
  Pb  Pb49  1  0.83111661  0.16639030  0.83198087  1
  Pb  Pb50  1  0.50154724  0.83083613  0.50031395  1
  Pb  Pb51  1  0.16362503  0.83096661  0.50257312  1
  Pb  Pb52  1  0.83383827  0.50055871  0.50065542  1
  Pb  Pb53  1  0.83141992  0.83192091  0.16588702  1
  I  I54  1  0.16145216  -0.00031658  0.16460389  1
  I  I55  1  0.16809531  -0.00031259  0.50143116  1
  I  I56  1  0.16636241  -0.00335087  0.83410526  1
  I  I57  1  0.16827071  0.33366013  0.16522859  1
  I  I58  1  0.16807205  0.33757424  0.50752235  1
  I  I59  1  0.16582610  0.33696434  0.82931811  1
  I  I60  1  0.16946245  0.66654069  0.16976119  1
  I  I61  1  0.16863456  0.66303107  0.50262298  1
  I  I62  1  0.17055706  0.66570087  0.82960426  1
  I  I63  1  0.50255930  -0.00037677  0.15591721  1
  I  I64  1  0.50085975  -0.00018323  0.50204551  1
  I  I65  1  0.50144581  -0.00097015  0.83902274  1
  I  I66  1  0.50251724  0.33158462  0.16328300  1
  I  I67  1  0.50129562  0.33700772  0.50424910  1
  I  I68  1  0.50091851  0.33455850  0.83343250  1
  I  I69  1  0.50215756  0.66895288  0.16247024  1
  I  I70  1  0.50091238  0.66291369  0.50453384  1
  I  I71  1  0.50065533  0.66656371  0.83362824  1
  I  I72  1  0.83330777  0.00004713  0.16527324  1
  I  I73  1  0.82959064  -0.00111541  0.50728048  1
  I  I74  1  0.83225380  -0.00322489  0.82998525  1
  I  I75  1  0.83038386  0.33680796  0.16248655  1
  I  I76  1  0.83180614  0.33226551  0.49959617  1
  I  I77  1  0.83260384  0.33646667  0.83408900  1
  I  I78  1  0.82933830  0.66397825  0.16818307  1
  I  I79  1  0.83214100  0.66864341  0.50199207  1
  I  I80  1  0.82864736  0.66633398  0.83078593  1
  I  I81  1  0.16230460  0.16976325  -0.00036446  1
  I  I82  1  0.16854497  0.16961754  0.33363315  1
  I  I83  1  0.16996620  0.16550140  0.66684672  1
  I  I84  1  0.17106391  0.50435931  -0.00414643  1
  I  I85  1  0.17010236  0.49832229  0.33595848  1
  I  I86  1  0.16541351  0.50336573  0.66834662  1
  I  I87  1  0.16185206  0.82425966  -0.00494932  1
  I  I88  1  0.16635764  0.83158530  0.33351512  1
  I  I89  1  0.17322699  0.83085722  0.67070990  1
  I  I90  1  0.50136197  0.16888743  -0.00132851  1
  I  I91  1  0.50329906  0.16465198  0.33095681  1
  I  I92  1  0.50153653  0.16498605  0.66956026  1
  I  I93  1  0.49821103  0.50018576  -0.00351362  1
  I  I94  1  0.49993249  0.49937672  0.33560112  1
  I  I95  1  0.50286468  0.49984318  0.66885534  1
  I  I96  1  0.50225280  0.83116022  -0.00246738  1
  I  I97  1  0.50436944  0.83550385  0.33118379  1
  I  I98  1  0.49904714  0.83498100  0.67042181  1
  I  I99  1  0.83402044  0.16582990  0.00006520  1
  I  I100  1  0.82964048  0.16485497  0.33680058  1
  I  I101  1  0.82928250  0.16929986  0.66432531  1
  I  I102  1  0.83098835  0.50596264  -0.00270600  1
  I  I103  1  0.83073844  0.49950729  0.33205512  1
  I  I104  1  0.83211906  0.50099856  0.66983256  1
  I  I105  1  0.83363333  0.82912138  -0.00376773  1
  I  I106  1  0.82958061  0.83262286  0.33552701  1
  I  I107  1  0.82963692  0.82958036  0.66856090  1
  I  I108  1  -0.00034907  0.16870723  0.16799044  1
  I  I109  1  -0.00419932  0.16639332  0.50212067  1
  I  I110  1  -0.00014859  0.16782315  0.83114735  1
  I  I111  1  -0.00420449  0.50104662  0.16524491  1
  I  I112  1  0.00205750  0.49955819  0.50392729  1
  I  I113  1  -0.00033066  0.50768095  0.83149418  1
  I  I114  1  -0.00006496  0.83080768  0.16724664  1
  I  I115  1  -0.00428795  0.83292001  0.50554486  1
  I  I116  1  -0.00082194  0.82293920  0.82632536  1
  I  I117  1  0.33855673  0.16666419  0.16132372  1
  I  I118  1  0.33339241  0.16650987  0.49939069  1
  I  I119  1  0.33805862  0.16806047  0.83681780  1
  I  I120  1  0.33336324  0.49907010  0.16596034  1
  I  I121  1  0.33401512  0.49953201  0.50826484  1
  I  I122  1  0.33423219  0.50247076  0.82845203  1
  I  I123  1  0.33820745  0.83438232  0.16126967  1
  I  I124  1  0.33319786  0.83389592  0.49965585  1
  I  I125  1  0.33435641  0.82909252  0.83915001  1
  I  I126  1  0.66327122  0.16394632  0.16142869  1
  I  I127  1  0.66902198  0.16749743  0.50088260  1
  I  I128  1  0.66299953  0.16808059  0.83596012  1
  I  I129  1  0.66909511  0.50032733  0.16399657  1
  I  I130  1  0.66495589  0.49952882  0.50311998  1
  I  I131  1  0.66624574  0.50246329  0.83252779  1
  I  I132  1  0.66354617  0.83503777  0.15979935  1
  I  I133  1  0.66937260  0.83228561  0.50636783  1
  I  I134  1  0.66634105  0.82965295  0.83318162  1
