# generated using pymatgen
data_Cs27Sn13Pb14I81
_symmetry_space_group_name_H-M   'P 1'
_cell_length_a   18.97847726
_cell_length_b   18.96888104
_cell_length_c   18.98327295
_cell_angle_alpha   90.00082620
_cell_angle_beta   89.99936109
_cell_angle_gamma   89.99680504
_symmetry_Int_Tables_number   1
_chemical_formula_structural   Cs27Sn13Pb14I81
_chemical_formula_sum   'Cs27 Sn13 Pb14 I81'
_cell_volume   6833.98731423
_cell_formula_units_Z   1
loop_
 _symmetry_equiv_pos_site_id
 _symmetry_equiv_pos_as_xyz
  1  'x, y, z'
loop_
 _atom_site_type_symbol
 _atom_site_label
 _atom_site_symmetry_multiplicity
 _atom_site_fract_x
 _atom_site_fract_y
 _atom_site_fract_z
 _atom_site_occupancy
  Cs  Cs0  1  0.00131996  -0.00075800  0.00173119  1
  Cs  Cs1  1  0.00028781  0.00134245  0.33361765  1
  Cs  Cs2  1  -0.00221169  -0.00014817  0.66443744  1
  Cs  Cs3  1  -0.00200699  0.33498361  -0.00355407  1
  Cs  Cs4  1  0.00095026  0.33056881  0.33611852  1
  Cs  Cs5  1  0.00214212  0.33236572  0.66691493  1
  Cs  Cs6  1  -0.00392582  0.66596948  -0.00190752  1
  Cs  Cs7  1  0.00007107  0.66757442  0.33157517  1
  Cs  Cs8  1  0.00292127  0.66589561  0.66952480  1
  Cs  Cs9  1  0.33272205  0.00006686  -0.00009467  1
  Cs  Cs10  1  0.32978932  -0.00057072  0.32748806  1
  Cs  Cs11  1  0.33489623  -0.00063947  0.67209067  1
  Cs  Cs12  1  0.33374853  0.33172466  -0.00075780  1
  Cs  Cs13  1  0.33619126  0.33590174  0.33336592  1
  Cs  Cs14  1  0.33360855  0.33327002  0.66764877  1
  Cs  Cs15  1  0.33407586  0.66806576  0.00224497  1
  Cs  Cs16  1  0.33332019  0.66463949  0.33506796  1
  Cs  Cs17  1  0.33138880  0.66645226  0.66483901  1
  Cs  Cs18  1  0.66478823  0.00229774  -0.00296377  1
  Cs  Cs19  1  0.66924495  -0.00361399  0.33565340  1
  Cs  Cs20  1  0.66787551  -0.00305005  0.66806663  1
  Cs  Cs21  1  0.66786759  0.33274532  0.00189159  1
  Cs  Cs22  1  0.66380739  0.33343603  0.33193605  1
  Cs  Cs23  1  0.66536851  0.33385717  0.66499893  1
  Cs  Cs24  1  0.67025962  0.66670907  0.00261888  1
  Cs  Cs25  1  0.66848629  0.67082555  0.33302087  1
  Cs  Cs26  1  0.66495779  0.66765532  0.66479483  1
  Sn  Sn27  1  0.49977159  0.16680389  0.49923631  1
  Sn  Sn28  1  0.16694542  0.49969981  0.16711265  1
  Sn  Sn29  1  0.16648510  0.50045724  0.49925910  1
  Sn  Sn30  1  0.16604129  0.83314962  0.83263172  1
  Sn  Sn31  1  0.49942656  0.49953112  0.16671006  1
  Sn  Sn32  1  0.50009985  0.50017161  0.83356860  1
  Sn  Sn33  1  0.50096170  0.16731506  0.16773882  1
  Sn  Sn34  1  0.83338806  0.49985426  0.49994836  1
  Sn  Sn35  1  0.83400129  0.83397070  0.83322504  1
  Sn  Sn36  1  0.83330303  0.16626780  0.83373435  1
  Sn  Sn37  1  0.50024248  0.49950035  0.49984999  1
  Sn  Sn38  1  0.16692167  0.83296932  0.50065638  1
  Sn  Sn39  1  0.83265208  0.16698395  0.16628599  1
  Pb  Pb40  1  0.49751317  0.83359904  0.49984324  1
  Pb  Pb41  1  0.83124537  0.49992489  0.83125090  1
  Pb  Pb42  1  0.50181077  0.16865454  0.83344172  1
  Pb  Pb43  1  0.50012171  0.83359681  0.16684940  1
  Pb  Pb44  1  0.50008183  0.83078515  0.83337563  1
  Pb  Pb45  1  0.83578915  0.83093019  0.50197723  1
  Pb  Pb46  1  0.83324968  0.49807898  0.16890632  1
  Pb  Pb47  1  0.83333942  0.83645994  0.16432627  1
  Pb  Pb48  1  0.16398076  0.16398223  0.83327255  1
  Pb  Pb49  1  0.16968046  0.16679565  0.49998793  1
  Pb  Pb50  1  0.16870209  0.50158439  0.83344865  1
  Pb  Pb51  1  0.83115667  0.16832509  0.49995805  1
  Pb  Pb52  1  0.16656980  0.83056408  0.16665212  1
  Pb  Pb53  1  0.16692496  0.16954505  0.16667753  1
  I  I54  1  0.16754163  0.00004864  0.16690812  1
  I  I55  1  0.16781531  -0.00292459  0.50495483  1
  I  I56  1  0.16740842  -0.00426281  0.82697109  1
  I  I57  1  0.16912857  0.33755142  0.17368284  1
  I  I58  1  0.16550948  0.33701220  0.49590613  1
  I  I59  1  0.16583054  0.33363088  0.83271419  1
  I  I60  1  0.17355954  0.66246490  0.16887436  1
  I  I61  1  0.16898523  0.66485825  0.50067253  1
  I  I62  1  0.16030323  0.66943503  0.83163160  1
  I  I63  1  0.50405638  0.00404302  0.17113488  1
  I  I64  1  0.49974967  0.00319644  0.49554262  1
  I  I65  1  0.49844506  0.00014968  0.83323498  1
  I  I66  1  0.50004321  0.33439914  0.16796131  1
  I  I67  1  0.49835342  0.33531097  0.49951189  1
  I  I68  1  0.50131166  0.33674258  0.83218644  1
  I  I69  1  0.49546167  0.66269782  0.16767186  1
  I  I70  1  0.50127200  0.66291071  0.49963138  1
  I  I71  1  0.50157709  0.66252783  0.83195405  1
  I  I72  1  0.82697371  0.00458554  0.16694876  1
  I  I73  1  0.83313405  0.00001606  0.49874967  1
  I  I74  1  0.83630188  0.00017076  0.83671663  1
  I  I75  1  0.83144096  0.33033654  0.15975314  1
  I  I76  1  0.83753748  0.33651296  0.50270022  1
  I  I77  1  0.83002291  0.33097557  0.83635010  1
  I  I78  1  0.83290189  0.66633713  0.16577275  1
  I  I79  1  0.82714667  0.66275961  0.50098119  1
  I  I80  1  0.83632874  0.66894532  0.83050661  1
  I  I81  1  0.17136246  0.16687667  0.00004145  1
  I  I82  1  0.16109130  0.16128689  0.33337744  1
  I  I83  1  0.16720326  0.17201084  0.66653638  1
  I  I84  1  0.17191556  0.50058987  0.00256685  1
  I  I85  1  0.17145541  0.50507516  0.33467240  1
  I  I86  1  0.16812032  0.50232167  0.66365058  1
  I  I87  1  0.16285750  0.83219340  -0.00297276  1
  I  I88  1  0.16880885  0.83019851  0.33627717  1
  I  I89  1  0.16354015  0.82617548  0.66627520  1
  I  I90  1  0.50232891  0.17188958  0.00290677  1
  I  I91  1  0.50538675  0.17649784  0.33275121  1
  I  I92  1  0.50040710  0.17237202  0.66423674  1
  I  I93  1  0.49526356  0.49659859  0.00128291  1
  I  I94  1  0.49804020  0.49523714  0.33370035  1
  I  I95  1  0.50012951  0.49660382  0.66508214  1
  I  I96  1  0.49718565  0.83203015  -0.00012725  1
  I  I97  1  0.49808851  0.82944640  0.33352162  1
  I  I98  1  0.50135716  0.83302472  0.66663431  1
  I  I99  1  0.82702390  0.16408741  0.00014761  1
  I  I100  1  0.83094557  0.17050618  0.33093167  1
  I  I101  1  0.83183274  0.16399837  0.66904481  1
  I  I102  1  0.83305834  0.50163725  -0.00001491  1
  I  I103  1  0.82992460  0.49778375  0.33670528  1
  I  I104  1  0.83317329  0.49839797  0.66344194  1
  I  I105  1  0.84001794  0.83151133  -0.00386915  1
  I  I106  1  0.83428937  0.83379212  0.33358750  1
  I  I107  1  0.83443446  0.83981952  0.66985614  1
  I  I108  1  -0.00282626  0.16768312  0.16203669  1
  I  I109  1  -0.00005110  0.16874813  0.50003522  1
  I  I110  1  -0.00428589  0.16812321  0.83873865  1
  I  I111  1  0.00241630  0.49944730  0.17159878  1
  I  I112  1  0.00108860  0.50420095  0.49609756  1
  I  I113  1  -0.00011335  0.49860947  0.83289431  1
  I  I114  1  0.00002099  0.83287554  0.16841084  1
  I  I115  1  0.00367613  0.82749542  0.50184452  1
  I  I116  1  0.00004201  0.83590129  0.82883590  1
  I  I117  1  0.33683965  0.16898413  0.17127035  1
  I  I118  1  0.33764032  0.17314523  0.49433646  1
  I  I119  1  0.33367927  0.16573365  0.83378480  1
  I  I120  1  0.33462332  0.49576425  0.17087478  1
  I  I121  1  0.33379722  0.50066373  0.49913318  1
  I  I122  1  0.33659976  0.50110207  0.82931822  1
  I  I123  1  0.33313615  0.83784551  0.16325325  1
  I  I124  1  0.32970500  0.82625238  0.50697560  1
  I  I125  1  0.33051230  0.83015714  0.82895323  1
  I  I126  1  0.66556458  0.17375392  0.16587061  1
  I  I127  1  0.66329211  0.17420909  0.49913583  1
  I  I128  1  0.66965605  0.16096521  0.83425474  1
  I  I129  1  0.66351152  0.49758446  0.16719697  1
  I  I130  1  0.66522439  0.49487524  0.50104248  1
  I  I131  1  0.66336735  0.50116659  0.83324300  1
  I  I132  1  0.66683415  0.82713758  0.16484334  1
  I  I133  1  0.66673344  0.83155692  0.50189828  1
  I  I134  1  0.66958259  0.83655673  0.83396051  1
