# generated using pymatgen
data_Cs27Sn13Pb14I81
_symmetry_space_group_name_H-M   'P 1'
_cell_length_a   18.99498007
_cell_length_b   18.99947712
_cell_length_c   18.98075813
_cell_angle_alpha   89.99863834
_cell_angle_beta   90.00019317
_cell_angle_gamma   90.00118020
_symmetry_Int_Tables_number   1
_chemical_formula_structural   Cs27Sn13Pb14I81
_chemical_formula_sum   'Cs27 Sn13 Pb14 I81'
_cell_volume   6850.05480390
_cell_formula_units_Z   1
loop_
 _symmetry_equiv_pos_site_id
 _symmetry_equiv_pos_as_xyz
  1  'x, y, z'
loop_
 _atom_site_type_symbol
 _atom_site_label
 _atom_site_symmetry_multiplicity
 _atom_site_fract_x
 _atom_site_fract_y
 _atom_site_fract_z
 _atom_site_occupancy
  Cs  Cs0  1  -0.00810241  0.00107854  0.00031075  1
  Cs  Cs1  1  0.00287804  -0.00233573  0.33652829  1
  Cs  Cs2  1  -0.00165591  -0.00010718  0.66586335  1
  Cs  Cs3  1  -0.00004964  0.32988917  -0.00056531  1
  Cs  Cs4  1  -0.00150129  0.34111828  0.33550379  1
  Cs  Cs5  1  -0.00079460  0.33383479  0.66623418  1
  Cs  Cs6  1  -0.00240924  0.67007211  0.00429361  1
  Cs  Cs7  1  0.00749318  0.65881720  0.33055905  1
  Cs  Cs8  1  -0.00028890  0.66532612  0.66360339  1
  Cs  Cs9  1  0.33264098  -0.00051285  -0.00195185  1
  Cs  Cs10  1  0.33389060  0.00051352  0.33140538  1
  Cs  Cs11  1  0.33411864  -0.00025375  0.66629632  1
  Cs  Cs12  1  0.33191869  0.33450043  -0.00432233  1
  Cs  Cs13  1  0.33575784  0.32985878  0.32829247  1
  Cs  Cs14  1  0.33512799  0.33269056  0.66909110  1
  Cs  Cs15  1  0.33476084  0.66616423  -0.00006012  1
  Cs  Cs16  1  0.32559293  0.66843246  0.32548977  1
  Cs  Cs17  1  0.33571461  0.66804250  0.66783533  1
  Cs  Cs18  1  0.67802811  -0.00142262  0.00599661  1
  Cs  Cs19  1  0.66363277  0.00234645  0.33261641  1
  Cs  Cs20  1  0.66795970  -0.00210060  0.66500621  1
  Cs  Cs21  1  0.66969992  0.33213433  0.00549866  1
  Cs  Cs22  1  0.66668231  0.33254651  0.32617215  1
  Cs  Cs23  1  0.66394115  0.33552761  0.66646282  1
  Cs  Cs24  1  0.66709550  0.66951706  0.00492065  1
  Cs  Cs25  1  0.66827301  0.66452460  0.32910411  1
  Cs  Cs26  1  0.66424641  0.66719424  0.66627128  1
  Sn  Sn27  1  0.50050139  0.50012970  0.83275338  1
  Sn  Sn28  1  0.83371757  0.16642120  0.50068896  1
  Sn  Sn29  1  0.50054071  0.83190089  0.50051604  1
  Sn  Sn30  1  0.83273863  0.83324678  0.50020348  1
  Sn  Sn31  1  0.16625140  0.50035998  0.83269831  1
  Sn  Sn32  1  0.49954369  0.50121325  0.50030515  1
  Sn  Sn33  1  0.16712361  0.16610053  0.83295248  1
  Sn  Sn34  1  0.16692361  0.83364045  0.83272418  1
  Sn  Sn35  1  0.49980542  0.83384549  0.83287973  1
  Sn  Sn36  1  0.83297932  0.50016099  0.83290357  1
  Sn  Sn37  1  0.50031638  0.16598453  0.83318628  1
  Sn  Sn38  1  0.16656042  0.16651961  0.16651245  1
  Sn  Sn39  1  0.16607895  0.16687074  0.50028652  1
  Pb  Pb40  1  0.83357031  0.83331720  0.17133526  1
  Pb  Pb41  1  0.49993946  0.83349283  0.16671806  1
  Pb  Pb42  1  0.83317870  0.16835378  0.83133699  1
  Pb  Pb43  1  0.83647153  0.16662737  0.17056997  1
  Pb  Pb44  1  0.49999074  0.16657814  0.50168327  1
  Pb  Pb45  1  0.49785373  0.16639226  0.16269726  1
  Pb  Pb46  1  0.49972188  0.50005676  0.16638650  1
  Pb  Pb47  1  0.83347579  0.49993443  0.16350016  1
  Pb  Pb48  1  0.83100536  0.50019434  0.50155040  1
  Pb  Pb49  1  0.16730449  0.83489662  0.50191379  1
  Pb  Pb50  1  0.16984637  0.49750615  0.50215912  1
  Pb  Pb51  1  0.83303624  0.83102907  0.83149519  1
  Pb  Pb52  1  0.16685033  0.49748396  0.16344334  1
  Pb  Pb53  1  0.16671312  0.83596021  0.16326868  1
  I  I54  1  0.16802167  0.00380281  0.16499362  1
  I  I55  1  0.16748560  0.00321238  0.50379896  1
  I  I56  1  0.17481745  0.00091360  0.83272625  1
  I  I57  1  0.16730304  0.32967537  0.16446270  1
  I  I58  1  0.16135471  0.32939388  0.50333201  1
  I  I59  1  0.16995760  0.33266692  0.83344278  1
  I  I60  1  0.16615428  0.66665799  0.16643787  1
  I  I61  1  0.16306631  0.66651861  0.50205158  1
  I  I62  1  0.17047591  0.66654724  0.83164423  1
  I  I63  1  0.49836682  0.00009524  0.16791318  1
  I  I64  1  0.50082647  -0.00241353  0.50559938  1
  I  I65  1  0.48982585  -0.00036848  0.82774159  1
  I  I66  1  0.49973757  0.33314272  0.16821889  1
  I  I67  1  0.49890500  0.33532113  0.50672028  1
  I  I68  1  0.49572445  0.33371647  0.82858841  1
  I  I69  1  0.49937553  0.66672865  0.16184891  1
  I  I70  1  0.50701676  0.66735639  0.51171400  1
  I  I71  1  0.49610175  0.66663577  0.82873591  1
  I  I72  1  0.83381476  0.00022609  0.16045486  1
  I  I73  1  0.83160808  0.00014272  0.50300806  1
  I  I74  1  0.83354432  -0.00016717  0.83399622  1
  I  I75  1  0.83314386  0.33304202  0.16874229  1
  I  I76  1  0.83759381  0.33097512  0.50259050  1
  I  I77  1  0.83336728  0.33606977  0.82968269  1
  I  I78  1  0.83382029  0.66665491  0.16718127  1
  I  I79  1  0.82969316  0.66923280  0.50407121  1
  I  I80  1  0.83407961  0.66345788  0.82972395  1
  I  I81  1  0.17339468  0.16821820  -0.00217839  1
  I  I82  1  0.16177272  0.16555608  0.33420981  1
  I  I83  1  0.16678314  0.16697633  0.66815650  1
  I  I84  1  0.17077426  0.49782460  -0.00541342  1
  I  I85  1  0.16752873  0.49870156  0.33352895  1
  I  I86  1  0.16542039  0.49649482  0.67075948  1
  I  I87  1  0.17377805  0.83322155  -0.00543626  1
  I  I88  1  0.16699706  0.83584506  0.33349147  1
  I  I89  1  0.16854409  0.83631001  0.67036089  1
  I  I90  1  0.49392780  0.16885957  -0.00581173  1
  I  I91  1  0.49888234  0.16726915  0.33342464  1
  I  I92  1  0.49339059  0.16767506  0.66991972  1
  I  I93  1  0.49861184  0.50000130  -0.00469224  1
  I  I94  1  0.50152488  0.50371769  0.33667338  1
  I  I95  1  0.49967674  0.50018742  0.66872254  1
  I  I96  1  0.49408180  0.83153475  -0.00419861  1
  I  I97  1  0.50509217  0.82949952  0.33723461  1
  I  I98  1  0.49953584  0.83251187  0.66786336  1
  I  I99  1  0.83296385  0.16867421  -0.00003877  1
  I  I100  1  0.83606933  0.16331806  0.33844277  1
  I  I101  1  0.84000378  0.16354334  0.66385806  1
  I  I102  1  0.83058113  0.49888550  -0.00515447  1
  I  I103  1  0.83139030  0.49939541  0.33372991  1
  I  I104  1  0.83557766  0.49877930  0.66965362  1
  I  I105  1  0.83321095  0.83190346  -0.00019312  1
  I  I106  1  0.82550286  0.83911572  0.33915318  1
  I  I107  1  0.83185327  0.83791627  0.66397210  1
  I  I108  1  0.00391429  0.16612276  0.15671295  1
  I  I109  1  0.00074374  0.16074712  0.50328464  1
  I  I110  1  0.00337712  0.16726171  0.83506239  1
  I  I111  1  0.00029619  0.49954551  0.16660186  1
  I  I112  1  0.00022097  0.50126355  0.50227540  1
  I  I113  1  0.00088977  0.49790911  0.83341634  1
  I  I114  1  0.00017499  0.83441423  0.16430625  1
  I  I115  1  -0.00189705  0.83814303  0.50319910  1
  I  I116  1  0.00264358  0.83455111  0.83209856  1
  I  I117  1  0.32995231  0.16701465  0.17256430  1
  I  I118  1  0.33061488  0.16700908  0.50003545  1
  I  I119  1  0.33226497  0.17064537  0.83100431  1
  I  I120  1  0.33317762  0.49885569  0.16520785  1
  I  I121  1  0.33735594  0.50442323  0.50819292  1
  I  I122  1  0.33364334  0.49844237  0.83010289  1
  I  I123  1  0.33318273  0.83418381  0.17164717  1
  I  I124  1  0.33649802  0.83146871  0.50407704  1
  I  I125  1  0.33390474  0.83091945  0.82791505  1
  I  I126  1  0.66699974  0.16721061  0.16633031  1
  I  I127  1  0.66851677  0.16564655  0.50467167  1
  I  I128  1  0.66387255  0.16763952  0.82898840  1
  I  I129  1  0.66652834  0.49805146  0.16449173  1
  I  I130  1  0.66338453  0.49835337  0.50904889  1
  I  I131  1  0.66521093  0.49915507  0.82796696  1
  I  I132  1  0.66674486  0.83451338  0.15963485  1
  I  I133  1  0.66562092  0.83646081  0.50803475  1
  I  I134  1  0.66342068  0.83326159  0.83054382  1
