# generated using pymatgen
data_Cs27Sn14Pb13I81
_symmetry_space_group_name_H-M   'P 1'
_cell_length_a   18.96907391
_cell_length_b   18.99111583
_cell_length_c   18.96907407
_cell_angle_alpha   89.99947320
_cell_angle_beta   90.00256077
_cell_angle_gamma   89.99947321
_symmetry_Int_Tables_number   1
_chemical_formula_structural   Cs27Sn14Pb13I81
_chemical_formula_sum   'Cs27 Sn14 Pb13 I81'
_cell_volume   6833.49283224
_cell_formula_units_Z   1
loop_
 _symmetry_equiv_pos_site_id
 _symmetry_equiv_pos_as_xyz
  1  'x, y, z'
loop_
 _atom_site_type_symbol
 _atom_site_label
 _atom_site_symmetry_multiplicity
 _atom_site_fract_x
 _atom_site_fract_y
 _atom_site_fract_z
 _atom_site_occupancy
  Cs  Cs0  1  0.00003791  0.00029142  0.00125343  1
  Cs  Cs1  1  0.00065658  0.00031829  0.33262500  1
  Cs  Cs2  1  -0.00160053  0.00100365  0.66631645  1
  Cs  Cs3  1  -0.00125341  0.33304169  -0.00003795  1
  Cs  Cs4  1  0.00108105  0.32992772  0.33717635  1
  Cs  Cs5  1  0.00325369  0.33407880  0.66281304  1
  Cs  Cs6  1  0.00042649  0.66666668  -0.00042642  1
  Cs  Cs7  1  -0.00069304  0.66824247  0.33141234  1
  Cs  Cs8  1  -0.00062763  0.66335663  0.66798924  1
  Cs  Cs9  1  0.33718725  -0.00074545  -0.00325369  1
  Cs  Cs10  1  0.33103863  -0.00344711  0.33522785  1
  Cs  Cs11  1  0.33596500  -0.00064610  0.66717383  1
  Cs  Cs12  1  0.33368343  0.33232981  0.00160063  1
  Cs  Cs13  1  0.33283692  0.33427443  0.33491494  1
  Cs  Cs14  1  0.33282621  0.33397945  0.66403500  1
  Cs  Cs15  1  0.33201057  0.66997676  0.00062768  1
  Cs  Cs16  1  0.33554261  0.66981499  0.33100370  1
  Cs  Cs17  1  0.33143524  0.66666668  0.66856470  1
  Cs  Cs18  1  0.66282369  0.00340555  -0.00108105  1
  Cs  Cs19  1  0.66938047  0.00279694  0.33347756  1
  Cs  Cs20  1  0.66508505  -0.00094103  0.66716305  1
  Cs  Cs21  1  0.66737503  0.33301500  -0.00065682  1
  Cs  Cs22  1  0.66652262  0.33053630  0.33061938  1
  Cs  Cs23  1  0.66477211  0.33678055  0.66896143  1
  Cs  Cs24  1  0.66858762  0.66509074  0.00069312  1
  Cs  Cs25  1  0.66562776  0.66666661  0.33437223  1
  Cs  Cs26  1  0.66899624  0.66351829  0.66445734  1
  Sn  Sn27  1  0.16694668  0.83297801  0.49991114  1
  Sn  Sn28  1  0.83387557  0.83278693  0.16550669  1
  Sn  Sn29  1  0.49999751  0.50017402  0.50062955  1
  Sn  Sn30  1  0.16568512  0.50012317  0.16657258  1
  Sn  Sn31  1  0.16666945  0.16645757  0.16581188  1
  Sn  Sn32  1  0.50008884  0.50035536  0.83305327  1
  Sn  Sn33  1  0.16607427  0.16666665  0.83392575  1
  Sn  Sn34  1  0.83342745  0.83321018  0.83431485  1
  Sn  Sn35  1  0.83449336  0.50054638  0.16612439  1
  Sn  Sn36  1  0.49937048  0.83315929  0.50000253  1
  Sn  Sn37  1  0.50017196  0.16666668  0.49982809  1
  Sn  Sn38  1  0.83418807  0.16687569  0.83333056  1
  Sn  Sn39  1  0.16599325  0.83336760  0.16694758  1
  Sn  Sn40  1  0.83305241  0.49996579  0.83400676  1
  Pb  Pb41  1  0.83518065  0.16666664  0.16481935  1
  Pb  Pb42  1  0.16640834  0.49800267  0.83538831  1
  Pb  Pb43  1  0.16828949  0.16454642  0.50014541  1
  Pb  Pb44  1  0.49695741  0.16652246  0.16897380  1
  Pb  Pb45  1  0.16461167  0.83533068  0.83359167  1
  Pb  Pb46  1  0.50049772  0.50008692  0.16631267  1
  Pb  Pb47  1  0.50279773  0.83070660  0.83109267  1
  Pb  Pb48  1  0.50072562  0.83347897  0.16842586  1
  Pb  Pb49  1  0.49985455  0.16878689  0.83171050  1
  Pb  Pb50  1  0.16890733  0.50262671  0.49720229  1
  Pb  Pb51  1  0.83102620  0.16681087  0.50304257  1
  Pb  Pb52  1  0.83157414  0.49985440  0.49927436  1
  Pb  Pb53  1  0.83368731  0.83324640  0.49950232  1
  I  I54  1  0.16248704  -0.00085360  0.16837399  1
  I  I55  1  0.17274406  -0.00311108  0.49423518  1
  I  I56  1  0.16184028  0.00311849  0.83783653  1
  I  I57  1  0.16393463  0.33344225  0.16136975  1
  I  I58  1  0.16890109  0.33340760  0.49875417  1
  I  I59  1  0.16216336  0.33021486  0.83815962  1
  I  I60  1  0.16324812  0.66718709  0.17174947  1
  I  I61  1  0.17193435  0.67039232  0.49567656  1
  I  I62  1  0.16690793  0.66666674  0.83309228  1
  I  I63  1  0.50115649  -0.00004994  0.16843484  1
  I  I64  1  0.49542056  -0.00062416  0.49906777  1
  I  I65  1  0.50124556  -0.00007423  0.83109900  1
  I  I66  1  0.49983916  0.33347279  0.17033764  1
  I  I67  1  0.50093226  0.33395749  0.50457944  1
  I  I68  1  0.50576481  0.33644441  0.82725572  1
  I  I69  1  0.49518483  0.66664270  0.16948979  1
  I  I70  1  0.49667746  0.66666666  0.50332246  1
  I  I71  1  0.50432356  0.66294098  0.82806581  1
  I  I72  1  0.83715403  -0.00282354  0.16402081  1
  I  I73  1  0.82966272  -0.00013947  0.50016028  1
  I  I74  1  0.83863048  -0.00010898  0.83606576  1
  I  I75  1  0.83597935  0.33615688  0.16284582  1
  I  I76  1  0.83156494  0.33338327  0.49884385  1
  I  I77  1  0.83162618  0.33418691  0.83751286  1
  I  I78  1  0.84102861  0.66666666  0.15897142  1
  I  I79  1  0.83051019  0.66669065  0.50481557  1
  I  I80  1  0.82825019  0.66614620  0.83675160  1
  I  I81  1  0.16287716  0.16496735  0.00050145  1
  I  I82  1  0.16896238  0.16815279  0.33044989  1
  I  I83  1  0.16362685  0.16546003  0.66927685  1
  I  I84  1  0.16806441  0.50546294  0.00350136  1
  I  I85  1  0.16167400  0.49448745  0.32908627  1
  I  I86  1  0.16472548  0.49943515  0.66666775  1
  I  I87  1  0.16376735  0.83138418  0.00322206  1
  I  I88  1  0.16556008  0.83532812  0.33195069  1
  I  I89  1  0.17012440  0.83628974  0.66442271  1
  I  I90  1  0.50101151  0.16887899  -0.00032752  1
  I  I91  1  0.49914650  0.16982517  0.33724954  1
  I  I92  1  0.49822497  0.16441757  0.66374471  1
  I  I93  1  0.50227055  0.49842567  -0.00270492  1
  I  I94  1  0.49909209  0.50042911  0.33610040  1
  I  I95  1  0.50640950  0.50007377  0.66672744  1
  I  I96  1  0.49671699  0.83153556  -0.00029888  1
  I  I97  1  0.50007647  0.82987198  0.33688798  1
  I  I98  1  0.49462466  0.83572728  0.66298273  1
  I  I99  1  0.83391457  0.16708579  -0.00338602  1
  I  I100  1  0.83314197  0.16632367  0.33309467  1
  I  I101  1  0.84053230  0.16638608  0.67154157  1
  I  I102  1  0.83056096  0.50088241  -0.00056912  1
  I  I103  1  0.83560090  0.50627012  0.32961134  1
  I  I104  1  0.83011861  0.50106742  0.66992557  1
  I  I105  1  0.83994778  0.83155504  0.00052983  1
  I  I106  1  0.83393590  0.82785413  0.32998159  1
  I  I107  1  0.83239298  0.83295056  0.66957360  1
  I  I108  1  0.00338602  0.16624767  0.16608571  1
  I  I109  1  0.00032748  0.16445456  0.49898857  1
  I  I110  1  -0.00050145  0.16836617  0.83712241  1
  I  I111  1  -0.00052982  0.50177825  0.16005221  1
  I  I112  1  0.00029889  0.50179774  0.50328274  1
  I  I113  1  -0.00322207  0.50194929  0.83623283  1
  I  I114  1  0.00056908  0.83245111  0.16943888  1
  I  I115  1  0.00270485  0.83490738  0.49772941  1
  I  I116  1  -0.00350134  0.82787013  0.83193591  1
  I  I117  1  0.32845841  0.16694669  0.15946717  1
  I  I118  1  0.33625524  0.16891565  0.50177566  1
  I  I119  1  0.33072311  0.16787335  0.83637314  1
  I  I120  1  0.33042640  0.50038327  0.16760702  1
  I  I121  1  0.33701724  0.49760598  0.50537569  1
  I  I122  1  0.33557732  0.49704351  0.82987527  1
  I  I123  1  0.33007444  0.83226577  0.16988143  1
  I  I124  1  0.33327258  0.83325968  0.49359077  1
  I  I125  1  0.33333221  0.83389818  0.83527417  1
  I  I126  1  0.66690537  0.16701010  0.16685823  1
  I  I127  1  0.66275048  0.16350793  0.50085282  1
  I  I128  1  0.66955009  0.16518055  0.83103803  1
  I  I129  1  0.67001842  0.50547894  0.16606421  1
  I  I130  1  0.66311203  0.50346156  0.49992344  1
  I  I131  1  0.66804927  0.49800503  0.83444000  1
  I  I132  1  0.67038865  0.82706319  0.16439908  1
  I  I133  1  0.66389963  0.83290431  0.50090777  1
  I  I134  1  0.67091375  0.83884625  0.83832615  1
