# generated using pymatgen
data_Cs27Sn13Pb14I81
_symmetry_space_group_name_H-M   'P 1'
_cell_length_a   18.97863456
_cell_length_b   18.97464369
_cell_length_c   18.97918308
_cell_angle_alpha   89.99850873
_cell_angle_beta   89.99925755
_cell_angle_gamma   89.99901976
_symmetry_Int_Tables_number   1
_chemical_formula_structural   Cs27Sn13Pb14I81
_chemical_formula_sum   'Cs27 Sn13 Pb14 I81'
_cell_volume   6834.64729483
_cell_formula_units_Z   1
loop_
 _symmetry_equiv_pos_site_id
 _symmetry_equiv_pos_as_xyz
  1  'x, y, z'
loop_
 _atom_site_type_symbol
 _atom_site_label
 _atom_site_symmetry_multiplicity
 _atom_site_fract_x
 _atom_site_fract_y
 _atom_site_fract_z
 _atom_site_occupancy
  Cs  Cs0  1  -0.00327338  -0.00344178  0.00036403  1
  Cs  Cs1  1  0.00355816  0.00136853  0.33208378  1
  Cs  Cs2  1  -0.00269497  0.00068999  0.66896083  1
  Cs  Cs3  1  -0.00292634  0.33308446  -0.00139219  1
  Cs  Cs4  1  -0.00043711  0.33449589  0.33305253  1
  Cs  Cs5  1  0.00199105  0.33252004  0.66721260  1
  Cs  Cs6  1  0.00220151  0.66925522  -0.00217165  1
  Cs  Cs7  1  -0.00163340  0.66424675  0.33341655  1
  Cs  Cs8  1  -0.00082974  0.66763636  0.66834233  1
  Cs  Cs9  1  0.33367633  -0.00314000  0.00252093  1
  Cs  Cs10  1  0.33301343  0.00113986  0.33255191  1
  Cs  Cs11  1  0.33438896  0.00276871  0.66595875  1
  Cs  Cs12  1  0.33596816  0.33408977  -0.00170089  1
  Cs  Cs13  1  0.33229097  0.33024185  0.33164118  1
  Cs  Cs14  1  0.33141031  0.33197543  0.66742395  1
  Cs  Cs15  1  0.33330419  0.66835593  -0.00133866  1
  Cs  Cs16  1  0.33285052  0.66810654  0.33604835  1
  Cs  Cs17  1  0.33466727  0.66522280  0.66691836  1
  Cs  Cs18  1  0.66808488  0.00011032  -0.00016186  1
  Cs  Cs19  1  0.66453049  -0.00301540  0.33323065  1
  Cs  Cs20  1  0.66799795  -0.00034507  0.66686079  1
  Cs  Cs21  1  0.66818022  0.33523531  0.00706430  1
  Cs  Cs22  1  0.66951958  0.33968497  0.32492175  1
  Cs  Cs23  1  0.66535995  0.33259346  0.66768241  1
  Cs  Cs24  1  0.66364695  0.66573184  0.00245306  1
  Cs  Cs25  1  0.66978265  0.66457270  0.33807499  1
  Cs  Cs26  1  0.66499426  0.66621425  0.65814476  1
  Sn  Sn27  1  0.16669919  0.49994265  0.50017454  1
  Sn  Sn28  1  0.83308900  0.16684943  0.49971309  1
  Sn  Sn29  1  0.83278261  0.83341992  0.16664668  1
  Sn  Sn30  1  0.50077156  0.83340679  0.16631871  1
  Sn  Sn31  1  0.49994824  0.83402856  0.83351199  1
  Sn  Sn32  1  0.16703745  0.49973445  0.16618173  1
  Sn  Sn33  1  0.16718406  0.16685839  0.83311578  1
  Sn  Sn34  1  0.49932254  0.16582030  0.83293710  1
  Sn  Sn35  1  0.50042519  0.16699787  0.50037644  1
  Sn  Sn36  1  0.83356419  0.50013376  0.83298774  1
  Sn  Sn37  1  0.16663282  0.16653467  0.50094136  1
  Sn  Sn38  1  0.16579178  0.49918472  0.83349999  1
  Sn  Sn39  1  0.16644033  0.83368346  0.50058015  1
  Pb  Pb40  1  0.49990325  0.16475713  0.16620356  1
  Pb  Pb41  1  0.49758791  0.50290050  0.16690173  1
  Pb  Pb42  1  0.49827649  0.83526355  0.50021045  1
  Pb  Pb43  1  0.16661029  0.16873254  0.16579913  1
  Pb  Pb44  1  0.83582276  0.83541331  0.49823243  1
  Pb  Pb45  1  0.49775902  0.49659525  0.49992068  1
  Pb  Pb46  1  0.83553135  0.49773493  0.50202016  1
  Pb  Pb47  1  0.16693947  0.83134241  0.16870804  1
  Pb  Pb48  1  0.83038411  0.83092482  0.83462919  1
  Pb  Pb49  1  0.49983261  0.49945768  0.83324625  1
  Pb  Pb50  1  0.83342181  0.16451783  0.16928973  1
  Pb  Pb51  1  0.16836383  0.83370257  0.83137908  1
  Pb  Pb52  1  0.83569001  0.50226732  0.16448414  1
  Pb  Pb53  1  0.83296998  0.16819949  0.83194652  1
  I  I54  1  0.16678653  -0.00030038  0.16814469  1
  I  I55  1  0.16714957  0.00171134  0.50332647  1
  I  I56  1  0.16917267  0.00304771  0.82758351  1
  I  I57  1  0.16596310  0.33679371  0.17133368  1
  I  I58  1  0.16706023  0.33266850  0.50103417  1
  I  I59  1  0.16875832  0.33315394  0.82860880  1
  I  I60  1  0.16716331  0.66338271  0.16609128  1
  I  I61  1  0.16731098  0.66583796  0.49938402  1
  I  I62  1  0.16483587  0.66386593  0.83194981  1
  I  I63  1  0.50126523  -0.00326480  0.16578090  1
  I  I64  1  0.49565011  0.00337198  0.50102676  1
  I  I65  1  0.49399700  0.00106972  0.83310462  1
  I  I66  1  0.49924410  0.33338139  0.16646999  1
  I  I67  1  0.49695212  0.32838588  0.50801492  1
  I  I68  1  0.49715341  0.33000944  0.82731463  1
  I  I69  1  0.50215766  0.67090144  0.15979521  1
  I  I70  1  0.49716049  0.66678535  0.50062362  1
  I  I71  1  0.49852630  0.66914071  0.83872710  1
  I  I72  1  0.83128242  -0.00340065  0.16561486  1
  I  I73  1  0.83677634  0.00342337  0.50109633  1
  I  I74  1  0.83616026  0.00000009  0.83373702  1
  I  I75  1  0.83403381  0.33373135  0.16692967  1
  I  I76  1  0.83564303  0.32977256  0.50085007  1
  I  I77  1  0.83534540  0.33606835  0.83236335  1
  I  I78  1  0.82924233  0.66983766  0.16746941  1
  I  I79  1  0.83516844  0.66655485  0.49977633  1
  I  I80  1  0.84171681  0.66330662  0.83392316  1
  I  I81  1  0.17195547  0.17125570  -0.00389484  1
  I  I82  1  0.16788677  0.16722858  0.33687076  1
  I  I83  1  0.16794335  0.17111906  0.66583600  1
  I  I84  1  0.16326383  0.49637726  -0.00141038  1
  I  I85  1  0.16832755  0.50037269  0.33449779  1
  I  I86  1  0.16334940  0.49810145  0.66683288  1
  I  I87  1  0.16597924  0.83271820  -0.00011632  1
  I  I88  1  0.16882162  0.83488066  0.33675610  1
  I  I89  1  0.16865231  0.83013432  0.66341542  1
  I  I90  1  0.49376187  0.16498770  -0.00360638  1
  I  I91  1  0.49649324  0.16495549  0.33647032  1
  I  I92  1  0.49760670  0.16088489  0.66705462  1
  I  I93  1  0.49699920  0.49613016  -0.00016341  1
  I  I94  1  0.49779157  0.49998459  0.33347176  1
  I  I95  1  0.49886020  0.50634439  0.66676190  1
  I  I96  1  0.50149213  0.83893911  -0.00055887  1
  I  I97  1  0.50114851  0.83466566  0.33116414  1
  I  I98  1  0.49680564  0.83529879  0.66916264  1
  I  I99  1  0.83394228  0.16740574  -0.00019065  1
  I  I100  1  0.83571981  0.16697223  0.33770030  1
  I  I101  1  0.83527199  0.16650025  0.66378910  1
  I  I102  1  0.83983740  0.49832886  -0.00321750  1
  I  I103  1  0.83512254  0.49965984  0.33339021  1
  I  I104  1  0.83955075  0.50053028  0.66970177  1
  I  I105  1  0.83421076  0.83345993  0.00265760  1
  I  I106  1  0.82664432  0.83301643  0.33043999  1
  I  I107  1  0.83303364  0.83282743  0.66656738  1
  I  I108  1  0.00018527  0.16304975  0.16719842  1
  I  I109  1  0.00198857  0.16694694  0.50335823  1
  I  I110  1  0.00306050  0.16983191  0.82823869  1
  I  I111  1  0.00359508  0.50266753  0.16988904  1
  I  I112  1  0.00423866  0.49768238  0.49792112  1
  I  I113  1  0.00255304  0.49461632  0.83299100  1
  I  I114  1  -0.00178764  0.83165631  0.16945007  1
  I  I115  1  0.00394289  0.83494762  0.49820987  1
  I  I116  1  0.00010003  0.83547606  0.83471577  1
  I  I117  1  0.33316229  0.16431141  0.17158552  1
  I  I118  1  0.33207888  0.16688147  0.50415029  1
  I  I119  1  0.33258094  0.16910424  0.82516434  1
  I  I120  1  0.32932167  0.50121399  0.16446015  1
  I  I121  1  0.32873816  0.49909623  0.50362219  1
  I  I122  1  0.32979574  0.49884420  0.83242280  1
  I  I123  1  0.33578623  0.83210564  0.16390520  1
  I  I124  1  0.33017382  0.83456659  0.49776140  1
  I  I125  1  0.33617270  0.83301615  0.83920554  1
  I  I126  1  0.66657727  0.16908557  0.16673307  1
  I  I127  1  0.66581407  0.16367246  0.50577873  1
  I  I128  1  0.66358835  0.16391581  0.82784025  1
  I  I129  1  0.66691976  0.49859650  0.16419856  1
  I  I130  1  0.66693966  0.49949475  0.50182535  1
  I  I131  1  0.66901657  0.49982521  0.83424366  1
  I  I132  1  0.66580804  0.83476711  0.16235383  1
  I  I133  1  0.66658116  0.83549848  0.50102636  1
  I  I134  1  0.66251566  0.83900995  0.83417389  1
