# generated using pymatgen
data_Cs27Sn13Pb14I81
_symmetry_space_group_name_H-M   'P 1'
_cell_length_a   18.97664376
_cell_length_b   18.98518966
_cell_length_c   18.97407387
_cell_angle_alpha   89.99934507
_cell_angle_beta   89.99945023
_cell_angle_gamma   89.99906521
_symmetry_Int_Tables_number   1
_chemical_formula_structural   Cs27Sn13Pb14I81
_chemical_formula_sum   'Cs27 Sn13 Pb14 I81'
_cell_volume   6835.88789576
_cell_formula_units_Z   1
loop_
 _symmetry_equiv_pos_site_id
 _symmetry_equiv_pos_as_xyz
  1  'x, y, z'
loop_
 _atom_site_type_symbol
 _atom_site_label
 _atom_site_symmetry_multiplicity
 _atom_site_fract_x
 _atom_site_fract_y
 _atom_site_fract_z
 _atom_site_occupancy
  Cs  Cs0  1  0.00196786  0.00045922  -0.00153495  1
  Cs  Cs1  1  -0.00012486  -0.00293524  0.33655157  1
  Cs  Cs2  1  -0.00009921  -0.00266336  0.66565271  1
  Cs  Cs3  1  -0.00307534  0.33246552  0.00005956  1
  Cs  Cs4  1  -0.00131606  0.33412942  0.33333040  1
  Cs  Cs5  1  -0.00016481  0.33267980  0.66680831  1
  Cs  Cs6  1  0.00300421  0.66718928  0.00032820  1
  Cs  Cs7  1  -0.00006678  0.66855794  0.33617585  1
  Cs  Cs8  1  0.00237945  0.67124055  0.66235542  1
  Cs  Cs9  1  0.33411906  0.00055655  0.00031398  1
  Cs  Cs10  1  0.33446019  0.00402391  0.33509352  1
  Cs  Cs11  1  0.33275023  0.00312637  0.66545830  1
  Cs  Cs12  1  0.33323110  0.33252123  0.00026033  1
  Cs  Cs13  1  0.33212809  0.33235215  0.33539782  1
  Cs  Cs14  1  0.33313793  0.33448386  0.66190912  1
  Cs  Cs15  1  0.33285171  0.66726459  0.00071539  1
  Cs  Cs16  1  0.33161517  0.66390539  0.33408681  1
  Cs  Cs17  1  0.33306991  0.66080456  0.66109971  1
  Cs  Cs18  1  0.66537307  0.00062186  0.00010185  1
  Cs  Cs19  1  0.66604574  -0.00248960  0.33430264  1
  Cs  Cs20  1  0.66700279  -0.00216807  0.66593111  1
  Cs  Cs21  1  0.67130477  0.33397869  -0.00109633  1
  Cs  Cs22  1  0.66977180  0.33217874  0.33138610  1
  Cs  Cs23  1  0.66692913  0.33709504  0.66937573  1
  Cs  Cs24  1  0.66564963  0.66595648  -0.00028186  1
  Cs  Cs25  1  0.66802155  0.67084421  0.33304162  1
  Cs  Cs26  1  0.66458294  0.66619524  0.66653115  1
  Sn  Sn27  1  0.83291158  0.83353199  0.16511522  1
  Sn  Sn28  1  0.49960523  0.49961480  0.16625522  1
  Sn  Sn29  1  0.49941163  0.16631364  0.83423293  1
  Sn  Sn30  1  0.16668675  0.49910551  0.83424875  1
  Sn  Sn31  1  0.83295269  0.49896993  0.50005427  1
  Sn  Sn32  1  0.83257106  0.83332899  0.83475120  1
  Sn  Sn33  1  0.50042555  0.83391201  0.83411776  1
  Sn  Sn34  1  0.50060329  0.83346089  0.16571793  1
  Sn  Sn35  1  0.83294644  0.16766009  0.50014476  1
  Sn  Sn36  1  0.16715611  0.16752732  0.16572384  1
  Sn  Sn37  1  0.16751433  0.16773925  0.83433128  1
  Sn  Sn38  1  0.49954532  0.16699107  0.16562050  1
  Sn  Sn39  1  0.16728241  0.49891311  0.16556763  1
  Pb  Pb40  1  0.83379338  0.50227823  0.16773590  1
  Pb  Pb41  1  0.16800751  0.83359269  0.83341014  1
  Pb  Pb42  1  0.50250277  0.49972533  0.49670017  1
  Pb  Pb43  1  0.16740750  0.83356671  0.49994786  1
  Pb  Pb44  1  0.49975029  0.83342768  0.50024737  1
  Pb  Pb45  1  0.83320574  0.16483172  0.83166387  1
  Pb  Pb46  1  0.83351450  0.16441408  0.16796725  1
  Pb  Pb47  1  0.49807955  0.49982715  0.83533668  1
  Pb  Pb48  1  0.50226332  0.16684080  0.50028336  1
  Pb  Pb49  1  0.16761520  0.83372418  0.16670356  1
  Pb  Pb50  1  0.83301606  0.83328656  0.50022754  1
  Pb  Pb51  1  0.83609908  0.50284079  0.83156405  1
  Pb  Pb52  1  0.16462488  0.16680203  0.49996940  1
  Pb  Pb53  1  0.16476739  0.49960845  0.49944093  1
  I  I54  1  0.16867195  0.00334207  0.16233244  1
  I  I55  1  0.16170703  0.00065507  0.49963878  1
  I  I56  1  0.16677132  0.00323843  0.83789149  1
  I  I57  1  0.17390484  0.33304354  0.16362052  1
  I  I58  1  0.16584810  0.33322706  0.50006692  1
  I  I59  1  0.17116698  0.33230466  0.83714267  1
  I  I60  1  0.16890387  0.66375846  0.16320823  1
  I  I61  1  0.16238611  0.66608649  0.50047920  1
  I  I62  1  0.16502296  0.66403947  0.83757344  1
  I  I63  1  0.50024682  0.00032056  0.16319173  1
  I  I64  1  0.50353389  0.00026660  0.49528490  1
  I  I65  1  0.49880135  0.00039085  0.84081836  1
  I  I66  1  0.49539834  0.33258369  0.16406978  1
  I  I67  1  0.50045763  0.33326356  0.50055289  1
  I  I68  1  0.49820263  0.33028462  0.83705770  1
  I  I69  1  0.50050514  0.66713112  0.16346882  1
  I  I70  1  0.50294577  0.66648145  0.50096209  1
  I  I71  1  0.50332098  0.66937495  0.83759883  1
  I  I72  1  0.82979289  -0.00337506  0.16623602  1
  I  I73  1  0.83419382  0.00192115  0.49955924  1
  I  I74  1  0.83434541  -0.00302914  0.83428459  1
  I  I75  1  0.83077300  0.33326691  0.16806776  1
  I  I76  1  0.83403273  0.33320371  0.49832571  1
  I  I77  1  0.83133747  0.33335485  0.83251082  1
  I  I78  1  0.82955543  0.67012426  0.16637307  1
  I  I79  1  0.83496340  0.66468010  0.49892291  1
  I  I80  1  0.82798367  0.67062002  0.83503611  1
  I  I81  1  0.16965466  0.17038412  0.00026649  1
  I  I82  1  0.17062242  0.16992465  0.32974723  1
  I  I83  1  0.17050263  0.16970214  0.67023864  1
  I  I84  1  0.16923707  0.49652994  0.00101591  1
  I  I85  1  0.17001135  0.49665934  0.32962172  1
  I  I86  1  0.16525175  0.49709607  0.66954135  1
  I  I87  1  0.16318415  0.83212419  0.00007131  1
  I  I88  1  0.16373718  0.83276458  0.33250468  1
  I  I89  1  0.16352060  0.83303949  0.66746017  1
  I  I90  1  0.49636398  0.16447775  0.00075739  1
  I  I91  1  0.49643193  0.16525256  0.32954880  1
  I  I92  1  0.49643566  0.16079777  0.67041640  1
  I  I93  1  0.49961112  0.50109740  0.00369336  1
  I  I94  1  0.49287758  0.50068405  0.32810801  1
  I  I95  1  0.49856988  0.50105673  0.66693510  1
  I  I96  1  0.50537050  0.83462511  0.00076947  1
  I  I97  1  0.50505220  0.83416876  0.32924655  1
  I  I98  1  0.50503639  0.83871923  0.67073679  1
  I  I99  1  0.83390777  0.16638381  -0.00003918  1
  I  I100  1  0.83363148  0.16755623  0.33571190  1
  I  I101  1  0.83394794  0.16761027  0.66395232  1
  I  I102  1  0.83253666  0.50022048  0.00001150  1
  I  I103  1  0.83480194  0.49879626  0.33558284  1
  I  I104  1  0.83500906  0.49776065  0.66377180  1
  I  I105  1  0.82898125  0.83368941  0.00021077  1
  I  I106  1  0.82946086  0.83339595  0.33061579  1
  I  I107  1  0.82997631  0.83375645  0.66958416  1
  I  I108  1  0.00301560  0.17026397  0.16386277  1
  I  I109  1  -0.00310878  0.16914623  0.49948739  1
  I  I110  1  0.00291483  0.16858445  0.83635045  1
  I  I111  1  0.00312208  0.49660469  0.16493327  1
  I  I112  1  -0.00289726  0.49738256  0.49768979  1
  I  I113  1  0.00391008  0.49483730  0.83997275  1
  I  I114  1  -0.00243069  0.83309038  0.16430363  1
  I  I115  1  -0.00065427  0.83336690  0.49967317  1
  I  I116  1  -0.00222936  0.83315953  0.83589735  1
  I  I117  1  0.33393828  0.16468963  0.16373340  1
  I  I118  1  0.33342008  0.16545532  0.49965771  1
  I  I119  1  0.33366515  0.16327918  0.83739192  1
  I  I120  1  0.33329756  0.50236467  0.16314473  1
  I  I121  1  0.33325882  0.50181539  0.50158725  1
  I  I122  1  0.33008191  0.50162532  0.83487865  1
  I  I123  1  0.33701301  0.83301539  0.16114857  1
  I  I124  1  0.33383585  0.83280071  0.49982437  1
  I  I125  1  0.33695934  0.83505543  0.84011996  1
  I  I126  1  0.66338347  0.16876398  0.16387990  1
  I  I127  1  0.66993503  0.16943524  0.49890296  1
  I  I128  1  0.66356785  0.16390425  0.83686088  1
  I  I129  1  0.66387066  0.49814373  0.16914967  1
  I  I130  1  0.67019373  0.49681030  0.49946616  1
  I  I131  1  0.66658327  0.49795420  0.83320483  1
  I  I132  1  0.66555378  0.83316778  0.16414673  1
  I  I133  1  0.66671786  0.83326507  0.49902042  1
  I  I134  1  0.66577541  0.83897621  0.83692164  1
