# generated using pymatgen
data_Cs27Sn13Pb14I81
_symmetry_space_group_name_H-M   'P 1'
_cell_length_a   18.97810456
_cell_length_b   18.97794070
_cell_length_c   18.97250637
_cell_angle_alpha   90.00258158
_cell_angle_beta   89.99812120
_cell_angle_gamma   90.00001341
_symmetry_Int_Tables_number   1
_chemical_formula_structural   Cs27Sn13Pb14I81
_chemical_formula_sum   'Cs27 Sn13 Pb14 I81'
_cell_volume   6833.23925509
_cell_formula_units_Z   1
loop_
 _symmetry_equiv_pos_site_id
 _symmetry_equiv_pos_as_xyz
  1  'x, y, z'
loop_
 _atom_site_type_symbol
 _atom_site_label
 _atom_site_symmetry_multiplicity
 _atom_site_fract_x
 _atom_site_fract_y
 _atom_site_fract_z
 _atom_site_occupancy
  Cs  Cs0  1  -0.00631758  0.00596315  -0.00405589  1
  Cs  Cs1  1  -0.00034993  -0.00024315  0.33412340  1
  Cs  Cs2  1  0.00113930  0.00126832  0.66757458  1
  Cs  Cs3  1  0.00156817  0.33254218  -0.00139019  1
  Cs  Cs4  1  -0.00094677  0.33344570  0.33361586  1
  Cs  Cs5  1  -0.00110418  0.33370109  0.66792704  1
  Cs  Cs6  1  -0.00234365  0.66488741  0.00346441  1
  Cs  Cs7  1  0.00029401  0.66675210  0.33266050  1
  Cs  Cs8  1  0.00841554  0.66449025  0.66357314  1
  Cs  Cs9  1  0.33262049  0.00365257  0.00109981  1
  Cs  Cs10  1  0.33317374  0.00156379  0.33315911  1
  Cs  Cs11  1  0.33393855  -0.00756993  0.66524129  1
  Cs  Cs12  1  0.33191268  0.33124165  0.00207300  1
  Cs  Cs13  1  0.33925197  0.33057858  0.33133298  1
  Cs  Cs14  1  0.33500749  0.33333459  0.66757903  1
  Cs  Cs15  1  0.33480583  0.66506758  -0.00105516  1
  Cs  Cs16  1  0.33222778  0.66727820  0.33191445  1
  Cs  Cs17  1  0.32775984  0.67239674  0.67083230  1
  Cs  Cs18  1  0.67208880  -0.00540767  -0.00536698  1
  Cs  Cs19  1  0.66730411  0.00000816  0.33391774  1
  Cs  Cs20  1  0.66577420  0.00117033  0.66924727  1
  Cs  Cs21  1  0.66558928  0.33465955  -0.00069988  1
  Cs  Cs22  1  0.66213896  0.33453053  0.33562189  1
  Cs  Cs23  1  0.66607017  0.33415159  0.66487320  1
  Cs  Cs24  1  0.66651120  0.66874664  0.00054074  1
  Cs  Cs25  1  0.66710759  0.66498596  0.33349634  1
  Cs  Cs26  1  0.66557962  0.66401972  0.66597519  1
  Sn  Sn27  1  0.83299928  0.16780333  0.16753828  1
  Sn  Sn28  1  0.16625929  0.16783603  0.49976606  1
  Sn  Sn29  1  0.16702313  0.49847599  0.49865715  1
  Sn  Sn30  1  0.16614420  0.50037681  0.16783046  1
  Sn  Sn31  1  0.49925941  0.83330201  0.16743737  1
  Sn  Sn32  1  0.83264122  0.83387811  0.50007435  1
  Sn  Sn33  1  0.16706966  0.83315575  0.16652518  1
  Sn  Sn34  1  0.50120832  0.83312050  0.49893568  1
  Sn  Sn35  1  0.83266776  0.50021807  0.83398440  1
  Sn  Sn36  1  0.49995267  0.16734713  0.83336115  1
  Sn  Sn37  1  0.83367278  0.49886190  0.16623627  1
  Sn  Sn38  1  0.83386447  0.16603722  0.49919407  1
  Sn  Sn39  1  0.50067012  0.49912318  0.83349113  1
  Pb  Pb40  1  0.50321160  0.16386183  0.16453897  1
  Pb  Pb41  1  0.83176021  0.16891158  0.83272555  1
  Pb  Pb42  1  0.83353788  0.83314339  0.16826985  1
  Pb  Pb43  1  0.16468875  0.16691289  0.16852008  1
  Pb  Pb44  1  0.49671111  0.50264024  0.50231080  1
  Pb  Pb45  1  0.16920113  0.16669718  0.83018295  1
  Pb  Pb46  1  0.83367462  0.82996774  0.82966577  1
  Pb  Pb47  1  0.16659869  0.49992226  0.83412490  1
  Pb  Pb48  1  0.50001678  0.83304572  0.83362052  1
  Pb  Pb49  1  0.50000021  0.50161134  0.16500812  1
  Pb  Pb50  1  0.16616560  0.83353163  0.83773627  1
  Pb  Pb51  1  0.16643848  0.83358454  0.49821569  1
  Pb  Pb52  1  0.50022159  0.16470883  0.50153221  1
  Pb  Pb53  1  0.83468466  0.49975894  0.49968125  1
  I  I54  1  0.17011700  -0.00232056  0.16945235  1
  I  I55  1  0.16548547  0.00213754  0.49895502  1
  I  I56  1  0.16954822  0.00019612  0.83180856  1
  I  I57  1  0.16352661  0.33634656  0.16819170  1
  I  I58  1  0.16029218  0.33355647  0.49563378  1
  I  I59  1  0.16602898  0.33347544  0.83659446  1
  I  I60  1  0.16426582  0.66545217  0.17286878  1
  I  I61  1  0.16588143  0.66458862  0.49890879  1
  I  I62  1  0.16931718  0.66630782  0.82615780  1
  I  I63  1  0.49434107  -0.00384114  0.16906376  1
  I  I64  1  0.49887270  -0.00320939  0.49928428  1
  I  I65  1  0.50005839  0.00206598  0.83255897  1
  I  I66  1  0.49798252  0.33322107  0.16647065  1
  I  I67  1  0.50166856  0.33348500  0.50043150  1
  I  I68  1  0.50417788  0.33421883  0.83254841  1
  I  I69  1  0.50086863  0.66958016  0.16810902  1
  I  I70  1  0.50568083  0.67034950  0.49784081  1
  I  I71  1  0.50361131  0.66394452  0.83334329  1
  I  I72  1  0.83301089  0.00209568  0.16944850  1
  I  I73  1  0.83547020  0.00092841  0.49375878  1
  I  I74  1  0.83088485  0.00020930  0.83674518  1
  I  I75  1  0.83915075  0.33425491  0.16803267  1
  I  I76  1  0.83653105  0.33077121  0.49955617  1
  I  I77  1  0.83132780  0.33671883  0.83284405  1
  I  I78  1  0.83462980  0.66396701  0.16435407  1
  I  I79  1  0.83117536  0.66868149  0.49982120  1
  I  I80  1  0.82662839  0.66213338  0.83972069  1
  I  I81  1  0.16575416  0.16613692  0.00027818  1
  I  I82  1  0.16511429  0.16747121  0.33657087  1
  I  I83  1  0.15924925  0.17207227  0.66198326  1
  I  I84  1  0.16524796  0.50533176  0.00348352  1
  I  I85  1  0.15976842  0.50164794  0.33247856  1
  I  I86  1  0.16575496  0.49739746  0.66404479  1
  I  I87  1  0.17344576  0.82569427  0.00571762  1
  I  I88  1  0.16784439  0.83062581  0.33056233  1
  I  I89  1  0.16795028  0.83200365  0.66615453  1
  I  I90  1  0.50084608  0.16941781  -0.00299662  1
  I  I91  1  0.49907826  0.16632651  0.33331002  1
  I  I92  1  0.50194576  0.16891262  0.66925101  1
  I  I93  1  0.49986197  0.49931963  -0.00293143  1
  I  I94  1  0.50223071  0.50036602  0.33337031  1
  I  I95  1  0.50621728  0.49794281  0.66998882  1
  I  I96  1  0.49565615  0.83268754  0.00282176  1
  I  I97  1  0.50001846  0.83335926  0.33342561  1
  I  I98  1  0.50357745  0.83365496  0.66402267  1
  I  I99  1  0.83222545  0.16767523  0.00242565  1
  I  I100  1  0.83678293  0.16811026  0.33394062  1
  I  I101  1  0.83592768  0.16374362  0.66347913  1
  I  I102  1  0.83578140  0.49539600  0.00142311  1
  I  I103  1  0.83675336  0.50007456  0.33063472  1
  I  I104  1  0.83078912  0.50047762  0.66860277  1
  I  I105  1  0.83292558  0.83586989  0.00019507  1
  I  I106  1  0.83226953  0.83263895  0.33617374  1
  I  I107  1  0.82700025  0.83916111  0.66167591  1
  I  I108  1  -0.00335456  0.16546767  0.16773312  1
  I  I109  1  -0.00100148  0.16407562  0.49656260  1
  I  I110  1  -0.00033608  0.16748594  0.83478857  1
  I  I111  1  -0.00020652  0.50312086  0.16479764  1
  I  I112  1  0.00261266  0.50207960  0.50091624  1
  I  I113  1  -0.00265150  0.50049136  0.83431219  1
  I  I114  1  0.00215131  0.83039403  0.16976200  1
  I  I115  1  -0.00217723  0.83393096  0.49825913  1
  I  I116  1  -0.00030046  0.83210631  0.83187305  1
  I  I117  1  0.33349320  0.16806193  0.16681503  1
  I  I118  1  0.33090728  0.16886843  0.50190130  1
  I  I119  1  0.33705204  0.17322038  0.83331522  1
  I  I120  1  0.33059473  0.50335309  0.16880524  1
  I  I121  1  0.32899795  0.49535881  0.49472362  1
  I  I122  1  0.33593144  0.49760299  0.83241674  1
  I  I123  1  0.33325227  0.82757646  0.17258548  1
  I  I124  1  0.33529724  0.83309636  0.49906671  1
  I  I125  1  0.33352959  0.83068969  0.82702639  1
  I  I126  1  0.67093375  0.17209246  0.17376675  1
  I  I127  1  0.66964360  0.16399582  0.49796576  1
  I  I128  1  0.66409183  0.16843399  0.83159868  1
  I  I129  1  0.66951120  0.49869938  0.16425436  1
  I  I130  1  0.66650900  0.49899518  0.49871628  1
  I  I131  1  0.66711888  0.49700991  0.83814675  1
  I  I132  1  0.66467946  0.83340962  0.16862974  1
  I  I133  1  0.66682697  0.83813937  0.49433952  1
  I  I134  1  0.66678186  0.83436341  0.83789247  1
