# generated using pymatgen
data_Cs27Sn14Pb13I81
_symmetry_space_group_name_H-M   'P 1'
_cell_length_a   18.96209309
_cell_length_b   18.96604012
_cell_length_c   18.95509790
_cell_angle_alpha   89.99843871
_cell_angle_beta   90.00061011
_cell_angle_gamma   89.99858102
_symmetry_Int_Tables_number   1
_chemical_formula_structural   Cs27Sn14Pb13I81
_chemical_formula_sum   'Cs27 Sn14 Pb13 I81'
_cell_volume   6816.93213783
_cell_formula_units_Z   1
loop_
 _symmetry_equiv_pos_site_id
 _symmetry_equiv_pos_as_xyz
  1  'x, y, z'
loop_
 _atom_site_type_symbol
 _atom_site_label
 _atom_site_symmetry_multiplicity
 _atom_site_fract_x
 _atom_site_fract_y
 _atom_site_fract_z
 _atom_site_occupancy
  Cs  Cs0  1  0.00132565  -0.00019018  0.00160148  1
  Cs  Cs1  1  -0.00107332  0.00058015  0.33519593  1
  Cs  Cs2  1  0.00301771  -0.00110424  0.66575985  1
  Cs  Cs3  1  0.00236617  0.33279945  0.00179563  1
  Cs  Cs4  1  -0.00088530  0.33430846  0.33369517  1
  Cs  Cs5  1  -0.00225611  0.33414510  0.66594677  1
  Cs  Cs6  1  -0.00176280  0.66673444  -0.00049748  1
  Cs  Cs7  1  0.00227085  0.66540382  0.33654612  1
  Cs  Cs8  1  0.00001183  0.66720081  0.66530349  1
  Cs  Cs9  1  0.33061867  0.00336756  0.00048122  1
  Cs  Cs10  1  0.33669751  -0.00112462  0.33243096  1
  Cs  Cs11  1  0.33074547  -0.00137020  0.66712142  1
  Cs  Cs12  1  0.32763129  0.33329828  0.00327607  1
  Cs  Cs13  1  0.33919202  0.33323972  0.32852650  1
  Cs  Cs14  1  0.33540996  0.33276848  0.66706346  1
  Cs  Cs15  1  0.33532981  0.66440539  0.00465842  1
  Cs  Cs16  1  0.33307606  0.66620358  0.32873256  1
  Cs  Cs17  1  0.33285285  0.66819217  0.66620679  1
  Cs  Cs18  1  0.66851043  -0.00322389  0.00590778  1
  Cs  Cs19  1  0.66557287  0.00071071  0.32719585  1
  Cs  Cs20  1  0.66649262  0.00136270  0.66667344  1
  Cs  Cs21  1  0.66926785  0.33257985  -0.00592633  1
  Cs  Cs22  1  0.66224132  0.33067770  0.33514693  1
  Cs  Cs23  1  0.66670820  0.33352473  0.66626140  1
  Cs  Cs24  1  0.66729916  0.67017912  -0.00071551  1
  Cs  Cs25  1  0.66472823  0.66717403  0.33270868  1
  Cs  Cs26  1  0.66731278  0.66562714  0.66775125  1
  Sn  Sn27  1  0.83362668  0.49981465  0.49983066  1
  Sn  Sn28  1  0.50013428  0.83355742  0.83249660  1
  Sn  Sn29  1  0.16639795  0.50015728  0.83234756  1
  Sn  Sn30  1  0.16606067  0.83344190  0.16654471  1
  Sn  Sn31  1  0.16659369  0.49870517  0.50067970  1
  Sn  Sn32  1  0.16639824  0.16808419  0.50018425  1
  Sn  Sn33  1  0.50099097  0.83310961  0.50084394  1
  Sn  Sn34  1  0.83303724  0.49982038  0.16693133  1
  Sn  Sn35  1  0.83220649  0.83344691  0.50038966  1
  Sn  Sn36  1  0.49983977  0.49992847  0.83286225  1
  Sn  Sn37  1  0.50072379  0.16645935  0.83290835  1
  Sn  Sn38  1  0.83293410  0.16694002  0.83248546  1
  Sn  Sn39  1  0.83389041  0.16671599  0.50094566  1
  Sn  Sn40  1  0.83359677  0.49945910  0.83328733  1
  Pb  Pb41  1  0.16605786  0.16879240  0.83144234  1
  Pb  Pb42  1  0.50314875  0.49979122  0.16345214  1
  Pb  Pb43  1  0.50021954  0.16688822  0.16281238  1
  Pb  Pb44  1  0.49986976  0.50179428  0.50165283  1
  Pb  Pb45  1  0.83190220  0.83373536  0.83162075  1
  Pb  Pb46  1  0.50025287  0.16445726  0.50179887  1
  Pb  Pb47  1  0.83522528  0.83112696  0.16963245  1
  Pb  Pb48  1  0.49821543  0.83331331  0.16645909  1
  Pb  Pb49  1  0.83340997  0.16899958  0.16671014  1
  Pb  Pb50  1  0.16916541  0.83069310  0.83545017  1
  Pb  Pb51  1  0.16472834  0.50106525  0.16715440  1
  Pb  Pb52  1  0.16630690  0.16448467  0.17023213  1
  Pb  Pb53  1  0.16683901  0.83301349  0.49887395  1
  I  I54  1  0.16711497  -0.00317093  0.16740143  1
  I  I55  1  0.16311911  0.00210334  0.49832403  1
  I  I56  1  0.16718215  0.00012298  0.83288141  1
  I  I57  1  0.16578615  0.33345034  0.16471805  1
  I  I58  1  0.15815663  0.33442432  0.50423723  1
  I  I59  1  0.17031226  0.33713211  0.83274910  1
  I  I60  1  0.16638883  0.66863880  0.16937076  1
  I  I61  1  0.16277759  0.66373565  0.50253860  1
  I  I62  1  0.16424775  0.66230035  0.82674998  1
  I  I63  1  0.49967711  -0.00020676  0.16551939  1
  I  I64  1  0.50218175  -0.00343359  0.50590981  1
  I  I65  1  0.50433965  0.00011407  0.82861204  1
  I  I66  1  0.49820546  0.33360861  0.16871720  1
  I  I67  1  0.50144969  0.33326926  0.50137709  1
  I  I68  1  0.50234698  0.33382197  0.83330076  1
  I  I69  1  0.49958251  0.66656600  0.16438441  1
  I  I70  1  0.50338653  0.66970797  0.50622636  1
  I  I71  1  0.50034370  0.66605667  0.82948072  1
  I  I72  1  0.83403325  -0.00013841  0.16621722  1
  I  I73  1  0.83477977  0.00080102  0.50531938  1
  I  I74  1  0.82877361  0.00300286  0.82828508  1
  I  I75  1  0.83547518  0.33709525  0.16919780  1
  I  I76  1  0.83848328  0.33401771  0.50122842  1
  I  I77  1  0.82849467  0.33458902  0.82935360  1
  I  I78  1  0.83418160  0.66316372  0.16434769  1
  I  I79  1  0.83424915  0.66537277  0.50072545  1
  I  I80  1  0.83259325  0.66340692  0.83221871  1
  I  I81  1  0.16737923  0.16705173  -0.00026899  1
  I  I82  1  0.15983990  0.17258673  0.33844693  1
  I  I83  1  0.16472157  0.16652526  0.66333738  1
  I  I84  1  0.16651348  0.50223493  -0.00292049  1
  I  I85  1  0.16088050  0.49921318  0.33672659  1
  I  I86  1  0.16193878  0.49822007  0.66634767  1
  I  I87  1  0.16759789  0.83093348  0.00271451  1
  I  I88  1  0.16753477  0.83067400  0.33158347  1
  I  I89  1  0.16629503  0.83390846  0.66660750  1
  I  I90  1  0.50611114  0.16437122  -0.00578363  1
  I  I91  1  0.49987781  0.16396161  0.33371578  1
  I  I92  1  0.50205541  0.16948186  0.67008614  1
  I  I93  1  0.49859963  0.50293368  -0.00533720  1
  I  I94  1  0.49935895  0.50334633  0.33347900  1
  I  I95  1  0.50426410  0.49873683  0.67027530  1
  I  I96  1  0.49881576  0.83224515  -0.00350062  1
  I  I97  1  0.50255070  0.83309161  0.33633455  1
  I  I98  1  0.50283270  0.83225934  0.66719115  1
  I  I99  1  0.82850721  0.17147346  -0.00366242  1
  I  I100  1  0.83786035  0.16704086  0.33714175  1
  I  I101  1  0.83262835  0.17180560  0.66630431  1
  I  I102  1  0.83304337  0.49607327  -0.00197858  1
  I  I103  1  0.83977419  0.50128378  0.33524916  1
  I  I104  1  0.83364126  0.49953678  0.66669064  1
  I  I105  1  0.83241925  0.83251139  -0.00005158  1
  I  I106  1  0.82813532  0.83376591  0.33813425  1
  I  I107  1  0.83320946  0.82857891  0.66314659  1
  I  I108  1  -0.00018190  0.16561607  0.16137529  1
  I  I109  1  -0.00160874  0.16504558  0.50545748  1
  I  I110  1  -0.00326102  0.17169737  0.83117246  1
  I  I111  1  -0.00310364  0.50160381  0.16279054  1
  I  I112  1  -0.00123886  0.50213461  0.50430623  1
  I  I113  1  -0.00124763  0.49592049  0.83266357  1
  I  I114  1  0.00255728  0.83190420  0.16839430  1
  I  I115  1  -0.00269719  0.83251539  0.49804204  1
  I  I116  1  0.00004162  0.83288047  0.83264789  1
  I  I117  1  0.33313666  0.16668565  0.16692219  1
  I  I118  1  0.33101419  0.16891285  0.50197205  1
  I  I119  1  0.33576843  0.16707434  0.83150819  1
  I  I120  1  0.33322348  0.50194922  0.16634092  1
  I  I121  1  0.33049690  0.49832503  0.50522185  1
  I  I122  1  0.33334683  0.50099003  0.82799014  1
  I  I123  1  0.33066230  0.83055413  0.16956255  1
  I  I124  1  0.33569575  0.83336975  0.50271649  1
  I  I125  1  0.33749312  0.83408212  0.82633966  1
  I  I126  1  0.66703774  0.16598829  0.17159432  1
  I  I127  1  0.66998491  0.17010911  0.50258616  1
  I  I128  1  0.66759584  0.17269519  0.82731184  1
  I  I129  1  0.67113822  0.50130372  0.16928818  1
  I  I130  1  0.67009095  0.49816423  0.50107226  1
  I  I131  1  0.66757209  0.49945714  0.83315206  1
  I  I132  1  0.66688374  0.83220962  0.16569708  1
  I  I133  1  0.66748950  0.83185232  0.50405097  1
  I  I134  1  0.66358659  0.82829602  0.83154547  1
