# generated using pymatgen
data_Cs27Sn13Pb14I81
_symmetry_space_group_name_H-M   'P 1'
_cell_length_a   18.97440560
_cell_length_b   18.97607671
_cell_length_c   18.97948589
_cell_angle_alpha   90.00082539
_cell_angle_beta   90.00133338
_cell_angle_gamma   89.99702445
_symmetry_Int_Tables_number   1
_chemical_formula_structural   Cs27Sn13Pb14I81
_chemical_formula_sum   'Cs27 Sn13 Pb14 I81'
_cell_volume   6833.74943317
_cell_formula_units_Z   1
loop_
 _symmetry_equiv_pos_site_id
 _symmetry_equiv_pos_as_xyz
  1  'x, y, z'
loop_
 _atom_site_type_symbol
 _atom_site_label
 _atom_site_symmetry_multiplicity
 _atom_site_fract_x
 _atom_site_fract_y
 _atom_site_fract_z
 _atom_site_occupancy
  Cs  Cs0  1  0.00654326  0.00530482  -0.00600690  1
  Cs  Cs1  1  -0.00282476  0.00107890  0.32890305  1
  Cs  Cs2  1  -0.00073512  -0.00031942  0.67649764  1
  Cs  Cs3  1  0.00196413  0.32600728  0.00051425  1
  Cs  Cs4  1  -0.00069589  0.33455362  0.33431749  1
  Cs  Cs5  1  -0.00141762  0.33715849  0.66516110  1
  Cs  Cs6  1  0.00134161  0.66960158  0.00022377  1
  Cs  Cs7  1  0.00035832  0.66429933  0.33376265  1
  Cs  Cs8  1  -0.00060370  0.66391678  0.66820451  1
  Cs  Cs9  1  0.32952285  -0.00009218  -0.00012372  1
  Cs  Cs10  1  0.33367716  -0.00254358  0.33375633  1
  Cs  Cs11  1  0.33549740  -0.00091566  0.66589998  1
  Cs  Cs12  1  0.33454273  0.33746547  -0.00091776  1
  Cs  Cs13  1  0.33518773  0.33292764  0.33445537  1
  Cs  Cs14  1  0.33396377  0.33181069  0.66550217  1
  Cs  Cs15  1  0.33381980  0.66231040  0.00132052  1
  Cs  Cs16  1  0.33066779  0.66933554  0.33506226  1
  Cs  Cs17  1  0.33062092  0.66925113  0.66183678  1
  Cs  Cs18  1  0.66797249  -0.00038642  0.00061283  1
  Cs  Cs19  1  0.66650189  -0.00052152  0.33381227  1
  Cs  Cs20  1  0.66403258  -0.00072528  0.66505033  1
  Cs  Cs21  1  0.66557102  0.33560036  -0.00127703  1
  Cs  Cs22  1  0.66586356  0.33183647  0.33305798  1
  Cs  Cs23  1  0.66706029  0.33521463  0.66650965  1
  Cs  Cs24  1  0.66543556  0.66527343  0.00039135  1
  Cs  Cs25  1  0.66794984  0.67017333  0.33058411  1
  Cs  Cs26  1  0.67005951  0.66606912  0.66925383  1
  Sn  Sn27  1  0.49999698  0.16577635  0.16647523  1
  Sn  Sn28  1  0.83303321  0.83308839  0.16700938  1
  Sn  Sn29  1  0.83420602  0.50031871  0.16661641  1
  Sn  Sn30  1  0.83349057  0.16556833  0.49997472  1
  Sn  Sn31  1  0.50035217  0.49995414  0.49974367  1
  Sn  Sn32  1  0.50051016  0.83432913  0.16568976  1
  Sn  Sn33  1  0.83346010  0.83419291  0.49947575  1
  Sn  Sn34  1  0.50008934  0.83379600  0.83452629  1
  Sn  Sn35  1  0.16663704  0.49998228  0.83387225  1
  Sn  Sn36  1  0.16553357  0.49987419  0.16616014  1
  Sn  Sn37  1  0.50010776  0.16599952  0.83355025  1
  Sn  Sn38  1  0.16641647  0.16605089  0.49976363  1
  Sn  Sn39  1  0.50001936  0.16739395  0.49987202  1
  Pb  Pb40  1  0.50149802  0.83366011  0.49974218  1
  Pb  Pb41  1  0.83595441  0.49998656  0.83671919  1
  Pb  Pb42  1  0.16633812  0.83152783  0.16674496  1
  Pb  Pb43  1  0.83131144  0.50012202  0.49811338  1
  Pb  Pb44  1  0.83129620  0.83337592  0.83420762  1
  Pb  Pb45  1  0.83072720  0.16680770  0.83048987  1
  Pb  Pb46  1  0.16275894  0.83650219  0.49989032  1
  Pb  Pb47  1  0.16969770  0.83106392  0.83335469  1
  Pb  Pb48  1  0.50008892  0.50051570  0.16838558  1
  Pb  Pb49  1  0.83149625  0.16626422  0.16807187  1
  Pb  Pb50  1  0.16929375  0.16865189  0.83101580  1
  Pb  Pb51  1  0.49856714  0.50045311  0.83088950  1
  Pb  Pb52  1  0.16946548  0.16891223  0.16858120  1
  Pb  Pb53  1  0.16842956  0.49843922  0.49963528  1
  I  I54  1  0.16515297  0.00035781  0.16818095  1
  I  I55  1  0.17597953  0.00432729  0.49964474  1
  I  I56  1  0.16562367  0.00033374  0.83204829  1
  I  I57  1  0.16245872  0.33685925  0.16393455  1
  I  I58  1  0.16458312  0.33035738  0.49956895  1
  I  I59  1  0.17023535  0.33622347  0.83760575  1
  I  I60  1  0.16896693  0.66326492  0.16481230  1
  I  I61  1  0.16910429  0.66657892  0.50019204  1
  I  I62  1  0.16941411  0.66316522  0.83613880  1
  I  I63  1  0.50545121  -0.00011442  0.16906300  1
  I  I64  1  0.49902510  0.00317066  0.50023794  1
  I  I65  1  0.50036122  0.00076879  0.83064536  1
  I  I66  1  0.49988409  0.33094408  0.16638030  1
  I  I67  1  0.50171884  0.33091141  0.49948442  1
  I  I68  1  0.49828504  0.33055104  0.83449227  1
  I  I69  1  0.50126123  0.66941125  0.16411979  1
  I  I70  1  0.50090441  0.66488367  0.49943789  1
  I  I71  1  0.49909746  0.66937923  0.83706086  1
  I  I72  1  0.82819056  -0.00284370  0.17112295  1
  I  I73  1  0.82947657  0.00051721  0.49355383  1
  I  I74  1  0.83592064  0.00010407  0.83675727  1
  I  I75  1  0.83491461  0.33552437  0.16910337  1
  I  I76  1  0.83302058  0.33050887  0.49855050  1
  I  I77  1  0.82966413  0.33339462  0.83251959  1
  I  I78  1  0.83037176  0.66756458  0.17306514  1
  I  I79  1  0.82913021  0.66913205  0.49737583  1
  I  I80  1  0.82997112  0.66668915  0.82712018  1
  I  I81  1  0.16799527  0.16668393  -0.00000909  1
  I  I82  1  0.17007203  0.16993347  0.33653943  1
  I  I83  1  0.16917792  0.16991695  0.66310303  1
  I  I84  1  0.16564461  0.50017151  0.00094149  1
  I  I85  1  0.16461394  0.49863792  0.33074307  1
  I  I86  1  0.17103039  0.49805643  0.66839904  1
  I  I87  1  0.16313313  0.83543551  0.00011193  1
  I  I88  1  0.17331772  0.83008105  0.33337104  1
  I  I89  1  0.16814078  0.82972175  0.66650639  1
  I  I90  1  0.50019794  0.16277155  0.00035096  1
  I  I91  1  0.50034888  0.16764932  0.33413893  1
  I  I92  1  0.49979782  0.16676819  0.66569104  1
  I  I93  1  0.50087752  0.49708428  0.00015442  1
  I  I94  1  0.49836596  0.49434080  0.33599344  1
  I  I95  1  0.49814049  0.49526792  0.66322874  1
  I  I96  1  0.50538339  0.83989553  0.00118114  1
  I  I97  1  0.50244118  0.83561402  0.33064985  1
  I  I98  1  0.50088483  0.83601518  0.66841388  1
  I  I99  1  0.83126111  0.16706943  0.00012738  1
  I  I100  1  0.82939477  0.16613078  0.33648058  1
  I  I101  1  0.83093685  0.16152681  0.66185238  1
  I  I102  1  0.83069688  0.50644137  0.00479132  1
  I  I103  1  0.83835177  0.50133838  0.33032875  1
  I  I104  1  0.83374906  0.50046282  0.66642883  1
  I  I105  1  0.82898848  0.82715448  0.00370669  1
  I  I106  1  0.82612807  0.83356733  0.33254475  1
  I  I107  1  0.83082692  0.83799570  0.66397178  1
  I  I108  1  0.00002348  0.16563029  0.16946147  1
  I  I109  1  -0.00072861  0.16362575  0.49793135  1
  I  I110  1  0.00029557  0.16765736  0.83191006  1
  I  I111  1  -0.00049756  0.50582482  0.16517757  1
  I  I112  1  -0.00017036  0.49832766  0.50121918  1
  I  I113  1  0.00380110  0.49986977  0.83137334  1
  I  I114  1  -0.00348458  0.82953778  0.17309023  1
  I  I115  1  -0.00519132  0.83579740  0.49252527  1
  I  I116  1  0.00002461  0.83202411  0.83263509  1
  I  I117  1  0.33787544  0.16300212  0.16997462  1
  I  I118  1  0.33514585  0.17291103  0.50018582  1
  I  I119  1  0.33754971  0.16369094  0.83039156  1
  I  I120  1  0.33154227  0.49868997  0.16471940  1
  I  I121  1  0.33647604  0.49437835  0.49796604  1
  I  I122  1  0.33101656  0.49938435  0.84035688  1
  I  I123  1  0.33671626  0.83573596  0.16374651  1
  I  I124  1  0.33350774  0.83282670  0.49984159  1
  I  I125  1  0.33796102  0.83787058  0.83785565  1
  I  I126  1  0.66297545  0.16818942  0.16988786  1
  I  I127  1  0.66555476  0.16677351  0.49974288  1
  I  I128  1  0.66208041  0.16453799  0.83125883  1
  I  I129  1  0.66858333  0.50119833  0.17060362  1
  I  I130  1  0.66351974  0.49335674  0.49871337  1
  I  I131  1  0.66639621  0.49969349  0.83310643  1
  I  I132  1  0.66617352  0.83073101  0.16768719  1
  I  I133  1  0.66919100  0.83832316  0.49801459  1
  I  I134  1  0.66294420  0.83642171  0.83372981  1
