# generated using pymatgen
data_Cs27Sn14Pb13I81
_symmetry_space_group_name_H-M   'P 1'
_cell_length_a   18.97205108
_cell_length_b   18.97806696
_cell_length_c   18.97894269
_cell_angle_alpha   89.99986585
_cell_angle_beta   89.99912561
_cell_angle_gamma   90.00102740
_symmetry_Int_Tables_number   1
_chemical_formula_structural   Cs27Sn14Pb13I81
_chemical_formula_sum   'Cs27 Sn14 Pb13 I81'
_cell_volume   6833.42251227
_cell_formula_units_Z   1
loop_
 _symmetry_equiv_pos_site_id
 _symmetry_equiv_pos_as_xyz
  1  'x, y, z'
loop_
 _atom_site_type_symbol
 _atom_site_label
 _atom_site_symmetry_multiplicity
 _atom_site_fract_x
 _atom_site_fract_y
 _atom_site_fract_z
 _atom_site_occupancy
  Cs  Cs0  1  -0.00040351  0.00361708  -0.00021149  1
  Cs  Cs1  1  0.00269694  -0.00041705  0.33482614  1
  Cs  Cs2  1  0.00009762  -0.00113309  0.66618385  1
  Cs  Cs3  1  -0.00044264  0.33289158  -0.00005297  1
  Cs  Cs4  1  0.00002446  0.33375905  0.33379818  1
  Cs  Cs5  1  0.00102165  0.33400611  0.66605534  1
  Cs  Cs6  1  -0.00208275  0.66425302  -0.00324926  1
  Cs  Cs7  1  -0.00200512  0.66578687  0.33573978  1
  Cs  Cs8  1  -0.00024339  0.66609984  0.66813025  1
  Cs  Cs9  1  0.33306613  -0.00662039  0.00429148  1
  Cs  Cs10  1  0.33324852  -0.00942414  0.32973437  1
  Cs  Cs11  1  0.33813571  0.00254659  0.66576028  1
  Cs  Cs12  1  0.33152375  0.33501972  0.00146882  1
  Cs  Cs13  1  0.33427310  0.33331424  0.33426279  1
  Cs  Cs14  1  0.33441016  0.33290190  0.66485290  1
  Cs  Cs15  1  0.33530260  0.66812045  -0.00024109  1
  Cs  Cs16  1  0.33427072  0.67308601  0.33169415  1
  Cs  Cs17  1  0.33786402  0.66581623  0.66863970  1
  Cs  Cs18  1  0.66738518  0.00221765  -0.00279640  1
  Cs  Cs19  1  0.66514036  -0.00306422  0.33707604  1
  Cs  Cs20  1  0.65832762  0.00378465  0.66512924  1
  Cs  Cs21  1  0.66794915  0.33047709  0.00078869  1
  Cs  Cs22  1  0.66580041  0.33383183  0.33300142  1
  Cs  Cs23  1  0.65938346  0.32999027  0.66551268  1
  Cs  Cs24  1  0.66883261  0.66626246  0.00092511  1
  Cs  Cs25  1  0.66955663  0.66740775  0.33270602  1
  Cs  Cs26  1  0.66359186  0.66738375  0.66594127  1
  Sn  Sn27  1  0.16596115  0.49949293  0.50013743  1
  Sn  Sn28  1  0.49988226  0.16722993  0.16668136  1
  Sn  Sn29  1  0.83352657  0.50022495  0.16651369  1
  Sn  Sn30  1  0.83425414  0.16763052  0.50009006  1
  Sn  Sn31  1  0.16571461  0.16733909  0.50050320  1
  Sn  Sn32  1  0.16597401  0.49992980  0.83303137  1
  Sn  Sn33  1  0.16640547  0.16686141  0.83289320  1
  Sn  Sn34  1  0.83371410  0.50013572  0.83293056  1
  Sn  Sn35  1  0.83395951  0.49879944  0.50054066  1
  Sn  Sn36  1  0.16660806  0.49992888  0.16689977  1
  Sn  Sn37  1  0.50012552  0.49919580  0.16655108  1
  Sn  Sn38  1  0.83411650  0.83290944  0.83394154  1
  Sn  Sn39  1  0.16567480  0.83312483  0.83305655  1
  Sn  Sn40  1  0.83409164  0.83302330  0.16572401  1
  Pb  Pb41  1  0.83347999  0.83306888  0.50104943  1
  Pb  Pb42  1  0.83499530  0.16686909  0.83097245  1
  Pb  Pb43  1  0.16362320  0.83028525  0.16421103  1
  Pb  Pb44  1  0.50038858  0.49980324  0.83582748  1
  Pb  Pb45  1  0.49634389  0.16696439  0.83615124  1
  Pb  Pb46  1  0.49986734  0.83299989  0.50007256  1
  Pb  Pb47  1  0.16827149  0.16846764  0.16720479  1
  Pb  Pb48  1  0.49889320  0.16696791  0.49741244  1
  Pb  Pb49  1  0.49977576  0.50019155  0.49736616  1
  Pb  Pb50  1  0.83203012  0.16667984  0.16899081  1
  Pb  Pb51  1  0.50317775  0.83279061  0.16633274  1
  Pb  Pb52  1  0.50076586  0.83316265  0.83351538  1
  Pb  Pb53  1  0.16652591  0.83284000  0.50287345  1
  I  I54  1  0.16859491  -0.00031643  0.16659654  1
  I  I55  1  0.16254923  0.00320514  0.50397349  1
  I  I56  1  0.16232089  0.00001843  0.82896243  1
  I  I57  1  0.16135238  0.33717085  0.16185889  1
  I  I58  1  0.16278756  0.33450082  0.50441568  1
  I  I59  1  0.16310812  0.33478795  0.83345322  1
  I  I60  1  0.17230750  0.66177633  0.16879188  1
  I  I61  1  0.16146203  0.66276016  0.49901647  1
  I  I62  1  0.16242393  0.66524173  0.83423253  1
  I  I63  1  0.49998023  0.00226753  0.16751254  1
  I  I64  1  0.50148754  0.00058658  0.49670615  1
  I  I65  1  0.50115280  0.00017821  0.83600956  1
  I  I66  1  0.50221815  0.33513127  0.16670379  1
  I  I67  1  0.50098105  0.33353928  0.50053389  1
  I  I68  1  0.50115716  0.33342091  0.83313897  1
  I  I69  1  0.49772363  0.66333589  0.16678769  1
  I  I70  1  0.50031481  0.66602040  0.49745426  1
  I  I71  1  0.49477645  0.66636922  0.83545966  1
  I  I72  1  0.83046653  -0.00246298  0.16268609  1
  I  I73  1  0.83728119  0.00284851  0.49841311  1
  I  I74  1  0.83819041  -0.00258847  0.83817880  1
  I  I75  1  0.83493434  0.33696296  0.16392855  1
  I  I76  1  0.83765108  0.33507493  0.49864811  1
  I  I77  1  0.83778984  0.33670465  0.83758754  1
  I  I78  1  0.83134955  0.66431886  0.16817201  1
  I  I79  1  0.83775120  0.66294296  0.49857698  1
  I  I80  1  0.84105394  0.66520363  0.83356907  1
  I  I81  1  0.16857916  0.16822471  -0.00258735  1
  I  I82  1  0.16396774  0.17272234  0.33640221  1
  I  I83  1  0.16243843  0.17158181  0.66658213  1
  I  I84  1  0.16463981  0.49958100  -0.00050859  1
  I  I85  1  0.16365590  0.49390958  0.33356724  1
  I  I86  1  0.15919647  0.49954186  0.66711242  1
  I  I87  1  0.16593642  0.83482275  -0.00376735  1
  I  I88  1  0.16699157  0.83433238  0.33314704  1
  I  I89  1  0.15837175  0.82853798  0.67084728  1
  I  I90  1  0.50114715  0.17217103  0.00362194  1
  I  I91  1  0.49945051  0.17302776  0.33009215  1
  I  I92  1  0.50212848  0.16475869  0.66649667  1
  I  I93  1  0.49947447  0.49686378  0.00398157  1
  I  I94  1  0.50062419  0.49577137  0.32926349  1
  I  I95  1  0.50011254  0.50076032  0.66666574  1
  I  I96  1  0.49685097  0.83360036  0.00017825  1
  I  I97  1  0.50095621  0.83386287  0.33256775  1
  I  I98  1  0.50262750  0.83416961  0.66710358  1
  I  I99  1  0.83318316  0.16845229  -0.00010540  1
  I  I100  1  0.83923576  0.17105994  0.33677257  1
  I  I101  1  0.83508465  0.17062591  0.66312602  1
  I  I102  1  0.83568943  0.50491364  0.00011668  1
  I  I103  1  0.83543823  0.50042732  0.33294296  1
  I  I104  1  0.84162428  0.50123739  0.66696717  1
  I  I105  1  0.83625243  0.82444581  -0.00047170  1
  I  I106  1  0.83075888  0.82906787  0.33107328  1
  I  I107  1  0.83879214  0.82888077  0.67026186  1
  I  I108  1  0.00013374  0.16684068  0.16527950  1
  I  I109  1  0.00076160  0.17158304  0.50222044  1
  I  I110  1  0.00329646  0.16774408  0.83395674  1
  I  I111  1  -0.00036581  0.50414850  0.16649857  1
  I  I112  1  -0.00011782  0.49619702  0.49584815  1
  I  I113  1  0.00048685  0.50056362  0.83731724  1
  I  I114  1  -0.00400849  0.82843874  0.16577306  1
  I  I115  1  -0.00009867  0.83465754  0.49616567  1
  I  I116  1  -0.00027940  0.83092489  0.83745561  1
  I  I117  1  0.33598626  0.17408908  0.16702661  1
  I  I118  1  0.32946352  0.17242095  0.50470888  1
  I  I119  1  0.32808482  0.16846598  0.82560534  1
  I  I120  1  0.33246427  0.49393101  0.16597257  1
  I  I121  1  0.32948597  0.49534464  0.50150681  1
  I  I122  1  0.32949240  0.50070310  0.83299432  1
  I  I123  1  0.33305953  0.83285473  0.16605645  1
  I  I124  1  0.33259997  0.83353129  0.50054921  1
  I  I125  1  0.32986787  0.83189957  0.83233607  1
  I  I126  1  0.66431261  0.17325792  0.16847284  1
  I  I127  1  0.66927931  0.17050220  0.49852778  1
  I  I128  1  0.66674321  0.16592652  0.83174230  1
  I  I129  1  0.66809898  0.50040948  0.16683612  1
  I  I130  1  0.67036759  0.49683171  0.50015562  1
  I  I131  1  0.67051721  0.50574061  0.83310863  1
  I  I132  1  0.67083773  0.82687132  0.16098261  1
  I  I133  1  0.66744948  0.83386315  0.50111835  1
  I  I134  1  0.67083415  0.82707598  0.83752532  1
