# generated using pymatgen
data_Cs27Sn14Pb13I81
_symmetry_space_group_name_H-M   'P 1'
_cell_length_a   18.96454122
_cell_length_b   18.96107854
_cell_length_c   18.95634870
_cell_angle_alpha   89.99984372
_cell_angle_beta   89.99875794
_cell_angle_gamma   90.00100799
_symmetry_Int_Tables_number   1
_chemical_formula_structural   Cs27Sn14Pb13I81
_chemical_formula_sum   'Cs27 Sn14 Pb13 I81'
_cell_volume   6816.47846003
_cell_formula_units_Z   1
loop_
 _symmetry_equiv_pos_site_id
 _symmetry_equiv_pos_as_xyz
  1  'x, y, z'
loop_
 _atom_site_type_symbol
 _atom_site_label
 _atom_site_symmetry_multiplicity
 _atom_site_fract_x
 _atom_site_fract_y
 _atom_site_fract_z
 _atom_site_occupancy
  Cs  Cs0  1  -0.00114730  0.00141665  -0.00013944  1
  Cs  Cs1  1  0.00294831  -0.00131003  0.33302284  1
  Cs  Cs2  1  0.00269926  -0.00042013  0.66766405  1
  Cs  Cs3  1  0.00202791  0.33151804  0.00197247  1
  Cs  Cs4  1  -0.00113084  0.33437794  0.33163606  1
  Cs  Cs5  1  -0.00183951  0.33513296  0.66626802  1
  Cs  Cs6  1  -0.00217407  0.66689883  -0.00024281  1
  Cs  Cs7  1  0.00245093  0.66547324  0.33377407  1
  Cs  Cs8  1  -0.00149126  0.66511772  0.66691774  1
  Cs  Cs9  1  0.33161246  0.00183708  -0.00180901  1
  Cs  Cs10  1  0.33305026  0.00256540  0.33188106  1
  Cs  Cs11  1  0.33352378  -0.00215011  0.66682559  1
  Cs  Cs12  1  0.33416416  0.33480977  0.00099654  1
  Cs  Cs13  1  0.33360487  0.33199567  0.33130673  1
  Cs  Cs14  1  0.33284672  0.33406218  0.66882634  1
  Cs  Cs15  1  0.33564931  0.66277203  -0.00038356  1
  Cs  Cs16  1  0.33203036  0.66698657  0.33607205  1
  Cs  Cs17  1  0.33271171  0.66849938  0.66469399  1
  Cs  Cs18  1  0.66948471  -0.00476951  -0.00125435  1
  Cs  Cs19  1  0.66371869  -0.00013522  0.33379259  1
  Cs  Cs20  1  0.66461787  0.00175391  0.66662214  1
  Cs  Cs21  1  0.66501257  0.33609112  0.00033267  1
  Cs  Cs22  1  0.66754241  0.33113188  0.33772571  1
  Cs  Cs23  1  0.66999897  0.33280733  0.66229336  1
  Cs  Cs24  1  0.66683703  0.66872085  0.00212726  1
  Cs  Cs25  1  0.66528760  0.66869984  0.33084460  1
  Cs  Cs26  1  0.66818542  0.66593857  0.66703645  1
  Sn  Sn27  1  0.50100652  0.83264423  0.50074495  1
  Sn  Sn28  1  0.16606621  0.50094524  0.16731732  1
  Sn  Sn29  1  0.16684511  0.16616438  0.83246942  1
  Sn  Sn30  1  0.16728082  0.83366631  0.83447250  1
  Sn  Sn31  1  0.83335878  0.16678831  0.83406375  1
  Sn  Sn32  1  0.49916264  0.83385907  0.83262858  1
  Sn  Sn33  1  0.16690131  0.83241295  0.16521464  1
  Sn  Sn34  1  0.83319505  0.16728241  0.16611720  1
  Sn  Sn35  1  0.49925476  0.50055137  0.50010017  1
  Sn  Sn36  1  0.49992400  0.16608366  0.83327411  1
  Sn  Sn37  1  0.16658603  0.16789795  0.50078137  1
  Sn  Sn38  1  0.83230457  0.83350573  0.50006556  1
  Sn  Sn39  1  0.16738143  0.49876875  0.49943206  1
  Sn  Sn40  1  0.83391254  0.49932636  0.16674883  1
  Pb  Pb41  1  0.50011917  0.50046296  0.83072845  1
  Pb  Pb42  1  0.16542888  0.16698130  0.16626458  1
  Pb  Pb43  1  0.49982854  0.49993658  0.16939848  1
  Pb  Pb44  1  0.83341528  0.83514357  0.83148689  1
  Pb  Pb45  1  0.49758840  0.16640447  0.50189333  1
  Pb  Pb46  1  0.83550763  0.83347399  0.16864015  1
  Pb  Pb47  1  0.83357217  0.50201682  0.49791275  1
  Pb  Pb48  1  0.50330040  0.16651831  0.16350116  1
  Pb  Pb49  1  0.49710121  0.83336588  0.16634032  1
  Pb  Pb50  1  0.16731092  0.83311401  0.50043809  1
  Pb  Pb51  1  0.83326463  0.49726232  0.83616801  1
  Pb  Pb52  1  0.16663475  0.50022328  0.83343248  1
  Pb  Pb53  1  0.83567226  0.16465664  0.49997208  1
  I  I54  1  0.16502514  -0.00199846  0.16692948  1
  I  I55  1  0.16564299  0.00179850  0.50075921  1
  I  I56  1  0.16706701  0.00039170  0.83277366  1
  I  I57  1  0.16395969  0.33586699  0.16831707  1
  I  I58  1  0.17083005  0.33397289  0.49974789  1
  I  I59  1  0.16698754  0.33006632  0.83233371  1
  I  I60  1  0.16115401  0.66595050  0.16828349  1
  I  I61  1  0.16741650  0.66445141  0.49847198  1
  I  I62  1  0.17182405  0.66989355  0.83336736  1
  I  I63  1  0.49918325  -0.00012612  0.17302587  1
  I  I64  1  0.50195374  -0.00284647  0.50246495  1
  I  I65  1  0.49856778  -0.00046222  0.82718368  1
  I  I66  1  0.49523108  0.33327957  0.16606384  1
  I  I67  1  0.49732782  0.33560324  0.50068551  1
  I  I68  1  0.49855681  0.33016490  0.83296555  1
  I  I69  1  0.50438324  0.66668405  0.16206839  1
  I  I70  1  0.49724567  0.66748800  0.50503604  1
  I  I71  1  0.49393606  0.67024356  0.83095639  1
  I  I72  1  0.83566586  0.00250681  0.16320006  1
  I  I73  1  0.82986191  -0.00298199  0.49846635  1
  I  I74  1  0.83445736  0.00343383  0.83918685  1
  I  I75  1  0.84046473  0.33340508  0.16339686  1
  I  I76  1  0.83155878  0.33323732  0.50135173  1
  I  I77  1  0.83452054  0.32862871  0.83254776  1
  I  I78  1  0.83654872  0.66430353  0.17009149  1
  I  I79  1  0.83504315  0.66973691  0.49884312  1
  I  I80  1  0.83359272  0.66695254  0.83338927  1
  I  I81  1  0.16761356  0.16523363  -0.00300106  1
  I  I82  1  0.16454613  0.16614420  0.33539450  1
  I  I83  1  0.16449887  0.16542348  0.66783930  1
  I  I84  1  0.16209600  0.50064517  0.00297202  1
  I  I85  1  0.16640966  0.50083451  0.33356082  1
  I  I86  1  0.17077232  0.49938345  0.66369421  1
  I  I87  1  0.17037542  0.83468322  -0.00107054  1
  I  I88  1  0.16520736  0.83289574  0.33173656  1
  I  I89  1  0.16759358  0.83536084  0.66915639  1
  I  I90  1  0.49317735  0.16103721  -0.00485375  1
  I  I91  1  0.49941947  0.16622891  0.33366039  1
  I  I92  1  0.50387719  0.16523227  0.67014415  1
  I  I93  1  0.49964599  0.49994532  0.00000096  1
  I  I94  1  0.49775403  0.50639343  0.33745626  1
  I  I95  1  0.49304114  0.50175972  0.66271976  1
  I  I96  1  0.49805681  0.83831551  -0.00353175  1
  I  I97  1  0.50223242  0.82885552  0.33648828  1
  I  I98  1  0.49699953  0.83377128  0.66688327  1
  I  I99  1  0.83652982  0.16933750  -0.00071128  1
  I  I100  1  0.83704199  0.16931848  0.33095492  1
  I  I101  1  0.83261742  0.16363178  0.66946550  1
  I  I102  1  0.84038441  0.50013022  0.00428133  1
  I  I103  1  0.83590406  0.49360348  0.33009366  1
  I  I104  1  0.83400416  0.49960366  0.66627639  1
  I  I105  1  0.83162251  0.83201688  -0.00001782  1
  I  I106  1  0.83009641  0.83528403  0.33645865  1
  I  I107  1  0.83520027  0.83464910  0.66367158  1
  I  I108  1  -0.00235096  0.16735904  0.16165472  1
  I  I109  1  0.00366726  0.16956733  0.50498783  1
  I  I110  1  0.00092454  0.16260461  0.83364077  1
  I  I111  1  0.00125132  0.49982079  0.17265612  1
  I  I112  1  0.00296939  0.49842075  0.49789729  1
  I  I113  1  0.00018831  0.50120725  0.82787900  1
  I  I114  1  0.00358966  0.83265183  0.16364311  1
  I  I115  1  -0.00103400  0.83428349  0.49934157  1
  I  I116  1  0.00294565  0.83766110  0.83465282  1
  I  I117  1  0.33314682  0.16680021  0.16672627  1
  I  I118  1  0.32952199  0.16538257  0.50420468  1
  I  I119  1  0.33246439  0.16198371  0.82781526  1
  I  I120  1  0.32997338  0.50394263  0.16857819  1
  I  I121  1  0.33219469  0.50251815  0.49521289  1
  I  I122  1  0.33320469  0.49520557  0.83766650  1
  I  I123  1  0.32890093  0.82820304  0.16824372  1
  I  I124  1  0.33566027  0.83193106  0.50165940  1
  I  I125  1  0.33305515  0.84140693  0.83073830  1
  I  I126  1  0.67145106  0.17233783  0.16375603  1
  I  I127  1  0.66660723  0.16863495  0.50079998  1
  I  I128  1  0.66648464  0.16236765  0.83806166  1
  I  I129  1  0.66954706  0.49538446  0.16711117  1
  I  I130  1  0.66426875  0.50240537  0.49980122  1
  I  I131  1  0.66663722  0.49999418  0.83312526  1
  I  I132  1  0.66678319  0.83277935  0.16527780  1
  I  I133  1  0.66517216  0.82880625  0.50469659  1
  I  I134  1  0.66390480  0.83769790  0.83013118  1
