# generated using pymatgen
data_Cs27Sn14Pb13I81
_symmetry_space_group_name_H-M   'P 1'
_cell_length_a   18.97827739
_cell_length_b   18.97926825
_cell_length_c   18.97220453
_cell_angle_alpha   90.00083739
_cell_angle_beta   90.00072217
_cell_angle_gamma   90.00034729
_symmetry_Int_Tables_number   1
_chemical_formula_structural   Cs27Sn14Pb13I81
_chemical_formula_sum   'Cs27 Sn14 Pb13 I81'
_cell_volume   6833.67077232
_cell_formula_units_Z   1
loop_
 _symmetry_equiv_pos_site_id
 _symmetry_equiv_pos_as_xyz
  1  'x, y, z'
loop_
 _atom_site_type_symbol
 _atom_site_label
 _atom_site_symmetry_multiplicity
 _atom_site_fract_x
 _atom_site_fract_y
 _atom_site_fract_z
 _atom_site_occupancy
  Cs  Cs0  1  -0.00716964  0.00007240  -0.00051749  1
  Cs  Cs1  1  -0.00138415  -0.00271311  0.33194784  1
  Cs  Cs2  1  0.00283452  0.00285065  0.66801172  1
  Cs  Cs3  1  -0.00125119  0.33447718  -0.00100795  1
  Cs  Cs4  1  0.00374509  0.33706902  0.33453531  1
  Cs  Cs5  1  0.00273605  0.32871511  0.66575643  1
  Cs  Cs6  1  0.00236976  0.66572682  0.00007577  1
  Cs  Cs7  1  0.00020631  0.66438012  0.34188700  1
  Cs  Cs8  1  -0.00342004  0.66893881  0.66239229  1
  Cs  Cs9  1  0.33440647  -0.00279933  0.00124618  1
  Cs  Cs10  1  0.33428055  -0.00063647  0.33107752  1
  Cs  Cs11  1  0.33047701  0.00041078  0.66576232  1
  Cs  Cs12  1  0.33473576  0.33457508  0.00043676  1
  Cs  Cs13  1  0.33097192  0.33390133  0.33068456  1
  Cs  Cs14  1  0.33280517  0.33056273  0.66705739  1
  Cs  Cs15  1  0.33280844  0.66736842  0.00022794  1
  Cs  Cs16  1  0.33093985  0.66738484  0.33613600  1
  Cs  Cs17  1  0.33577765  0.66979666  0.66792851  1
  Cs  Cs18  1  0.66964679  -0.00058967  0.00151874  1
  Cs  Cs19  1  0.66805988  0.00218258  0.33099029  1
  Cs  Cs20  1  0.66773062  -0.00062828  0.66673641  1
  Cs  Cs21  1  0.66561206  0.33414517  0.00022464  1
  Cs  Cs22  1  0.66628874  0.33147150  0.33425067  1
  Cs  Cs23  1  0.66523938  0.33492668  0.66448484  1
  Cs  Cs24  1  0.66553116  0.66499072  -0.00077570  1
  Cs  Cs25  1  0.66834023  0.66675392  0.34133578  1
  Cs  Cs26  1  0.66818733  0.66603786  0.66112542  1
  Sn  Sn27  1  0.50050774  0.16659741  0.49977688  1
  Sn  Sn28  1  0.49999007  0.50031468  0.83409607  1
  Sn  Sn29  1  0.83309660  0.50000908  0.83409804  1
  Sn  Sn30  1  0.16732573  0.83263078  0.83468230  1
  Sn  Sn31  1  0.16702493  0.50080010  0.83359927  1
  Sn  Sn32  1  0.49947349  0.16663123  0.16636597  1
  Sn  Sn33  1  0.83227686  0.50027695  0.16616204  1
  Sn  Sn34  1  0.83282334  0.16666746  0.49985586  1
  Sn  Sn35  1  0.49963974  0.83292594  0.16596286  1
  Sn  Sn36  1  0.50000220  0.16633627  0.83356115  1
  Sn  Sn37  1  0.16720212  0.83404427  0.16555183  1
  Sn  Sn38  1  0.50098289  0.50044728  0.16624060  1
  Sn  Sn39  1  0.49956730  0.83320827  0.83429409  1
  Sn  Sn40  1  0.16715041  0.16563387  0.16581642  1
  Pb  Pb41  1  0.49954246  0.49775339  0.49980889  1
  Pb  Pb42  1  0.16708874  0.50066281  0.16519447  1
  Pb  Pb43  1  0.83320518  0.83665500  0.50003737  1
  Pb  Pb44  1  0.16725192  0.16643641  0.49687806  1
  Pb  Pb45  1  0.83307133  0.83091841  0.83353759  1
  Pb  Pb46  1  0.83314166  0.49784642  0.50016290  1
  Pb  Pb47  1  0.83331523  0.16894786  0.16802816  1
  Pb  Pb48  1  0.49995809  0.83614510  0.49985085  1
  Pb  Pb49  1  0.83327955  0.83021751  0.16660476  1
  Pb  Pb50  1  0.83058224  0.16908615  0.83164862  1
  Pb  Pb51  1  0.16872735  0.16606183  0.83592237  1
  Pb  Pb52  1  0.16705192  0.83350265  0.50011645  1
  Pb  Pb53  1  0.16714733  0.50004406  0.50423076  1
  I  I54  1  0.17559081  -0.00049485  0.16264035  1
  I  I55  1  0.16568491  0.00024499  0.50583727  1
  I  I56  1  0.17231625  -0.00299315  0.83399807  1
  I  I57  1  0.17031971  0.33161262  0.16645009  1
  I  I58  1  0.16642750  0.33295088  0.49903286  1
  I  I59  1  0.16756645  0.33571933  0.83481602  1
  I  I60  1  0.17027287  0.66949691  0.16360107  1
  I  I61  1  0.16512963  0.66675338  0.49342856  1
  I  I62  1  0.17187001  0.66687559  0.83994511  1
  I  I63  1  0.49518057  0.00028752  0.16498293  1
  I  I64  1  0.50390423  0.00424472  0.50003308  1
  I  I65  1  0.49481978  -0.00024252  0.83502393  1
  I  I66  1  0.49985203  0.33308469  0.16436787  1
  I  I67  1  0.50396003  0.32959063  0.50043458  1
  I  I68  1  0.50027864  0.33385394  0.83552991  1
  I  I69  1  0.49951051  0.66662624  0.15842445  1
  I  I70  1  0.50000034  0.66682974  0.50019270  1
  I  I71  1  0.49886035  0.66622698  0.84043109  1
  I  I72  1  0.83163065  0.00005468  0.16974999  1
  I  I73  1  0.82708225  0.00447977  0.49872468  1
  I  I74  1  0.83372039  0.00017111  0.83032938  1
  I  I75  1  0.82910183  0.33670745  0.16273417  1
  I  I76  1  0.82697545  0.33046266  0.50008152  1
  I  I77  1  0.83409545  0.33721661  0.83719191  1
  I  I78  1  0.82912184  0.66229643  0.16147223  1
  I  I79  1  0.83475910  0.66630383  0.49986019  1
  I  I80  1  0.82860150  0.66267293  0.83728364  1
  I  I81  1  0.17281272  0.16679067  0.00369995  1
  I  I82  1  0.17272675  0.16219628  0.32889650  1
  I  I83  1  0.16724939  0.16759667  0.66698195  1
  I  I84  1  0.16740514  0.50046774  -0.00298884  1
  I  I85  1  0.16552210  0.49950002  0.33294998  1
  I  I86  1  0.16738160  0.50459938  0.67269522  1
  I  I87  1  0.17269637  0.83265484  -0.00011426  1
  I  I88  1  0.17167587  0.83806309  0.32949572  1
  I  I89  1  0.17137168  0.82856150  0.67061772  1
  I  I90  1  0.49505460  0.16814367  0.00046625  1
  I  I91  1  0.50050381  0.16697268  0.33186268  1
  I  I92  1  0.50484283  0.16806363  0.66763272  1
  I  I93  1  0.50080411  0.49544083  -0.00048988  1
  I  I94  1  0.50508480  0.49989665  0.32954652  1
  I  I95  1  0.50063011  0.50012642  0.67058974  1
  I  I96  1  0.49604065  0.83668247  -0.00003720  1
  I  I97  1  0.49577171  0.83278896  0.32951247  1
  I  I98  1  0.49621679  0.83237097  0.67040137  1
  I  I99  1  0.83315203  0.16620788  -0.00000150  1
  I  I100  1  0.82623334  0.16957202  0.33567588  1
  I  I101  1  0.82763536  0.16941979  0.66380707  1
  I  I102  1  0.83124200  0.49836299  -0.00052553  1
  I  I103  1  0.82801580  0.49890424  0.33034667  1
  I  I104  1  0.83210911  0.49930647  0.67003103  1
  I  I105  1  0.83324943  0.83821018  0.00009660  1
  I  I106  1  0.83342013  0.82952932  0.33296891  1
  I  I107  1  0.83278971  0.82966443  0.66703818  1
  I  I108  1  0.00261171  0.16376445  0.16877748  1
  I  I109  1  -0.00235470  0.16849044  0.49916999  1
  I  I110  1  0.00009872  0.16734029  0.83177109  1
  I  I111  1  -0.00180883  0.49792591  0.16197003  1
  I  I112  1  -0.00008393  0.49600605  0.49739907  1
  I  I113  1  0.00009812  0.50404838  0.83824621  1
  I  I114  1  0.00343807  0.83855937  0.16190596  1
  I  I115  1  0.00020687  0.83524045  0.49970644  1
  I  I116  1  0.00338170  0.82892149  0.83749198  1
  I  I117  1  0.33554557  0.16892878  0.16884041  1
  I  I118  1  0.33673842  0.16690758  0.50236658  1
  I  I119  1  0.33728567  0.17209226  0.82878776  1
  I  I120  1  0.33661870  0.49804073  0.16269214  1
  I  I121  1  0.33359286  0.49596193  0.49753438  1
  I  I122  1  0.33472627  0.49988332  0.83746282  1
  I  I123  1  0.33460454  0.83315709  0.16259879  1
  I  I124  1  0.33363970  0.83609554  0.50055959  1
  I  I125  1  0.33449797  0.82836173  0.83679386  1
  I  I126  1  0.66302750  0.16461890  0.16510480  1
  I  I127  1  0.66484197  0.16799070  0.49799798  1
  I  I128  1  0.66187058  0.16583896  0.83905814  1
  I  I129  1  0.66474124  0.49838738  0.15847001  1
  I  I130  1  0.66637467  0.50089991  0.50408569  1
  I  I131  1  0.66518135  0.49857055  0.83747049  1
  I  I132  1  0.66292003  0.83734871  0.16195741  1
  I  I133  1  0.66622306  0.83110876  0.50060617  1
  I  I134  1  0.66277904  0.83421066  0.83780731  1
