# generated using pymatgen
data_Cs27Sn14Pb13I81
_symmetry_space_group_name_H-M   'P 1'
_cell_length_a   18.96970651
_cell_length_b   18.97646268
_cell_length_c   18.97961234
_cell_angle_alpha   89.99915382
_cell_angle_beta   90.00097780
_cell_angle_gamma   90.00106287
_symmetry_Int_Tables_number   1
_chemical_formula_structural   Cs27Sn14Pb13I81
_chemical_formula_sum   'Cs27 Sn14 Pb13 I81'
_cell_volume   6832.24151637
_cell_formula_units_Z   1
loop_
 _symmetry_equiv_pos_site_id
 _symmetry_equiv_pos_as_xyz
  1  'x, y, z'
loop_
 _atom_site_type_symbol
 _atom_site_label
 _atom_site_symmetry_multiplicity
 _atom_site_fract_x
 _atom_site_fract_y
 _atom_site_fract_z
 _atom_site_occupancy
  Cs  Cs0  1  -0.00239970  -0.00121712  0.00422867  1
  Cs  Cs1  1  0.00882169  -0.00008384  0.33194925  1
  Cs  Cs2  1  -0.00241853  -0.00508809  0.66074071  1
  Cs  Cs3  1  -0.00130531  0.33585159  0.00030295  1
  Cs  Cs4  1  -0.00157814  0.33108661  0.33275249  1
  Cs  Cs5  1  0.00760958  0.33629421  0.66699057  1
  Cs  Cs6  1  -0.00033978  0.66470714  -0.00026148  1
  Cs  Cs7  1  0.00164980  0.66871681  0.33832100  1
  Cs  Cs8  1  -0.00009918  0.66767330  0.65965733  1
  Cs  Cs9  1  0.33293446  -0.00023346  -0.00030490  1
  Cs  Cs10  1  0.32946585  -0.00126159  0.33260214  1
  Cs  Cs11  1  0.33672485  0.00258611  0.66797831  1
  Cs  Cs12  1  0.33007278  0.33376579  -0.00534652  1
  Cs  Cs13  1  0.33545105  0.33557087  0.33614483  1
  Cs  Cs14  1  0.32224942  0.33428820  0.67154479  1
  Cs  Cs15  1  0.33381929  0.66718366  -0.00065195  1
  Cs  Cs16  1  0.33674431  0.66680613  0.33478339  1
  Cs  Cs17  1  0.33221093  0.66410028  0.66959248  1
  Cs  Cs18  1  0.66701007  0.00043073  -0.00052386  1
  Cs  Cs19  1  0.66513599  0.00349824  0.33216694  1
  Cs  Cs20  1  0.66552924  0.00002192  0.66651563  1
  Cs  Cs21  1  0.66789852  0.33272347  0.00112038  1
  Cs  Cs22  1  0.66673232  0.33328479  0.33217320  1
  Cs  Cs23  1  0.66681758  0.33055340  0.66626100  1
  Cs  Cs24  1  0.66635492  0.66699399  0.00030522  1
  Cs  Cs25  1  0.66392526  0.66312389  0.33350604  1
  Cs  Cs26  1  0.66884365  0.66861349  0.66586634  1
  Sn  Sn27  1  0.50095210  0.83415168  0.16684552  1
  Sn  Sn28  1  0.50055698  0.16618743  0.49928246  1
  Sn  Sn29  1  0.83258168  0.83323847  0.16691417  1
  Sn  Sn30  1  0.16694676  0.83368218  0.83367168  1
  Sn  Sn31  1  0.50126817  0.50038679  0.83334535  1
  Sn  Sn32  1  0.16586575  0.50013495  0.16679681  1
  Sn  Sn33  1  0.83268326  0.16678925  0.49980951  1
  Sn  Sn34  1  0.83252244  0.16643535  0.16668171  1
  Sn  Sn35  1  0.49937425  0.83247970  0.83342339  1
  Sn  Sn36  1  0.83224520  0.49948309  0.83368792  1
  Sn  Sn37  1  0.50037272  0.16599909  0.16713874  1
  Sn  Sn38  1  0.83429966  0.50026017  0.16616640  1
  Sn  Sn39  1  0.83328739  0.16736130  0.83316334  1
  Sn  Sn40  1  0.50048251  0.83401050  0.49981043  1
  Pb  Pb41  1  0.50021847  0.49900316  0.50347502  1
  Pb  Pb42  1  0.16666008  0.50013892  0.49656375  1
  Pb  Pb43  1  0.16725977  0.16893411  0.16644771  1
  Pb  Pb44  1  0.17012722  0.83348003  0.50276577  1
  Pb  Pb45  1  0.50048713  0.49948806  0.16486298  1
  Pb  Pb46  1  0.16718993  0.83137009  0.16521026  1
  Pb  Pb47  1  0.16735880  0.16652965  0.49990330  1
  Pb  Pb48  1  0.83289128  0.83301936  0.83481474  1
  Pb  Pb49  1  0.83307254  0.49746839  0.49999458  1
  Pb  Pb50  1  0.83085788  0.83582687  0.49638936  1
  Pb  Pb51  1  0.16568418  0.50209834  0.83482755  1
  Pb  Pb52  1  0.16257076  0.16348115  0.83361853  1
  Pb  Pb53  1  0.50142591  0.16663080  0.83345460  1
  I  I54  1  0.16372228  -0.00020688  0.16583212  1
  I  I55  1  0.16312820  -0.00017049  0.49910361  1
  I  I56  1  0.17500173  -0.00386429  0.83498254  1
  I  I57  1  0.16221276  0.33666328  0.16407341  1
  I  I58  1  0.16966210  0.33324636  0.50211256  1
  I  I59  1  0.17017503  0.33353148  0.83364405  1
  I  I60  1  0.16190298  0.66377284  0.16374836  1
  I  I61  1  0.16722284  0.66704652  0.50058499  1
  I  I62  1  0.16823881  0.66954693  0.83589852  1
  I  I63  1  0.50749443  -0.00054861  0.16447624  1
  I  I64  1  0.50469089  -0.00000212  0.50188087  1
  I  I65  1  0.49816002  -0.00275615  0.83369824  1
  I  I66  1  0.50359940  0.33044918  0.17023993  1
  I  I67  1  0.50523222  0.32956121  0.49374128  1
  I  I68  1  0.50317051  0.33549120  0.83515608  1
  I  I69  1  0.50284112  0.66941034  0.16814246  1
  I  I70  1  0.49870449  0.66954760  0.49638282  1
  I  I71  1  0.50180207  0.66771830  0.83469412  1
  I  I72  1  0.82803557  0.00068035  0.16446923  1
  I  I73  1  0.83078158  0.00385003  0.50352394  1
  I  I74  1  0.83287618  0.00245311  0.83513637  1
  I  I75  1  0.83307632  0.33266829  0.16588839  1
  I  I76  1  0.82541787  0.32928234  0.49510089  1
  I  I77  1  0.82675152  0.33372971  0.83901843  1
  I  I78  1  0.83256125  0.66642627  0.15962839  1
  I  I79  1  0.83283760  0.66697212  0.50053915  1
  I  I80  1  0.83190107  0.66413366  0.84009537  1
  I  I81  1  0.16877655  0.16664099  -0.00000723  1
  I  I82  1  0.16217903  0.16707469  0.33305072  1
  I  I83  1  0.16801928  0.16805970  0.66691315  1
  I  I84  1  0.16460037  0.50056341  0.00247315  1
  I  I85  1  0.16033560  0.50062659  0.32855968  1
  I  I86  1  0.16720548  0.50043660  0.66701446  1
  I  I87  1  0.17317952  0.83237939  -0.00239449  1
  I  I88  1  0.16633852  0.83181840  0.33330666  1
  I  I89  1  0.16929542  0.83189005  0.67065485  1
  I  I90  1  0.50498076  0.16368064  0.00265956  1
  I  I91  1  0.50857142  0.15918370  0.33253327  1
  I  I92  1  0.50600320  0.16256398  0.66448273  1
  I  I93  1  0.50160315  0.50424409  -0.00287247  1
  I  I94  1  0.49914547  0.50265404  0.33318411  1
  I  I95  1  0.50602537  0.50460884  0.67144213  1
  I  I96  1  0.50018137  0.83346687  0.00038298  1
  I  I97  1  0.50525581  0.83744747  0.33224440  1
  I  I98  1  0.49521210  0.83414598  0.66716870  1
  I  I99  1  0.82917464  0.16741497  0.00117587  1
  I  I100  1  0.82843533  0.16745367  0.33202658  1
  I  I101  1  0.82800784  0.17044613  0.66679657  1
  I  I102  1  0.83295789  0.49507891  0.00062607  1
  I  I103  1  0.83702196  0.49953470  0.32973079  1
  I  I104  1  0.82869272  0.49645794  0.67007702  1
  I  I105  1  0.82815675  0.83764244  0.00299278  1
  I  I106  1  0.82905107  0.83087757  0.32823890  1
  I  I107  1  0.83366653  0.83366196  0.66642056  1
  I  I108  1  -0.00377974  0.16367788  0.16694105  1
  I  I109  1  -0.00344023  0.16801338  0.49882093  1
  I  I110  1  -0.00554503  0.17296108  0.83532002  1
  I  I111  1  -0.00271580  0.49937216  0.15960908  1
  I  I112  1  -0.00037178  0.49858044  0.50548971  1
  I  I113  1  -0.00343790  0.49641454  0.83675703  1
  I  I114  1  -0.00292801  0.83640611  0.16309249  1
  I  I115  1  -0.00023304  0.83434313  0.50093852  1
  I  I116  1  0.00141168  0.83428883  0.83767533  1
  I  I117  1  0.33712862  0.16268730  0.17150649  1
  I  I118  1  0.33752196  0.16216652  0.49439821  1
  I  I119  1  0.33341048  0.17003042  0.83298925  1
  I  I120  1  0.33193912  0.50078342  0.16417372  1
  I  I121  1  0.33376643  0.49768996  0.49962903  1
  I  I122  1  0.33558370  0.50224085  0.83506058  1
  I  I123  1  0.33710026  0.83604949  0.16781599  1
  I  I124  1  0.33835168  0.83988620  0.49357542  1
  I  I125  1  0.33600465  0.82742110  0.83551857  1
  I  I126  1  0.66759839  0.16773614  0.16701375  1
  I  I127  1  0.66646831  0.16291174  0.49863163  1
  I  I128  1  0.66966744  0.16576550  0.83483990  1
  I  I129  1  0.66968939  0.49954494  0.16397506  1
  I  I130  1  0.66654725  0.50236676  0.49544369  1
  I  I131  1  0.66744443  0.50242520  0.83998591  1
  I  I132  1  0.66588496  0.83241766  0.16326758  1
  I  I133  1  0.66288673  0.83474531  0.50671682  1
  I  I134  1  0.66366831  0.83232824  0.83265985  1
