# generated using pymatgen
data_Cs27Sn13Pb14I81
_symmetry_space_group_name_H-M   'P 1'
_cell_length_a   18.97901935
_cell_length_b   18.97898388
_cell_length_c   18.97303786
_cell_angle_alpha   90.00145068
_cell_angle_beta   89.99850424
_cell_angle_gamma   90.00155959
_symmetry_Int_Tables_number   1
_chemical_formula_structural   Cs27Sn13Pb14I81
_chemical_formula_sum   'Cs27 Sn13 Pb14 I81'
_cell_volume   6834.13570607
_cell_formula_units_Z   1
loop_
 _symmetry_equiv_pos_site_id
 _symmetry_equiv_pos_as_xyz
  1  'x, y, z'
loop_
 _atom_site_type_symbol
 _atom_site_label
 _atom_site_symmetry_multiplicity
 _atom_site_fract_x
 _atom_site_fract_y
 _atom_site_fract_z
 _atom_site_occupancy
  Cs  Cs0  1  -0.00068399  0.00090698  -0.00241803  1
  Cs  Cs1  1  0.00102718  -0.00130334  0.33768361  1
  Cs  Cs2  1  -0.00182359  0.00344701  0.66751214  1
  Cs  Cs3  1  0.00176589  0.33520244  -0.00110391  1
  Cs  Cs4  1  0.00040397  0.33296714  0.34501421  1
  Cs  Cs5  1  -0.00149183  0.33103938  0.66161033  1
  Cs  Cs6  1  0.00023774  0.66534142  0.00211830  1
  Cs  Cs7  1  0.00338468  0.66790903  0.33153472  1
  Cs  Cs8  1  -0.00225688  0.66498077  0.66764395  1
  Cs  Cs9  1  0.33315370  0.00284917  -0.00017337  1
  Cs  Cs10  1  0.33104936  -0.00099349  0.33498834  1
  Cs  Cs11  1  0.33440502  -0.00014844  0.66507633  1
  Cs  Cs12  1  0.33388270  0.33292531  -0.00119813  1
  Cs  Cs13  1  0.33214801  0.33370507  0.33578707  1
  Cs  Cs14  1  0.33430917  0.33199666  0.66932370  1
  Cs  Cs15  1  0.33196294  0.66485514  0.00063554  1
  Cs  Cs16  1  0.32758469  0.66857871  0.33732898  1
  Cs  Cs17  1  0.33854696  0.66964826  0.66286985  1
  Cs  Cs18  1  0.66936061  -0.00086942  0.00229015  1
  Cs  Cs19  1  0.66780359  0.00057365  0.32682861  1
  Cs  Cs20  1  0.66668754  -0.00437460  0.67038499  1
  Cs  Cs21  1  0.66466366  0.33360691  0.00196242  1
  Cs  Cs22  1  0.66790491  0.33208923  0.33212577  1
  Cs  Cs23  1  0.66605380  0.33481986  0.66426559  1
  Cs  Cs24  1  0.66748955  0.66679746  0.00005838  1
  Cs  Cs25  1  0.66736169  0.66716866  0.33320346  1
  Cs  Cs26  1  0.66401494  0.66911835  0.66394123  1
  Sn  Sn27  1  0.49991524  0.83221359  0.16617481  1
  Sn  Sn28  1  0.83291866  0.83246614  0.16728336  1
  Sn  Sn29  1  0.49975717  0.16711388  0.83268790  1
  Sn  Sn30  1  0.16614754  0.16701140  0.16612956  1
  Sn  Sn31  1  0.50044026  0.16663703  0.50091717  1
  Sn  Sn32  1  0.16695227  0.50015651  0.83357632  1
  Sn  Sn33  1  0.16691775  0.83327447  0.83351058  1
  Sn  Sn34  1  0.50027864  0.50110675  0.16613457  1
  Sn  Sn35  1  0.83311305  0.83316210  0.49916401  1
  Sn  Sn36  1  0.83289926  0.50041026  0.16597979  1
  Sn  Sn37  1  0.16739162  0.16669283  0.83445825  1
  Sn  Sn38  1  0.50022305  0.49946961  0.83414963  1
  Sn  Sn39  1  0.83285864  0.49981562  0.83407522  1
  Pb  Pb40  1  0.49845723  0.16714072  0.16604997  1
  Pb  Pb41  1  0.16657780  0.49792936  0.16534408  1
  Pb  Pb42  1  0.50012263  0.49843338  0.49942942  1
  Pb  Pb43  1  0.16424307  0.83337561  0.50315890  1
  Pb  Pb44  1  0.16631345  0.83516208  0.16487435  1
  Pb  Pb45  1  0.83642826  0.16741345  0.16660719  1
  Pb  Pb46  1  0.49831616  0.83324583  0.83547280  1
  Pb  Pb47  1  0.83288122  0.16952444  0.83358304  1
  Pb  Pb48  1  0.83023324  0.16398855  0.50008019  1
  Pb  Pb49  1  0.16867760  0.16657321  0.50086824  1
  Pb  Pb50  1  0.83303474  0.50199851  0.49930834  1
  Pb  Pb51  1  0.50185776  0.83561123  0.49687875  1
  Pb  Pb52  1  0.83521135  0.83095043  0.83418048  1
  Pb  Pb53  1  0.16691244  0.50018410  0.50361284  1
  I  I54  1  0.16837290  0.00284696  0.15923971  1
  I  I55  1  0.16640139  0.00001709  0.50204997  1
  I  I56  1  0.17086155  0.00117165  0.83731657  1
  I  I57  1  0.16868268  0.33033872  0.15920234  1
  I  I58  1  0.16535570  0.33310286  0.49964572  1
  I  I59  1  0.16830714  0.33326709  0.83814463  1
  I  I60  1  0.16686071  0.66649652  0.16414810  1
  I  I61  1  0.16763777  0.66695013  0.50029984  1
  I  I62  1  0.16575560  0.66556403  0.83361862  1
  I  I63  1  0.50326079  -0.00200327  0.16657071  1
  I  I64  1  0.49979681  0.00326367  0.50646146  1
  I  I65  1  0.49424011  0.00262364  0.83120965  1
  I  I66  1  0.50348903  0.33629371  0.16484757  1
  I  I67  1  0.49901008  0.33043522  0.50035537  1
  I  I68  1  0.49548947  0.33403990  0.83519291  1
  I  I69  1  0.50384962  0.66574087  0.16004006  1
  I  I70  1  0.50123565  0.66698615  0.50340610  1
  I  I71  1  0.49881808  0.66348496  0.83597099  1
  I  I72  1  0.82928302  -0.00298548  0.17011377  1
  I  I73  1  0.83409067  -0.00374695  0.49363362  1
  I  I74  1  0.83454716  -0.00021657  0.83311326  1
  I  I75  1  0.82824312  0.33703153  0.16059746  1
  I  I76  1  0.83424763  0.33337673  0.49984375  1
  I  I77  1  0.83713679  0.33778207  0.83948246  1
  I  I78  1  0.82971448  0.66642249  0.16569583  1
  I  I79  1  0.83203573  0.66965139  0.49956813  1
  I  I80  1  0.83324710  0.66284627  0.83450073  1
  I  I81  1  0.17281797  0.16666079  -0.00225229  1
  I  I82  1  0.16850675  0.16599587  0.33099586  1
  I  I83  1  0.16855174  0.16763086  0.67071845  1
  I  I84  1  0.16668094  0.50097356  -0.00346343  1
  I  I85  1  0.16632645  0.49723915  0.33303358  1
  I  I86  1  0.16597274  0.49631524  0.67271052  1
  I  I87  1  0.16464114  0.83187000  -0.00315472  1
  I  I88  1  0.16851765  0.83643937  0.33307954  1
  I  I89  1  0.16614858  0.83520579  0.67136809  1
  I  I90  1  0.49630592  0.16867535  -0.00290908  1
  I  I91  1  0.49825670  0.16578140  0.33477223  1
  I  I92  1  0.49406482  0.17182525  0.66898537  1
  I  I93  1  0.50057307  0.49738867  -0.00092625  1
  I  I94  1  0.50623824  0.50095521  0.32951131  1
  I  I95  1  0.49934930  0.49750594  0.67030930  1
  I  I96  1  0.50647222  0.83463399  0.00326545  1
  I  I97  1  0.50052569  0.82956758  0.32893664  1
  I  I98  1  0.50061999  0.83163715  0.66684410  1
  I  I99  1  0.82961560  0.16087888  0.00006430  1
  I  I100  1  0.83338569  0.17128597  0.33317496  1
  I  I101  1  0.83800637  0.16619762  0.66695165  1
  I  I102  1  0.83279513  0.50586668  0.00005151  1
  I  I103  1  0.82748912  0.50111486  0.32953768  1
  I  I104  1  0.83442730  0.50081927  0.66986245  1
  I  I105  1  0.83081567  0.83127067  0.00310896  1
  I  I106  1  0.82928962  0.82842697  0.33141950  1
  I  I107  1  0.83626995  0.83269662  0.66517101  1
  I  I108  1  0.00404798  0.16586205  0.15804873  1
  I  I109  1  -0.00007399  0.16632679  0.50026283  1
  I  I110  1  0.00320861  0.16676302  0.83751474  1
  I  I111  1  -0.00290983  0.50434804  0.16091528  1
  I  I112  1  -0.00020622  0.49910200  0.50021776  1
  I  I113  1  0.00006272  0.50119616  0.83773289  1
  I  I114  1  -0.00301864  0.82940902  0.16889053  1
  I  I115  1  -0.00347809  0.83286533  0.49212320  1
  I  I116  1  0.00321045  0.83446368  0.83484799  1
  I  I117  1  0.33083929  0.16626165  0.16367393  1
  I  I118  1  0.33636105  0.16604499  0.50166314  1
  I  I119  1  0.33319815  0.17144471  0.83369508  1
  I  I120  1  0.33630854  0.50221958  0.16176609  1
  I  I121  1  0.33366717  0.50058424  0.49817794  1
  I  I122  1  0.33386340  0.49788645  0.83783932  1
  I  I123  1  0.33575308  0.83061507  0.16343001  1
  I  I124  1  0.33357810  0.83424319  0.49921026  1
  I  I125  1  0.33039079  0.82997583  0.83628744  1
  I  I126  1  0.66662718  0.16574095  0.16649544  1
  I  I127  1  0.66259011  0.16817048  0.50583330  1
  I  I128  1  0.66314924  0.17062668  0.82977481  1
  I  I129  1  0.66644036  0.50318744  0.15805024  1
  I  I130  1  0.66661079  0.49899323  0.50622022  1
  I  I131  1  0.66579928  0.49521251  0.83758302  1
  I  I132  1  0.66695769  0.83109046  0.16902834  1
  I  I133  1  0.66964578  0.83362222  0.50049883  1
  I  I134  1  0.66671574  0.83420572  0.83179860  1
