# generated using pymatgen
data_Cs27Sn13Pb14I81
_symmetry_space_group_name_H-M   'P 1'
_cell_length_a   18.97943938
_cell_length_b   18.97460002
_cell_length_c   18.97828643
_cell_angle_alpha   90.00002253
_cell_angle_beta   89.99937349
_cell_angle_gamma   89.99989915
_symmetry_Int_Tables_number   1
_chemical_formula_structural   Cs27Sn13Pb14I81
_chemical_formula_sum   'Cs27 Sn13 Pb14 I81'
_cell_volume   6834.59849887
_cell_formula_units_Z   1
loop_
 _symmetry_equiv_pos_site_id
 _symmetry_equiv_pos_as_xyz
  1  'x, y, z'
loop_
 _atom_site_type_symbol
 _atom_site_label
 _atom_site_symmetry_multiplicity
 _atom_site_fract_x
 _atom_site_fract_y
 _atom_site_fract_z
 _atom_site_occupancy
  Cs  Cs0  1  -0.00206401  -0.00119184  0.00102652  1
  Cs  Cs1  1  -0.00320561  0.00091255  0.33417199  1
  Cs  Cs2  1  -0.00004658  -0.00041645  0.66488425  1
  Cs  Cs3  1  -0.00196940  0.33542917  -0.00087672  1
  Cs  Cs4  1  0.00038711  0.33273833  0.34290214  1
  Cs  Cs5  1  0.00031317  0.33314114  0.66116737  1
  Cs  Cs6  1  0.00128420  0.66497982  -0.00291865  1
  Cs  Cs7  1  0.00048796  0.66589184  0.33502548  1
  Cs  Cs8  1  0.00115379  0.66770383  0.66983461  1
  Cs  Cs9  1  0.33396715  0.00177428  0.00114750  1
  Cs  Cs10  1  0.33200274  -0.00006649  0.33144293  1
  Cs  Cs11  1  0.33385627  -0.00005440  0.66690211  1
  Cs  Cs12  1  0.33576532  0.33218282  0.00068059  1
  Cs  Cs13  1  0.33256125  0.33347800  0.33318215  1
  Cs  Cs14  1  0.33309264  0.33174518  0.66524547  1
  Cs  Cs15  1  0.33047527  0.66657842  0.00108827  1
  Cs  Cs16  1  0.33353474  0.66739125  0.33224758  1
  Cs  Cs17  1  0.33290970  0.67103699  0.66571677  1
  Cs  Cs18  1  0.66803356  0.00040825  0.00140360  1
  Cs  Cs19  1  0.67354108  -0.00044520  0.33105737  1
  Cs  Cs20  1  0.66483253  -0.00731913  0.66696124  1
  Cs  Cs21  1  0.66613088  0.33372207  -0.00119703  1
  Cs  Cs22  1  0.66766722  0.33418607  0.33359939  1
  Cs  Cs23  1  0.66602325  0.33480453  0.67138732  1
  Cs  Cs24  1  0.66744684  0.66253420  0.00066575  1
  Cs  Cs25  1  0.66713791  0.66643769  0.33952956  1
  Cs  Cs26  1  0.66555078  0.67188012  0.65844526  1
  Sn  Sn27  1  0.50019055  0.16719098  0.83332499  1
  Sn  Sn28  1  0.49973567  0.83343229  0.16622130  1
  Sn  Sn29  1  0.83214472  0.49908213  0.83418280  1
  Sn  Sn30  1  0.16724629  0.83432921  0.16738096  1
  Sn  Sn31  1  0.16693186  0.83353728  0.49894663  1
  Sn  Sn32  1  0.49967792  0.16661531  0.16692261  1
  Sn  Sn33  1  0.50036230  0.16675592  0.49968268  1
  Sn  Sn34  1  0.16659716  0.16683943  0.83432450  1
  Sn  Sn35  1  0.83310542  0.16716880  0.83367298  1
  Sn  Sn36  1  0.83274199  0.49949722  0.16622550  1
  Sn  Sn37  1  0.50080099  0.49995321  0.16593380  1
  Sn  Sn38  1  0.50049985  0.49970440  0.83392402  1
  Sn  Sn39  1  0.16680758  0.16627415  0.16595213  1
  Pb  Pb40  1  0.83365466  0.16886310  0.16508827  1
  Pb  Pb41  1  0.83308821  0.49986263  0.50087150  1
  Pb  Pb42  1  0.16856726  0.16521315  0.49961394  1
  Pb  Pb43  1  0.83370876  0.83036142  0.16642607  1
  Pb  Pb44  1  0.16715566  0.50303999  0.50015180  1
  Pb  Pb45  1  0.49838125  0.83606872  0.49682635  1
  Pb  Pb46  1  0.16721307  0.49728439  0.83336297  1
  Pb  Pb47  1  0.16681744  0.83606256  0.83436108  1
  Pb  Pb48  1  0.83630901  0.83353202  0.49979904  1
  Pb  Pb49  1  0.50003365  0.83291955  0.83585844  1
  Pb  Pb50  1  0.83302547  0.83261842  0.83361868  1
  Pb  Pb51  1  0.16675441  0.49944890  0.16674066  1
  Pb  Pb52  1  0.49981468  0.49801572  0.50016213  1
  Pb  Pb53  1  0.83007817  0.16669522  0.50345862  1
  I  I54  1  0.17492274  0.00084115  0.16585266  1
  I  I55  1  0.16890241  -0.00248454  0.49802165  1
  I  I56  1  0.16825999  0.00450478  0.83460620  1
  I  I57  1  0.17120841  0.32984880  0.16145167  1
  I  I58  1  0.16655110  0.33278743  0.49948959  1
  I  I59  1  0.16818737  0.32891022  0.84000226  1
  I  I60  1  0.17020993  0.66941377  0.17134792  1
  I  I61  1  0.16780456  0.67114172  0.49243775  1
  I  I62  1  0.16577061  0.66668697  0.83256513  1
  I  I63  1  0.49447399  0.00125496  0.16610764  1
  I  I64  1  0.49849198  0.00384240  0.50365284  1
  I  I65  1  0.49999651  0.00374520  0.83365664  1
  I  I66  1  0.49914857  0.33246320  0.16557755  1
  I  I67  1  0.49804284  0.32985777  0.49622746  1
  I  I68  1  0.50037051  0.33199574  0.83783930  1
  I  I69  1  0.49884636  0.66605414  0.16138390  1
  I  I70  1  0.49871107  0.66707081  0.50087763  1
  I  I71  1  0.50493382  0.66304934  0.83808685  1
  I  I72  1  0.83089556  0.00028597  0.16521424  1
  I  I73  1  0.83234723  0.00041116  0.50114526  1
  I  I74  1  0.83247213  0.00354136  0.83305678  1
  I  I75  1  0.82873337  0.33664853  0.16331381  1
  I  I76  1  0.83584447  0.33310155  0.49689784  1
  I  I77  1  0.83173490  0.33302739  0.83817015  1
  I  I78  1  0.82970312  0.66245042  0.15954912  1
  I  I79  1  0.83315982  0.66659601  0.50175207  1
  I  I80  1  0.82929601  0.66247369  0.83766230  1
  I  I81  1  0.17207548  0.16140139  0.00065580  1
  I  I82  1  0.17218529  0.16531335  0.32999664  1
  I  I83  1  0.16795079  0.16595126  0.66947957  1
  I  I84  1  0.16601368  0.50538954  0.00015093  1
  I  I85  1  0.16621066  0.49433188  0.33288292  1
  I  I86  1  0.16638525  0.49970690  0.66704483  1
  I  I87  1  0.17069363  0.83511116  0.00365826  1
  I  I88  1  0.17159402  0.83916528  0.33134457  1
  I  I89  1  0.16564632  0.83436335  0.66449959  1
  I  I90  1  0.49860223  0.16724532  0.00020314  1
  I  I91  1  0.49367435  0.16715370  0.33136420  1
  I  I92  1  0.49907057  0.17199807  0.66846516  1
  I  I93  1  0.50357559  0.49507187  0.00065334  1
  I  I94  1  0.50329420  0.49918574  0.32959262  1
  I  I95  1  0.50418519  0.49412375  0.67039171  1
  I  I96  1  0.49327167  0.83767635  0.00408451  1
  I  I97  1  0.49764933  0.83188363  0.32874079  1
  I  I98  1  0.49834657  0.83338657  0.66644463  1
  I  I99  1  0.82967209  0.16839517  -0.00317186  1
  I  I100  1  0.83372951  0.16812051  0.33327071  1
  I  I101  1  0.83611869  0.17382824  0.67183005  1
  I  I102  1  0.82879889  0.49644942  -0.00056237  1
  I  I103  1  0.82873177  0.50105215  0.33029910  1
  I  I104  1  0.82906699  0.49504777  0.67091248  1
  I  I105  1  0.83644326  0.83561178  0.00027663  1
  I  I106  1  0.83051351  0.83194228  0.33279652  1
  I  I107  1  0.83513354  0.83205383  0.66671470  1
  I  I108  1  0.00294538  0.16265704  0.16173268  1
  I  I109  1  0.00008155  0.16532914  0.50005473  1
  I  I110  1  0.00020682  0.16941012  0.83884638  1
  I  I111  1  -0.00276204  0.50076969  0.16112540  1
  I  I112  1  -0.00009240  0.49913430  0.49905993  1
  I  I113  1  -0.00315175  0.49664302  0.83826356  1
  I  I114  1  0.00348488  0.83805210  0.17049901  1
  I  I115  1  0.00432541  0.83566410  0.49236467  1
  I  I116  1  0.00016117  0.83323970  0.83465642  1
  I  I117  1  0.33462967  0.16747693  0.16232444  1
  I  I118  1  0.33632679  0.16635881  0.50412203  1
  I  I119  1  0.33454226  0.16963032  0.83436494  1
  I  I120  1  0.33685900  0.49970112  0.16232478  1
  I  I121  1  0.33383853  0.49862425  0.50001199  1
  I  I122  1  0.33707351  0.49573645  0.83858112  1
  I  I123  1  0.33365004  0.83272129  0.16956284  1
  I  I124  1  0.33061892  0.83433983  0.49818881  1
  I  I125  1  0.33340192  0.83224486  0.83137619  1
  I  I126  1  0.66323878  0.16371378  0.16621608  1
  I  I127  1  0.66214650  0.16681728  0.49639425  1
  I  I128  1  0.66542267  0.17125082  0.83376327  1
  I  I129  1  0.66488524  0.49921294  0.16207919  1
  I  I130  1  0.66636533  0.50062603  0.49894828  1
  I  I131  1  0.66578522  0.48974864  0.83962850  1
  I  I132  1  0.66345611  0.83768256  0.16481380  1
  I  I133  1  0.66627536  0.83342402  0.50009600  1
  I  I134  1  0.66631894  0.83948147  0.83487806  1
