# generated using pymatgen
data_Cs27Sn14Pb13I81
_symmetry_space_group_name_H-M   'P 1'
_cell_length_a   18.96879000
_cell_length_b   18.97798566
_cell_length_c   18.97892076
_cell_angle_alpha   90.00033480
_cell_angle_beta   89.99891424
_cell_angle_gamma   90.00165432
_symmetry_Int_Tables_number   1
_chemical_formula_structural   Cs27Sn14Pb13I81
_chemical_formula_sum   'Cs27 Sn14 Pb13 I81'
_cell_volume   6832.21075998
_cell_formula_units_Z   1
loop_
 _symmetry_equiv_pos_site_id
 _symmetry_equiv_pos_as_xyz
  1  'x, y, z'
loop_
 _atom_site_type_symbol
 _atom_site_label
 _atom_site_symmetry_multiplicity
 _atom_site_fract_x
 _atom_site_fract_y
 _atom_site_fract_z
 _atom_site_occupancy
  Cs  Cs0  1  0.00009204  -0.00993390  -0.00154971  1
  Cs  Cs1  1  -0.00672954  0.00261365  0.32870563  1
  Cs  Cs2  1  0.00301732  -0.00278196  0.67293679  1
  Cs  Cs3  1  -0.00237685  0.33380413  -0.00265614  1
  Cs  Cs4  1  -0.00232632  0.33272856  0.33506118  1
  Cs  Cs5  1  0.00093721  0.33486942  0.66633652  1
  Cs  Cs6  1  0.00062335  0.67300602  0.00236433  1
  Cs  Cs7  1  0.00207196  0.66671585  0.32948118  1
  Cs  Cs8  1  -0.00268365  0.66421103  0.66762968  1
  Cs  Cs9  1  0.33331696  0.00145943  -0.00056374  1
  Cs  Cs10  1  0.33593059  0.00232796  0.33511061  1
  Cs  Cs11  1  0.33306366  0.00145745  0.66588285  1
  Cs  Cs12  1  0.33554184  0.33398328  0.00183092  1
  Cs  Cs13  1  0.33284702  0.33254958  0.33351390  1
  Cs  Cs14  1  0.33205209  0.33238447  0.66626577  1
  Cs  Cs15  1  0.33487687  0.66331224  0.00632266  1
  Cs  Cs16  1  0.33135253  0.66604939  0.33304822  1
  Cs  Cs17  1  0.33455367  0.66430637  0.66308306  1
  Cs  Cs18  1  0.66636400  0.00104863  0.00093666  1
  Cs  Cs19  1  0.66917455  -0.00019756  0.33194442  1
  Cs  Cs20  1  0.66459933  -0.00384065  0.66638708  1
  Cs  Cs21  1  0.66598674  0.33482552  -0.00173747  1
  Cs  Cs22  1  0.67135007  0.33065869  0.33369571  1
  Cs  Cs23  1  0.66766556  0.33441083  0.66914690  1
  Cs  Cs24  1  0.66456130  0.66304473  -0.00221815  1
  Cs  Cs25  1  0.66793052  0.67012198  0.34014466  1
  Cs  Cs26  1  0.66800910  0.66991650  0.66480724  1
  Sn  Sn27  1  0.49974676  0.16778866  0.49999113  1
  Sn  Sn28  1  0.50075156  0.16610542  0.83322261  1
  Sn  Sn29  1  0.83324358  0.49984369  0.16587497  1
  Sn  Sn30  1  0.16749471  0.49993243  0.50075431  1
  Sn  Sn31  1  0.83443799  0.49923217  0.83439910  1
  Sn  Sn32  1  0.49947393  0.16612095  0.16679612  1
  Sn  Sn33  1  0.16685211  0.16691141  0.16699245  1
  Sn  Sn34  1  0.16708636  0.16635706  0.49908978  1
  Sn  Sn35  1  0.49946381  0.49865662  0.49997425  1
  Sn  Sn36  1  0.49979104  0.83391846  0.16584381  1
  Sn  Sn37  1  0.83276481  0.16702447  0.83325793  1
  Sn  Sn38  1  0.16627075  0.49992218  0.83336294  1
  Sn  Sn39  1  0.16649895  0.83381050  0.49990827  1
  Sn  Sn40  1  0.49938240  0.83401005  0.83434992  1
  Pb  Pb41  1  0.50202889  0.49952519  0.16974467  1
  Pb  Pb42  1  0.49862150  0.83395363  0.49981311  1
  Pb  Pb43  1  0.49997719  0.49976884  0.83139937  1
  Pb  Pb44  1  0.16979104  0.83004490  0.83164400  1
  Pb  Pb45  1  0.16700005  0.16809705  0.83350087  1
  Pb  Pb46  1  0.83333992  0.16793498  0.16404717  1
  Pb  Pb47  1  0.83023073  0.83053106  0.16652683  1
  Pb  Pb48  1  0.83089418  0.83297814  0.83340034  1
  Pb  Pb49  1  0.16489068  0.49777032  0.16692670  1
  Pb  Pb50  1  0.83374567  0.49986096  0.50049478  1
  Pb  Pb51  1  0.16909813  0.83633266  0.16891979  1
  Pb  Pb52  1  0.83725358  0.83371846  0.50005180  1
  Pb  Pb53  1  0.83360819  0.16640172  0.50299191  1
  I  I54  1  0.16764512  0.00435264  0.17091557  1
  I  I55  1  0.17291243  0.00157927  0.49647502  1
  I  I56  1  0.16347240  0.00003064  0.83206190  1
  I  I57  1  0.17413397  0.33004723  0.17199388  1
  I  I58  1  0.17131689  0.33319763  0.50054971  1
  I  I59  1  0.16734412  0.33593763  0.82715147  1
  I  I60  1  0.16687568  0.66664563  0.16780115  1
  I  I61  1  0.17152779  0.66524067  0.50530784  1
  I  I62  1  0.16163085  0.66222005  0.82740996  1
  I  I63  1  0.49642386  0.00173731  0.16811342  1
  I  I64  1  0.49543195  0.00331509  0.50102581  1
  I  I65  1  0.50537566  0.00195126  0.83110807  1
  I  I66  1  0.49738575  0.32999639  0.16371813  1
  I  I67  1  0.49214568  0.33206104  0.50084101  1
  I  I68  1  0.50093540  0.33049820  0.83519678  1
  I  I69  1  0.50238040  0.66870186  0.16265778  1
  I  I70  1  0.49650329  0.66461901  0.50054190  1
  I  I71  1  0.49929292  0.66859967  0.83563237  1
  I  I72  1  0.83558451  0.00013170  0.16568587  1
  I  I73  1  0.83084718  0.00039608  0.50087696  1
  I  I74  1  0.83133899  0.00285029  0.83208773  1
  I  I75  1  0.83088747  0.33574003  0.16453010  1
  I  I76  1  0.83612893  0.33324414  0.49840743  1
  I  I77  1  0.83021917  0.33385542  0.83646556  1
  I  I78  1  0.83393022  0.66272335  0.16043692  1
  I  I79  1  0.82957286  0.66632070  0.50245075  1
  I  I80  1  0.83615170  0.66328005  0.83574116  1
  I  I81  1  0.17096797  0.17048266  0.00219132  1
  I  I82  1  0.17520239  0.16898829  0.33459843  1
  I  I83  1  0.16995029  0.16617238  0.66378931  1
  I  I84  1  0.16484509  0.49688322  -0.00237306  1
  I  I85  1  0.16937360  0.50148068  0.33659017  1
  I  I86  1  0.16492621  0.49713428  0.66553282  1
  I  I87  1  0.16552928  0.83340194  0.00013995  1
  I  I88  1  0.17041292  0.82630142  0.33678237  1
  I  I89  1  0.17042260  0.83940131  0.66370921  1
  I  I90  1  0.49960493  0.16219640  -0.00004086  1
  I  I91  1  0.49466570  0.16690625  0.33351554  1
  I  I92  1  0.49941190  0.16686730  0.66653490  1
  I  I93  1  0.49805048  0.49866768  0.00002535  1
  I  I94  1  0.49464354  0.49724686  0.33744419  1
  I  I95  1  0.49965333  0.49665101  0.66356984  1
  I  I96  1  0.50015371  0.84115450  -0.00015438  1
  I  I97  1  0.49856803  0.83575060  0.33115910  1
  I  I98  1  0.49923544  0.83618088  0.66866780  1
  I  I99  1  0.82866028  0.17080420  -0.00362850  1
  I  I100  1  0.83152302  0.16862274  0.33315759  1
  I  I101  1  0.82935030  0.17451097  0.67072522  1
  I  I102  1  0.83709918  0.49517389  -0.00164285  1
  I  I103  1  0.83222572  0.49991018  0.33137084  1
  I  I104  1  0.83465027  0.49590647  0.66964849  1
  I  I105  1  0.83691064  0.83480689  -0.00008487  1
  I  I106  1  0.82937907  0.83091373  0.33311462  1
  I  I107  1  0.82882224  0.83083925  0.66698590  1
  I  I108  1  0.00252619  0.17060980  0.17243978  1
  I  I109  1  0.00378428  0.16876803  0.49583062  1
  I  I110  1  -0.00192939  0.17134431  0.83224381  1
  I  I111  1  -0.00279414  0.49672231  0.16735012  1
  I  I112  1  0.00347688  0.49886715  0.50142822  1
  I  I113  1  -0.00025720  0.49304072  0.82995280  1
  I  I114  1  0.00026267  0.83436618  0.16876788  1
  I  I115  1  0.00536882  0.83201893  0.50104896  1
  I  I116  1  0.00035622  0.83600635  0.83097744  1
  I  I117  1  0.33475913  0.16455293  0.16580161  1
  I  I118  1  0.33379217  0.16796116  0.50170114  1
  I  I119  1  0.33643998  0.16462188  0.83256183  1
  I  I120  1  0.33352579  0.50155926  0.16413373  1
  I  I121  1  0.33229776  0.49893866  0.50585133  1
  I  I122  1  0.33118159  0.49945525  0.82899527  1
  I  I123  1  0.33700411  0.83304912  0.16249863  1
  I  I124  1  0.33085477  0.83240401  0.50073077  1
  I  I125  1  0.33740586  0.84060727  0.83591539  1
  I  I126  1  0.66329604  0.16418204  0.16959772  1
  I  I127  1  0.66307563  0.17191739  0.49736098  1
  I  I128  1  0.66509599  0.16977399  0.83355352  1
  I  I129  1  0.66938472  0.49784405  0.16014099  1
  I  I130  1  0.66393306  0.49541085  0.49985732  1
  I  I131  1  0.66877632  0.49861198  0.83543702  1
  I  I132  1  0.66229421  0.84125205  0.16482184  1
  I  I133  1  0.66618168  0.83136491  0.50038765  1
  I  I134  1  0.66273312  0.83251677  0.83491116  1
