# generated using pymatgen
data_Cs27Sn13Pb14I81
_symmetry_space_group_name_H-M   'P 1'
_cell_length_a   18.97621089
_cell_length_b   18.97462500
_cell_length_c   18.97980922
_cell_angle_alpha   89.99920259
_cell_angle_beta   90.00009094
_cell_angle_gamma   89.99868009
_symmetry_Int_Tables_number   1
_chemical_formula_structural   Cs27Sn13Pb14I81
_chemical_formula_sum   'Cs27 Sn13 Pb14 I81'
_cell_volume   6833.99319878
_cell_formula_units_Z   1
loop_
 _symmetry_equiv_pos_site_id
 _symmetry_equiv_pos_as_xyz
  1  'x, y, z'
loop_
 _atom_site_type_symbol
 _atom_site_label
 _atom_site_symmetry_multiplicity
 _atom_site_fract_x
 _atom_site_fract_y
 _atom_site_fract_z
 _atom_site_occupancy
  Cs  Cs0  1  -0.00097895  -0.00095438  0.00154069  1
  Cs  Cs1  1  0.00125746  -0.00192707  0.33305672  1
  Cs  Cs2  1  -0.00148443  -0.00210454  0.66530339  1
  Cs  Cs3  1  -0.00142290  0.33459955  -0.00169164  1
  Cs  Cs4  1  -0.00099340  0.33541801  0.33292265  1
  Cs  Cs5  1  -0.00060225  0.33222421  0.66957931  1
  Cs  Cs6  1  0.00012306  0.66597352  0.00049503  1
  Cs  Cs7  1  0.00150612  0.66694011  0.33389768  1
  Cs  Cs8  1  0.00034642  0.66853009  0.66477612  1
  Cs  Cs9  1  0.34269440  0.00603911  0.00749140  1
  Cs  Cs10  1  0.33266603  0.00809377  0.32909015  1
  Cs  Cs11  1  0.33460772  0.00339643  0.66582201  1
  Cs  Cs12  1  0.33300078  0.33002831  -0.00707601  1
  Cs  Cs13  1  0.33474917  0.32734935  0.33395478  1
  Cs  Cs14  1  0.33798738  0.32644621  0.67295052  1
  Cs  Cs15  1  0.33694464  0.66576075  -0.00236725  1
  Cs  Cs16  1  0.32831829  0.66724593  0.33379316  1
  Cs  Cs17  1  0.33210540  0.66657174  0.66843117  1
  Cs  Cs18  1  0.66375815  -0.00203659  0.00049770  1
  Cs  Cs19  1  0.66708690  -0.00109822  0.33205535  1
  Cs  Cs20  1  0.66868462  -0.00202267  0.66774770  1
  Cs  Cs21  1  0.67023278  0.33336355  0.00153148  1
  Cs  Cs22  1  0.66598844  0.33633915  0.33450098  1
  Cs  Cs23  1  0.66436611  0.33576203  0.66286962  1
  Cs  Cs24  1  0.66524808  0.66821821  0.00111610  1
  Cs  Cs25  1  0.66679741  0.66494588  0.33448457  1
  Cs  Cs26  1  0.66459353  0.66675411  0.66450319  1
  Sn  Sn27  1  0.83344866  0.50062376  0.83372199  1
  Sn  Sn28  1  0.83377698  0.16727527  0.16689069  1
  Sn  Sn29  1  0.16621361  0.83379781  0.83323911  1
  Sn  Sn30  1  0.16692013  0.49972895  0.50008533  1
  Sn  Sn31  1  0.83351757  0.49961360  0.16608469  1
  Sn  Sn32  1  0.49939195  0.83320990  0.49962552  1
  Sn  Sn33  1  0.83332603  0.83389156  0.50058541  1
  Sn  Sn34  1  0.83372618  0.16598184  0.49987433  1
  Sn  Sn35  1  0.16711661  0.50011375  0.16708658  1
  Sn  Sn36  1  0.49950619  0.50015738  0.16678862  1
  Sn  Sn37  1  0.16707056  0.83279833  0.50068793  1
  Sn  Sn38  1  0.83364010  0.16637377  0.83323426  1
  Sn  Sn39  1  0.83427953  0.83300169  0.83262388  1
  Pb  Pb40  1  0.49978564  0.83114412  0.16944491  1
  Pb  Pb41  1  0.50293709  0.16414080  0.49992188  1
  Pb  Pb42  1  0.49974843  0.83332518  0.83135637  1
  Pb  Pb43  1  0.16451900  0.16295227  0.83342301  1
  Pb  Pb44  1  0.49635907  0.50170864  0.49825185  1
  Pb  Pb45  1  0.50314915  0.16651516  0.83322846  1
  Pb  Pb46  1  0.50278463  0.50019488  0.83535214  1
  Pb  Pb47  1  0.83480095  0.50029163  0.50004866  1
  Pb  Pb48  1  0.83335552  0.83299303  0.16655475  1
  Pb  Pb49  1  0.50290435  0.16956949  0.16681367  1
  Pb  Pb50  1  0.16415401  0.16977029  0.16648537  1
  Pb  Pb51  1  0.16449683  0.16651495  0.50014236  1
  Pb  Pb52  1  0.16679854  0.83174459  0.16619012  1
  Pb  Pb53  1  0.16485620  0.50166794  0.83307017  1
  I  I54  1  0.16442586  0.00021094  0.16794213  1
  I  I55  1  0.16666759  -0.00374759  0.50461557  1
  I  I56  1  0.15895143  -0.00505570  0.82447645  1
  I  I57  1  0.16693230  0.33826491  0.17357275  1
  I  I58  1  0.16243246  0.33624976  0.49371039  1
  I  I59  1  0.16435856  0.33332538  0.83339657  1
  I  I60  1  0.16106586  0.66308360  0.16905224  1
  I  I61  1  0.16279734  0.66780860  0.49873559  1
  I  I62  1  0.15858072  0.66962787  0.83138197  1
  I  I63  1  0.50163731  0.00033268  0.16678894  1
  I  I64  1  0.49593819  -0.00417812  0.50037184  1
  I  I65  1  0.50231355  -0.00028286  0.83389210  1
  I  I66  1  0.49934186  0.33745380  0.16894267  1
  I  I67  1  0.50142453  0.33336911  0.49850406  1
  I  I68  1  0.50053305  0.33348199  0.83228509  1
  I  I69  1  0.50536418  0.66303571  0.16639743  1
  I  I70  1  0.50744993  0.66977254  0.49917035  1
  I  I71  1  0.50456426  0.66677679  0.83441273  1
  I  I72  1  0.83323345  0.00267377  0.16515204  1
  I  I73  1  0.83474573  -0.00114668  0.50247324  1
  I  I74  1  0.83716597  -0.00054082  0.83195454  1
  I  I75  1  0.83356918  0.33432671  0.16383228  1
  I  I76  1  0.83581471  0.33122579  0.50187101  1
  I  I77  1  0.83288836  0.33340702  0.83480006  1
  I  I78  1  0.83359714  0.66315638  0.16404621  1
  I  I79  1  0.83263558  0.66965825  0.50256620  1
  I  I80  1  0.83681342  0.66721832  0.83373085  1
  I  I81  1  0.16272459  0.16671719  -0.00005937  1
  I  I82  1  0.16233550  0.16245675  0.33339287  1
  I  I83  1  0.16327639  0.17249187  0.66669314  1
  I  I84  1  0.16590378  0.50186199  0.00270132  1
  I  I85  1  0.16248592  0.50685849  0.33320757  1
  I  I86  1  0.16205855  0.50435518  0.66398441  1
  I  I87  1  0.15727846  0.83084153  -0.00329040  1
  I  I88  1  0.16376424  0.83002900  0.33680332  1
  I  I89  1  0.16359719  0.82643043  0.66526668  1
  I  I90  1  0.50210459  0.16545621  0.00023426  1
  I  I91  1  0.50362995  0.16576847  0.33333474  1
  I  I92  1  0.50219733  0.16816272  0.66639230  1
  I  I93  1  0.49626287  0.50116501  0.00376462  1
  I  I94  1  0.50805911  0.50177009  0.33024617  1
  I  I95  1  0.50158235  0.50121815  0.66646733  1
  I  I96  1  0.50122233  0.83255836  0.00002664  1
  I  I97  1  0.50273306  0.83210490  0.33752616  1
  I  I98  1  0.50244998  0.83140558  0.66328577  1
  I  I99  1  0.83396471  0.16845434  -0.00019755  1
  I  I100  1  0.83344064  0.16710223  0.33341442  1
  I  I101  1  0.83400115  0.16539470  0.66683704  1
  I  I102  1  0.83519048  0.49725574  0.00068078  1
  I  I103  1  0.83238209  0.49720331  0.33065730  1
  I  I104  1  0.83619335  0.49822151  0.66907795  1
  I  I105  1  0.83808189  0.83478738  -0.00323294  1
  I  I106  1  0.83444270  0.83577269  0.33664718  1
  I  I107  1  0.83391774  0.83578438  0.66622874  1
  I  I108  1  -0.00451077  0.17183590  0.16663190  1
  I  I109  1  -0.00424095  0.16124622  0.50005696  1
  I  I110  1  -0.00458447  0.16951376  0.83314005  1
  I  I111  1  -0.00097434  0.49659244  0.16677883  1
  I  I112  1  0.00234586  0.50617742  0.49418130  1
  I  I113  1  -0.00380600  0.49839933  0.83896757  1
  I  I114  1  -0.00024601  0.83073494  0.17101591  1
  I  I115  1  -0.00055746  0.83320983  0.50393662  1
  I  I116  1  -0.00182327  0.83281218  0.82519312  1
  I  I117  1  0.33348105  0.16665537  0.16747781  1
  I  I118  1  0.33332250  0.16607672  0.49870119  1
  I  I119  1  0.33320224  0.16635225  0.83343609  1
  I  I120  1  0.33250810  0.50489459  0.17348956  1
  I  I121  1  0.32844543  0.50741241  0.49422727  1
  I  I122  1  0.33307294  0.50323907  0.83475961  1
  I  I123  1  0.33318811  0.83012506  0.16582931  1
  I  I124  1  0.33199323  0.82529007  0.50393321  1
  I  I125  1  0.33001041  0.82933185  0.82830872  1
  I  I126  1  0.67144998  0.17185536  0.16635567  1
  I  I127  1  0.67170016  0.16301423  0.50041654  1
  I  I128  1  0.67236387  0.16345398  0.83388326  1
  I  I129  1  0.66834020  0.49625732  0.16224005  1
  I  I130  1  0.66685919  0.50100395  0.49910475  1
  I  I131  1  0.67183297  0.50213190  0.83743951  1
  I  I132  1  0.66703103  0.83069791  0.16731783  1
  I  I133  1  0.66842094  0.83758622  0.50324633  1
  I  I134  1  0.67048719  0.83400624  0.82967658  1
