# generated using pymatgen
data_Cs27Sn14Pb13I81
_symmetry_space_group_name_H-M   'P 1'
_cell_length_a   18.97233166
_cell_length_b   18.97592560
_cell_length_c   18.97886682
_cell_angle_alpha   89.99925464
_cell_angle_beta   89.99900846
_cell_angle_gamma   90.00102607
_symmetry_Int_Tables_number   1
_chemical_formula_structural   Cs27Sn14Pb13I81
_chemical_formula_sum   'Cs27 Sn14 Pb13 I81'
_cell_volume   6832.72521061
_cell_formula_units_Z   1
loop_
 _symmetry_equiv_pos_site_id
 _symmetry_equiv_pos_as_xyz
  1  'x, y, z'
loop_
 _atom_site_type_symbol
 _atom_site_label
 _atom_site_symmetry_multiplicity
 _atom_site_fract_x
 _atom_site_fract_y
 _atom_site_fract_z
 _atom_site_occupancy
  Cs  Cs0  1  -0.00515582  0.00700398  0.00070971  1
  Cs  Cs1  1  0.00177309  0.00230471  0.33066767  1
  Cs  Cs2  1  -0.00181382  0.00047313  0.66878495  1
  Cs  Cs3  1  -0.00022923  0.32571868  0.00109831  1
  Cs  Cs4  1  -0.00417013  0.33525958  0.33473476  1
  Cs  Cs5  1  -0.00094058  0.33519908  0.66486951  1
  Cs  Cs6  1  0.00422376  0.66846747  -0.00174215  1
  Cs  Cs7  1  -0.00193965  0.66242758  0.33598138  1
  Cs  Cs8  1  -0.00017428  0.66463492  0.66561476  1
  Cs  Cs9  1  0.33107403  0.00042720  -0.00072783  1
  Cs  Cs10  1  0.33325699  -0.00064017  0.33466897  1
  Cs  Cs11  1  0.33367013  0.00013928  0.66569343  1
  Cs  Cs12  1  0.33394480  0.33371054  -0.00064627  1
  Cs  Cs13  1  0.33392738  0.33175931  0.33604800  1
  Cs  Cs14  1  0.33525128  0.33370990  0.66672858  1
  Cs  Cs15  1  0.33263607  0.66625374  -0.00086537  1
  Cs  Cs16  1  0.33180869  0.66988834  0.32913828  1
  Cs  Cs17  1  0.33191588  0.66577314  0.66902941  1
  Cs  Cs18  1  0.67562725  -0.00077219  -0.00014643  1
  Cs  Cs19  1  0.66585611  -0.00705101  0.33513306  1
  Cs  Cs20  1  0.66742787  -0.00125168  0.66531507  1
  Cs  Cs21  1  0.66579720  0.33590152  0.00229208  1
  Cs  Cs22  1  0.66654973  0.33448911  0.33160576  1
  Cs  Cs23  1  0.66134862  0.33205592  0.66720755  1
  Cs  Cs24  1  0.66823544  0.66568763  0.00565311  1
  Cs  Cs25  1  0.67317836  0.67345048  0.32479170  1
  Cs  Cs26  1  0.66859074  0.66883351  0.66710474  1
  Sn  Sn27  1  0.50023454  0.50059323  0.83256935  1
  Sn  Sn28  1  0.49972110  0.16622361  0.83374113  1
  Sn  Sn29  1  0.16741889  0.83316773  0.83348749  1
  Sn  Sn30  1  0.16698262  0.83286086  0.16607182  1
  Sn  Sn31  1  0.49974614  0.16636059  0.16672160  1
  Sn  Sn32  1  0.16651574  0.50021091  0.83420304  1
  Sn  Sn33  1  0.50015093  0.50066141  0.49981934  1
  Sn  Sn34  1  0.16656878  0.16611720  0.50038800  1
  Sn  Sn35  1  0.16702550  0.83402373  0.50048029  1
  Sn  Sn36  1  0.50014688  0.16720901  0.49974143  1
  Sn  Sn37  1  0.83281316  0.16673638  0.50023972  1
  Sn  Sn38  1  0.83332236  0.49984391  0.83329344  1
  Sn  Sn39  1  0.49948523  0.83315030  0.83333157  1
  Sn  Sn40  1  0.16711811  0.50004351  0.16580162  1
  Pb  Pb41  1  0.83665429  0.49981586  0.16388646  1
  Pb  Pb42  1  0.82998590  0.16682427  0.16955041  1
  Pb  Pb43  1  0.49795989  0.83587720  0.16354255  1
  Pb  Pb44  1  0.83020821  0.16913800  0.83133114  1
  Pb  Pb45  1  0.82960289  0.49835757  0.50189488  1
  Pb  Pb46  1  0.83656395  0.83559331  0.50024047  1
  Pb  Pb47  1  0.16856444  0.50014015  0.50022768  1
  Pb  Pb48  1  0.49832184  0.83273092  0.50167959  1
  Pb  Pb49  1  0.16829743  0.16698769  0.16903964  1
  Pb  Pb50  1  0.16826115  0.16683803  0.83126411  1
  Pb  Pb51  1  0.49810870  0.49874723  0.16677120  1
  Pb  Pb52  1  0.83372606  0.83103188  0.83324489  1
  Pb  Pb53  1  0.83702266  0.83328552  0.16650253  1
  I  I54  1  0.16916377  -0.00258679  0.16471766  1
  I  I55  1  0.16959498  0.00025272  0.50006986  1
  I  I56  1  0.17222998  -0.00278135  0.83462679  1
  I  I57  1  0.16883307  0.33584131  0.16179360  1
  I  I58  1  0.16699164  0.33082766  0.50012679  1
  I  I59  1  0.16829785  0.33646007  0.83639230  1
  I  I60  1  0.16874811  0.66695119  0.16754119  1
  I  I61  1  0.16982895  0.66907898  0.50050229  1
  I  I62  1  0.17128349  0.66643783  0.83201517  1
  I  I63  1  0.49626627  0.00366884  0.16985168  1
  I  I64  1  0.50076965  0.00317557  0.50139673  1
  I  I65  1  0.49318771  0.00020060  0.83210607  1
  I  I66  1  0.49611489  0.33070743  0.16337209  1
  I  I67  1  0.49686013  0.33182595  0.50540794  1
  I  I68  1  0.49925724  0.33367185  0.83162290  1
  I  I69  1  0.50018054  0.66698885  0.16773703  1
  I  I70  1  0.49567563  0.66391973  0.50719774  1
  I  I71  1  0.49785145  0.66562515  0.82740098  1
  I  I72  1  0.83574982  0.00031470  0.16504467  1
  I  I73  1  0.82631887  0.00380116  0.50146593  1
  I  I74  1  0.83352095  0.00030608  0.83278630  1
  I  I75  1  0.83707015  0.33325011  0.16631938  1
  I  I76  1  0.83911718  0.33028878  0.50131030  1
  I  I77  1  0.83554887  0.33682848  0.83208963  1
  I  I78  1  0.82836518  0.66639101  0.16806468  1
  I  I79  1  0.83398309  0.66649960  0.50105555  1
  I  I80  1  0.82922461  0.66316066  0.83165738  1
  I  I81  1  0.16897187  0.16480067  -0.00013873  1
  I  I82  1  0.17046123  0.16317327  0.33712087  1
  I  I83  1  0.17016550  0.16354837  0.66313649  1
  I  I84  1  0.16937124  0.50780595  -0.00174063  1
  I  I85  1  0.17011443  0.50258610  0.33157431  1
  I  I86  1  0.16642338  0.50266782  0.66971623  1
  I  I87  1  0.17204769  0.82658270  -0.00102971  1
  I  I88  1  0.16693960  0.83402420  0.33343008  1
  I  I89  1  0.17093256  0.83311507  0.66760551  1
  I  I90  1  0.49728169  0.16815320  -0.00118225  1
  I  I91  1  0.49861037  0.17259308  0.33503553  1
  I  I92  1  0.49917851  0.16844351  0.66640916  1
  I  I93  1  0.50078849  0.49830810  -0.00358428  1
  I  I94  1  0.49571744  0.49180336  0.33592117  1
  I  I95  1  0.49672802  0.49405602  0.66828325  1
  I  I96  1  0.49339605  0.83124027  -0.00462919  1
  I  I97  1  0.49737878  0.83443073  0.33316230  1
  I  I98  1  0.49339254  0.83671997  0.66996758  1
  I  I99  1  0.83280441  0.16690897  -0.00015044  1
  I  I100  1  0.83356372  0.16831829  0.33744875  1
  I  I101  1  0.83214064  0.16717681  0.66358592  1
  I  I102  1  0.82573764  0.49954684  -0.00414311  1
  I  I103  1  0.83420545  0.49844491  0.33343123  1
  I  I104  1  0.83921831  0.49960043  0.66977443  1
  I  I105  1  0.83388876  0.83457660  -0.00034825  1
  I  I106  1  0.83259724  0.83317730  0.33348203  1
  I  I107  1  0.83594590  0.83378638  0.66681056  1
  I  I108  1  0.00015448  0.16606541  0.16822501  1
  I  I109  1  0.00090182  0.16157620  0.50037747  1
  I  I110  1  -0.00006939  0.16677473  0.83129951  1
  I  I111  1  0.00492807  0.50360713  0.16370731  1
  I  I112  1  0.00016082  0.49833911  0.50084569  1
  I  I113  1  0.00163239  0.50567404  0.83678993  1
  I  I114  1  0.00555224  0.83080493  0.16381465  1
  I  I115  1  0.00523155  0.83713931  0.50312698  1
  I  I116  1  0.00399939  0.82833941  0.83276524  1
  I  I117  1  0.33611418  0.16718953  0.16862836  1
  I  I118  1  0.33444256  0.16658155  0.50031807  1
  I  I119  1  0.33669610  0.17097000  0.83019876  1
  I  I120  1  0.33017464  0.50316398  0.16070204  1
  I  I121  1  0.33620455  0.49257009  0.50678775  1
  I  I122  1  0.33361742  0.50053480  0.83315384  1
  I  I123  1  0.32979226  0.82997283  0.16871480  1
  I  I124  1  0.33002122  0.83950442  0.49917466  1
  I  I125  1  0.33255239  0.82896797  0.83254076  1
  I  I126  1  0.66196440  0.16886673  0.16623576  1
  I  I127  1  0.66481632  0.17300711  0.50129816  1
  I  I128  1  0.66171789  0.16593329  0.83062815  1
  I  I129  1  0.66651664  0.49733070  0.16625256  1
  I  I130  1  0.66160454  0.49246439  0.50695908  1
  I  I131  1  0.66483154  0.49817400  0.82701934  1
  I  I132  1  0.66635221  0.83477903  0.16593880  1
  I  I133  1  0.66647356  0.83448905  0.50263101  1
  I  I134  1  0.66338336  0.83406147  0.83143676  1
