# generated using pymatgen
data_Cs27Sn13Pb14I81
_symmetry_space_group_name_H-M   'P 1'
_cell_length_a   19.07882246
_cell_length_b   19.09505934
_cell_length_c   19.09249818
_cell_angle_alpha   89.99826233
_cell_angle_beta   89.99943440
_cell_angle_gamma   90.00278642
_symmetry_Int_Tables_number   1
_chemical_formula_structural   Cs27Sn13Pb14I81
_chemical_formula_sum   'Cs27 Sn13 Pb14 I81'
_cell_volume   6955.61180959
_cell_formula_units_Z   1
loop_
 _symmetry_equiv_pos_site_id
 _symmetry_equiv_pos_as_xyz
  1  'x, y, z'
loop_
 _atom_site_type_symbol
 _atom_site_label
 _atom_site_symmetry_multiplicity
 _atom_site_fract_x
 _atom_site_fract_y
 _atom_site_fract_z
 _atom_site_occupancy
  Cs  Cs0  1  -0.00055862  0.00325749  0.00434016  1
  Cs  Cs1  1  0.00085653  -0.00584506  0.33327948  1
  Cs  Cs2  1  0.00262345  0.00171608  0.66621274  1
  Cs  Cs3  1  0.00398374  0.32338458  0.00878381  1
  Cs  Cs4  1  0.00262378  0.33165217  0.33584291  1
  Cs  Cs5  1  0.00021573  0.32919721  0.66297974  1
  Cs  Cs6  1  -0.00064648  0.67041218  -0.00207374  1
  Cs  Cs7  1  -0.00321754  0.67156551  0.33438139  1
  Cs  Cs8  1  -0.00166563  0.66782085  0.66706144  1
  Cs  Cs9  1  0.34731507  -0.00598698  -0.00215578  1
  Cs  Cs10  1  0.34433597  -0.00078741  0.33196460  1
  Cs  Cs11  1  0.33810521  -0.00041501  0.67065433  1
  Cs  Cs12  1  0.33723811  0.35259277  0.01704781  1
  Cs  Cs13  1  0.32951488  0.33358648  0.32199462  1
  Cs  Cs14  1  0.33217267  0.33181525  0.66759486  1
  Cs  Cs15  1  0.34520023  0.65397641  -0.01564068  1
  Cs  Cs16  1  0.33715094  0.66841219  0.33019899  1
  Cs  Cs17  1  0.33089611  0.66783037  0.68193078  1
  Cs  Cs18  1  0.66009388  0.01791613  -0.00187483  1
  Cs  Cs19  1  0.65137624  -0.00197799  0.33363741  1
  Cs  Cs20  1  0.65485352  0.00621129  0.66743082  1
  Cs  Cs21  1  0.66035343  0.31752651  -0.00581328  1
  Cs  Cs22  1  0.66594559  0.33536118  0.33623030  1
  Cs  Cs23  1  0.66496850  0.33163758  0.66804005  1
  Cs  Cs24  1  0.66781634  0.66531129  0.00486378  1
  Cs  Cs25  1  0.67197832  0.66827552  0.33305236  1
  Cs  Cs26  1  0.67559287  0.66415177  0.66447565  1
  Sn  Sn27  1  0.83380327  0.83339968  0.83374604  1
  Sn  Sn28  1  0.16613970  0.83316461  0.49918518  1
  Sn  Sn29  1  0.83398102  0.83470114  0.50052437  1
  Sn  Sn30  1  0.83476420  0.49998343  0.83462294  1
  Sn  Sn31  1  0.49897630  0.50078935  0.50028809  1
  Sn  Sn32  1  0.16660811  0.50100715  0.49998868  1
  Sn  Sn33  1  0.83407210  0.83307679  0.16617543  1
  Sn  Sn34  1  0.16582895  0.16577117  0.50035332  1
  Sn  Sn35  1  0.16621552  0.83302887  0.16655088  1
  Sn  Sn36  1  0.83423198  0.49975683  0.50001997  1
  Sn  Sn37  1  0.83407751  0.50030371  0.16581259  1
  Sn  Sn38  1  0.16611747  0.16678364  0.83365968  1
  Sn  Sn39  1  0.83449653  0.16536713  0.49944556  1
  Pb  Pb40  1  0.16351160  0.50362342  0.16929070  1
  Pb  Pb41  1  0.50446911  0.83279296  0.83318903  1
  Pb  Pb42  1  0.16419749  0.83534418  0.83383337  1
  Pb  Pb43  1  0.50416205  0.50070313  0.16953518  1
  Pb  Pb44  1  0.83549628  0.16649739  0.83048789  1
  Pb  Pb45  1  0.16302565  0.49739894  0.83116823  1
  Pb  Pb46  1  0.50009064  0.83229993  0.16623363  1
  Pb  Pb47  1  0.16644452  0.16317616  0.16726411  1
  Pb  Pb48  1  0.49490920  0.16782639  0.83266678  1
  Pb  Pb49  1  0.49942394  0.16736675  0.16717616  1
  Pb  Pb50  1  0.50375715  0.49981573  0.83029150  1
  Pb  Pb51  1  0.49848983  0.16971909  0.50009089  1
  Pb  Pb52  1  0.83377230  0.16569474  0.17043281  1
  Pb  Pb53  1  0.49915828  0.83019440  0.50051595  1
  I  I54  1  0.15242000  -0.00389846  0.17632219  1
  I  I55  1  0.15324241  -0.00050451  0.50002826  1
  I  I56  1  0.16105550  0.00206906  0.82143149  1
  I  I57  1  0.16831515  0.33341656  0.16557081  1
  I  I58  1  0.16123348  0.33385143  0.50828947  1
  I  I59  1  0.16204180  0.33038157  0.82064285  1
  I  I60  1  0.16227719  0.67058980  0.17721272  1
  I  I61  1  0.16116154  0.66666675  0.49210943  1
  I  I62  1  0.17250863  0.66654153  0.83337798  1
  I  I63  1  0.50337349  -0.00053123  0.16689163  1
  I  I64  1  0.50281958  -0.00001690  0.49922346  1
  I  I65  1  0.50455316  0.00037815  0.83440305  1
  I  I66  1  0.49980704  0.33419751  0.16655468  1
  I  I67  1  0.50645064  0.33690088  0.50071306  1
  I  I68  1  0.50847664  0.33355057  0.83195999  1
  I  I69  1  0.49559574  0.66644924  0.16763408  1
  I  I70  1  0.50495807  0.66318201  0.49781091  1
  I  I71  1  0.48857077  0.66628193  0.83384844  1
  I  I72  1  0.84014378  -0.00345163  0.16484554  1
  I  I73  1  0.84529374  -0.00061111  0.50039972  1
  I  I74  1  0.83604932  -0.00276128  0.83461019  1
  I  I75  1  0.83117141  0.33594630  0.16760288  1
  I  I76  1  0.83554825  0.33426245  0.50028914  1
  I  I77  1  0.83279793  0.33611261  0.83134768  1
  I  I78  1  0.83696163  0.66704813  0.17477355  1
  I  I79  1  0.83403476  0.66662534  0.50030958  1
  I  I80  1  0.83429552  0.66658194  0.82401132  1
  I  I81  1  0.16214848  0.16314527  -0.00251474  1
  I  I82  1  0.16150048  0.17336048  0.33697304  1
  I  I83  1  0.15924212  0.16455088  0.66357687  1
  I  I84  1  0.16711231  0.49625611  0.00029859  1
  I  I85  1  0.16496280  0.48847621  0.33750947  1
  I  I86  1  0.16369940  0.50944538  0.66244781  1
  I  I87  1  0.15650869  0.83996565  0.00305719  1
  I  I88  1  0.15370445  0.83476611  0.33545201  1
  I  I89  1  0.16199872  0.82892801  0.66320153  1
  I  I90  1  0.50237812  0.16509046  -0.00053166  1
  I  I91  1  0.49884305  0.16477701  0.33400399  1
  I  I92  1  0.50735074  0.16603443  0.66623668  1
  I  I93  1  0.49719751  0.49907579  -0.00007678  1
  I  I94  1  0.50274915  0.49861014  0.33694424  1
  I  I95  1  0.50341268  0.49963023  0.66300491  1
  I  I96  1  0.49445759  0.83344123  -0.00008060  1
  I  I97  1  0.50700451  0.83525958  0.33377703  1
  I  I98  1  0.49760519  0.83496274  0.66656506  1
  I  I99  1  0.83254561  0.16800511  0.00016659  1
  I  I100  1  0.84334827  0.17068144  0.33786897  1
  I  I101  1  0.83475740  0.16863928  0.66274757  1
  I  I102  1  0.83458160  0.51533251  0.00007163  1
  I  I103  1  0.83190153  0.50310335  0.33532139  1
  I  I104  1  0.83199913  0.50453664  0.66436660  1
  I  I105  1  0.84025296  0.81897694  0.00052936  1
  I  I106  1  0.83835595  0.82815994  0.33452981  1
  I  I107  1  0.83818405  0.82686164  0.66471052  1
  I  I108  1  -0.00007277  0.17302663  0.16105660  1
  I  I109  1  -0.00030835  0.17409156  0.50440874  1
  I  I110  1  0.00222916  0.16707115  0.82860812  1
  I  I111  1  -0.00380608  0.50024546  0.17138756  1
  I  I112  1  -0.00117856  0.49924431  0.50006837  1
  I  I113  1  -0.00413628  0.50772453  0.82719487  1
  I  I114  1  -0.00181459  0.82841019  0.17017605  1
  I  I115  1  -0.00146914  0.82735817  0.49972239  1
  I  I116  1  -0.00331237  0.82609689  0.83100438  1
  I  I117  1  0.33258913  0.16420880  0.17155209  1
  I  I118  1  0.32965776  0.16464081  0.50607842  1
  I  I119  1  0.32842513  0.16143416  0.81605957  1
  I  I120  1  0.33346860  0.49823050  0.16766420  1
  I  I121  1  0.33224678  0.49833343  0.49964770  1
  I  I122  1  0.33332414  0.49816662  0.83278840  1
  I  I123  1  0.33018160  0.84092581  0.18008832  1
  I  I124  1  0.32985852  0.83627281  0.49037121  1
  I  I125  1  0.33341213  0.83778427  0.83364659  1
  I  I126  1  0.66721336  0.16284456  0.16690955  1
  I  I127  1  0.66930816  0.16546870  0.49843663  1
  I  I128  1  0.66621692  0.16532171  0.83495885  1
  I  I129  1  0.67161236  0.51205312  0.17124336  1
  I  I130  1  0.66961703  0.50002912  0.49971486  1
  I  I131  1  0.67149951  0.50619098  0.82891443  1
  I  I132  1  0.67037980  0.82609492  0.17018457  1
  I  I133  1  0.67025811  0.83398665  0.49852444  1
  I  I134  1  0.67229677  0.82722783  0.83022986  1
