# generated using pymatgen
data_Cs27Sn13Pb14I81
_symmetry_space_group_name_H-M   'P 1'
_cell_length_a   18.97810974
_cell_length_b   18.97692738
_cell_length_c   18.97810972
_cell_angle_alpha   89.99770647
_cell_angle_beta   90.00273320
_cell_angle_gamma   89.99770648
_symmetry_Int_Tables_number   1
_chemical_formula_structural   Cs27Sn13Pb14I81
_chemical_formula_sum   'Cs27 Sn13 Pb14 I81'
_cell_volume   6834.89427729
_cell_formula_units_Z   1
loop_
 _symmetry_equiv_pos_site_id
 _symmetry_equiv_pos_as_xyz
  1  'x, y, z'
loop_
 _atom_site_type_symbol
 _atom_site_label
 _atom_site_symmetry_multiplicity
 _atom_site_fract_x
 _atom_site_fract_y
 _atom_site_fract_z
 _atom_site_occupancy
  Cs  Cs0  1  0.00027634  -0.00163955  -0.00047469  1
  Cs  Cs1  1  -0.00355059  0.00329042  0.33189112  1
  Cs  Cs2  1  0.00100780  -0.00026834  0.66767441  1
  Cs  Cs3  1  0.00376364  0.33121524  0.00292586  1
  Cs  Cs4  1  0.00093242  0.33555393  0.33378842  1
  Cs  Cs5  1  -0.00292375  0.33332502  0.66374283  1
  Cs  Cs6  1  -0.00261439  0.67217018  -0.00341289  1
  Cs  Cs7  1  0.00356388  0.66226168  0.33598546  1
  Cs  Cs8  1  0.00069041  0.66695883  0.66735683  1
  Cs  Cs9  1  0.33226833  0.00135622  -0.00106499  1
  Cs  Cs10  1  0.33538367  -0.00091140  0.33439216  1
  Cs  Cs11  1  0.33285861  -0.00163972  0.66694301  1
  Cs  Cs12  1  0.33342462  0.33289077  0.00009126  1
  Cs  Cs13  1  0.33244670  0.33403609  0.33111508  1
  Cs  Cs14  1  0.33625929  0.33121523  0.67043022  1
  Cs  Cs15  1  0.33266519  0.66683760  -0.00066812  1
  Cs  Cs16  1  0.33393875  0.66725564  0.33737342  1
  Cs  Cs17  1  0.32992038  0.67217035  0.66405245  1
  Cs  Cs18  1  0.66772552  -0.00091133  0.00205020  1
  Cs  Cs19  1  0.66647653  -0.00239029  0.33314317  1
  Cs  Cs20  1  0.66522441  0.00329018  0.66311618  1
  Cs  Cs21  1  0.66444842  0.33403614  -0.00088673  1
  Cs  Cs22  1  0.66714484  0.33274480  0.33381145  1
  Cs  Cs23  1  0.66712166  0.33555411  0.66759910  1
  Cs  Cs24  1  0.67070696  0.66725558  0.00060545  1
  Cs  Cs25  1  0.66293051  0.67100790  0.32959723  1
  Cs  Cs26  1  0.66931883  0.66226169  0.67023052  1
  Sn  Sn27  1  0.83337361  0.83302686  0.50004029  1
  Sn  Sn28  1  0.83394788  0.16686740  0.83414715  1
  Sn  Sn29  1  0.16748044  0.16686740  0.50061459  1
  Sn  Sn30  1  0.50075190  0.16726640  0.16741862  1
  Sn  Sn31  1  0.16570845  0.16758822  0.83237511  1
  Sn  Sn32  1  0.16655915  0.49925274  0.83322583  1
  Sn  Sn33  1  0.50043247  0.83333407  0.83348059  1
  Sn  Sn34  1  0.49993691  0.49917395  0.49948077  1
  Sn  Sn35  1  0.50065631  0.49910467  0.16732300  1
  Sn  Sn36  1  0.16681391  0.83333408  0.16709914  1
  Sn  Sn37  1  0.49909299  0.16765641  0.49905425  1
  Sn  Sn38  1  0.83281412  0.49917394  0.16660358  1
  Sn  Sn39  1  0.83238759  0.16765642  0.16575967  1
  Pb  Pb40  1  0.50001305  0.16555694  0.83353468  1
  Pb  Pb41  1  0.16696672  0.50208969  0.16500205  1
  Pb  Pb42  1  0.16686808  0.16555694  0.16667975  1
  Pb  Pb43  1  0.83562477  0.49746482  0.83570259  1
  Pb  Pb44  1  0.16459378  0.83593002  0.49791616  1
  Pb  Pb45  1  0.50150970  0.83330095  0.50190305  1
  Pb  Pb46  1  0.49845862  0.83333015  0.16512529  1
  Pb  Pb47  1  0.83523639  0.83330097  0.16817638  1
  Pb  Pb48  1  0.16903592  0.49746481  0.50229137  1
  Pb  Pb49  1  0.83124952  0.83593001  0.83126044  1
  Pb  Pb50  1  0.16789231  0.83395127  0.83455901  1
  Pb  Pb51  1  0.83294524  0.16603862  0.49961194  1
  Pb  Pb52  1  0.83087203  0.50227574  0.49753869  1
  Pb  Pb53  1  0.49833536  0.50208969  0.83363334  1
  I  I54  1  0.16679254  -0.00183638  0.16460007  1
  I  I55  1  0.17313233  0.00388123  0.50601745  1
  I  I56  1  0.16462459  0.00331530  0.83129103  1
  I  I57  1  0.16642842  0.33329945  0.16722134  1
  I  I58  1  0.16643224  0.32936008  0.49963448  1
  I  I59  1  0.16503450  0.33160103  0.83170141  1
  I  I60  1  0.16669219  0.66940512  0.16357818  1
  I  I61  1  0.16742343  0.66654266  0.50097106  1
  I  I62  1  0.17029811  0.66477362  0.83696460  1
  I  I63  1  0.50289948  0.00319119  0.16956621  1
  I  I64  1  0.49816192  0.00317954  0.49718357  1
  I  I65  1  0.49793316  -0.00183635  0.83345933  1
  I  I66  1  0.50303082  0.33265544  0.16969740  1
  I  I67  1  0.49676183  0.33214274  0.49649166  1
  I  I68  1  0.50055473  0.33329944  0.83309541  1
  I  I69  1  0.50252200  0.66360123  0.16918878  1
  I  I70  1  0.50229433  0.66399938  0.49596996  1
  I  I71  1  0.49691156  0.66940513  0.83335841  1
  I  I72  1  0.83051695  0.00317956  0.16482861  1
  I  I73  1  0.83125323  -0.00146860  0.49791977  1
  I  I74  1  0.83935081  0.00388121  0.83979910  1
  I  I75  1  0.82982519  0.33214271  0.16342850  1
  I  I76  1  0.83485778  0.33342445  0.50152434  1
  I  I77  1  0.83296789  0.32936007  0.83309910  1
  I  I78  1  0.82930304  0.66399940  0.16896093  1
  I  I79  1  0.83171284  0.66968223  0.49837973  1
  I  I80  1  0.83430424  0.66654266  0.83409013  1
  I  I81  1  0.16625868  0.16799280  -0.00239710  1
  I  I82  1  0.16770584  0.16330269  0.33543776  1
  I  I83  1  0.16707301  0.16912363  0.66727365  1
  I  I84  1  0.16955230  0.49291335  -0.00260515  1
  I  I85  1  0.16499772  0.50023241  0.33336369  1
  I  I86  1  0.16870747  0.49943850  0.67010322  1
  I  I87  1  0.16685811  0.83589808  0.00222257  1
  I  I88  1  0.16787431  0.83430633  0.33048292  1
  I  I89  1  0.16721274  0.83226247  0.66653086  1
  I  I90  1  0.50036720  0.16932008  0.00280259  1
  I  I91  1  0.49976049  0.16893185  0.33302862  1
  I  I92  1  0.49948099  0.16846856  0.66414971  1
  I  I93  1  0.50172789  0.49621377  0.00321960  1
  I  I94  1  0.50291118  0.49650938  0.33244791  1
  I  I95  1  0.49798104  0.49621590  0.66412868  1
  I  I96  1  0.49854202  0.83480702  -0.00233654  1
  I  I97  1  0.49968206  0.83374805  0.33335647  1
  I  I98  1  0.49896098  0.83496790  0.66926458  1
  I  I99  1  0.83342764  0.16874972  0.00094616  1
  I  I100  1  0.83297509  0.16787836  0.33042789  1
  I  I101  1  0.83443992  0.16289633  0.66867025  1
  I  I102  1  0.82588734  0.49990615  0.00365047  1
  I  I103  1  0.83397877  0.49254740  0.32957188  1
  I  I104  1  0.83212273  0.50010426  0.66672216  1
  I  I105  1  0.83375744  0.83240629  0.00004693  1
  I  I106  1  0.83219261  0.83762291  0.33551036  1
  I  I107  1  0.83272774  0.83611881  0.66383021  1
  I  I108  1  -0.00251700  0.16846835  0.16614751  1
  I  I109  1  0.00200358  0.16289631  0.50110664  1
  I  I110  1  0.00060695  0.16912349  0.83373956  1
  I  I111  1  -0.00253804  0.49621641  0.16464735  1
  I  I112  1  0.00005550  0.50010444  0.49878960  1
  I  I113  1  0.00343657  0.49943872  0.83537432  1
  I  I114  1  0.00259791  0.83496752  0.16562758  1
  I  I115  1  -0.00283647  0.83611859  0.49939455  1
  I  I116  1  -0.00013580  0.83226244  0.83387938  1
  I  I117  1  0.33613592  0.16932023  0.16703335  1
  I  I118  1  0.33427943  0.16874978  0.50009458  1
  I  I119  1  0.33093622  0.16799306  0.83292566  1
  I  I120  1  0.33655290  0.49621353  0.16839454  1
  I  I121  1  0.33698385  0.49990611  0.49255423  1
  I  I122  1  0.33072818  0.49291321  0.83621874  1
  I  I123  1  0.33099682  0.83480723  0.16520902  1
  I  I124  1  0.33338024  0.83240637  0.50042409  1
  I  I125  1  0.33555593  0.83589785  0.83352450  1
  I  I126  1  0.66636199  0.16893185  0.16642781  1
  I  I127  1  0.66376124  0.16787833  0.49964131  1
  I  I128  1  0.66877113  0.16330261  0.83437244  1
  I  I129  1  0.66578132  0.49650932  0.16957799  1
  I  I130  1  0.66290521  0.49254733  0.50064516  1
  I  I131  1  0.66669701  0.50023235  0.83166449  1
  I  I132  1  0.66668986  0.83374814  0.16634861  1
  I  I133  1  0.66884370  0.83762303  0.49885933  1
  I  I134  1  0.66381620  0.83430668  0.83454103  1
