# generated using pymatgen
data_Cs27Sn14Pb13I81
_symmetry_space_group_name_H-M   'P 1'
_cell_length_a   18.96184154
_cell_length_b   18.95981149
_cell_length_c   18.96165922
_cell_angle_alpha   89.99961741
_cell_angle_beta   90.00023111
_cell_angle_gamma   89.99800525
_symmetry_Int_Tables_number   1
_chemical_formula_structural   Cs27Sn14Pb13I81
_chemical_formula_sum   'Cs27 Sn14 Pb13 I81'
_cell_volume   6816.96187360
_cell_formula_units_Z   1
loop_
 _symmetry_equiv_pos_site_id
 _symmetry_equiv_pos_as_xyz
  1  'x, y, z'
loop_
 _atom_site_type_symbol
 _atom_site_label
 _atom_site_symmetry_multiplicity
 _atom_site_fract_x
 _atom_site_fract_y
 _atom_site_fract_z
 _atom_site_occupancy
  Cs  Cs0  1  0.00018033  0.00173632  -0.00204108  1
  Cs  Cs1  1  0.00073758  0.00063290  0.33525765  1
  Cs  Cs2  1  0.00179887  0.00032388  0.66665381  1
  Cs  Cs3  1  -0.00198718  0.33235581  0.00012496  1
  Cs  Cs4  1  -0.00173227  0.33370771  0.33345095  1
  Cs  Cs5  1  0.00081819  0.33158921  0.66761460  1
  Cs  Cs6  1  -0.00006245  0.66428397  0.00375975  1
  Cs  Cs7  1  0.00119372  0.66415657  0.33083322  1
  Cs  Cs8  1  -0.00074127  0.67020098  0.66392942  1
  Cs  Cs9  1  0.33475307  0.00000377  0.00164748  1
  Cs  Cs10  1  0.33438737  -0.00073154  0.33476614  1
  Cs  Cs11  1  0.33082503  0.00143517  0.66454844  1
  Cs  Cs12  1  0.33284987  0.33231872  -0.00293017  1
  Cs  Cs13  1  0.33450534  0.33280524  0.33513936  1
  Cs  Cs14  1  0.33367708  0.33556605  0.66700107  1
  Cs  Cs15  1  0.33349561  0.66687126  -0.00025712  1
  Cs  Cs16  1  0.32904158  0.66850471  0.33321484  1
  Cs  Cs17  1  0.33631538  0.66067294  0.66698842  1
  Cs  Cs18  1  0.66452385  -0.00142536  0.00008828  1
  Cs  Cs19  1  0.66407093  0.00088753  0.33420134  1
  Cs  Cs20  1  0.66753196  -0.00261815  0.66597880  1
  Cs  Cs21  1  0.66952526  0.33273196  0.00322641  1
  Cs  Cs22  1  0.66837745  0.33469278  0.33126873  1
  Cs  Cs23  1  0.66516968  0.33386636  0.66480042  1
  Cs  Cs24  1  0.66697240  0.66736289  -0.00202781  1
  Cs  Cs25  1  0.66959537  0.66142457  0.33447652  1
  Cs  Cs26  1  0.66385955  0.66936310  0.66782890  1
  Sn  Sn27  1  0.49998192  0.50002270  0.16643418  1
  Sn  Sn28  1  0.16609222  0.16657018  0.16667956  1
  Sn  Sn29  1  0.16749867  0.16628493  0.50002909  1
  Sn  Sn30  1  0.83399753  0.16610963  0.16602250  1
  Sn  Sn31  1  0.16677706  0.16592996  0.83337164  1
  Sn  Sn32  1  0.49932833  0.83392066  0.49989843  1
  Sn  Sn33  1  0.50024844  0.16646656  0.83253727  1
  Sn  Sn34  1  0.83356843  0.49939576  0.83357733  1
  Sn  Sn35  1  0.49940226  0.16599778  0.50088282  1
  Sn  Sn36  1  0.83287397  0.16720160  0.83398411  1
  Sn  Sn37  1  0.83234004  0.49992545  0.16559031  1
  Sn  Sn38  1  0.83319662  0.83393323  0.16673968  1
  Sn  Sn39  1  0.16673010  0.83382223  0.83288412  1
  Sn  Sn40  1  0.16769211  0.83414016  0.50105582  1
  Pb  Pb41  1  0.49738024  0.83552389  0.83135816  1
  Pb  Pb42  1  0.50214085  0.83081937  0.16907704  1
  Pb  Pb43  1  0.16640110  0.49715605  0.16650151  1
  Pb  Pb44  1  0.83326371  0.16669490  0.50041337  1
  Pb  Pb45  1  0.83538953  0.83370104  0.83514642  1
  Pb  Pb46  1  0.50007490  0.16779315  0.16686711  1
  Pb  Pb47  1  0.50241833  0.49753818  0.83548054  1
  Pb  Pb48  1  0.16420802  0.49999475  0.83330885  1
  Pb  Pb49  1  0.83370958  0.83347075  0.49769834  1
  Pb  Pb50  1  0.16507530  0.83566811  0.16672999  1
  Pb  Pb51  1  0.49991894  0.49979497  0.49795450  1
  Pb  Pb52  1  0.83340028  0.49994504  0.50060695  1
  Pb  Pb53  1  0.16666439  0.49999601  0.50023789  1
  I  I54  1  0.16150278  0.00407361  0.16641351  1
  I  I55  1  0.17023083  0.00131861  0.50037299  1
  I  I56  1  0.16360465  0.00214538  0.83233041  1
  I  I57  1  0.16137063  0.32859675  0.16619323  1
  I  I58  1  0.17011164  0.32918389  0.50050821  1
  I  I59  1  0.16786344  0.32941770  0.83310427  1
  I  I60  1  0.16479056  0.66685408  0.16781570  1
  I  I61  1  0.17028009  0.67050488  0.50407044  1
  I  I62  1  0.16431442  0.66973436  0.82820070  1
  I  I63  1  0.50174530  0.00009417  0.16571888  1
  I  I64  1  0.49605720  0.00130689  0.50192611  1
  I  I65  1  0.50552830  0.00417618  0.83425281  1
  I  I66  1  0.50630387  0.33535935  0.16823684  1
  I  I67  1  0.49568212  0.32984862  0.50277066  1
  I  I68  1  0.49472035  0.32898891  0.82760223  1
  I  I69  1  0.50595329  0.66310456  0.16813827  1
  I  I70  1  0.49567479  0.66962134  0.49724994  1
  I  I71  1  0.50024693  0.66666849  0.83227561  1
  I  I72  1  0.83835285  0.00157847  0.16341733  1
  I  I73  1  0.83253076  0.00024156  0.49833658  1
  I  I74  1  0.83279657  0.00348323  0.83780798  1
  I  I75  1  0.83350881  0.33261448  0.16300385  1
  I  I76  1  0.83346157  0.33289143  0.49518897  1
  I  I77  1  0.83525620  0.33143573  0.84142324  1
  I  I78  1  0.82911898  0.66567162  0.16388321  1
  I  I79  1  0.83370690  0.66688986  0.49917180  1
  I  I80  1  0.83560835  0.66438075  0.83849223  1
  I  I81  1  0.16565454  0.16360738  -0.00084749  1
  I  I82  1  0.16637007  0.16369259  0.33376746  1
  I  I83  1  0.16601310  0.16308168  0.66702750  1
  I  I84  1  0.16885745  0.50093693  0.00001117  1
  I  I85  1  0.16373697  0.49947494  0.33313194  1
  I  I86  1  0.16425855  0.49540041  0.66689874  1
  I  I87  1  0.16353778  0.83827159  -0.00242416  1
  I  I88  1  0.16892653  0.83790471  0.33619799  1
  I  I89  1  0.16763204  0.84228963  0.66619192  1
  I  I90  1  0.49777415  0.16945138  -0.00246074  1
  I  I91  1  0.49684251  0.16477887  0.33593876  1
  I  I92  1  0.49779307  0.16408728  0.66663742  1
  I  I93  1  0.50271575  0.49767060  0.00328591  1
  I  I94  1  0.50824792  0.49672964  0.33017559  1
  I  I95  1  0.50187004  0.50099348  0.66688344  1
  I  I96  1  0.49923109  0.83400578  -0.00003164  1
  I  I97  1  0.49335671  0.84141804  0.33694258  1
  I  I98  1  0.50066822  0.83451635  0.66316088  1
  I  I99  1  0.83663298  0.16799389  0.00017443  1
  I  I100  1  0.83621246  0.16813359  0.33011313  1
  I  I101  1  0.83572321  0.17125888  0.67016098  1
  I  I102  1  0.83002764  0.49772645  0.00110626  1
  I  I103  1  0.83000249  0.49858978  0.32960276  1
  I  I104  1  0.83527675  0.49326096  0.67034948  1
  I  I105  1  0.83550371  0.83375693  0.00319190  1
  I  I106  1  0.83508505  0.83349410  0.32948764  1
  I  I107  1  0.83241360  0.83280075  0.66682079  1
  I  I108  1  -0.00075800  0.16842611  0.16450065  1
  I  I109  1  0.00322794  0.16227790  0.50131376  1
  I  I110  1  0.00022731  0.16707010  0.83412475  1
  I  I111  1  -0.00358860  0.50115682  0.16325414  1
  I  I112  1  0.00003665  0.49998907  0.49650174  1
  I  I113  1  -0.00379066  0.49346601  0.84157649  1
  I  I114  1  -0.00303217  0.82901107  0.16841794  1
  I  I115  1  0.00355716  0.83879013  0.50296820  1
  I  I116  1  0.00326690  0.83987611  0.82716111  1
  I  I117  1  0.33080044  0.16852016  0.16453438  1
  I  I118  1  0.33272498  0.16339816  0.50147080  1
  I  I119  1  0.33246487  0.16249084  0.83389029  1
  I  I120  1  0.33567458  0.49723742  0.16895546  1
  I  I121  1  0.33340763  0.49898306  0.49692143  1
  I  I122  1  0.33350528  0.49888529  0.83496422  1
  I  I123  1  0.33320810  0.83275753  0.16541890  1
  I  I124  1  0.33245953  0.83897112  0.50183842  1
  I  I125  1  0.32926644  0.83928330  0.83403543  1
  I  I126  1  0.66968730  0.16646143  0.16403585  1
  I  I127  1  0.66359386  0.16311064  0.50220706  1
  I  I128  1  0.66736779  0.17145845  0.83413963  1
  I  I129  1  0.66866183  0.49669552  0.16450057  1
  I  I130  1  0.66653329  0.49956320  0.50015612  1
  I  I131  1  0.67055035  0.49491643  0.83598544  1
  I  I132  1  0.67030516  0.83907395  0.16719582  1
  I  I133  1  0.66383579  0.83798097  0.49754710  1
  I  I134  1  0.66666450  0.83410139  0.83237282  1
