# generated using pymatgen
data_Cs27Sn13Pb14I81
_symmetry_space_group_name_H-M   'P 1'
_cell_length_a   18.97477621
_cell_length_b   18.97391560
_cell_length_c   18.97933107
_cell_angle_alpha   90.00293713
_cell_angle_beta   90.00084080
_cell_angle_gamma   89.99877049
_symmetry_Int_Tables_number   1
_chemical_formula_structural   Cs27Sn13Pb14I81
_chemical_formula_sum   'Cs27 Sn13 Pb14 I81'
_cell_volume   6833.04888464
_cell_formula_units_Z   1
loop_
 _symmetry_equiv_pos_site_id
 _symmetry_equiv_pos_as_xyz
  1  'x, y, z'
loop_
 _atom_site_type_symbol
 _atom_site_label
 _atom_site_symmetry_multiplicity
 _atom_site_fract_x
 _atom_site_fract_y
 _atom_site_fract_z
 _atom_site_occupancy
  Cs  Cs0  1  0.00017484  0.00011229  -0.00073737  1
  Cs  Cs1  1  -0.00044867  0.00164805  0.33335614  1
  Cs  Cs2  1  -0.00111496  0.00162622  0.66727528  1
  Cs  Cs3  1  -0.00097455  0.33175012  0.00201776  1
  Cs  Cs4  1  -0.00044713  0.33320077  0.33455986  1
  Cs  Cs5  1  0.00335084  0.32732889  0.66058197  1
  Cs  Cs6  1  -0.00283111  0.66748343  0.00001987  1
  Cs  Cs7  1  0.00081476  0.66548498  0.33366579  1
  Cs  Cs8  1  0.00035907  0.66813546  0.66580700  1
  Cs  Cs9  1  0.33305434  0.00190231  -0.00025865  1
  Cs  Cs10  1  0.34401890  -0.00241122  0.33148343  1
  Cs  Cs11  1  0.33508829  0.00208392  0.66853940  1
  Cs  Cs12  1  0.33527547  0.33279940  -0.00134544  1
  Cs  Cs13  1  0.33169666  0.33773233  0.33280099  1
  Cs  Cs14  1  0.33132405  0.32832191  0.67048226  1
  Cs  Cs15  1  0.33167532  0.66585740  -0.00184648  1
  Cs  Cs16  1  0.33294106  0.66524732  0.33452094  1
  Cs  Cs17  1  0.33267557  0.66706740  0.66738843  1
  Cs  Cs18  1  0.66824826  -0.00140583  0.00388122  1
  Cs  Cs19  1  0.65645840  -0.00000961  0.33465041  1
  Cs  Cs20  1  0.66705690  0.00079680  0.66062208  1
  Cs  Cs21  1  0.66545626  0.33593251  -0.00354702  1
  Cs  Cs22  1  0.66758462  0.33290162  0.33426562  1
  Cs  Cs23  1  0.66483998  0.33376046  0.66890173  1
  Cs  Cs24  1  0.67628855  0.66537708  -0.00239371  1
  Cs  Cs25  1  0.66594895  0.66699244  0.33262636  1
  Cs  Cs26  1  0.66682191  0.66526617  0.66879667  1
  Sn  Sn27  1  0.16619793  0.50035161  0.83397711  1
  Sn  Sn28  1  0.49980379  0.83309711  0.83366761  1
  Sn  Sn29  1  0.16709366  0.50007931  0.16562459  1
  Sn  Sn30  1  0.83366443  0.16656620  0.16592826  1
  Sn  Sn31  1  0.16617386  0.16654935  0.16692600  1
  Sn  Sn32  1  0.49970462  0.50056652  0.16684091  1
  Sn  Sn33  1  0.16616253  0.83346554  0.49991314  1
  Sn  Sn34  1  0.50055411  0.50022708  0.49976091  1
  Sn  Sn35  1  0.83260641  0.50085497  0.49993061  1
  Sn  Sn36  1  0.16737143  0.83268861  0.83335927  1
  Sn  Sn37  1  0.83337024  0.16664357  0.83416626  1
  Sn  Sn38  1  0.16648781  0.83340013  0.16674111  1
  Sn  Sn39  1  0.83392938  0.83254307  0.49950599  1
  Pb  Pb40  1  0.83664704  0.49783882  0.83056034  1
  Pb  Pb41  1  0.83394160  0.83502719  0.83134913  1
  Pb  Pb42  1  0.16678603  0.50150476  0.50010357  1
  Pb  Pb43  1  0.49987616  0.16938852  0.16649949  1
  Pb  Pb44  1  0.49966092  0.17023388  0.50009903  1
  Pb  Pb45  1  0.16711727  0.16292695  0.49664677  1
  Pb  Pb46  1  0.49972438  0.83115823  0.50181603  1
  Pb  Pb47  1  0.83534652  0.83563684  0.16932971  1
  Pb  Pb48  1  0.49782479  0.83026389  0.16407484  1
  Pb  Pb49  1  0.50286602  0.16369856  0.83368317  1
  Pb  Pb50  1  0.83325969  0.16640560  0.49927074  1
  Pb  Pb51  1  0.16527081  0.16626285  0.83540935  1
  Pb  Pb52  1  0.49801048  0.50166795  0.83346096  1
  Pb  Pb53  1  0.83378149  0.49829774  0.16837536  1
  I  I54  1  0.16037125  -0.00061366  0.16637065  1
  I  I55  1  0.15876369  -0.00528922  0.50314792  1
  I  I56  1  0.16856650  -0.00326727  0.83356264  1
  I  I57  1  0.16671077  0.33430924  0.16208750  1
  I  I58  1  0.16584916  0.33342418  0.50065468  1
  I  I59  1  0.16533056  0.33581338  0.83698828  1
  I  I60  1  0.17140033  0.66658053  0.16654589  1
  I  I61  1  0.16534881  0.66962211  0.49634349  1
  I  I62  1  0.16943637  0.66761130  0.83743223  1
  I  I63  1  0.49942339  -0.00038123  0.16622793  1
  I  I64  1  0.50120754  -0.00057562  0.50070243  1
  I  I65  1  0.49110114  -0.00402628  0.83248785  1
  I  I66  1  0.49363132  0.33725070  0.17030768  1
  I  I67  1  0.50625868  0.33847018  0.49650576  1
  I  I68  1  0.49895346  0.33359657  0.83236463  1
  I  I69  1  0.49401179  0.66260260  0.17142447  1
  I  I70  1  0.50083365  0.66351952  0.49603467  1
  I  I71  1  0.49692574  0.66945666  0.83249672  1
  I  I72  1  0.83985791  0.00344435  0.16413205  1
  I  I73  1  0.83951823  -0.00281566  0.50139744  1
  I  I74  1  0.83611889  0.00264438  0.83534202  1
  I  I75  1  0.83978537  0.33048260  0.16609701  1
  I  I76  1  0.82959314  0.33599382  0.49971824  1
  I  I77  1  0.83479905  0.33037791  0.83605367  1
  I  I78  1  0.83398314  0.66667293  0.16662015  1
  I  I79  1  0.83450764  0.66672956  0.50021059  1
  I  I80  1  0.83231005  0.66665216  0.83323483  1
  I  I81  1  0.16411857  0.16322256  0.00347742  1
  I  I82  1  0.15872289  0.17039598  0.32849977  1
  I  I83  1  0.16420790  0.16825143  0.66675867  1
  I  I84  1  0.17184092  0.50416046  0.00127085  1
  I  I85  1  0.16750374  0.50057051  0.33055207  1
  I  I86  1  0.16603921  0.50542988  0.66889634  1
  I  I87  1  0.17136241  0.83270768  0.00006987  1
  I  I88  1  0.16078863  0.83237865  0.33294399  1
  I  I89  1  0.16633284  0.82684851  0.66718027  1
  I  I90  1  0.49852021  0.16924062  0.00015855  1
  I  I91  1  0.50244633  0.16243766  0.33304093  1
  I  I92  1  0.50219009  0.16856202  0.66698696  1
  I  I93  1  0.49559341  0.50006572  0.00256076  1
  I  I94  1  0.49683464  0.50053327  0.33305380  1
  I  I95  1  0.50315481  0.50255434  0.66430017  1
  I  I96  1  0.49397997  0.83208957  -0.00338174  1
  I  I97  1  0.49951538  0.83437112  0.33320350  1
  I  I98  1  0.49389022  0.83073856  0.66930261  1
  I  I99  1  0.83866440  0.16630334  0.00083132  1
  I  I100  1  0.83942476  0.16795400  0.33042501  1
  I  I101  1  0.83379682  0.16617826  0.66858505  1
  I  I102  1  0.83101909  0.50027635  -0.00009907  1
  I  I103  1  0.83495812  0.50129390  0.33631972  1
  I  I104  1  0.82859655  0.50216469  0.66288728  1
  I  I105  1  0.83357237  0.83317897  0.00010498  1
  I  I106  1  0.83905042  0.83081322  0.33715193  1
  I  I107  1  0.83912597  0.83230106  0.66354647  1
  I  I108  1  0.00110144  0.16849066  0.16306794  1
  I  I109  1  0.00015732  0.17159559  0.50130220  1
  I  I110  1  -0.00241674  0.16501117  0.83495503  1
  I  I111  1  0.00340198  0.50170576  0.16497507  1
  I  I112  1  -0.00193142  0.50201312  0.50006075  1
  I  I113  1  0.00435097  0.50732447  0.83910268  1
  I  I114  1  0.00412596  0.82812047  0.16199920  1
  I  I115  1  0.00074157  0.82697370  0.50158571  1
  I  I116  1  0.00346901  0.83110007  0.83488110  1
  I  I117  1  0.32995036  0.16449210  0.16721569  1
  I  I118  1  0.33303312  0.16672787  0.49964122  1
  I  I119  1  0.33311396  0.16838855  0.83380759  1
  I  I120  1  0.33163499  0.49846621  0.16983163  1
  I  I121  1  0.33524410  0.50232299  0.49761378  1
  I  I122  1  0.32977244  0.50160075  0.83268249  1
  I  I123  1  0.32897704  0.83789149  0.17198170  1
  I  I124  1  0.33030272  0.83156696  0.49787965  1
  I  I125  1  0.33085847  0.82947981  0.83108629  1
  I  I126  1  0.66952780  0.16843543  0.16387950  1
  I  I127  1  0.66691450  0.16118968  0.49758926  1
  I  I128  1  0.67063610  0.16648107  0.83925164  1
  I  I129  1  0.66446423  0.49760157  0.16982445  1
  I  I130  1  0.66684435  0.50539423  0.49430384  1
  I  I131  1  0.66691780  0.50107358  0.83534142  1
  I  I132  1  0.66660422  0.83409218  0.16635036  1
  I  I133  1  0.66902316  0.83214073  0.50298192  1
  I  I134  1  0.66476235  0.83468426  0.83055416  1
