# generated using pymatgen
data_Cs27Sn14Pb13I81
_symmetry_space_group_name_H-M   'P 1'
_cell_length_a   18.97713647
_cell_length_b   18.96914855
_cell_length_c   18.98211378
_cell_angle_alpha   90.00264789
_cell_angle_beta   89.99948226
_cell_angle_gamma   89.99905259
_symmetry_Int_Tables_number   1
_chemical_formula_structural   Cs27Sn14Pb13I81
_chemical_formula_sum   'Cs27 Sn14 Pb13 I81'
_cell_volume   6833.18360284
_cell_formula_units_Z   1
loop_
 _symmetry_equiv_pos_site_id
 _symmetry_equiv_pos_as_xyz
  1  'x, y, z'
loop_
 _atom_site_type_symbol
 _atom_site_label
 _atom_site_symmetry_multiplicity
 _atom_site_fract_x
 _atom_site_fract_y
 _atom_site_fract_z
 _atom_site_occupancy
  Cs  Cs0  1  0.00337576  -0.00296836  -0.00320093  1
  Cs  Cs1  1  -0.00043578  0.00113578  0.33401586  1
  Cs  Cs2  1  -0.00015367  0.00438764  0.66836648  1
  Cs  Cs3  1  -0.00202361  0.33247383  0.00087373  1
  Cs  Cs4  1  0.00005007  0.33390836  0.33502322  1
  Cs  Cs5  1  -0.00632554  0.32485096  0.66527653  1
  Cs  Cs6  1  0.00173625  0.66993092  0.00391370  1
  Cs  Cs7  1  -0.00162353  0.66557550  0.33347864  1
  Cs  Cs8  1  0.00065617  0.66792195  0.66376960  1
  Cs  Cs9  1  0.33138684  -0.00122100  -0.00062790  1
  Cs  Cs10  1  0.33804518  0.00052864  0.33302231  1
  Cs  Cs11  1  0.33245472  0.00038825  0.66751715  1
  Cs  Cs12  1  0.33601312  0.33494303  0.00347761  1
  Cs  Cs13  1  0.33284529  0.33373561  0.33213055  1
  Cs  Cs14  1  0.33323890  0.33559042  0.66519586  1
  Cs  Cs15  1  0.32954772  0.66385670  -0.00103196  1
  Cs  Cs16  1  0.33291518  0.66541402  0.33674187  1
  Cs  Cs17  1  0.33314017  0.66459346  0.66470326  1
  Cs  Cs18  1  0.66587908  0.00104586  0.00047790  1
  Cs  Cs19  1  0.66147431  -0.00179375  0.33124607  1
  Cs  Cs20  1  0.66676098  -0.00294980  0.66737644  1
  Cs  Cs21  1  0.66491107  0.33380882  -0.00143405  1
  Cs  Cs22  1  0.66632753  0.33222260  0.33268467  1
  Cs  Cs23  1  0.67131441  0.33475693  0.66955364  1
  Cs  Cs24  1  0.67203518  0.66588611  -0.00292236  1
  Cs  Cs25  1  0.66969612  0.67031688  0.33281886  1
  Cs  Cs26  1  0.66749875  0.66864143  0.66895747  1
  Sn  Sn27  1  0.16610149  0.49937776  0.83286015  1
  Sn  Sn28  1  0.49966439  0.16603315  0.83322438  1
  Sn  Sn29  1  0.49990582  0.16783894  0.50032876  1
  Sn  Sn30  1  0.83329229  0.16658188  0.16673791  1
  Sn  Sn31  1  0.49963485  0.16743836  0.16654641  1
  Sn  Sn32  1  0.16747822  0.49905004  0.16679787  1
  Sn  Sn33  1  0.49985149  0.49916051  0.49919651  1
  Sn  Sn34  1  0.83435902  0.83350492  0.50048109  1
  Sn  Sn35  1  0.16598891  0.83324924  0.49981861  1
  Sn  Sn36  1  0.16694697  0.50018203  0.50038597  1
  Sn  Sn37  1  0.16685059  0.16726065  0.16676693  1
  Sn  Sn38  1  0.83298739  0.83339499  0.83268202  1
  Sn  Sn39  1  0.49962544  0.49986079  0.16769292  1
  Sn  Sn40  1  0.50008726  0.83358884  0.83355862  1
  Pb  Pb41  1  0.16904991  0.16919907  0.83570167  1
  Pb  Pb42  1  0.49888284  0.49991767  0.83326948  1
  Pb  Pb43  1  0.83313848  0.49779799  0.16676210  1
  Pb  Pb44  1  0.83682320  0.50244367  0.83330177  1
  Pb  Pb45  1  0.83337251  0.83578226  0.16659131  1
  Pb  Pb46  1  0.83298119  0.50178495  0.49998135  1
  Pb  Pb47  1  0.83025677  0.16406543  0.49806327  1
  Pb  Pb48  1  0.49980670  0.83218989  0.16381340  1
  Pb  Pb49  1  0.49981033  0.83276518  0.50174151  1
  Pb  Pb50  1  0.16682663  0.83165569  0.83100435  1
  Pb  Pb51  1  0.16859492  0.16715209  0.49810674  1
  Pb  Pb52  1  0.83104953  0.16452452  0.83544632  1
  Pb  Pb53  1  0.16702671  0.83287836  0.16952290  1
  I  I54  1  0.16823574  0.00311552  0.16790852  1
  I  I55  1  0.16481507  -0.00216162  0.49870226  1
  I  I56  1  0.16563391  0.00017838  0.83392335  1
  I  I57  1  0.16846507  0.33410855  0.16859413  1
  I  I58  1  0.17044213  0.33661861  0.50051110  1
  I  I59  1  0.17000661  0.33716850  0.82808794  1
  I  I60  1  0.17195232  0.66287904  0.16445721  1
  I  I61  1  0.16951679  0.66521885  0.49799881  1
  I  I62  1  0.16975347  0.66366216  0.83870640  1
  I  I63  1  0.49961859  0.00332812  0.16995124  1
  I  I64  1  0.50025941  0.00234055  0.49659000  1
  I  I65  1  0.50336783  0.00069718  0.83332145  1
  I  I66  1  0.49906789  0.33240390  0.16508613  1
  I  I67  1  0.49338645  0.33371757  0.50017985  1
  I  I68  1  0.49712916  0.33068862  0.83479487  1
  I  I69  1  0.49375904  0.66282331  0.17119018  1
  I  I70  1  0.49819391  0.66369926  0.49658135  1
  I  I71  1  0.50252406  0.66884523  0.83230301  1
  I  I72  1  0.83126127  0.00383088  0.16727144  1
  I  I73  1  0.83904962  -0.00369522  0.50398638  1
  I  I74  1  0.83256918  -0.00337659  0.82947364  1
  I  I75  1  0.83224422  0.32978044  0.16664759  1
  I  I76  1  0.83596526  0.33290454  0.49892130  1
  I  I77  1  0.83240914  0.33299926  0.83439881  1
  I  I78  1  0.83316751  0.66679079  0.16609649  1
  I  I79  1  0.83205097  0.66997798  0.50284140  1
  I  I80  1  0.82414705  0.67046222  0.83051893  1
  I  I81  1  0.16897014  0.17095685  0.00393402  1
  I  I82  1  0.16928259  0.17094775  0.32993336  1
  I  I83  1  0.16883934  0.16737917  0.66658701  1
  I  I84  1  0.17191184  0.49619732  0.00135748  1
  I  I85  1  0.17135724  0.50042544  0.33331664  1
  I  I86  1  0.17321882  0.50726761  0.66524025  1
  I  I87  1  0.16550021  0.83213238  -0.00007396  1
  I  I88  1  0.16147661  0.82780508  0.33728861  1
  I  I89  1  0.16689685  0.82705553  0.66323974  1
  I  I90  1  0.50041565  0.16669459  0.00120086  1
  I  I91  1  0.49988350  0.17036215  0.33252051  1
  I  I92  1  0.49913262  0.16619828  0.66645740  1
  I  I93  1  0.49493519  0.49647811  0.00269884  1
  I  I94  1  0.49161173  0.49206098  0.33324377  1
  I  I95  1  0.49459233  0.49773161  0.66404303  1
  I  I96  1  0.50595997  0.83746455  -0.00403344  1
  I  I97  1  0.50083118  0.83642011  0.33350534  1
  I  I98  1  0.50090920  0.83721579  0.66944713  1
  I  I99  1  0.83130245  0.16495123  0.00335425  1
  I  I100  1  0.83119345  0.16474858  0.33019852  1
  I  I101  1  0.83210779  0.16740541  0.66665793  1
  I  I102  1  0.83236799  0.50291628  0.00007852  1
  I  I103  1  0.83680621  0.50359081  0.33334114  1
  I  I104  1  0.83184972  0.49781855  0.66661658  1
  I  I105  1  0.82819969  0.83422528  -0.00284941  1
  I  I106  1  0.83722183  0.83368841  0.33616643  1
  I  I107  1  0.83223136  0.83288300  0.66657898  1
  I  I108  1  0.00094185  0.17045294  0.16748518  1
  I  I109  1  -0.00003290  0.16829287  0.49738821  1
  I  I110  1  0.00014646  0.16589684  0.83555780  1
  I  I111  1  0.00362667  0.49643002  0.16732779  1
  I  I112  1  0.00344084  0.50375988  0.49812202  1
  I  I113  1  0.00490590  0.50214693  0.83467395  1
  I  I114  1  0.00022912  0.83418439  0.16224847  1
  I  I115  1  0.00044743  0.82727523  0.50456900  1
  I  I116  1  -0.00227585  0.83057531  0.83164848  1
  I  I117  1  0.33446264  0.17120531  0.16665785  1
  I  I118  1  0.33683190  0.16456876  0.49756205  1
  I  I119  1  0.33726351  0.15916768  0.83530539  1
  I  I120  1  0.33314840  0.49216780  0.16731477  1
  I  I121  1  0.33303236  0.50298081  0.49884517  1
  I  I122  1  0.33094378  0.50267365  0.83379652  1
  I  I123  1  0.33342071  0.83907683  0.16623552  1
  I  I124  1  0.33127043  0.83119087  0.50087976  1
  I  I125  1  0.33577746  0.83672411  0.83258954  1
  I  I126  1  0.66467744  0.16927594  0.16661967  1
  I  I127  1  0.66209934  0.17091424  0.49743593  1
  I  I128  1  0.66268342  0.16653197  0.83574819  1
  I  I129  1  0.66305671  0.49606227  0.17106670  1
  I  I130  1  0.66295607  0.49718078  0.49470422  1
  I  I131  1  0.66654281  0.49907659  0.83396682  1
  I  I132  1  0.66649975  0.83363670  0.17163676  1
  I  I133  1  0.66846098  0.83435614  0.50243418  1
  I  I134  1  0.66631106  0.83650856  0.82729821  1
