# generated using pymatgen
data_Cs27Sn13Pb14I81
_symmetry_space_group_name_H-M   'P 1'
_cell_length_a   18.96937606
_cell_length_b   18.97637511
_cell_length_c   18.98453218
_cell_angle_alpha   90.00066398
_cell_angle_beta   89.99968138
_cell_angle_gamma   89.99897986
_symmetry_Int_Tables_number   1
_chemical_formula_structural   Cs27Sn13Pb14I81
_chemical_formula_sum   'Cs27 Sn13 Pb14 I81'
_cell_volume   6833.86196783
_cell_formula_units_Z   1
loop_
 _symmetry_equiv_pos_site_id
 _symmetry_equiv_pos_as_xyz
  1  'x, y, z'
loop_
 _atom_site_type_symbol
 _atom_site_label
 _atom_site_symmetry_multiplicity
 _atom_site_fract_x
 _atom_site_fract_y
 _atom_site_fract_z
 _atom_site_occupancy
  Cs  Cs0  1  -0.00199022  -0.00100827  -0.00047575  1
  Cs  Cs1  1  -0.00283161  -0.00200896  0.33063898  1
  Cs  Cs2  1  0.00084776  -0.00007421  0.66838301  1
  Cs  Cs3  1  -0.00027273  0.33339791  0.00148791  1
  Cs  Cs4  1  0.00021282  0.33377282  0.32877016  1
  Cs  Cs5  1  0.00235040  0.33435975  0.66783129  1
  Cs  Cs6  1  0.00111950  0.66740160  -0.00025421  1
  Cs  Cs7  1  0.00150633  0.66741799  0.33473693  1
  Cs  Cs8  1  -0.00160294  0.66609255  0.66570192  1
  Cs  Cs9  1  0.33409806  -0.00212551  -0.00019024  1
  Cs  Cs10  1  0.33575627  -0.00126165  0.33390595  1
  Cs  Cs11  1  0.33429197  0.00436757  0.66529892  1
  Cs  Cs12  1  0.33283340  0.33304211  0.00009573  1
  Cs  Cs13  1  0.33464192  0.33292985  0.33538271  1
  Cs  Cs14  1  0.33011044  0.32774164  0.66155400  1
  Cs  Cs15  1  0.33792244  0.66909362  0.00187013  1
  Cs  Cs16  1  0.33397317  0.66751748  0.32780440  1
  Cs  Cs17  1  0.33391777  0.66774488  0.66967313  1
  Cs  Cs18  1  0.66967122  0.00281473  -0.00100048  1
  Cs  Cs19  1  0.66961039  0.00064132  0.33877717  1
  Cs  Cs20  1  0.66658832  -0.00218423  0.66579212  1
  Cs  Cs21  1  0.66718392  0.33217253  0.00017138  1
  Cs  Cs22  1  0.66361693  0.33270001  0.33280800  1
  Cs  Cs23  1  0.66701006  0.33983683  0.66632588  1
  Cs  Cs24  1  0.65899849  0.66477257  -0.00297769  1
  Cs  Cs25  1  0.66142891  0.66646650  0.34109290  1
  Cs  Cs26  1  0.66276185  0.66130575  0.66205948  1
  Sn  Sn27  1  0.83266216  0.16639729  0.83209082  1
  Sn  Sn28  1  0.16624092  0.83277016  0.50098185  1
  Sn  Sn29  1  0.83361583  0.83321736  0.83396802  1
  Sn  Sn30  1  0.16613691  0.50104951  0.49980392  1
  Sn  Sn31  1  0.16763012  0.16685738  0.16642760  1
  Sn  Sn32  1  0.16590633  0.49931580  0.16638759  1
  Sn  Sn33  1  0.16638436  0.50094690  0.83370915  1
  Sn  Sn34  1  0.83399927  0.16705792  0.50158310  1
  Sn  Sn35  1  0.16582078  0.83250608  0.83253195  1
  Sn  Sn36  1  0.50107853  0.16673429  0.83400591  1
  Sn  Sn37  1  0.83361320  0.50202986  0.16636782  1
  Sn  Sn38  1  0.83320775  0.83125048  0.16584111  1
  Sn  Sn39  1  0.49892167  0.16637614  0.16579994  1
  Pb  Pb40  1  0.83493628  0.50046773  0.83515292  1
  Pb  Pb41  1  0.16624451  0.16624351  0.83522629  1
  Pb  Pb42  1  0.83323746  0.16677083  0.16609028  1
  Pb  Pb43  1  0.50280484  0.16670827  0.50028781  1
  Pb  Pb44  1  0.49649897  0.83336653  0.50020576  1
  Pb  Pb45  1  0.50033877  0.83545218  0.83324782  1
  Pb  Pb46  1  0.83552237  0.49783522  0.49730929  1
  Pb  Pb47  1  0.16467553  0.16628385  0.49722368  1
  Pb  Pb48  1  0.83506156  0.83444629  0.50074602  1
  Pb  Pb49  1  0.49648570  0.49998475  0.50001160  1
  Pb  Pb50  1  0.16547082  0.83299797  0.16624019  1
  Pb  Pb51  1  0.49991192  0.49800618  0.16656008  1
  Pb  Pb52  1  0.50407922  0.83621278  0.16654104  1
  Pb  Pb53  1  0.49651906  0.49690635  0.83331029  1
  I  I54  1  0.16732843  0.00213802  0.16635060  1
  I  I55  1  0.16465470  -0.00248639  0.50391838  1
  I  I56  1  0.16536154  -0.00261416  0.83060377  1
  I  I57  1  0.16341987  0.33424317  0.16624976  1
  I  I58  1  0.16511062  0.33590090  0.50219658  1
  I  I59  1  0.16672281  0.33552518  0.83211115  1
  I  I60  1  0.16302810  0.66379005  0.16738674  1
  I  I61  1  0.16448264  0.66623083  0.49836971  1
  I  I62  1  0.16041190  0.66707520  0.83402105  1
  I  I63  1  0.49340231  0.00423048  0.16249127  1
  I  I64  1  0.49684756  0.00045968  0.49874430  1
  I  I65  1  0.49865404  0.00359230  0.83812215  1
  I  I66  1  0.50092710  0.32982231  0.16274504  1
  I  I67  1  0.49746570  0.33296333  0.49953669  1
  I  I68  1  0.50570452  0.32897790  0.83853145  1
  I  I69  1  0.49695682  0.66676183  0.16699788  1
  I  I70  1  0.50497253  0.66661731  0.49998904  1
  I  I71  1  0.50162672  0.66654754  0.83294629  1
  I  I72  1  0.83473646  -0.00174150  0.16568270  1
  I  I73  1  0.83647992  0.00249891  0.49731753  1
  I  I74  1  0.83651133  0.00007320  0.83656983  1
  I  I75  1  0.83611771  0.33517137  0.16698306  1
  I  I76  1  0.83598175  0.32995907  0.50389411  1
  I  I77  1  0.83191656  0.33061483  0.83255861  1
  I  I78  1  0.84290319  0.66663246  0.16172110  1
  I  I79  1  0.83333052  0.66645814  0.50101125  1
  I  I80  1  0.83846676  0.66967408  0.83683279  1
  I  I81  1  0.16478038  0.17061536  0.00300082  1
  I  I82  1  0.16888598  0.17032635  0.32941890  1
  I  I83  1  0.16863936  0.16935451  0.66676332  1
  I  I84  1  0.16225694  0.49837246  0.00056629  1
  I  I85  1  0.16215563  0.49912561  0.33262568  1
  I  I86  1  0.16690638  0.50366341  0.66694699  1
  I  I87  1  0.16377421  0.83182209  -0.00275532  1
  I  I88  1  0.16430854  0.83154351  0.33503816  1
  I  I89  1  0.16080147  0.82676440  0.66780521  1
  I  I90  1  0.50224882  0.16689403  0.00003682  1
  I  I91  1  0.49730923  0.16755197  0.33050061  1
  I  I92  1  0.50053078  0.16587326  0.66980896  1
  I  I93  1  0.49701811  0.50014618  -0.00002958  1
  I  I94  1  0.49907932  0.49605611  0.33307063  1
  I  I95  1  0.50036908  0.49700163  0.66683208  1
  I  I96  1  0.49406792  0.83279777  -0.00002934  1
  I  I97  1  0.49970998  0.83673390  0.33312699  1
  I  I98  1  0.50340919  0.83712532  0.66691117  1
  I  I99  1  0.83305146  0.16521612  -0.00239229  1
  I  I100  1  0.83520281  0.16643849  0.33447520  1
  I  I101  1  0.82966266  0.16060228  0.66848336  1
  I  I102  1  0.84119449  0.49715417  0.00307058  1
  I  I103  1  0.84050704  0.50210445  0.32931120  1
  I  I104  1  0.83549151  0.50020041  0.66665920  1
  I  I105  1  0.84115686  0.83809417  -0.00091148  1
  I  I106  1  0.83642812  0.83398153  0.33103332  1
  I  I107  1  0.83727319  0.83851674  0.66997791  1
  I  I108  1  0.00196302  0.16857333  0.16670303  1
  I  I109  1  -0.00280077  0.16636682  0.50433178  1
  I  I110  1  -0.00256115  0.16532676  0.83228119  1
  I  I111  1  0.00142418  0.49574353  0.16654407  1
  I  I112  1  0.00385642  0.50269797  0.50126327  1
  I  I113  1  0.00350824  0.49777699  0.83264538  1
  I  I114  1  -0.00245176  0.83655802  0.16534873  1
  I  I115  1  0.00318086  0.83048972  0.50085384  1
  I  I116  1  0.00013465  0.83697010  0.83401387  1
  I  I117  1  0.33247817  0.17213352  0.16186724  1
  I  I118  1  0.33299507  0.16701344  0.50157314  1
  I  I119  1  0.33494793  0.16755151  0.83694495  1
  I  I120  1  0.32955710  0.49710954  0.16737932  1
  I  I121  1  0.32777369  0.50118665  0.49689510  1
  I  I122  1  0.32798792  0.50510481  0.83687245  1
  I  I123  1  0.33336233  0.83236612  0.16715812  1
  I  I124  1  0.32788150  0.83126125  0.50493974  1
  I  I125  1  0.32984979  0.83091187  0.82982139  1
  I  I126  1  0.66483502  0.16630085  0.16542435  1
  I  I127  1  0.67064709  0.16499608  0.49697627  1
  I  I128  1  0.66795972  0.16090718  0.83688010  1
  I  I129  1  0.66974204  0.50051654  0.16533030  1
  I  I130  1  0.66705136  0.49801656  0.49797640  1
  I  I131  1  0.66671698  0.50126986  0.83589582  1
  I  I132  1  0.67212088  0.83007639  0.15973956  1
  I  I133  1  0.66705904  0.83648627  0.49885084  1
  I  I134  1  0.67027945  0.83797729  0.83934595  1
