# generated using pymatgen
data_Cs27Sn14Pb13I81
_symmetry_space_group_name_H-M   'P 1'
_cell_length_a   18.96777315
_cell_length_b   18.98213039
_cell_length_c   18.98092217
_cell_angle_alpha   90.00042003
_cell_angle_beta   89.99944492
_cell_angle_gamma   89.99510212
_symmetry_Int_Tables_number   1
_chemical_formula_structural   Cs27Sn14Pb13I81
_chemical_formula_sum   'Cs27 Sn14 Pb13 I81'
_cell_volume   6834.05715030
_cell_formula_units_Z   1
loop_
 _symmetry_equiv_pos_site_id
 _symmetry_equiv_pos_as_xyz
  1  'x, y, z'
loop_
 _atom_site_type_symbol
 _atom_site_label
 _atom_site_symmetry_multiplicity
 _atom_site_fract_x
 _atom_site_fract_y
 _atom_site_fract_z
 _atom_site_occupancy
  Cs  Cs0  1  0.00122822  -0.00101421  -0.00048703  1
  Cs  Cs1  1  0.00149106  0.00199329  0.33288993  1
  Cs  Cs2  1  -0.00089014  0.00082675  0.66772308  1
  Cs  Cs3  1  0.00210678  0.33359077  0.00016250  1
  Cs  Cs4  1  -0.00059960  0.33263549  0.33080390  1
  Cs  Cs5  1  -0.00224633  0.33213280  0.66846284  1
  Cs  Cs6  1  0.00185022  0.66739586  0.00327153  1
  Cs  Cs7  1  -0.00013453  0.66407119  0.32796861  1
  Cs  Cs8  1  0.00024395  0.66603372  0.66839517  1
  Cs  Cs9  1  0.33278046  -0.00114918  0.00054990  1
  Cs  Cs10  1  0.33199145  -0.00142081  0.33627176  1
  Cs  Cs11  1  0.33236167  -0.00098888  0.66182945  1
  Cs  Cs12  1  0.33421425  0.33338226  -0.00091344  1
  Cs  Cs13  1  0.33487858  0.33395021  0.34273535  1
  Cs  Cs14  1  0.33306391  0.33530989  0.65965432  1
  Cs  Cs15  1  0.33397438  0.66780182  -0.00061351  1
  Cs  Cs16  1  0.33494027  0.66822780  0.33927206  1
  Cs  Cs17  1  0.33321950  0.66629265  0.66238361  1
  Cs  Cs18  1  0.66413336  -0.00183930  -0.00054535  1
  Cs  Cs19  1  0.66616245  0.00122679  0.33285366  1
  Cs  Cs20  1  0.66851435  0.00038344  0.66839782  1
  Cs  Cs21  1  0.66341443  0.33287168  -0.00198741  1
  Cs  Cs22  1  0.66726663  0.33289341  0.33354841  1
  Cs  Cs23  1  0.66847103  0.33457027  0.66858411  1
  Cs  Cs24  1  0.66580944  0.66847863  0.00032708  1
  Cs  Cs25  1  0.66609065  0.66577995  0.33142164  1
  Cs  Cs26  1  0.66653990  0.66548315  0.66776831  1
  Sn  Sn27  1  0.83356063  0.83308256  0.49982660  1
  Sn  Sn28  1  0.83357098  0.16656161  0.50017354  1
  Sn  Sn29  1  0.49964452  0.50054807  0.16579930  1
  Sn  Sn30  1  0.16764895  0.83403294  0.16575378  1
  Sn  Sn31  1  0.16762992  0.83406527  0.83399945  1
  Sn  Sn32  1  0.83331100  0.50027187  0.50059220  1
  Sn  Sn33  1  0.16625440  0.16596453  0.83414646  1
  Sn  Sn34  1  0.83378791  0.16640326  0.16580056  1
  Sn  Sn35  1  0.49891916  0.83267450  0.83386637  1
  Sn  Sn36  1  0.49901786  0.83257673  0.16584778  1
  Sn  Sn37  1  0.16632550  0.16615120  0.16563613  1
  Sn  Sn38  1  0.83287290  0.49953516  0.83336052  1
  Sn  Sn39  1  0.83401263  0.16731774  0.83406190  1
  Sn  Sn40  1  0.50048627  0.50084481  0.83428467  1
  Pb  Pb41  1  0.16436669  0.16661640  0.50017508  1
  Pb  Pb42  1  0.16993256  0.49965870  0.16653648  1
  Pb  Pb43  1  0.83137060  0.49758163  0.16575064  1
  Pb  Pb44  1  0.50285247  0.16650035  0.50022176  1
  Pb  Pb45  1  0.50241796  0.83340046  0.50022850  1
  Pb  Pb46  1  0.16397844  0.83324211  0.49992875  1
  Pb  Pb47  1  0.50239930  0.50020524  0.50049945  1
  Pb  Pb48  1  0.16698258  0.49994172  0.83344674  1
  Pb  Pb49  1  0.16313061  0.50011646  0.49997595  1
  Pb  Pb50  1  0.83333362  0.83552844  0.16860490  1
  Pb  Pb51  1  0.49909735  0.16654519  0.83331227  1
  Pb  Pb52  1  0.49881902  0.16639502  0.16651523  1
  Pb  Pb53  1  0.83350759  0.83316483  0.83220131  1
  I  I54  1  0.16751764  -0.00015990  0.16260449  1
  I  I55  1  0.16302478  -0.00005877  0.50042096  1
  I  I56  1  0.16493184  0.00008116  0.83728589  1
  I  I57  1  0.16162424  0.32984226  0.16238323  1
  I  I58  1  0.16638199  0.33303068  0.49979844  1
  I  I59  1  0.16403226  0.33015419  0.83752273  1
  I  I60  1  0.16682908  0.66996319  0.16190097  1
  I  I61  1  0.16257994  0.66704067  0.50016885  1
  I  I62  1  0.16589113  0.66981565  0.83778061  1
  I  I63  1  0.50073823  -0.00311467  0.16173124  1
  I  I64  1  0.50456475  -0.00037353  0.49975089  1
  I  I65  1  0.50117654  -0.00309467  0.83844795  1
  I  I66  1  0.50292631  0.33586277  0.16223644  1
  I  I67  1  0.50091973  0.33366713  0.49904002  1
  I  I68  1  0.50297851  0.33622740  0.83748141  1
  I  I69  1  0.49662281  0.66770168  0.16254797  1
  I  I70  1  0.50454514  0.66678531  0.49923043  1
  I  I71  1  0.50198756  0.66681343  0.83751852  1
  I  I72  1  0.83202693  0.00364318  0.16599766  1
  I  I73  1  0.83311491  0.00113145  0.50064656  1
  I  I74  1  0.83367084  0.00267838  0.83163890  1
  I  I75  1  0.83747380  0.32950828  0.17125128  1
  I  I76  1  0.83285293  0.33295039  0.50131863  1
  I  I77  1  0.83282031  0.33272759  0.82842576  1
  I  I78  1  0.83576162  0.66670746  0.16846526  1
  I  I79  1  0.83254738  0.66586742  0.50604826  1
  I  I80  1  0.83211735  0.66423399  0.82714302  1
  I  I81  1  0.15640289  0.16219483  -0.00023891  1
  I  I82  1  0.16243307  0.16197048  0.33004982  1
  I  I83  1  0.16258812  0.16242674  0.67014233  1
  I  I84  1  0.15973023  0.49945835  -0.00004541  1
  I  I85  1  0.16683958  0.49991444  0.33292741  1
  I  I86  1  0.17185516  0.50022161  0.66709604  1
  I  I87  1  0.16938074  0.83796235  -0.00017755  1
  I  I88  1  0.17006463  0.83810035  0.32986786  1
  I  I89  1  0.16986137  0.83757354  0.67011122  1
  I  I90  1  0.50788531  0.16760318  -0.00007166  1
  I  I91  1  0.50105645  0.16721890  0.33294704  1
  I  I92  1  0.49948943  0.16636373  0.66718408  1
  I  I93  1  0.50740473  0.50397468  -0.00111108  1
  I  I94  1  0.50086247  0.50373031  0.33062000  1
  I  I95  1  0.50250836  0.50395752  0.67013999  1
  I  I96  1  0.49788981  0.82911456  -0.00024186  1
  I  I97  1  0.49698775  0.82979406  0.33002415  1
  I  I98  1  0.49682573  0.82922302  0.67021033  1
  I  I99  1  0.83732718  0.17151242  -0.00090045  1
  I  I100  1  0.83637179  0.16626304  0.33320972  1
  I  I101  1  0.83652164  0.16759829  0.66739907  1
  I  I102  1  0.83097106  0.49514664  -0.00320301  1
  I  I103  1  0.83187842  0.49867833  0.33549532  1
  I  I104  1  0.82763622  0.49496906  0.66761235  1
  I  I105  1  0.83281441  0.83330038  0.00015913  1
  I  I106  1  0.83289194  0.83325140  0.33650804  1
  I  I107  1  0.83293918  0.83793752  0.66426879  1
  I  I108  1  -0.00019868  0.16134989  0.16704957  1
  I  I109  1  -0.00416641  0.16691397  0.50029858  1
  I  I110  1  -0.00109144  0.16630339  0.83282820  1
  I  I111  1  -0.00006757  0.50262588  0.16804867  1
  I  I112  1  -0.00541319  0.49907268  0.50683730  1
  I  I113  1  -0.00302051  0.49857414  0.82718940  1
  I  I114  1  0.00276642  0.83597370  0.16337991  1
  I  I115  1  -0.00404500  0.83438982  0.50108251  1
  I  I116  1  0.00256132  0.83452811  0.83598789  1
  I  I117  1  0.32977779  0.16552523  0.15897458  1
  I  I118  1  0.33279555  0.16722559  0.49954419  1
  I  I119  1  0.32987179  0.16576009  0.84119289  1
  I  I120  1  0.33776695  0.49899222  0.15779157  1
  I  I121  1  0.33374331  0.49938777  0.50039752  1
  I  I122  1  0.33650101  0.50053313  0.83921304  1
  I  I123  1  0.33317109  0.83589864  0.16241505  1
  I  I124  1  0.33324842  0.83328737  0.50001601  1
  I  I125  1  0.33333529  0.83363534  0.83750696  1
  I  I126  1  0.66933095  0.16691130  0.16794501  1
  I  I127  1  0.67205705  0.16685125  0.49987560  1
  I  I128  1  0.66976627  0.16735211  0.83232721  1
  I  I129  1  0.66363051  0.50547401  0.16581979  1
  I  I130  1  0.67053674  0.49832886  0.50160372  1
  I  I131  1  0.66718214  0.49964869  0.83250289  1
  I  I132  1  0.66395794  0.83112299  0.16363179  1
  I  I133  1  0.67050483  0.83470034  0.50039478  1
  I  I134  1  0.66431342  0.83269540  0.83610161  1
