# generated using pymatgen
data_Cs27Sn14Pb13I81
_symmetry_space_group_name_H-M   'P 1'
_cell_length_a   18.97564406
_cell_length_b   18.98186740
_cell_length_c   18.97177638
_cell_angle_alpha   90.00239038
_cell_angle_beta   89.99786501
_cell_angle_gamma   90.00020123
_symmetry_Int_Tables_number   1
_chemical_formula_structural   Cs27Sn14Pb13I81
_chemical_formula_sum   'Cs27 Sn14 Pb13 I81'
_cell_volume   6833.50406007
_cell_formula_units_Z   1
loop_
 _symmetry_equiv_pos_site_id
 _symmetry_equiv_pos_as_xyz
  1  'x, y, z'
loop_
 _atom_site_type_symbol
 _atom_site_label
 _atom_site_symmetry_multiplicity
 _atom_site_fract_x
 _atom_site_fract_y
 _atom_site_fract_z
 _atom_site_occupancy
  Cs  Cs0  1  0.00022128  0.00308202  -0.00018720  1
  Cs  Cs1  1  0.00118155  -0.00104368  0.33460072  1
  Cs  Cs2  1  0.00022589  -0.00060734  0.66635525  1
  Cs  Cs3  1  -0.00043945  0.33116295  -0.00006045  1
  Cs  Cs4  1  0.00057182  0.33416403  0.33402019  1
  Cs  Cs5  1  -0.00010052  0.33399231  0.66773212  1
  Cs  Cs6  1  0.00198646  0.66532333  -0.00032104  1
  Cs  Cs7  1  0.00065756  0.66607015  0.33482063  1
  Cs  Cs8  1  -0.00095418  0.66647676  0.66585964  1
  Cs  Cs9  1  0.33269550  0.00172923  -0.00037323  1
  Cs  Cs10  1  0.33080883  0.00179438  0.33664119  1
  Cs  Cs11  1  0.33409324  -0.00357406  0.66387296  1
  Cs  Cs12  1  0.33155967  0.33203288  -0.00054572  1
  Cs  Cs13  1  0.33518377  0.33270791  0.33205956  1
  Cs  Cs14  1  0.33379100  0.33317587  0.66768721  1
  Cs  Cs15  1  0.33345482  0.66659207  -0.00025744  1
  Cs  Cs16  1  0.33844412  0.66684463  0.33228918  1
  Cs  Cs17  1  0.33264729  0.66993788  0.66763986  1
  Cs  Cs18  1  0.66657151  -0.00106370  0.00424068  1
  Cs  Cs19  1  0.66625478  0.00056789  0.32956323  1
  Cs  Cs20  1  0.66542117  -0.00186729  0.66584774  1
  Cs  Cs21  1  0.66870220  0.33072700  -0.00017779  1
  Cs  Cs22  1  0.66340884  0.33408568  0.33517276  1
  Cs  Cs23  1  0.66664713  0.33529728  0.66504122  1
  Cs  Cs24  1  0.66506739  0.67101670  0.00238007  1
  Cs  Cs25  1  0.66123198  0.66574093  0.32226358  1
  Cs  Cs26  1  0.67075608  0.66410238  0.66905884  1
  Sn  Sn27  1  0.16560560  0.83266073  0.83414701  1
  Sn  Sn28  1  0.16647917  0.50066422  0.83242377  1
  Sn  Sn29  1  0.49902687  0.16685749  0.16560587  1
  Sn  Sn30  1  0.16635159  0.49931673  0.50080669  1
  Sn  Sn31  1  0.16577768  0.16769724  0.49948706  1
  Sn  Sn32  1  0.83324840  0.83264786  0.50038444  1
  Sn  Sn33  1  0.83353990  0.50063679  0.83311642  1
  Sn  Sn34  1  0.50008668  0.49913061  0.83317699  1
  Sn  Sn35  1  0.49995434  0.16712970  0.83377232  1
  Sn  Sn36  1  0.16629236  0.83387746  0.16590352  1
  Sn  Sn37  1  0.83420537  0.16683639  0.50014905  1
  Sn  Sn38  1  0.83403640  0.50044302  0.50033629  1
  Sn  Sn39  1  0.16704865  0.16600866  0.16745817  1
  Sn  Sn40  1  0.83450541  0.83284054  0.83269248  1
  Pb  Pb41  1  0.83348873  0.50002017  0.16659501  1
  Pb  Pb42  1  0.49962819  0.16670890  0.50018726  1
  Pb  Pb43  1  0.49987443  0.50021240  0.50228925  1
  Pb  Pb44  1  0.50402170  0.83294266  0.50009996  1
  Pb  Pb45  1  0.83602496  0.83327505  0.16615210  1
  Pb  Pb46  1  0.16807382  0.16649134  0.83275375  1
  Pb  Pb47  1  0.83103693  0.16634971  0.83113213  1
  Pb  Pb48  1  0.50023378  0.83320274  0.83319660  1
  Pb  Pb49  1  0.16533430  0.83273898  0.50023634  1
  Pb  Pb50  1  0.16661049  0.49972164  0.16696696  1
  Pb  Pb51  1  0.83386170  0.16681210  0.16960012  1
  Pb  Pb52  1  0.49664158  0.83607337  0.16655153  1
  Pb  Pb53  1  0.49982897  0.49729668  0.16337884  1
  I  I54  1  0.17028486  0.00084675  0.16676876  1
  I  I55  1  0.16319911  0.00225525  0.49911262  1
  I  I56  1  0.16381092  -0.00247206  0.83391356  1
  I  I57  1  0.17091631  0.33019778  0.16780603  1
  I  I58  1  0.15905965  0.33333747  0.50039540  1
  I  I59  1  0.16433217  0.33606992  0.83267831  1
  I  I60  1  0.16396431  0.66917302  0.16502886  1
  I  I61  1  0.16237872  0.66387502  0.50139138  1
  I  I62  1  0.16831636  0.66595851  0.83333324  1
  I  I63  1  0.49970517  0.00392166  0.15895943  1
  I  I64  1  0.49900854  0.00031911  0.50351167  1
  I  I65  1  0.49961052  0.00271709  0.83706922  1
  I  I66  1  0.49210502  0.32951908  0.16613546  1
  I  I67  1  0.50478731  0.33328864  0.49848156  1
  I  I68  1  0.49938810  0.33399738  0.83678744  1
  I  I69  1  0.50002475  0.66670405  0.16709772  1
  I  I70  1  0.49597157  0.66640590  0.50200861  1
  I  I71  1  0.49982169  0.66357264  0.83066512  1
  I  I72  1  0.83092477  0.00011839  0.16632455  1
  I  I73  1  0.83756178  -0.00002827  0.50405995  1
  I  I74  1  0.83697123  -0.00280077  0.82878509  1
  I  I75  1  0.83577731  0.33312686  0.16497411  1
  I  I76  1  0.83728531  0.33399548  0.50408207  1
  I  I77  1  0.83580596  0.33630666  0.82957798  1
  I  I78  1  0.83487407  0.66681577  0.17178283  1
  I  I79  1  0.83923159  0.66583305  0.50657903  1
  I  I80  1  0.83245677  0.66604381  0.82519958  1
  I  I81  1  0.17018723  0.16575753  0.00192117  1
  I  I82  1  0.16874599  0.16573666  0.33364266  1
  I  I83  1  0.16400280  0.16760269  0.66389425  1
  I  I84  1  0.16614852  0.50064064  -0.00347228  1
  I  I85  1  0.16023057  0.49903640  0.33667370  1
  I  I86  1  0.16576231  0.49916575  0.66738511  1
  I  I87  1  0.16134436  0.83353532  -0.00143091  1
  I  I88  1  0.16510258  0.83561359  0.33148206  1
  I  I89  1  0.16520172  0.83288432  0.66943432  1
  I  I90  1  0.49372217  0.17103820  -0.00008094  1
  I  I91  1  0.49880686  0.16461508  0.33083592  1
  I  I92  1  0.50018609  0.17095200  0.66933534  1
  I  I93  1  0.49920212  0.49903990  -0.00492919  1
  I  I94  1  0.50066154  0.49908929  0.33325059  1
  I  I95  1  0.50013073  0.49202763  0.67058533  1
  I  I96  1  0.50523334  0.83150724  -0.00025438  1
  I  I97  1  0.49962196  0.83531012  0.33308869  1
  I  I98  1  0.49305964  0.83839370  0.66715816  1
  I  I99  1  0.83474344  0.16682190  -0.00017364  1
  I  I100  1  0.83247684  0.16670387  0.33793417  1
  I  I101  1  0.83888938  0.16697438  0.66314845  1
  I  I102  1  0.83428864  0.50480999  -0.00428513  1
  I  I103  1  0.83966871  0.49992491  0.33738094  1
  I  I104  1  0.83383869  0.50041113  0.66700552  1
  I  I105  1  0.83423099  0.82772481  -0.00360546  1
  I  I106  1  0.83500173  0.83382545  0.33645718  1
  I  I107  1  0.83980979  0.83272502  0.66733189  1
  I  I108  1  0.00349127  0.16294139  0.16854194  1
  I  I109  1  0.00074705  0.16762328  0.49485431  1
  I  I110  1  -0.00003273  0.16853004  0.83619472  1
  I  I111  1  0.00037061  0.49662127  0.16166304  1
  I  I112  1  -0.00007359  0.49839989  0.50779778  1
  I  I113  1  0.00017298  0.50504700  0.82897455  1
  I  I114  1  0.00371224  0.84123957  0.16466968  1
  I  I115  1  -0.00285035  0.83423501  0.50151992  1
  I  I116  1  0.00022769  0.82611361  0.83316548  1
  I  I117  1  0.33213601  0.16264573  0.16862380  1
  I  I118  1  0.32995048  0.17131527  0.49880266  1
  I  I119  1  0.33590001  0.17101173  0.83279996  1
  I  I120  1  0.33306366  0.50254650  0.16748630  1
  I  I121  1  0.32979109  0.49377654  0.50382160  1
  I  I122  1  0.33215079  0.49966724  0.82985895  1
  I  I123  1  0.32871368  0.83398660  0.15998845  1
  I  I124  1  0.33285165  0.83482567  0.50050793  1
  I  I125  1  0.33020787  0.83031493  0.83749501  1
  I  I126  1  0.66403598  0.16796641  0.16332053  1
  I  I127  1  0.66962474  0.16727918  0.50125510  1
  I  I128  1  0.66321789  0.17062193  0.83740555  1
  I  I129  1  0.66650799  0.49782602  0.16838317  1
  I  I130  1  0.67030950  0.49827332  0.50485561  1
  I  I131  1  0.66775645  0.49932567  0.82859075  1
  I  I132  1  0.66667235  0.83463801  0.16731018  1
  I  I133  1  0.67261846  0.83475054  0.50865294  1
  I  I134  1  0.66994589  0.83045058  0.82741335  1
