# generated using pymatgen
data_Cs27Sn14Pb13I81
_symmetry_space_group_name_H-M   'P 1'
_cell_length_a   18.98493744
_cell_length_b   18.97003698
_cell_length_c   18.97124380
_cell_angle_alpha   89.99972883
_cell_angle_beta   89.99812940
_cell_angle_gamma   90.00011254
_symmetry_Int_Tables_number   1
_chemical_formula_structural   Cs27Sn14Pb13I81
_chemical_formula_sum   'Cs27 Sn14 Pb13 I81'
_cell_volume   6832.39793657
_cell_formula_units_Z   1
loop_
 _symmetry_equiv_pos_site_id
 _symmetry_equiv_pos_as_xyz
  1  'x, y, z'
loop_
 _atom_site_type_symbol
 _atom_site_label
 _atom_site_symmetry_multiplicity
 _atom_site_fract_x
 _atom_site_fract_y
 _atom_site_fract_z
 _atom_site_occupancy
  Cs  Cs0  1  -0.00026722  -0.00124493  0.00088787  1
  Cs  Cs1  1  0.00678251  0.00845767  0.34072344  1
  Cs  Cs2  1  0.00114695  0.00363456  0.66133511  1
  Cs  Cs3  1  -0.00096202  0.33190519  0.00048160  1
  Cs  Cs4  1  -0.00056990  0.32685028  0.33303830  1
  Cs  Cs5  1  0.00080449  0.33690853  0.66707281  1
  Cs  Cs6  1  -0.00218730  0.66714815  -0.00234627  1
  Cs  Cs7  1  0.00264406  0.66757556  0.33056680  1
  Cs  Cs8  1  -0.00164463  0.66349628  0.66997601  1
  Cs  Cs9  1  0.33381985  0.00578431  -0.00075774  1
  Cs  Cs10  1  0.32152086  -0.00495713  0.33709404  1
  Cs  Cs11  1  0.33270507  0.00425250  0.66571763  1
  Cs  Cs12  1  0.33596426  0.32581692  0.00682775  1
  Cs  Cs13  1  0.33654383  0.33509530  0.32573430  1
  Cs  Cs14  1  0.33478367  0.33281053  0.66743165  1
  Cs  Cs15  1  0.33337876  0.66682349  0.00154688  1
  Cs  Cs16  1  0.33055270  0.66811911  0.32955178  1
  Cs  Cs17  1  0.33499320  0.66496369  0.66755622  1
  Cs  Cs18  1  0.66602543  -0.00190554  -0.00021620  1
  Cs  Cs19  1  0.67021038  -0.00005133  0.33615764  1
  Cs  Cs20  1  0.66587479  -0.00247048  0.66492930  1
  Cs  Cs21  1  0.66557324  0.33098163  0.00207862  1
  Cs  Cs22  1  0.66589575  0.33172650  0.33145275  1
  Cs  Cs23  1  0.66470608  0.33596893  0.66698078  1
  Cs  Cs24  1  0.66761271  0.66764931  -0.00129953  1
  Cs  Cs25  1  0.66608839  0.66729079  0.33291251  1
  Cs  Cs26  1  0.66629998  0.66612245  0.66745503  1
  Sn  Sn27  1  0.16700697  0.50013208  0.50053189  1
  Sn  Sn28  1  0.50021662  0.16743626  0.49981737  1
  Sn  Sn29  1  0.49966812  0.83253586  0.83406485  1
  Sn  Sn30  1  0.16735521  0.50051315  0.83320771  1
  Sn  Sn31  1  0.16674145  0.83259938  0.83324336  1
  Sn  Sn32  1  0.83301225  0.49985291  0.83351810  1
  Sn  Sn33  1  0.83284655  0.83276039  0.16646082  1
  Sn  Sn34  1  0.50081321  0.83337334  0.16599137  1
  Sn  Sn35  1  0.83329240  0.50039814  0.49951452  1
  Sn  Sn36  1  0.83347171  0.83356977  0.83365548  1
  Sn  Sn37  1  0.49978169  0.49926409  0.50043173  1
  Sn  Sn38  1  0.83314297  0.50085759  0.16646032  1
  Sn  Sn39  1  0.83306910  0.16651964  0.83309178  1
  Sn  Sn40  1  0.49966500  0.50034022  0.83332436  1
  Pb  Pb41  1  0.16658238  0.16662694  0.16644566  1
  Pb  Pb42  1  0.50035898  0.16237895  0.17005655  1
  Pb  Pb43  1  0.16370905  0.49996930  0.16581103  1
  Pb  Pb44  1  0.83140182  0.16959388  0.50256774  1
  Pb  Pb45  1  0.16578215  0.83317937  0.16385875  1
  Pb  Pb46  1  0.83316618  0.16572320  0.16451745  1
  Pb  Pb47  1  0.83358140  0.83120912  0.49980528  1
  Pb  Pb48  1  0.50216249  0.50178727  0.16637499  1
  Pb  Pb49  1  0.16412948  0.16732749  0.83331836  1
  Pb  Pb50  1  0.16956552  0.17054420  0.50050728  1
  Pb  Pb51  1  0.50206133  0.16657196  0.83206221  1
  Pb  Pb52  1  0.50000683  0.83259180  0.50005885  1
  Pb  Pb53  1  0.16645980  0.83037511  0.50325656  1
  I  I54  1  0.16514721  -0.00067451  0.16517777  1
  I  I55  1  0.16826071  0.00026866  0.49985111  1
  I  I56  1  0.16706445  -0.00319803  0.83587268  1
  I  I57  1  0.16523484  0.33400258  0.16398817  1
  I  I58  1  0.16196566  0.33837221  0.50904483  1
  I  I59  1  0.16529687  0.33736055  0.82834532  1
  I  I60  1  0.16891277  0.66654744  0.17071089  1
  I  I61  1  0.16969961  0.66220589  0.50154459  1
  I  I62  1  0.16249118  0.66568490  0.82956451  1
  I  I63  1  0.50820744  -0.00523573  0.15838509  1
  I  I64  1  0.50200950  0.00194565  0.50124499  1
  I  I65  1  0.50072453  -0.00327955  0.83500551  1
  I  I66  1  0.50077581  0.33327010  0.16424126  1
  I  I67  1  0.50077404  0.33612642  0.50719264  1
  I  I68  1  0.50090012  0.33670243  0.83012092  1
  I  I69  1  0.50245810  0.66969564  0.16644745  1
  I  I70  1  0.50100039  0.66289585  0.50264667  1
  I  I71  1  0.50412886  0.66595968  0.83070073  1
  I  I72  1  0.82834810  -0.00395453  0.15932191  1
  I  I73  1  0.83056377  0.00024665  0.50079821  1
  I  I74  1  0.83243205  -0.00154796  0.83898617  1
  I  I75  1  0.83426764  0.33637245  0.16553891  1
  I  I76  1  0.83578006  0.33821033  0.50055022  1
  I  I77  1  0.83355254  0.33565439  0.83253258  1
  I  I78  1  0.82981676  0.66649354  0.16138506  1
  I  I79  1  0.82924175  0.66237572  0.50580521  1
  I  I80  1  0.83343096  0.66588288  0.83343319  1
  I  I81  1  0.16748773  0.16961072  -0.00075942  1
  I  I82  1  0.16535823  0.16693154  0.33402089  1
  I  I83  1  0.16603010  0.16297094  0.66683772  1
  I  I84  1  0.16569432  0.50503510  -0.00398535  1
  I  I85  1  0.16751027  0.49859063  0.33626127  1
  I  I86  1  0.16216131  0.50389604  0.66781233  1
  I  I87  1  0.16552915  0.82475641  -0.00431244  1
  I  I88  1  0.16783864  0.83303610  0.33333038  1
  I  I89  1  0.16642377  0.83148402  0.67151246  1
  I  I90  1  0.50058704  0.16948674  0.00011686  1
  I  I91  1  0.50185117  0.17641214  0.33744429  1
  I  I92  1  0.50158978  0.16787528  0.66426640  1
  I  I93  1  0.50036201  0.50272571  -0.00338141  1
  I  I94  1  0.50047358  0.49764061  0.33610568  1
  I  I95  1  0.50424928  0.50202372  0.66772661  1
  I  I96  1  0.50165101  0.82703694  -0.00209447  1
  I  I97  1  0.50695265  0.83286583  0.33052261  1
  I  I98  1  0.50193594  0.83154637  0.67021659  1
  I  I99  1  0.83215317  0.17246540  -0.00361457  1
  I  I100  1  0.83278785  0.16680852  0.33367539  1
  I  I101  1  0.83293906  0.16503868  0.67045264  1
  I  I102  1  0.83362351  0.50090679  -0.00163986  1
  I  I103  1  0.83228708  0.50548148  0.33351404  1
  I  I104  1  0.83334005  0.49999193  0.66796774  1
  I  I105  1  0.83264452  0.82797230  -0.00183325  1
  I  I106  1  0.82557572  0.82673966  0.32999325  1
  I  I107  1  0.83155895  0.83195724  0.67060050  1
  I  I108  1  -0.00065257  0.16587099  0.16676975  1
  I  I109  1  0.00002905  0.16648859  0.49995651  1
  I  I110  1  -0.00393369  0.16775088  0.83328981  1
  I  I111  1  -0.00459670  0.50686217  0.16525640  1
  I  I112  1  -0.00056504  0.50291577  0.50491785  1
  I  I113  1  -0.00108104  0.50255479  0.83041557  1
  I  I114  1  -0.00374194  0.82728502  0.16065829  1
  I  I115  1  -0.00004004  0.83217456  0.49947121  1
  I  I116  1  -0.00117686  0.82909825  0.83693016  1
  I  I117  1  0.33402074  0.16692724  0.16497814  1
  I  I118  1  0.33708581  0.17068046  0.50298517  1
  I  I119  1  0.33357193  0.16612807  0.83195236  1
  I  I120  1  0.33352694  0.50136113  0.16739157  1
  I  I121  1  0.33396537  0.49671341  0.50903688  1
  I  I122  1  0.33390911  0.50834422  0.82437849  1
  I  I123  1  0.33599929  0.83322181  0.16361609  1
  I  I124  1  0.33341986  0.83205294  0.49859154  1
  I  I125  1  0.33418200  0.82515683  0.83607605  1
  I  I126  1  0.66669543  0.16968100  0.16679827  1
  I  I127  1  0.66391731  0.17304502  0.50144314  1
  I  I128  1  0.66982151  0.16816752  0.83214733  1
  I  I129  1  0.67027071  0.50200874  0.16575898  1
  I  I130  1  0.66660145  0.49693019  0.50421729  1
  I  I131  1  0.66712066  0.50256754  0.83008638  1
  I  I132  1  0.66755242  0.82857980  0.15751141  1
  I  I133  1  0.66669120  0.83084294  0.50465584  1
  I  I134  1  0.66697890  0.83013591  0.83667265  1
