# generated using pymatgen
data_Cs27Sn14Pb13I81
_symmetry_space_group_name_H-M   'P 1'
_cell_length_a   18.97287941
_cell_length_b   18.97935841
_cell_length_c   18.97861372
_cell_angle_alpha   89.99866550
_cell_angle_beta   89.99953287
_cell_angle_gamma   89.99874526
_symmetry_Int_Tables_number   1
_chemical_formula_structural   Cs27Sn14Pb13I81
_chemical_formula_sum   'Cs27 Sn14 Pb13 I81'
_cell_volume   6834.06743337
_cell_formula_units_Z   1
loop_
 _symmetry_equiv_pos_site_id
 _symmetry_equiv_pos_as_xyz
  1  'x, y, z'
loop_
 _atom_site_type_symbol
 _atom_site_label
 _atom_site_symmetry_multiplicity
 _atom_site_fract_x
 _atom_site_fract_y
 _atom_site_fract_z
 _atom_site_occupancy
  Cs  Cs0  1  0.00207049  -0.00139837  -0.00149979  1
  Cs  Cs1  1  0.00788295  -0.00054305  0.33478396  1
  Cs  Cs2  1  -0.00045890  -0.00201038  0.66647159  1
  Cs  Cs3  1  -0.00497479  0.33324665  0.00100825  1
  Cs  Cs4  1  0.00030905  0.33343136  0.33332523  1
  Cs  Cs5  1  -0.00162576  0.33230528  0.66567148  1
  Cs  Cs6  1  0.00052597  0.66753069  -0.00011677  1
  Cs  Cs7  1  -0.00316218  0.66904075  0.33370595  1
  Cs  Cs8  1  0.00522950  0.66865846  0.66675145  1
  Cs  Cs9  1  0.33474966  -0.00038285  0.00124973  1
  Cs  Cs10  1  0.32722740  0.00220387  0.33197390  1
  Cs  Cs11  1  0.33274635  -0.00032263  0.66787627  1
  Cs  Cs12  1  0.33479504  0.33395004  -0.00029866  1
  Cs  Cs13  1  0.33008628  0.33095759  0.33402041  1
  Cs  Cs14  1  0.33141343  0.34112824  0.66611629  1
  Cs  Cs15  1  0.33112649  0.66714562  -0.00307655  1
  Cs  Cs16  1  0.33356383  0.66591211  0.33974309  1
  Cs  Cs17  1  0.32676672  0.65529954  0.66231207  1
  Cs  Cs18  1  0.66584630  0.00043287  -0.00096077  1
  Cs  Cs19  1  0.66595372  -0.00057743  0.33330415  1
  Cs  Cs20  1  0.66791577  0.00069454  0.66770313  1
  Cs  Cs21  1  0.66713459  0.33244826  0.00093137  1
  Cs  Cs22  1  0.66792794  0.33280631  0.33117810  1
  Cs  Cs23  1  0.66742222  0.33169295  0.66734699  1
  Cs  Cs24  1  0.66761156  0.66806918  0.00188255  1
  Cs  Cs25  1  0.66775444  0.66932816  0.33331575  1
  Cs  Cs26  1  0.66484965  0.66813042  0.66324694  1
  Sn  Sn27  1  0.50053931  0.83338129  0.83350303  1
  Sn  Sn28  1  0.49880448  0.16626652  0.83319666  1
  Sn  Sn29  1  0.16784326  0.50000431  0.16637244  1
  Sn  Sn30  1  0.83211218  0.83217160  0.83417703  1
  Sn  Sn31  1  0.83280023  0.16513690  0.16771590  1
  Sn  Sn32  1  0.83254451  0.83503045  0.16571398  1
  Sn  Sn33  1  0.83229560  0.16719679  0.49864783  1
  Sn  Sn34  1  0.50075289  0.16655976  0.49993739  1
  Sn  Sn35  1  0.83261362  0.49934442  0.50128085  1
  Sn  Sn36  1  0.83262189  0.50148117  0.83210871  1
  Sn  Sn37  1  0.50071893  0.16640219  0.16691800  1
  Sn  Sn38  1  0.49885071  0.50026522  0.16653433  1
  Sn  Sn39  1  0.16810630  0.16677560  0.83366399  1
  Sn  Sn40  1  0.50068410  0.83337765  0.16594037  1
  Pb  Pb41  1  0.50240747  0.49744281  0.49712956  1
  Pb  Pb42  1  0.83250475  0.16602928  0.83346368  1
  Pb  Pb43  1  0.83320698  0.83407842  0.50000711  1
  Pb  Pb44  1  0.49987920  0.83576934  0.50031068  1
  Pb  Pb45  1  0.16715776  0.83336792  0.50016504  1
  Pb  Pb46  1  0.83263109  0.50024567  0.16675279  1
  Pb  Pb47  1  0.16351418  0.49962800  0.49723315  1
  Pb  Pb48  1  0.16752498  0.83512728  0.83348827  1
  Pb  Pb49  1  0.16376971  0.49764799  0.83539647  1
  Pb  Pb50  1  0.16722718  0.83086688  0.16654175  1
  Pb  Pb51  1  0.50200560  0.50042019  0.83510776  1
  Pb  Pb52  1  0.16661860  0.16820155  0.16477197  1
  Pb  Pb53  1  0.16667402  0.16678426  0.50275774  1
  I  I54  1  0.16721313  0.00001179  0.16614769  1
  I  I55  1  0.16304002  0.00079193  0.49876483  1
  I  I56  1  0.16485607  0.00311293  0.83482989  1
  I  I57  1  0.16925625  0.33588643  0.16503655  1
  I  I58  1  0.16759262  0.33317335  0.50008866  1
  I  I59  1  0.17217915  0.33005666  0.83432721  1
  I  I60  1  0.16816335  0.66313983  0.16561288  1
  I  I61  1  0.16515606  0.66597495  0.50032477  1
  I  I62  1  0.16778660  0.66640940  0.83383560  1
  I  I63  1  0.50593653  0.00075256  0.16549166  1
  I  I64  1  0.50831735  0.00419611  0.49662112  1
  I  I65  1  0.50271920  0.00077059  0.83808694  1
  I  I66  1  0.50149694  0.33182781  0.16610274  1
  I  I67  1  0.50258616  0.32922720  0.50126043  1
  I  I68  1  0.49885705  0.33033368  0.83504143  1
  I  I69  1  0.50195266  0.66761891  0.16086235  1
  I  I70  1  0.50094536  0.66638666  0.49913760  1
  I  I71  1  0.50448152  0.66968766  0.84037451  1
  I  I72  1  0.82560428  0.00047200  0.16552444  1
  I  I73  1  0.82878359  0.00338667  0.49980231  1
  I  I74  1  0.83271891  -0.00240633  0.83453446  1
  I  I75  1  0.83033641  0.33101354  0.16620561  1
  I  I76  1  0.82970454  0.33212327  0.49967528  1
  I  I77  1  0.83391053  0.33467288  0.83391711  1
  I  I78  1  0.83056709  0.66901260  0.16585764  1
  I  I79  1  0.83493308  0.66434506  0.49912410  1
  I  I80  1  0.82814387  0.66771350  0.83570524  1
  I  I81  1  0.16953422  0.16760604  -0.00282300  1
  I  I82  1  0.16793295  0.16784770  0.33322440  1
  I  I83  1  0.16900135  0.16652311  0.67050263  1
  I  I84  1  0.16802827  0.49904323  0.00292186  1
  I  I85  1  0.16938701  0.49770557  0.32958159  1
  I  I86  1  0.16728603  0.49959649  0.66673236  1
  I  I87  1  0.16426560  0.83318696  0.00008607  1
  I  I88  1  0.16500642  0.83418468  0.33268621  1
  I  I89  1  0.16432622  0.83472038  0.66734450  1
  I  I90  1  0.50076118  0.16639126  0.00071905  1
  I  I91  1  0.50610909  0.16766258  0.33204486  1
  I  I92  1  0.50196684  0.16117456  0.66737137  1
  I  I93  1  0.50071742  0.49421906  0.00328369  1
  I  I94  1  0.49940502  0.50091028  0.32886749  1
  I  I95  1  0.49998923  0.49981640  0.66652238  1
  I  I96  1  0.50496622  0.83899227  0.00063409  1
  I  I97  1  0.50561483  0.83275553  0.32965871  1
  I  I98  1  0.50643151  0.84039023  0.67036352  1
  I  I99  1  0.83058513  0.16786002  0.00255883  1
  I  I100  1  0.82570623  0.16862400  0.33247556  1
  I  I101  1  0.83071171  0.16824355  0.66474299  1
  I  I102  1  0.83353730  0.49944844  -0.00169130  1
  I  I103  1  0.83353080  0.49784853  0.33502045  1
  I  I104  1  0.83272742  0.49745262  0.66695768  1
  I  I105  1  0.82945953  0.83308656  0.00036757  1
  I  I106  1  0.82853270  0.83237625  0.33003907  1
  I  I107  1  0.82927683  0.83359122  0.66985765  1
  I  I108  1  -0.00333658  0.16556719  0.16868797  1
  I  I109  1  -0.00354431  0.17036052  0.49664065  1
  I  I110  1  0.00105638  0.16803107  0.83432967  1
  I  I111  1  0.00107152  0.49846245  0.16632006  1
  I  I112  1  -0.00443989  0.49238730  0.50116780  1
  I  I113  1  -0.00430729  0.50304225  0.83326156  1
  I  I114  1  -0.00345539  0.83573858  0.16318333  1
  I  I115  1  -0.00075072  0.83576213  0.49934745  1
  I  I116  1  -0.00323154  0.83167114  0.83735564  1
  I  I117  1  0.33693628  0.16421397  0.16909677  1
  I  I118  1  0.33678219  0.16451462  0.49550147  1
  I  I119  1  0.33605353  0.16083297  0.83501060  1
  I  I120  1  0.33509387  0.49818912  0.16500966  1
  I  I121  1  0.33354460  0.49938015  0.50100587  1
  I  I122  1  0.33350659  0.50189751  0.83309912  1
  I  I123  1  0.33738182  0.83749814  0.16192672  1
  I  I124  1  0.33410473  0.83620107  0.49858391  1
  I  I125  1  0.33729289  0.83817874  0.84006383  1
  I  I126  1  0.66596463  0.16906341  0.16477246  1
  I  I127  1  0.66704887  0.17066583  0.50075073  1
  I  I128  1  0.66374860  0.16612685  0.83409881  1
  I  I129  1  0.66416442  0.49865394  0.16631577  1
  I  I130  1  0.67023246  0.49758932  0.50118271  1
  I  I131  1  0.67004699  0.49726983  0.83362433  1
  I  I132  1  0.66647761  0.83222903  0.16249168  1
  I  I133  1  0.66673684  0.83069104  0.49969259  1
  I  I134  1  0.66668829  0.83665104  0.83833300  1
