# generated using pymatgen
data_Cs27Sn13Pb14I81
_symmetry_space_group_name_H-M   'P 1'
_cell_length_a   19.00299538
_cell_length_b   18.98396878
_cell_length_c   18.98888948
_cell_angle_alpha   89.99768820
_cell_angle_beta   90.00024898
_cell_angle_gamma   90.00101322
_symmetry_Int_Tables_number   1
_chemical_formula_structural   Cs27Sn13Pb14I81
_chemical_formula_sum   'Cs27 Sn13 Pb14 I81'
_cell_volume   6850.28499527
_cell_formula_units_Z   1
loop_
 _symmetry_equiv_pos_site_id
 _symmetry_equiv_pos_as_xyz
  1  'x, y, z'
loop_
 _atom_site_type_symbol
 _atom_site_label
 _atom_site_symmetry_multiplicity
 _atom_site_fract_x
 _atom_site_fract_y
 _atom_site_fract_z
 _atom_site_occupancy
  Cs  Cs0  1  0.00075430  0.00114605  0.00208984  1
  Cs  Cs1  1  0.00026978  -0.00075382  0.33204954  1
  Cs  Cs2  1  0.00005059  0.00204347  0.66563584  1
  Cs  Cs3  1  0.00010753  0.33292098  0.00036697  1
  Cs  Cs4  1  -0.00111143  0.33704544  0.33590361  1
  Cs  Cs5  1  -0.00197561  0.32190780  0.66191634  1
  Cs  Cs6  1  0.00009897  0.66564651  -0.00089623  1
  Cs  Cs7  1  -0.00105296  0.66324582  0.32883572  1
  Cs  Cs8  1  -0.00052180  0.67092761  0.67268936  1
  Cs  Cs9  1  0.33946657  0.00308700  0.00196957  1
  Cs  Cs10  1  0.33472998  0.00006190  0.33226223  1
  Cs  Cs11  1  0.33291714  -0.00057409  0.66651146  1
  Cs  Cs12  1  0.33562648  0.33313783  0.00036476  1
  Cs  Cs13  1  0.33233641  0.33760210  0.33506899  1
  Cs  Cs14  1  0.32965089  0.33329284  0.66339403  1
  Cs  Cs15  1  0.33280967  0.66547369  -0.00259422  1
  Cs  Cs16  1  0.33089684  0.66322414  0.33688374  1
  Cs  Cs17  1  0.33432887  0.66758516  0.66783469  1
  Cs  Cs18  1  0.65683156  0.00276385  0.00445495  1
  Cs  Cs19  1  0.66365130  -0.00105582  0.32952804  1
  Cs  Cs20  1  0.66718652  0.00053819  0.66702804  1
  Cs  Cs21  1  0.66292950  0.33073984  -0.00118466  1
  Cs  Cs22  1  0.66753922  0.33568182  0.33728801  1
  Cs  Cs23  1  0.67164934  0.33407149  0.66360229  1
  Cs  Cs24  1  0.66762091  0.66754871  -0.00012274  1
  Cs  Cs25  1  0.67094118  0.66532720  0.33260448  1
  Cs  Cs26  1  0.66668516  0.66613174  0.66765086  1
  Sn  Sn27  1  0.50016295  0.83394551  0.50009846  1
  Sn  Sn28  1  0.50005868  0.50061304  0.16614937  1
  Sn  Sn29  1  0.16624856  0.83323555  0.50002609  1
  Sn  Sn30  1  0.83369969  0.83331553  0.83329078  1
  Sn  Sn31  1  0.83357886  0.83330422  0.50034021  1
  Sn  Sn32  1  0.16585711  0.16640588  0.16666589  1
  Sn  Sn33  1  0.49999716  0.50025734  0.83388023  1
  Sn  Sn34  1  0.49987805  0.16591019  0.50024913  1
  Sn  Sn35  1  0.16678101  0.83384191  0.16625339  1
  Sn  Sn36  1  0.16620685  0.83316892  0.83375096  1
  Sn  Sn37  1  0.16617636  0.50007165  0.83295292  1
  Sn  Sn38  1  0.83406312  0.16655952  0.16655567  1
  Sn  Sn39  1  0.83382860  0.50018637  0.83335329  1
  Pb  Pb40  1  0.16606080  0.50249343  0.50330639  1
  Pb  Pb41  1  0.16673581  0.16584072  0.83547368  1
  Pb  Pb42  1  0.83328840  0.16548403  0.83538882  1
  Pb  Pb43  1  0.83154452  0.16363467  0.49756565  1
  Pb  Pb44  1  0.50004585  0.50051091  0.50061473  1
  Pb  Pb45  1  0.50008517  0.83185894  0.83155750  1
  Pb  Pb46  1  0.83383422  0.50267049  0.50278130  1
  Pb  Pb47  1  0.83519455  0.83468721  0.16580982  1
  Pb  Pb48  1  0.16827123  0.16417658  0.49732216  1
  Pb  Pb49  1  0.49994611  0.16972023  0.83034355  1
  Pb  Pb50  1  0.49724157  0.83078306  0.16921012  1
  Pb  Pb51  1  0.16797785  0.50009970  0.16455326  1
  Pb  Pb52  1  0.49940714  0.16893056  0.16879973  1
  Pb  Pb53  1  0.83139334  0.49778004  0.16400738  1
  I  I54  1  0.16327789  -0.00119080  0.16526820  1
  I  I55  1  0.16477872  -0.00435054  0.50622716  1
  I  I56  1  0.16071886  -0.00405856  0.83012993  1
  I  I57  1  0.16545763  0.33092134  0.16394938  1
  I  I58  1  0.17066748  0.33311909  0.49992545  1
  I  I59  1  0.16760241  0.33629039  0.83665134  1
  I  I60  1  0.16885633  0.66980333  0.16910917  1
  I  I61  1  0.17100290  0.67142322  0.49394412  1
  I  I62  1  0.16657651  0.66785660  0.83503878  1
  I  I63  1  0.50131891  -0.00015087  0.16610769  1
  I  I64  1  0.49932613  -0.00158748  0.49879888  1
  I  I65  1  0.50027161  -0.00015830  0.83465245  1
  I  I66  1  0.49771372  0.33637663  0.16383609  1
  I  I67  1  0.49997771  0.33124382  0.49915485  1
  I  I68  1  0.49958570  0.33802839  0.83649554  1
  I  I69  1  0.49894735  0.66347051  0.16337098  1
  I  I70  1  0.49869257  0.66981164  0.50055726  1
  I  I71  1  0.49933719  0.66372846  0.83437602  1
  I  I72  1  0.83431518  0.00244190  0.16542069  1
  I  I73  1  0.83642432  -0.00429765  0.50782811  1
  I  I74  1  0.84034632  -0.00397980  0.82863788  1
  I  I75  1  0.84021365  0.33006200  0.16541676  1
  I  I76  1  0.82969638  0.33299066  0.50087359  1
  I  I77  1  0.83282025  0.33618292  0.83641694  1
  I  I78  1  0.83325183  0.66676212  0.16938602  1
  I  I79  1  0.82966709  0.67115625  0.49933155  1
  I  I80  1  0.83397717  0.66728891  0.82971779  1
  I  I81  1  0.16453033  0.16058439  0.00330733  1
  I  I82  1  0.16394948  0.16101373  0.32958831  1
  I  I83  1  0.16839209  0.16768233  0.66645802  1
  I  I84  1  0.16534528  0.50690588  -0.00343493  1
  I  I85  1  0.17109068  0.50089775  0.33323671  1
  I  I86  1  0.17182102  0.50587656  0.67160162  1
  I  I87  1  0.16062848  0.83207581  -0.00090215  1
  I  I88  1  0.16802212  0.83937595  0.33348127  1
  I  I89  1  0.16703216  0.82718219  0.66696297  1
  I  I90  1  0.50035981  0.16620274  0.00026350  1
  I  I91  1  0.49983975  0.16338392  0.33616804  1
  I  I92  1  0.50005523  0.16234047  0.66280171  1
  I  I93  1  0.49925073  0.49965975  -0.00118995  1
  I  I94  1  0.49830572  0.49954867  0.33139555  1
  I  I95  1  0.49975451  0.50107831  0.66982306  1
  I  I96  1  0.50043837  0.83416198  0.00008468  1
  I  I97  1  0.50110699  0.83493531  0.33714193  1
  I  I98  1  0.49522243  0.83416982  0.66354321  1
  I  I99  1  0.83674627  0.16515838  0.00301681  1
  I  I100  1  0.83732157  0.16502087  0.33004970  1
  I  I101  1  0.83132340  0.16959800  0.66651865  1
  I  I102  1  0.83542857  0.50812800  -0.00393562  1
  I  I103  1  0.82971503  0.50051590  0.33313735  1
  I  I104  1  0.82872449  0.50095437  0.67113317  1
  I  I105  1  0.83925445  0.82926661  -0.00336664  1
  I  I106  1  0.83333482  0.83659689  0.33581650  1
  I  I107  1  0.83749844  0.82926802  0.66703029  1
  I  I108  1  0.00090368  0.16174942  0.16546123  1
  I  I109  1  -0.00003505  0.16647375  0.50112373  1
  I  I110  1  0.00003109  0.17211221  0.83144708  1
  I  I111  1  0.00005067  0.50127304  0.16577086  1
  I  I112  1  -0.00000792  0.49938694  0.49757112  1
  I  I113  1  0.00013665  0.50754098  0.83385582  1
  I  I114  1  0.00336436  0.83392001  0.17097741  1
  I  I115  1  0.00035634  0.83192100  0.50181988  1
  I  I116  1  0.00057325  0.82431644  0.82836287  1
  I  I117  1  0.33074397  0.16269049  0.16745702  1
  I  I118  1  0.33601022  0.16134099  0.49805508  1
  I  I119  1  0.33335044  0.16624463  0.83629571  1
  I  I120  1  0.33571552  0.49848665  0.16079544  1
  I  I121  1  0.33330873  0.50218611  0.50220847  1
  I  I122  1  0.33298073  0.50481546  0.83721793  1
  I  I123  1  0.32925999  0.83996238  0.16450766  1
  I  I124  1  0.33281602  0.83687139  0.50006805  1
  I  I125  1  0.33037336  0.82874622  0.83219832  1
  I  I126  1  0.66831106  0.16796122  0.16734012  1
  I  I127  1  0.66385351  0.16147499  0.49734139  1
  I  I128  1  0.66661691  0.16591024  0.83737870  1
  I  I129  1  0.66360899  0.49829274  0.16173102  1
  I  I130  1  0.66663715  0.50224527  0.50162139  1
  I  I131  1  0.66692112  0.50473057  0.83709783  1
  I  I132  1  0.66650354  0.83498919  0.16689720  1
  I  I133  1  0.66689085  0.83679099  0.50588063  1
  I  I134  1  0.66943031  0.82854626  0.82772828  1
