# generated using pymatgen
data_Cs27Sn13Pb14I81
_symmetry_space_group_name_H-M   'P 1'
_cell_length_a   18.97967768
_cell_length_b   18.97523606
_cell_length_c   18.97500942
_cell_angle_alpha   89.99894726
_cell_angle_beta   90.00078939
_cell_angle_gamma   90.00117589
_symmetry_Int_Tables_number   1
_chemical_formula_structural   Cs27Sn13Pb14I81
_chemical_formula_sum   'Cs27 Sn13 Pb14 I81'
_cell_volume   6833.73321061
_cell_formula_units_Z   1
loop_
 _symmetry_equiv_pos_site_id
 _symmetry_equiv_pos_as_xyz
  1  'x, y, z'
loop_
 _atom_site_type_symbol
 _atom_site_label
 _atom_site_symmetry_multiplicity
 _atom_site_fract_x
 _atom_site_fract_y
 _atom_site_fract_z
 _atom_site_occupancy
  Cs  Cs0  1  0.00039874  0.00610110  -0.00277013  1
  Cs  Cs1  1  -0.00223785  0.00225350  0.33591055  1
  Cs  Cs2  1  0.00446703  -0.00027935  0.66588047  1
  Cs  Cs3  1  0.00147611  0.32540861  -0.00155062  1
  Cs  Cs4  1  0.00548080  0.33143451  0.33136527  1
  Cs  Cs5  1  -0.00485358  0.33267185  0.67016620  1
  Cs  Cs6  1  0.00048539  0.66719798  0.00080899  1
  Cs  Cs7  1  0.00038591  0.66521823  0.33844531  1
  Cs  Cs8  1  0.00105395  0.66678597  0.65795647  1
  Cs  Cs9  1  0.33407028  -0.00165152  -0.00200833  1
  Cs  Cs10  1  0.33785379  0.00041891  0.33346801  1
  Cs  Cs11  1  0.33188402  0.00009184  0.66825707  1
  Cs  Cs12  1  0.33003478  0.33502508  0.00080807  1
  Cs  Cs13  1  0.33064980  0.33484379  0.33629392  1
  Cs  Cs14  1  0.33842451  0.33618158  0.66271850  1
  Cs  Cs15  1  0.33382921  0.66711458  0.00028066  1
  Cs  Cs16  1  0.32999055  0.66505438  0.33063314  1
  Cs  Cs17  1  0.32924833  0.66426680  0.66785706  1
  Cs  Cs18  1  0.66624863  -0.00142912  0.00113150  1
  Cs  Cs19  1  0.66562918  0.00006377  0.33288966  1
  Cs  Cs20  1  0.66493941  -0.00008915  0.66530855  1
  Cs  Cs21  1  0.66962673  0.33462763  -0.00227127  1
  Cs  Cs22  1  0.66460390  0.33092019  0.33517094  1
  Cs  Cs23  1  0.66667516  0.34155753  0.66698701  1
  Cs  Cs24  1  0.66567934  0.66752532  0.00086270  1
  Cs  Cs25  1  0.66937762  0.67006248  0.32936400  1
  Cs  Cs26  1  0.67005340  0.66008324  0.66798792  1
  Sn  Sn27  1  0.83302539  0.50024210  0.16657028  1
  Sn  Sn28  1  0.16634869  0.50023555  0.83368684  1
  Sn  Sn29  1  0.50031960  0.16635810  0.83413483  1
  Sn  Sn30  1  0.50080736  0.49989558  0.16654845  1
  Sn  Sn31  1  0.83292122  0.83342886  0.83377382  1
  Sn  Sn32  1  0.49993746  0.16697187  0.16554341  1
  Sn  Sn33  1  0.16602919  0.83393087  0.16660810  1
  Sn  Sn34  1  0.50003722  0.83331204  0.16644658  1
  Sn  Sn35  1  0.16587359  0.16633675  0.50010480  1
  Sn  Sn36  1  0.83381925  0.83289939  0.16576865  1
  Sn  Sn37  1  0.50011843  0.83275008  0.50049503  1
  Sn  Sn38  1  0.83381021  0.16656321  0.50012936  1
  Sn  Sn39  1  0.50090243  0.83371969  0.83301845  1
  Pb  Pb40  1  0.16944679  0.16413056  0.16805262  1
  Pb  Pb41  1  0.49897646  0.50055000  0.83564564  1
  Pb  Pb42  1  0.50021288  0.16530681  0.50040773  1
  Pb  Pb43  1  0.16652414  0.49752077  0.50254627  1
  Pb  Pb44  1  0.83068080  0.16425955  0.83112019  1
  Pb  Pb45  1  0.16649862  0.83216395  0.83507619  1
  Pb  Pb46  1  0.83324726  0.49732449  0.49679931  1
  Pb  Pb47  1  0.50020063  0.50359337  0.49687786  1
  Pb  Pb48  1  0.83567528  0.50268701  0.83592083  1
  Pb  Pb49  1  0.83122121  0.16642594  0.16779302  1
  Pb  Pb50  1  0.16943751  0.16867328  0.83123354  1
  Pb  Pb51  1  0.16609214  0.50180743  0.16534936  1
  Pb  Pb52  1  0.16913196  0.83496837  0.49748745  1
  Pb  Pb53  1  0.83139722  0.83461559  0.50002722  1
  I  I54  1  0.16731028  -0.00393652  0.16591932  1
  I  I55  1  0.16395847  0.00265567  0.50015207  1
  I  I56  1  0.16615737  0.00003299  0.83332647  1
  I  I57  1  0.16755899  0.33314802  0.16706219  1
  I  I58  1  0.16576999  0.32966741  0.49752300  1
  I  I59  1  0.16840446  0.33614091  0.83553273  1
  I  I60  1  0.17280914  0.66985492  0.16578248  1
  I  I61  1  0.16845476  0.66682997  0.49984124  1
  I  I62  1  0.17049358  0.66466708  0.83565814  1
  I  I63  1  0.49994541  -0.00155273  0.16703119  1
  I  I64  1  0.50045927  -0.00257797  0.49430639  1
  I  I65  1  0.50207656  -0.00146250  0.83843252  1
  I  I66  1  0.50472662  0.33316388  0.16241448  1
  I  I67  1  0.49922980  0.33338649  0.49953492  1
  I  I68  1  0.49692881  0.33096695  0.83717223  1
  I  I69  1  0.50038162  0.66834445  0.16686215  1
  I  I70  1  0.50037254  0.67155356  0.50083645  1
  I  I71  1  0.50184929  0.67016228  0.83495149  1
  I  I72  1  0.83119332  -0.00336989  0.16524104  1
  I  I73  1  0.83515304  0.00233776  0.49675232  1
  I  I74  1  0.83185352  -0.00378899  0.84123354  1
  I  I75  1  0.82764706  0.33571640  0.16958438  1
  I  I76  1  0.83503795  0.32947977  0.49897015  1
  I  I77  1  0.83294129  0.33332758  0.83338605  1
  I  I78  1  0.82714414  0.66840048  0.16358045  1
  I  I79  1  0.83164618  0.66679652  0.50140334  1
  I  I80  1  0.82517689  0.67071901  0.83512083  1
  I  I81  1  0.16650987  0.16708053  -0.00006386  1
  I  I82  1  0.16576691  0.16614149  0.33584813  1
  I  I83  1  0.16537567  0.16511134  0.66360076  1
  I  I84  1  0.16891435  0.50104631  -0.00205198  1
  I  I85  1  0.16755675  0.50014192  0.33313982  1
  I  I86  1  0.16901749  0.50258972  0.67012491  1
  I  I87  1  0.17242834  0.83241010  0.00313005  1
  I  I88  1  0.16777159  0.83242302  0.32935857  1
  I  I89  1  0.16753285  0.83266342  0.66662510  1
  I  I90  1  0.50004980  0.16045359  0.00081847  1
  I  I91  1  0.50040379  0.16426163  0.33069146  1
  I  I92  1  0.49879599  0.16011969  0.66918133  1
  I  I93  1  0.50224331  0.50487285  0.00374004  1
  I  I94  1  0.50181248  0.49854997  0.32845462  1
  I  I95  1  0.49783555  0.49888302  0.66688840  1
  I  I96  1  0.50040449  0.83417850  0.00119659  1
  I  I97  1  0.50017119  0.83478215  0.33122654  1
  I  I98  1  0.50388559  0.84101187  0.66798952  1
  I  I99  1  0.83365758  0.16812248  -0.00007646  1
  I  I100  1  0.83344704  0.16401044  0.33556130  1
  I  I101  1  0.83508888  0.16353101  0.66355142  1
  I  I102  1  0.82803697  0.50193853  0.00383101  1
  I  I103  1  0.82942158  0.50865831  0.32884400  1
  I  I104  1  0.83462882  0.50080790  0.66690421  1
  I  I105  1  0.82739508  0.83038629  0.00141395  1
  I  I106  1  0.83109146  0.83144818  0.32992450  1
  I  I107  1  0.82775748  0.83603493  0.66938821  1
  I  I108  1  0.00003224  0.16659116  0.16737818  1
  I  I109  1  -0.00016703  0.16470437  0.49814150  1
  I  I110  1  -0.00009833  0.16625643  0.83355165  1
  I  I111  1  -0.00290466  0.50622646  0.16583524  1
  I  I112  1  -0.00010376  0.50342047  0.49756497  1
  I  I113  1  0.00284017  0.50121212  0.83625700  1
  I  I114  1  -0.00131392  0.82794795  0.16237358  1
  I  I115  1  -0.00004325  0.83370595  0.49955500  1
  I  I116  1  -0.00278962  0.83138495  0.83920546  1
  I  I117  1  0.33773095  0.16590048  0.16639749  1
  I  I118  1  0.33190280  0.16449080  0.49931571  1
  I  I119  1  0.33729986  0.15913703  0.83532621  1
  I  I120  1  0.33612718  0.50204466  0.16515755  1
  I  I121  1  0.33352660  0.49684619  0.49758563  1
  I  I122  1  0.33152532  0.50200809  0.83646189  1
  I  I123  1  0.33550655  0.83339543  0.16695724  1
  I  I124  1  0.33715821  0.83743203  0.49937154  1
  I  I125  1  0.33670189  0.83572580  0.83517633  1
  I  I126  1  0.66300309  0.16140258  0.16715658  1
  I  I127  1  0.66829218  0.16351478  0.49793227  1
  I  I128  1  0.66268144  0.16481408  0.83559959  1
  I  I129  1  0.66572318  0.50591523  0.16597886  1
  I  I130  1  0.66654288  0.49555334  0.50367536  1
  I  I131  1  0.66681075  0.49813690  0.83238607  1
  I  I132  1  0.66543532  0.83273675  0.16661039  1
  I  I133  1  0.66351955  0.83821304  0.49433479  1
  I  I134  1  0.66521111  0.83682937  0.83874431  1
