# generated using pymatgen
data_Cs27Sn13Pb14I81
_symmetry_space_group_name_H-M   'P 1'
_cell_length_a   18.97741058
_cell_length_b   18.98166901
_cell_length_c   18.97295001
_cell_angle_alpha   90.00159549
_cell_angle_beta   90.00169118
_cell_angle_gamma   90.00032348
_symmetry_Int_Tables_number   1
_chemical_formula_structural   Cs27Sn13Pb14I81
_chemical_formula_sum   'Cs27 Sn13 Pb14 I81'
_cell_volume   6834.49156818
_cell_formula_units_Z   1
loop_
 _symmetry_equiv_pos_site_id
 _symmetry_equiv_pos_as_xyz
  1  'x, y, z'
loop_
 _atom_site_type_symbol
 _atom_site_label
 _atom_site_symmetry_multiplicity
 _atom_site_fract_x
 _atom_site_fract_y
 _atom_site_fract_z
 _atom_site_occupancy
  Cs  Cs0  1  -0.00850002  0.00216889  0.00443892  1
  Cs  Cs1  1  -0.00155173  -0.00220735  0.33041397  1
  Cs  Cs2  1  -0.00089420  0.00081071  0.66798115  1
  Cs  Cs3  1  0.00019356  0.33236594  -0.00524823  1
  Cs  Cs4  1  0.00075452  0.33504412  0.33453098  1
  Cs  Cs5  1  0.00214874  0.33240014  0.67136403  1
  Cs  Cs6  1  0.00018317  0.66568905  -0.00197467  1
  Cs  Cs7  1  0.00212295  0.66529883  0.33514126  1
  Cs  Cs8  1  -0.00152652  0.66599907  0.66605518  1
  Cs  Cs9  1  0.33404708  -0.00679395  -0.00069748  1
  Cs  Cs10  1  0.33280035  0.00255764  0.33297050  1
  Cs  Cs11  1  0.33417147  0.00035747  0.66611408  1
  Cs  Cs12  1  0.33227818  0.33453157  -0.00045882  1
  Cs  Cs13  1  0.33296342  0.33216189  0.33407220  1
  Cs  Cs14  1  0.33225133  0.33018966  0.66647403  1
  Cs  Cs15  1  0.33466307  0.66910782  0.00027946  1
  Cs  Cs16  1  0.33103064  0.66557805  0.33267865  1
  Cs  Cs17  1  0.33446096  0.66730205  0.66678118  1
  Cs  Cs18  1  0.67427938  0.00405512  0.00590128  1
  Cs  Cs19  1  0.67120988  0.00483781  0.32623436  1
  Cs  Cs20  1  0.66451067  -0.00473172  0.66702287  1
  Cs  Cs21  1  0.66794717  0.33026691  0.00333248  1
  Cs  Cs22  1  0.66716049  0.33347469  0.33266869  1
  Cs  Cs23  1  0.66546208  0.33460555  0.66525333  1
  Cs  Cs24  1  0.66304770  0.66719576  -0.00158370  1
  Cs  Cs25  1  0.66729822  0.66417261  0.33544375  1
  Cs  Cs26  1  0.66562103  0.66794893  0.66619380  1
  Sn  Sn27  1  0.16575390  0.49896985  0.16713352  1
  Sn  Sn28  1  0.49926929  0.83368039  0.83253902  1
  Sn  Sn29  1  0.83342296  0.16746703  0.50067752  1
  Sn  Sn30  1  0.16721501  0.16756600  0.16666855  1
  Sn  Sn31  1  0.49954576  0.50042708  0.50079523  1
  Sn  Sn32  1  0.49915649  0.83280820  0.49971811  1
  Sn  Sn33  1  0.16683085  0.83334923  0.83238218  1
  Sn  Sn34  1  0.83363288  0.49878597  0.49966436  1
  Sn  Sn35  1  0.49984423  0.16634944  0.83333759  1
  Sn  Sn36  1  0.16685861  0.50033598  0.49982082  1
  Sn  Sn37  1  0.83440370  0.50026950  0.16718405  1
  Sn  Sn38  1  0.49971747  0.49968523  0.83247151  1
  Sn  Sn39  1  0.16760669  0.83265777  0.50097638  1
  Pb  Pb40  1  0.49752397  0.16678950  0.16398872  1
  Pb  Pb41  1  0.16851171  0.16356788  0.83571436  1
  Pb  Pb42  1  0.83298935  0.83323678  0.83325930  1
  Pb  Pb43  1  0.83089322  0.16687820  0.83063962  1
  Pb  Pb44  1  0.83061340  0.50000266  0.83304681  1
  Pb  Pb45  1  0.16490260  0.16631524  0.49889801  1
  Pb  Pb46  1  0.83319612  0.83284158  0.49993785  1
  Pb  Pb47  1  0.50171199  0.16630407  0.50125549  1
  Pb  Pb48  1  0.50016272  0.83330663  0.16753733  1
  Pb  Pb49  1  0.83583357  0.16962975  0.16885727  1
  Pb  Pb50  1  0.16885347  0.50167337  0.83314989  1
  Pb  Pb51  1  0.83337386  0.82952574  0.16693084  1
  Pb  Pb52  1  0.16666256  0.83264519  0.16694387  1
  Pb  Pb53  1  0.49960531  0.50003836  0.16726907  1
  I  I54  1  0.16860758  0.00201972  0.16670815  1
  I  I55  1  0.17040748  -0.00317813  0.50183397  1
  I  I56  1  0.17368907  -0.00417375  0.82749822  1
  I  I57  1  0.16413651  0.33535394  0.17250610  1
  I  I58  1  0.16931391  0.33659040  0.49704884  1
  I  I59  1  0.16930900  0.33337163  0.83176099  1
  I  I60  1  0.16285619  0.66329498  0.16883933  1
  I  I61  1  0.16564574  0.66550415  0.49761978  1
  I  I62  1  0.17300589  0.66952424  0.83406012  1
  I  I63  1  0.49759838  0.00008866  0.16774067  1
  I  I64  1  0.49606693  -0.00318951  0.50521645  1
  I  I65  1  0.49501081  -0.00139898  0.82815620  1
  I  I66  1  0.50120895  0.33366235  0.16567929  1
  I  I67  1  0.49806726  0.33656377  0.50411739  1
  I  I68  1  0.50100897  0.33427672  0.82911562  1
  I  I69  1  0.49875358  0.66637194  0.16140299  1
  I  I70  1  0.50135793  0.66557232  0.50708984  1
  I  I71  1  0.49693813  0.66689798  0.82947548  1
  I  I72  1  0.83435938  0.00050183  0.16785386  1
  I  I73  1  0.83316603  0.00222999  0.50140047  1
  I  I74  1  0.83160682  0.00011217  0.83146306  1
  I  I75  1  0.83403677  0.33719330  0.16968435  1
  I  I76  1  0.83187449  0.33571617  0.49588577  1
  I  I77  1  0.83122467  0.33358685  0.83455466  1
  I  I78  1  0.83975779  0.66160676  0.17425410  1
  I  I79  1  0.83298692  0.66307587  0.49595453  1
  I  I80  1  0.83104662  0.66641531  0.83256326  1
  I  I81  1  0.16756791  0.17378629  0.00337697  1
  I  I82  1  0.16627829  0.16683078  0.33094600  1
  I  I83  1  0.16578715  0.16886388  0.66676706  1
  I  I84  1  0.16343344  0.49808639  0.00259779  1
  I  I85  1  0.16803750  0.50241665  0.33480312  1
  I  I86  1  0.16410364  0.50227078  0.66331875  1
  I  I87  1  0.17297699  0.83235844  -0.00276050  1
  I  I88  1  0.17084983  0.83152753  0.33674472  1
  I  I89  1  0.17108923  0.82798304  0.66541856  1
  I  I90  1  0.49989530  0.16716350  -0.00433468  1
  I  I91  1  0.50122136  0.16654120  0.33344265  1
  I  I92  1  0.49968196  0.16704518  0.66938263  1
  I  I93  1  0.49987042  0.50171144  -0.00291186  1
  I  I94  1  0.50038584  0.50499398  0.33710997  1
  I  I95  1  0.50054458  0.50120365  0.66542145  1
  I  I96  1  0.49452276  0.83068999  -0.00374693  1
  I  I97  1  0.49509482  0.82653257  0.33772484  1
  I  I98  1  0.49607426  0.83185621  0.66648681  1
  I  I99  1  0.83250106  0.16690379  0.00026406  1
  I  I100  1  0.83100836  0.16788043  0.33653678  1
  I  I101  1  0.83553932  0.17444737  0.66288919  1
  I  I102  1  0.83751683  0.50075084  0.00287054  1
  I  I103  1  0.83167058  0.49683344  0.33497958  1
  I  I104  1  0.83560905  0.49734958  0.66292451  1
  I  I105  1  0.83340614  0.83298517  0.00003511  1
  I  I106  1  0.83298859  0.83665157  0.33385204  1
  I  I107  1  0.83374030  0.83093600  0.66632082  1
  I  I108  1  0.00334771  0.16732265  0.16640623  1
  I  I109  1  -0.00286137  0.17112733  0.49852571  1
  I  I110  1  0.00016475  0.16506092  0.83421206  1
  I  I111  1  0.00089219  0.49734128  0.17586858  1
  I  I112  1  0.00061440  0.50114011  0.49446325  1
  I  I113  1  0.00026560  0.50207669  0.83142315  1
  I  I114  1  0.00041542  0.83653051  0.16637955  1
  I  I115  1  0.00323458  0.82982147  0.50328866  1
  I  I116  1  0.00333140  0.83194605  0.82855207  1
  I  I117  1  0.32981289  0.17409325  0.16962021  1
  I  I118  1  0.33327599  0.16903173  0.49927248  1
  I  I119  1  0.33657102  0.16922958  0.83160584  1
  I  I120  1  0.33011329  0.49735583  0.17010136  1
  I  I121  1  0.33317737  0.50472956  0.49924489  1
  I  I122  1  0.33701890  0.49897899  0.83007533  1
  I  I123  1  0.33315880  0.83067662  0.16581422  1
  I  I124  1  0.33325327  0.82536749  0.50422329  1
  I  I125  1  0.33435086  0.83286582  0.82960344  1
  I  I126  1  0.66709451  0.16691998  0.16591815  1
  I  I127  1  0.66946389  0.17162310  0.50079335  1
  I  I128  1  0.66260322  0.16450163  0.83319441  1
  I  I129  1  0.66915572  0.50057676  0.17014916  1
  I  I130  1  0.66620761  0.50052060  0.49988294  1
  I  I131  1  0.66224716  0.50385124  0.82938260  1
  I  I132  1  0.66669500  0.83303879  0.16609877  1
  I  I133  1  0.66329645  0.82896939  0.50629800  1
  I  I134  1  0.66243679  0.83161833  0.82747834  1
