# generated using pymatgen
data_Cs27Sn13Pb14I81
_symmetry_space_group_name_H-M   'P 1'
_cell_length_a   19.00315529
_cell_length_b   19.00382470
_cell_length_c   18.97219130
_cell_angle_alpha   89.99974850
_cell_angle_beta   89.99928614
_cell_angle_gamma   90.00066106
_symmetry_Int_Tables_number   1
_chemical_formula_structural   Cs27Sn13Pb14I81
_chemical_formula_sum   'Cs27 Sn13 Pb14 I81'
_cell_volume   6851.47737483
_cell_formula_units_Z   1
loop_
 _symmetry_equiv_pos_site_id
 _symmetry_equiv_pos_as_xyz
  1  'x, y, z'
loop_
 _atom_site_type_symbol
 _atom_site_label
 _atom_site_symmetry_multiplicity
 _atom_site_fract_x
 _atom_site_fract_y
 _atom_site_fract_z
 _atom_site_occupancy
  Cs  Cs0  1  -0.00241097  -0.00356777  -0.00192453  1
  Cs  Cs1  1  -0.00004682  -0.00075637  0.33201816  1
  Cs  Cs2  1  0.00283690  0.00285782  0.67176369  1
  Cs  Cs3  1  -0.00024705  0.33299562  -0.00220248  1
  Cs  Cs4  1  -0.00053946  0.33446250  0.33375462  1
  Cs  Cs5  1  0.00022054  0.33231489  0.67068012  1
  Cs  Cs6  1  -0.00061974  0.67023681  -0.00526156  1
  Cs  Cs7  1  0.00056009  0.66644355  0.33427874  1
  Cs  Cs8  1  0.00102605  0.66439250  0.66504836  1
  Cs  Cs9  1  0.33179706  -0.00165923  0.00134166  1
  Cs  Cs10  1  0.33356604  0.00025915  0.33333475  1
  Cs  Cs11  1  0.34199568  0.00636820  0.67263073  1
  Cs  Cs12  1  0.33688849  0.33780054  0.00015575  1
  Cs  Cs13  1  0.33190159  0.33356969  0.33224512  1
  Cs  Cs14  1  0.33204974  0.32304634  0.67108528  1
  Cs  Cs15  1  0.33432604  0.66427812  -0.00395595  1
  Cs  Cs16  1  0.33153152  0.66607208  0.33257732  1
  Cs  Cs17  1  0.33345720  0.67051839  0.67107151  1
  Cs  Cs18  1  0.67094863  -0.00183367  -0.00189628  1
  Cs  Cs19  1  0.66715936  -0.00078960  0.33288513  1
  Cs  Cs20  1  0.65543990  0.00076890  0.67125788  1
  Cs  Cs21  1  0.66412309  0.33528411  -0.00384501  1
  Cs  Cs22  1  0.66956951  0.33588763  0.33250915  1
  Cs  Cs23  1  0.66864320  0.33186581  0.67283369  1
  Cs  Cs24  1  0.66641331  0.66701416  -0.00716423  1
  Cs  Cs25  1  0.66869385  0.66498206  0.33426629  1
  Cs  Cs26  1  0.66370485  0.66865460  0.66729215  1
  Sn  Sn27  1  0.83339053  0.49987477  0.49908841  1
  Sn  Sn28  1  0.16712298  0.50035126  0.49937493  1
  Sn  Sn29  1  0.83344862  0.16641002  0.49914831  1
  Sn  Sn30  1  0.49944894  0.83342108  0.16777508  1
  Sn  Sn31  1  0.83423207  0.49968708  0.16704155  1
  Sn  Sn32  1  0.83335599  0.16763238  0.16770162  1
  Sn  Sn33  1  0.16625813  0.16683442  0.16745572  1
  Sn  Sn34  1  0.83404235  0.83376874  0.49945776  1
  Sn  Sn35  1  0.49928587  0.49970499  0.49961965  1
  Sn  Sn36  1  0.50048302  0.16584279  0.16769386  1
  Sn  Sn37  1  0.16743095  0.83285318  0.16780750  1
  Sn  Sn38  1  0.16626825  0.83335053  0.49943291  1
  Sn  Sn39  1  0.16538499  0.50032930  0.16735408  1
  Pb  Pb40  1  0.83357581  0.50014281  0.83326057  1
  Pb  Pb41  1  0.83358736  0.83275200  0.16796684  1
  Pb  Pb42  1  0.50011344  0.16677845  0.83735555  1
  Pb  Pb43  1  0.83360329  0.83337554  0.82850782  1
  Pb  Pb44  1  0.49923431  0.83171724  0.49798901  1
  Pb  Pb45  1  0.49976314  0.49991885  0.82911477  1
  Pb  Pb46  1  0.83344106  0.16663059  0.83365753  1
  Pb  Pb47  1  0.16648653  0.16668029  0.83718816  1
  Pb  Pb48  1  0.16479599  0.16640690  0.49829298  1
  Pb  Pb49  1  0.49981724  0.83321727  0.83706288  1
  Pb  Pb50  1  0.16654654  0.50000999  0.83285855  1
  Pb  Pb51  1  0.50267411  0.16916269  0.49740485  1
  Pb  Pb52  1  0.50026860  0.50031206  0.16790718  1
  Pb  Pb53  1  0.16659879  0.83334016  0.83247942  1
  I  I54  1  0.16770589  -0.00035267  0.17051208  1
  I  I55  1  0.16037798  -0.00294892  0.49374721  1
  I  I56  1  0.16600871  -0.00005513  0.83255350  1
  I  I57  1  0.16647156  0.33390307  0.17094638  1
  I  I58  1  0.16598675  0.33643210  0.49502506  1
  I  I59  1  0.16664085  0.33339859  0.83179749  1
  I  I60  1  0.16726986  0.66640776  0.17142665  1
  I  I61  1  0.16111446  0.66607127  0.49104068  1
  I  I62  1  0.16697219  0.66669565  0.83861841  1
  I  I63  1  0.49668381  0.00028913  0.16804065  1
  I  I64  1  0.50091562  0.00018415  0.50114431  1
  I  I65  1  0.50001617  0.00005936  0.82796467  1
  I  I66  1  0.49777657  0.33111022  0.16873638  1
  I  I67  1  0.49847915  0.33685066  0.49540252  1
  I  I68  1  0.50027062  0.33328228  0.83627004  1
  I  I69  1  0.49654596  0.66889400  0.16958135  1
  I  I70  1  0.50552726  0.66400046  0.49525941  1
  I  I71  1  0.50063906  0.66659943  0.83696867  1
  I  I72  1  0.83492181  0.00247087  0.17094791  1
  I  I73  1  0.83887007  0.00015769  0.49301906  1
  I  I74  1  0.83416061  0.00005646  0.83677196  1
  I  I75  1  0.83592288  0.33344274  0.17446869  1
  I  I76  1  0.83296437  0.33412121  0.49468301  1
  I  I77  1  0.83301579  0.33339882  0.82964451  1
  I  I78  1  0.83546022  0.66374177  0.17211517  1
  I  I79  1  0.83386750  0.66562337  0.49506029  1
  I  I80  1  0.83254188  0.66665974  0.83712617  1
  I  I81  1  0.16366981  0.16656705  0.00633676  1
  I  I82  1  0.16854188  0.16676038  0.32952460  1
  I  I83  1  0.16437561  0.16735089  0.66634617  1
  I  I84  1  0.16257493  0.49988081  0.00429943  1
  I  I85  1  0.16514774  0.50083496  0.33287450  1
  I  I86  1  0.16468618  0.50607148  0.66227839  1
  I  I87  1  0.17091563  0.83333268  0.00396872  1
  I  I88  1  0.16645058  0.83177720  0.33241234  1
  I  I89  1  0.16008810  0.82550714  0.66242032  1
  I  I90  1  0.50241368  0.16443932  0.00570952  1
  I  I91  1  0.49750194  0.16255078  0.32938819  1
  I  I92  1  0.50143551  0.16805472  0.66642614  1
  I  I93  1  0.50023410  0.49966927  0.00023617  1
  I  I94  1  0.50125402  0.50010790  0.33571043  1
  I  I95  1  0.50251809  0.50208682  0.66090886  1
  I  I96  1  0.49424934  0.83630922  0.00550470  1
  I  I97  1  0.49795327  0.83780474  0.33004509  1
  I  I98  1  0.50094450  0.83106838  0.66638340  1
  I  I99  1  0.83318056  0.17150312  0.00448554  1
  I  I100  1  0.83341719  0.16864267  0.33227255  1
  I  I101  1  0.83454202  0.16907146  0.66311213  1
  I  I102  1  0.83745294  0.49462763  0.00391268  1
  I  I103  1  0.83421144  0.49845673  0.33398311  1
  I  I104  1  0.83410434  0.49931269  0.66223425  1
  I  I105  1  0.83271436  0.83351303  0.00017321  1
  I  I106  1  0.83424035  0.83248863  0.33614965  1
  I  I107  1  0.84015721  0.83068294  0.66021467  1
  I  I108  1  -0.00032953  0.16768538  0.17108197  1
  I  I109  1  -0.00323064  0.17065432  0.49303612  1
  I  I110  1  -0.00018043  0.16693838  0.83469915  1
  I  I111  1  0.00024706  0.49654532  0.17448100  1
  I  I112  1  -0.00019661  0.50153057  0.49535850  1
  I  I113  1  0.00001141  0.49967503  0.83041474  1
  I  I114  1  0.00293346  0.83571164  0.16881837  1
  I  I115  1  0.00037565  0.82771068  0.49234883  1
  I  I116  1  0.00015363  0.83403134  0.84048066  1
  I  I117  1  0.33277966  0.16633222  0.16602904  1
  I  I118  1  0.33332880  0.16756599  0.49874273  1
  I  I119  1  0.33344560  0.16665782  0.83129076  1
  I  I120  1  0.33049828  0.49733308  0.17118230  1
  I  I121  1  0.33175409  0.50621067  0.49305747  1
  I  I122  1  0.33318874  0.50021878  0.83681722  1
  I  I123  1  0.33179530  0.83685268  0.17245885  1
  I  I124  1  0.32990338  0.82648327  0.49613185  1
  I  I125  1  0.33325222  0.83335689  0.82864619  1
  I  I126  1  0.66750449  0.16665363  0.17152296  1
  I  I127  1  0.67077266  0.16603698  0.49284699  1
  I  I128  1  0.66676916  0.16670816  0.83407840  1
  I  I129  1  0.66948438  0.49656648  0.17244198  1
  I  I130  1  0.66845328  0.50044739  0.49425238  1
  I  I131  1  0.66675372  0.49988280  0.83594973  1
  I  I132  1  0.66497000  0.83682255  0.16917342  1
  I  I133  1  0.66918404  0.83129605  0.49725008  1
  I  I134  1  0.66662777  0.83315298  0.83444703  1
