# generated using pymatgen
data_Cs27Sn14Pb13I81
_symmetry_space_group_name_H-M   'P 1'
_cell_length_a   18.97908712
_cell_length_b   18.96937232
_cell_length_c   18.97570124
_cell_angle_alpha   90.00229373
_cell_angle_beta   90.00089066
_cell_angle_gamma   90.00130089
_symmetry_Int_Tables_number   1
_chemical_formula_structural   Cs27Sn14Pb13I81
_chemical_formula_sum   'Cs27 Sn14 Pb13 I81'
_cell_volume   6831.65794628
_cell_formula_units_Z   1
loop_
 _symmetry_equiv_pos_site_id
 _symmetry_equiv_pos_as_xyz
  1  'x, y, z'
loop_
 _atom_site_type_symbol
 _atom_site_label
 _atom_site_symmetry_multiplicity
 _atom_site_fract_x
 _atom_site_fract_y
 _atom_site_fract_z
 _atom_site_occupancy
  Cs  Cs0  1  0.00102314  0.00046918  -0.00092633  1
  Cs  Cs1  1  -0.00145428  -0.00002634  0.33180247  1
  Cs  Cs2  1  0.00148616  -0.00318324  0.66823840  1
  Cs  Cs3  1  0.00067694  0.33092603  -0.00045991  1
  Cs  Cs4  1  0.00118298  0.33874091  0.34363018  1
  Cs  Cs5  1  -0.00895847  0.33352694  0.65895757  1
  Cs  Cs6  1  0.00355479  0.66782384  0.00207658  1
  Cs  Cs7  1  0.00032840  0.66369763  0.33317925  1
  Cs  Cs8  1  -0.00181826  0.67030543  0.66512792  1
  Cs  Cs9  1  0.33192928  0.00003586  -0.00140704  1
  Cs  Cs10  1  0.33626247  0.00285365  0.33371408  1
  Cs  Cs11  1  0.33259617  -0.00138871  0.66780913  1
  Cs  Cs12  1  0.33150576  0.33448722  -0.00166436  1
  Cs  Cs13  1  0.33267053  0.33321945  0.33651814  1
  Cs  Cs14  1  0.33395603  0.32940490  0.66716236  1
  Cs  Cs15  1  0.33294017  0.66585998  -0.00079903  1
  Cs  Cs16  1  0.33437831  0.66486281  0.33286710  1
  Cs  Cs17  1  0.33645127  0.66920107  0.66845229  1
  Cs  Cs18  1  0.66826091  0.00187140  0.00818735  1
  Cs  Cs19  1  0.66482486  0.00668921  0.32370457  1
  Cs  Cs20  1  0.66573554  -0.00166070  0.66601596  1
  Cs  Cs21  1  0.67118236  0.33547029  -0.00216882  1
  Cs  Cs22  1  0.66572175  0.32646986  0.33312215  1
  Cs  Cs23  1  0.67601615  0.33565781  0.66743327  1
  Cs  Cs24  1  0.66546513  0.66423890  0.00275746  1
  Cs  Cs25  1  0.66507991  0.66776821  0.33099915  1
  Cs  Cs26  1  0.66468253  0.66559890  0.66697064  1
  Sn  Sn27  1  0.83276748  0.83323400  0.83334950  1
  Sn  Sn28  1  0.16701598  0.83320891  0.49963470  1
  Sn  Sn29  1  0.16714880  0.16692190  0.83365956  1
  Sn  Sn30  1  0.50063420  0.49997964  0.16741037  1
  Sn  Sn31  1  0.50051641  0.83292904  0.50021326  1
  Sn  Sn32  1  0.83244475  0.83335094  0.50012903  1
  Sn  Sn33  1  0.16670431  0.16626008  0.16637841  1
  Sn  Sn34  1  0.50048964  0.83430789  0.83327692  1
  Sn  Sn35  1  0.49978426  0.16578235  0.83326182  1
  Sn  Sn36  1  0.83273989  0.50001785  0.16662324  1
  Sn  Sn37  1  0.16623843  0.49955718  0.83251577  1
  Sn  Sn38  1  0.16681752  0.83330722  0.83334685  1
  Sn  Sn39  1  0.49978374  0.50045193  0.49944610  1
  Sn  Sn40  1  0.16715364  0.83411397  0.16685125  1
  Pb  Pb41  1  0.16899637  0.50246979  0.50315235  1
  Pb  Pb42  1  0.83363213  0.16384005  0.83336864  1
  Pb  Pb43  1  0.16664344  0.16411778  0.50064564  1
  Pb  Pb44  1  0.83625371  0.50281691  0.83495080  1
  Pb  Pb45  1  0.49757266  0.16977578  0.16374935  1
  Pb  Pb46  1  0.83043174  0.50270008  0.49787390  1
  Pb  Pb47  1  0.83311110  0.16309586  0.49998030  1
  Pb  Pb48  1  0.49764910  0.83211958  0.16646371  1
  Pb  Pb49  1  0.50010357  0.16623676  0.50281643  1
  Pb  Pb50  1  0.83574777  0.83206486  0.16678840  1
  Pb  Pb51  1  0.49868978  0.49982138  0.83290957  1
  Pb  Pb52  1  0.16693928  0.49948083  0.16540686  1
  Pb  Pb53  1  0.83686908  0.16985863  0.16662487  1
  I  I54  1  0.16659270  -0.00126936  0.16117572  1
  I  I55  1  0.16959789  -0.00472826  0.50485107  1
  I  I56  1  0.16729873  -0.00166842  0.83388026  1
  I  I57  1  0.16730792  0.33088263  0.15861596  1
  I  I58  1  0.16814365  0.33359685  0.49926058  1
  I  I59  1  0.17442091  0.33235455  0.84177764  1
  I  I60  1  0.16656190  0.66921201  0.16449757  1
  I  I61  1  0.16459865  0.67107225  0.49934041  1
  I  I62  1  0.16755255  0.66881967  0.83463531  1
  I  I63  1  0.50072110  0.00019668  0.16924138  1
  I  I64  1  0.49850246  -0.00393440  0.50342507  1
  I  I65  1  0.49392411  -0.00204241  0.82744089  1
  I  I66  1  0.50090447  0.33745672  0.17154049  1
  I  I67  1  0.49816270  0.33610749  0.49654443  1
  I  I68  1  0.49209976  0.33108192  0.83477736  1
  I  I69  1  0.49965182  0.66420969  0.16491727  1
  I  I70  1  0.49896077  0.66854011  0.50272763  1
  I  I71  1  0.49771349  0.66979006  0.83236512  1
  I  I72  1  0.83283014  -0.00004725  0.16715281  1
  I  I73  1  0.83269082  -0.00547858  0.50456375  1
  I  I74  1  0.83880496  -0.00450987  0.82987257  1
  I  I75  1  0.82978850  0.33740655  0.16457323  1
  I  I76  1  0.83293593  0.33385273  0.49908200  1
  I  I77  1  0.83334883  0.33351605  0.83496564  1
  I  I78  1  0.83255511  0.66439603  0.16587266  1
  I  I79  1  0.83696004  0.67073200  0.50447836  1
  I  I80  1  0.83323284  0.67099997  0.82956920  1
  I  I81  1  0.17020037  0.16125134  -0.00145360  1
  I  I82  1  0.16598251  0.16196289  0.33069246  1
  I  I83  1  0.17149871  0.16486755  0.67039369  1
  I  I84  1  0.16957058  0.50619352  -0.00252921  1
  I  I85  1  0.16506162  0.50056652  0.33368475  1
  I  I86  1  0.16922308  0.50057673  0.67106132  1
  I  I87  1  0.16642106  0.83308179  -0.00152790  1
  I  I88  1  0.16632473  0.83682657  0.33348459  1
  I  I89  1  0.16664621  0.83283403  0.66782091  1
  I  I90  1  0.49673962  0.16009616  -0.00393430  1
  I  I91  1  0.49894871  0.16459230  0.33311009  1
  I  I92  1  0.49102969  0.16575620  0.67071004  1
  I  I93  1  0.50113145  0.50095160  0.00180904  1
  I  I94  1  0.50182388  0.50793785  0.33359166  1
  I  I95  1  0.49607298  0.50343051  0.66442755  1
  I  I96  1  0.49869978  0.83458845  -0.00316186  1
  I  I97  1  0.49903333  0.82951036  0.33606423  1
  I  I98  1  0.49555183  0.83089728  0.66716125  1
  I  I99  1  0.83162839  0.16384859  -0.00002771  1
  I  I100  1  0.83438412  0.16354123  0.33301933  1
  I  I101  1  0.83568630  0.17124636  0.66699588  1
  I  I102  1  0.82644108  0.50335465  0.00254457  1
  I  I103  1  0.83559256  0.50367264  0.33029247  1
  I  I104  1  0.83322322  0.49859845  0.66647685  1
  I  I105  1  0.83461055  0.83174375  -0.00272336  1
  I  I106  1  0.83469301  0.83054634  0.33611578  1
  I  I107  1  0.83860370  0.83274081  0.66712289  1
  I  I108  1  0.00457816  0.16239723  0.15774992  1
  I  I109  1  0.00022609  0.16661745  0.50146357  1
  I  I110  1  0.00363289  0.16489050  0.83817819  1
  I  I111  1  -0.00139980  0.50195674  0.16284135  1
  I  I112  1  -0.00004760  0.50096772  0.49851407  1
  I  I113  1  0.00429539  0.50094374  0.83725641  1
  I  I114  1  0.00391571  0.83334072  0.16499564  1
  I  I115  1  0.00063905  0.83464212  0.50416026  1
  I  I116  1  0.00163667  0.83265951  0.83091838  1
  I  I117  1  0.32983424  0.16340630  0.16386898  1
  I  I118  1  0.33331968  0.16501577  0.49799715  1
  I  I119  1  0.33207833  0.16145756  0.83639801  1
  I  I120  1  0.33547214  0.50138167  0.16870791  1
  I  I121  1  0.33654005  0.50690828  0.49290651  1
  I  I122  1  0.33075786  0.50570210  0.83646522  1
  I  I123  1  0.32949426  0.83316296  0.16496235  1
  I  I124  1  0.33347461  0.82954500  0.50379209  1
  I  I125  1  0.33251847  0.83349928  0.83108564  1
  I  I126  1  0.66654403  0.16558256  0.16573547  1
  I  I127  1  0.66631473  0.16522038  0.50195761  1
  I  I128  1  0.66370873  0.16265158  0.83184896  1
  I  I129  1  0.66570320  0.50369712  0.16860663  1
  I  I130  1  0.66277423  0.50699909  0.50125789  1
  I  I131  1  0.66674520  0.49992000  0.83267069  1
  I  I132  1  0.66653713  0.83251986  0.16590803  1
  I  I133  1  0.66577200  0.82797403  0.50978090  1
  I  I134  1  0.66568944  0.83643918  0.82547825  1
