# generated using pymatgen
data_Cs27Sn14Pb13I81
_symmetry_space_group_name_H-M   'P 1'
_cell_length_a   18.96650649
_cell_length_b   18.98024940
_cell_length_c   18.98543967
_cell_angle_alpha   90.00071875
_cell_angle_beta   89.99900639
_cell_angle_gamma   89.99937554
_symmetry_Int_Tables_number   1
_chemical_formula_structural   Cs27Sn14Pb13I81
_chemical_formula_sum   'Cs27 Sn14 Pb13 I81'
_cell_volume   6834.54988008
_cell_formula_units_Z   1
loop_
 _symmetry_equiv_pos_site_id
 _symmetry_equiv_pos_as_xyz
  1  'x, y, z'
loop_
 _atom_site_type_symbol
 _atom_site_label
 _atom_site_symmetry_multiplicity
 _atom_site_fract_x
 _atom_site_fract_y
 _atom_site_fract_z
 _atom_site_occupancy
  Cs  Cs0  1  -0.00140233  -0.00140589  -0.00141117  1
  Cs  Cs1  1  -0.00082183  0.00077132  0.33378992  1
  Cs  Cs2  1  -0.00008876  -0.00026593  0.66585448  1
  Cs  Cs3  1  -0.00009068  0.33327457  0.00008317  1
  Cs  Cs4  1  0.00001162  0.33299467  0.33300371  1
  Cs  Cs5  1  0.00086729  0.33431230  0.66696043  1
  Cs  Cs6  1  0.00004028  0.66713760  -0.00174558  1
  Cs  Cs7  1  -0.00038148  0.66608819  0.33490510  1
  Cs  Cs8  1  -0.00124241  0.66581966  0.66653744  1
  Cs  Cs9  1  0.33340275  -0.00617142  0.00138448  1
  Cs  Cs10  1  0.33438197  -0.00170154  0.33357998  1
  Cs  Cs11  1  0.34024194  0.00280004  0.66561092  1
  Cs  Cs12  1  0.33272115  0.33407784  -0.00048518  1
  Cs  Cs13  1  0.33017524  0.33211544  0.33147096  1
  Cs  Cs14  1  0.33255754  0.33000387  0.66974886  1
  Cs  Cs15  1  0.33951161  0.67298144  0.00430770  1
  Cs  Cs16  1  0.33870661  0.67022536  0.32862241  1
  Cs  Cs17  1  0.33837991  0.66838193  0.66808944  1
  Cs  Cs18  1  0.67110908  0.00068969  -0.00387808  1
  Cs  Cs19  1  0.66983265  0.00080990  0.33384969  1
  Cs  Cs20  1  0.66073121  -0.00067416  0.66826168  1
  Cs  Cs21  1  0.66690831  0.33302153  0.00055040  1
  Cs  Cs22  1  0.66715139  0.33620709  0.33377564  1
  Cs  Cs23  1  0.66061684  0.33483998  0.66601394  1
  Cs  Cs24  1  0.66234015  0.66716424  -0.00078243  1
  Cs  Cs25  1  0.66227951  0.66423485  0.33474021  1
  Cs  Cs26  1  0.66141484  0.66575948  0.66549890  1
  Sn  Sn27  1  0.83417840  0.49903419  0.83392388  1
  Sn  Sn28  1  0.49883030  0.16685597  0.16668337  1
  Sn  Sn29  1  0.83414326  0.83175234  0.16752185  1
  Sn  Sn30  1  0.83415481  0.16617976  0.50138655  1
  Sn  Sn31  1  0.16548601  0.16699086  0.83348063  1
  Sn  Sn32  1  0.16576845  0.83349112  0.50019950  1
  Sn  Sn33  1  0.16568106  0.16654316  0.50011751  1
  Sn  Sn34  1  0.83445933  0.50116810  0.16589791  1
  Sn  Sn35  1  0.83450065  0.16795330  0.83171980  1
  Sn  Sn36  1  0.16563919  0.49970936  0.16625100  1
  Sn  Sn37  1  0.16749778  0.16695743  0.16642823  1
  Sn  Sn38  1  0.16593452  0.49969506  0.83382933  1
  Sn  Sn39  1  0.83436054  0.83393367  0.49931352  1
  Sn  Sn40  1  0.16624620  0.50023195  0.49996046  1
  Pb  Pb41  1  0.49993963  0.83349597  0.83343177  1
  Pb  Pb42  1  0.83353355  0.83286558  0.83242698  1
  Pb  Pb43  1  0.49978825  0.16684583  0.83589708  1
  Pb  Pb44  1  0.50386390  0.83645465  0.16691682  1
  Pb  Pb45  1  0.50009983  0.16690914  0.49771832  1
  Pb  Pb46  1  0.50048451  0.83354000  0.49976517  1
  Pb  Pb47  1  0.49954091  0.49964749  0.83356865  1
  Pb  Pb48  1  0.83430220  0.16717201  0.16666327  1
  Pb  Pb49  1  0.16658818  0.83325716  0.83043935  1
  Pb  Pb50  1  0.49561888  0.49955414  0.49983984  1
  Pb  Pb51  1  0.49985510  0.49791829  0.16659054  1
  Pb  Pb52  1  0.83467149  0.49982052  0.50036416  1
  Pb  Pb53  1  0.16462273  0.83326794  0.16862923  1
  I  I54  1  0.16865584  0.00311597  0.16676594  1
  I  I55  1  0.16222033  0.00118420  0.49896387  1
  I  I56  1  0.16191339  0.00374583  0.83486980  1
  I  I57  1  0.16464534  0.33321731  0.17101183  1
  I  I58  1  0.16270044  0.33263108  0.49911526  1
  I  I59  1  0.16305707  0.33289955  0.82958077  1
  I  I60  1  0.16369280  0.66352046  0.16663653  1
  I  I61  1  0.16100129  0.66634329  0.50008141  1
  I  I62  1  0.16122458  0.66295581  0.83319359  1
  I  I63  1  0.49250733  0.00385165  0.16703614  1
  I  I64  1  0.49554580  0.00025638  0.49926733  1
  I  I65  1  0.50077202  0.00074588  0.83397921  1
  I  I66  1  0.50031916  0.33028858  0.16706249  1
  I  I67  1  0.50336535  0.33300103  0.49892882  1
  I  I68  1  0.50088109  0.33312026  0.83331770  1
  I  I69  1  0.49734006  0.66680736  0.16645127  1
  I  I70  1  0.50146176  0.66669583  0.49956763  1
  I  I71  1  0.50018118  0.66626334  0.83357401  1
  I  I72  1  0.83275440  -0.00140042  0.16796555  1
  I  I73  1  0.84151425  0.00074355  0.49800312  1
  I  I74  1  0.83746889  0.00314926  0.83458431  1
  I  I75  1  0.83434595  0.33578550  0.16634019  1
  I  I76  1  0.83797875  0.33053822  0.49910788  1
  I  I77  1  0.83806078  0.33300687  0.83470690  1
  I  I78  1  0.84003459  0.66536214  0.16665124  1
  I  I79  1  0.83874434  0.66881501  0.49874329  1
  I  I80  1  0.83889937  0.66324344  0.83463488  1
  I  I81  1  0.16614364  0.17401133  -0.00009027  1
  I  I82  1  0.16630851  0.16966657  0.33369715  1
  I  I83  1  0.16162660  0.16959436  0.66638703  1
  I  I84  1  0.16161890  0.49066784  0.00023994  1
  I  I85  1  0.16205404  0.49557487  0.33285257  1
  I  I86  1  0.16182737  0.49690999  0.66694626  1
  I  I87  1  0.16595515  0.83441500  0.00012520  1
  I  I88  1  0.16378532  0.83419346  0.33670721  1
  I  I89  1  0.15846811  0.83303607  0.66220181  1
  I  I90  1  0.49687921  0.16751819  0.00344797  1
  I  I91  1  0.49581941  0.16717785  0.33013114  1
  I  I92  1  0.49809097  0.16584499  0.66676423  1
  I  I93  1  0.49653650  0.49917817  0.00016252  1
  I  I94  1  0.50244149  0.49898631  0.33302223  1
  I  I95  1  0.50245501  0.50065138  0.66675621  1
  I  I96  1  0.50037257  0.83386649  0.00072224  1
  I  I97  1  0.49769098  0.83371236  0.33318963  1
  I  I98  1  0.50163912  0.83379210  0.66622223  1
  I  I99  1  0.83555875  0.16664641  -0.00215040  1
  I  I100  1  0.83638317  0.16557252  0.33552652  1
  I  I101  1  0.84167667  0.16619709  0.66650110  1
  I  I102  1  0.84113235  0.49894139  0.00018826  1
  I  I103  1  0.83764976  0.49954143  0.33098073  1
  I  I104  1  0.83861240  0.49912116  0.66922056  1
  I  I105  1  0.83256458  0.83419003  0.00236248  1
  I  I106  1  0.83787595  0.83535192  0.33409560  1
  I  I107  1  0.83860414  0.83483084  0.66326180  1
  I  I108  1  0.00318018  0.16800748  0.16780723  1
  I  I109  1  0.00114610  0.16571736  0.49794353  1
  I  I110  1  0.00059754  0.17073234  0.83458793  1
  I  I111  1  0.00086165  0.49682405  0.16632373  1
  I  I112  1  0.00332456  0.49913279  0.49922458  1
  I  I113  1  0.00066426  0.49517779  0.83456296  1
  I  I114  1  -0.00329189  0.83501424  0.16905649  1
  I  I115  1  -0.00013143  0.83542715  0.49580465  1
  I  I116  1  -0.00004101  0.83418405  0.83601639  1
  I  I117  1  0.33023788  0.17286728  0.16752548  1
  I  I118  1  0.32925340  0.16667898  0.50300404  1
  I  I119  1  0.32938822  0.17144343  0.82928737  1
  I  I120  1  0.32944625  0.49735353  0.16713389  1
  I  I121  1  0.32680176  0.49870119  0.49983527  1
  I  I122  1  0.32894598  0.49431756  0.83213224  1
  I  I123  1  0.33324291  0.83087279  0.16787009  1
  I  I124  1  0.32981053  0.83384191  0.50079674  1
  I  I125  1  0.33264396  0.83337019  0.83158259  1
  I  I126  1  0.66563815  0.16573103  0.16687806  1
  I  I127  1  0.67035977  0.16108267  0.50241715  1
  I  I128  1  0.67029870  0.16956984  0.83095686  1
  I  I129  1  0.67023905  0.50168690  0.16226888  1
  I  I130  1  0.66689070  0.50026975  0.49977489  1
  I  I131  1  0.67040464  0.49605348  0.83838910  1
  I  I132  1  0.67177615  0.82864326  0.17328789  1
  I  I133  1  0.67065747  0.83895836  0.49661422  1
  I  I134  1  0.66745365  0.83452611  0.83200314  1
