# generated using pymatgen
data_Cs27Sn13Pb14I81
_symmetry_space_group_name_H-M   'P 1'
_cell_length_a   19.27529624
_cell_length_b   19.29067628
_cell_length_c   19.27308935
_cell_angle_alpha   90.00450964
_cell_angle_beta   90.00908446
_cell_angle_gamma   89.97594782
_symmetry_Int_Tables_number   1
_chemical_formula_structural   Cs27Sn13Pb14I81
_chemical_formula_sum   'Cs27 Sn13 Pb14 I81'
_cell_volume   7166.37952483
_cell_formula_units_Z   1
loop_
 _symmetry_equiv_pos_site_id
 _symmetry_equiv_pos_as_xyz
  1  'x, y, z'
loop_
 _atom_site_type_symbol
 _atom_site_label
 _atom_site_symmetry_multiplicity
 _atom_site_fract_x
 _atom_site_fract_y
 _atom_site_fract_z
 _atom_site_occupancy
  Cs  Cs0  1  -0.02667048  0.00319606  -0.01278179  1
  Cs  Cs1  1  -0.01088104  -0.02449349  0.32202666  1
  Cs  Cs2  1  0.03813749  -0.00179195  0.68687027  1
  Cs  Cs3  1  0.00866208  0.34657474  0.00253749  1
  Cs  Cs4  1  0.02396392  0.32307394  0.33907510  1
  Cs  Cs5  1  0.02662580  0.34768171  0.67290555  1
  Cs  Cs6  1  -0.01872616  0.64492465  0.01053406  1
  Cs  Cs7  1  0.01895725  0.70154324  0.32773694  1
  Cs  Cs8  1  -0.03407796  0.65920605  0.67888596  1
  Cs  Cs9  1  0.34426468  0.01367580  -0.01862662  1
  Cs  Cs10  1  0.33198630  -0.00906233  0.34621587  1
  Cs  Cs11  1  0.33426988  0.00415883  0.69096002  1
  Cs  Cs12  1  0.34773222  0.33051117  0.00721768  1
  Cs  Cs13  1  0.32192562  0.32678741  0.33994323  1
  Cs  Cs14  1  0.31731106  0.33206986  0.65284708  1
  Cs  Cs15  1  0.35706658  0.65583508  0.00666621  1
  Cs  Cs16  1  0.31791138  0.69506692  0.33692115  1
  Cs  Cs17  1  0.33948178  0.70055902  0.66829889  1
  Cs  Cs18  1  0.63994821  0.00161739  -0.00739997  1
  Cs  Cs19  1  0.70238814  0.00971296  0.33908768  1
  Cs  Cs20  1  0.67511513  0.00922433  0.64042798  1
  Cs  Cs21  1  0.64051273  0.32699912  0.01506433  1
  Cs  Cs22  1  0.68053964  0.33598268  0.34408460  1
  Cs  Cs23  1  0.66806620  0.33127372  0.63654153  1
  Cs  Cs24  1  0.64003592  0.66228070  -0.00310267  1
  Cs  Cs25  1  0.65415085  0.64204952  0.35994693  1
  Cs  Cs26  1  0.69487519  0.65699172  0.65751560  1
  Sn  Sn27  1  0.50357747  0.17089840  0.83155705  1
  Sn  Sn28  1  0.83173611  0.49688307  0.16536684  1
  Sn  Sn29  1  0.49730665  0.49782933  0.83080209  1
  Sn  Sn30  1  0.16680186  0.16481167  0.49830068  1
  Sn  Sn31  1  0.83003106  0.16860890  0.83616054  1
  Sn  Sn32  1  0.16697313  0.16642749  0.16363077  1
  Sn  Sn33  1  0.16914268  0.50098583  0.49838004  1
  Sn  Sn34  1  0.49648150  0.16258879  0.16837237  1
  Sn  Sn35  1  0.16409448  0.16819134  0.83868765  1
  Sn  Sn36  1  0.16746341  0.82872766  0.83937182  1
  Sn  Sn37  1  0.50061408  0.83188002  0.83515109  1
  Sn  Sn38  1  0.50062466  0.50048410  0.16681835  1
  Sn  Sn39  1  0.49966657  0.83644119  0.16703552  1
  Pb  Pb40  1  0.83090488  0.83662428  0.83771911  1
  Pb  Pb41  1  0.83995065  0.49743535  0.49334656  1
  Pb  Pb42  1  0.49484072  0.49768240  0.50148623  1
  Pb  Pb43  1  0.49641167  0.16654309  0.49748813  1
  Pb  Pb44  1  0.17060039  0.50369280  0.83528878  1
  Pb  Pb45  1  0.17135391  0.84022983  0.16038987  1
  Pb  Pb46  1  0.83364704  0.16985702  0.16282758  1
  Pb  Pb47  1  0.16651485  0.83491934  0.50442890  1
  Pb  Pb48  1  0.82853268  0.49303802  0.83614890  1
  Pb  Pb49  1  0.83349832  0.83262925  0.50083042  1
  Pb  Pb50  1  0.83956794  0.16836658  0.50534611  1
  Pb  Pb51  1  0.82675403  0.83030958  0.16029612  1
  Pb  Pb52  1  0.50115440  0.83344406  0.49903393  1
  Pb  Pb53  1  0.16711107  0.49847745  0.16715228  1
  I  I54  1  0.17498702  0.00367561  0.20178081  1
  I  I55  1  0.17030419  0.00349213  0.49131540  1
  I  I56  1  0.18129001  0.00468305  0.82510105  1
  I  I57  1  0.17702066  0.33259179  0.14078532  1
  I  I58  1  0.16900251  0.32880046  0.50993443  1
  I  I59  1  0.15179158  0.33055894  0.83842991  1
  I  I60  1  0.15398943  0.66554584  0.18490908  1
  I  I61  1  0.17239642  0.66314230  0.48503191  1
  I  I62  1  0.19011773  0.67091694  0.81735197  1
  I  I63  1  0.47660711  -0.00091439  0.14926846  1
  I  I64  1  0.49554724  -0.00001672  0.49749263  1
  I  I65  1  0.49761585  0.00159044  0.84646467  1
  I  I66  1  0.49600450  0.33406407  0.15069979  1
  I  I67  1  0.52106222  0.33239116  0.50314274  1
  I  I68  1  0.50305972  0.33269022  0.85364125  1
  I  I69  1  0.51334186  0.66671600  0.15040681  1
  I  I70  1  0.49166978  0.66502575  0.49773572  1
  I  I71  1  0.47862332  0.66845922  0.84476941  1
  I  I72  1  0.84773196  0.00186871  0.17904430  1
  I  I73  1  0.83197879  0.00102831  0.49346008  1
  I  I74  1  0.82313970  0.00337922  0.83586335  1
  I  I75  1  0.80378414  0.33384631  0.16891098  1
  I  I76  1  0.81097372  0.33345702  0.49831135  1
  I  I77  1  0.86066249  0.32922490  0.83039199  1
  I  I78  1  0.83477144  0.66383602  0.16405079  1
  I  I79  1  0.83625716  0.66365491  0.50561979  1
  I  I80  1  0.83979758  0.66682985  0.83068120  1
  I  I81  1  0.16749966  0.14633479  0.00000130  1
  I  I82  1  0.18007500  0.19127231  0.33212122  1
  I  I83  1  0.16207595  0.16675138  0.66756354  1
  I  I84  1  0.13786943  0.51141911  0.00020577  1
  I  I85  1  0.16670863  0.46771050  0.33340012  1
  I  I86  1  0.17714950  0.48136318  0.66755055  1
  I  I87  1  0.16196939  0.85201596  -0.00437483  1
  I  I88  1  0.16840307  0.83803968  0.33384816  1
  I  I89  1  0.18959766  0.84947644  0.66701688  1
  I  I90  1  0.48842389  0.16750784  -0.00107980  1
  I  I91  1  0.47641095  0.16857615  0.32865599  1
  I  I92  1  0.51483809  0.16028566  0.67059042  1
  I  I93  1  0.50767730  0.50213027  -0.00211608  1
  I  I94  1  0.52666076  0.49378939  0.33097468  1
  I  I95  1  0.49054574  0.49372712  0.67110224  1
  I  I96  1  0.48607211  0.83154034  -0.00049659  1
  I  I97  1  0.49696504  0.82554557  0.32693372  1
  I  I98  1  0.48051981  0.84026184  0.66936327  1
  I  I99  1  0.86123430  0.16798430  -0.00222330  1
  I  I100  1  0.82341699  0.16988698  0.33347866  1
  I  I101  1  0.80183418  0.16511275  0.66950305  1
  I  I102  1  0.84981081  0.49926284  0.00106330  1
  I  I103  1  0.79582757  0.50066732  0.33199420  1
  I  I104  1  0.82978387  0.50308155  0.66591198  1
  I  I105  1  0.87159381  0.82731690  -0.00047960  1
  I  I106  1  0.83333871  0.83797592  0.33145762  1
  I  I107  1  0.82367363  0.82156722  0.66918190  1
  I  I108  1  0.00510973  0.18714073  0.17329614  1
  I  I109  1  0.00246627  0.18877366  0.49383840  1
  I  I110  1  0.00224810  0.13806885  0.82558240  1
  I  I111  1  -0.00510426  0.48246231  0.17214873  1
  I  I112  1  0.00331256  0.47617342  0.50809859  1
  I  I113  1  0.00120988  0.51133117  0.81999023  1
  I  I114  1  0.00325948  0.83546712  0.17868804  1
  I  I115  1  0.00087265  0.83254051  0.49001552  1
  I  I116  1  0.00358160  0.84730378  0.81356947  1
  I  I117  1  0.33306393  0.17730775  0.15353741  1
  I  I118  1  0.33166108  0.17854340  0.51717766  1
  I  I119  1  0.33478819  0.16294117  0.82686697  1
  I  I120  1  0.33645746  0.51013784  0.15218128  1
  I  I121  1  0.33014678  0.47603576  0.49159167  1
  I  I122  1  0.33448364  0.48551106  0.86151904  1
  I  I123  1  0.33333079  0.80071356  0.16989880  1
  I  I124  1  0.33333221  0.82864394  0.48457673  1
  I  I125  1  0.33402428  0.85057342  0.83536861  1
  I  I126  1  0.66239205  0.15124376  0.14740290  1
  I  I127  1  0.66566518  0.15590041  0.49382632  1
  I  I128  1  0.66649675  0.16688560  0.86407221  1
  I  I129  1  0.66373828  0.50079729  0.14397261  1
  I  I130  1  0.66532240  0.51089762  0.51792221  1
  I  I131  1  0.66366247  0.52102486  0.83033762  1
  I  I132  1  0.66316344  0.85656131  0.13992514  1
  I  I133  1  0.66633417  0.83182623  0.51178016  1
  I  I134  1  0.66254830  0.83039645  0.85525408  1
