# generated using pymatgen
data_Cs27Sn13Pb14I81
_symmetry_space_group_name_H-M   'P 1'
_cell_length_a   18.97404153
_cell_length_b   18.97519202
_cell_length_c   18.97955437
_cell_angle_alpha   89.99855210
_cell_angle_beta   89.99765477
_cell_angle_gamma   89.99891177
_symmetry_Int_Tables_number   1
_chemical_formula_structural   Cs27Sn13Pb14I81
_chemical_formula_sum   'Cs27 Sn13 Pb14 I81'
_cell_volume   6833.32437370
_cell_formula_units_Z   1
loop_
 _symmetry_equiv_pos_site_id
 _symmetry_equiv_pos_as_xyz
  1  'x, y, z'
loop_
 _atom_site_type_symbol
 _atom_site_label
 _atom_site_symmetry_multiplicity
 _atom_site_fract_x
 _atom_site_fract_y
 _atom_site_fract_z
 _atom_site_occupancy
  Cs  Cs0  1  -0.00067700  0.00082733  0.00046069  1
  Cs  Cs1  1  -0.00160013  -0.00147720  0.33377413  1
  Cs  Cs2  1  0.00088739  0.00527920  0.66631756  1
  Cs  Cs3  1  0.00112914  0.33324753  0.00125601  1
  Cs  Cs4  1  -0.00153705  0.33410009  0.33373560  1
  Cs  Cs5  1  0.00253273  0.32990750  0.66478192  1
  Cs  Cs6  1  -0.00150809  0.66655619  -0.00152581  1
  Cs  Cs7  1  0.00004574  0.66676443  0.33256943  1
  Cs  Cs8  1  -0.00127659  0.66584783  0.66927707  1
  Cs  Cs9  1  0.33377287  0.00055147  0.00492169  1
  Cs  Cs10  1  0.33435677  -0.01188455  0.33068862  1
  Cs  Cs11  1  0.33162332  -0.00003748  0.66479745  1
  Cs  Cs12  1  0.33357454  0.33200809  0.00047823  1
  Cs  Cs13  1  0.33605266  0.33427783  0.33217556  1
  Cs  Cs14  1  0.33216835  0.33321221  0.66737628  1
  Cs  Cs15  1  0.33604640  0.66899406  -0.00041624  1
  Cs  Cs16  1  0.33199331  0.67546229  0.33415294  1
  Cs  Cs17  1  0.33513933  0.66702018  0.66565164  1
  Cs  Cs18  1  0.66708545  0.00065145  -0.00141362  1
  Cs  Cs19  1  0.66815541  0.00147970  0.33288556  1
  Cs  Cs20  1  0.66690266  -0.00043109  0.66798812  1
  Cs  Cs21  1  0.66468822  0.33688312  0.00208984  1
  Cs  Cs22  1  0.66565083  0.33324026  0.33308120  1
  Cs  Cs23  1  0.66489321  0.33221075  0.66447169  1
  Cs  Cs24  1  0.66402893  0.65957726  -0.00970562  1
  Cs  Cs25  1  0.66877399  0.66505183  0.33369797  1
  Cs  Cs26  1  0.66608801  0.66940877  0.67258518  1
  Sn  Sn27  1  0.16654821  0.50085158  0.83336468  1
  Sn  Sn28  1  0.83255848  0.16711179  0.83428844  1
  Sn  Sn29  1  0.16684358  0.49974435  0.49971996  1
  Sn  Sn30  1  0.49978799  0.49946508  0.49989437  1
  Sn  Sn31  1  0.83331278  0.50088136  0.50016461  1
  Sn  Sn32  1  0.83306451  0.83332842  0.16656263  1
  Sn  Sn33  1  0.16658695  0.49944952  0.16692611  1
  Sn  Sn34  1  0.16651921  0.83288186  0.83326552  1
  Sn  Sn35  1  0.16597466  0.16710272  0.16744098  1
  Sn  Sn36  1  0.50073508  0.16687096  0.83258918  1
  Sn  Sn37  1  0.49953682  0.16682837  0.50041372  1
  Sn  Sn38  1  0.83351862  0.83254829  0.49965189  1
  Sn  Sn39  1  0.83414517  0.16623346  0.16582962  1
  Pb  Pb40  1  0.83485317  0.83538169  0.83343164  1
  Pb  Pb41  1  0.16454500  0.83295818  0.16482737  1
  Pb  Pb42  1  0.16405532  0.83088502  0.50212603  1
  Pb  Pb43  1  0.49729100  0.83625515  0.83321776  1
  Pb  Pb44  1  0.50030600  0.16656065  0.16699311  1
  Pb  Pb45  1  0.16694171  0.16696148  0.83506150  1
  Pb  Pb46  1  0.50282350  0.83308338  0.50004410  1
  Pb  Pb47  1  0.16957827  0.16829818  0.49674519  1
  Pb  Pb48  1  0.49742363  0.49778687  0.83110643  1
  Pb  Pb49  1  0.50421974  0.83296961  0.16626066  1
  Pb  Pb50  1  0.83188534  0.16684813  0.49953492  1
  Pb  Pb51  1  0.49705311  0.50029225  0.16923203  1
  Pb  Pb52  1  0.83534366  0.49711964  0.83075927  1
  Pb  Pb53  1  0.83490877  0.49990467  0.16823224  1
  I  I54  1  0.16502018  0.00238050  0.16312441  1
  I  I55  1  0.16644149  -0.00006298  0.50126973  1
  I  I56  1  0.16591004  -0.00157270  0.83567086  1
  I  I57  1  0.16063714  0.33351068  0.16473154  1
  I  I58  1  0.16104213  0.33692991  0.50520245  1
  I  I59  1  0.16647615  0.33595474  0.83120158  1
  I  I60  1  0.16545307  0.66365092  0.16933768  1
  I  I61  1  0.17144460  0.66230005  0.49474666  1
  I  I62  1  0.16473224  0.66526917  0.83433962  1
  I  I63  1  0.49346609  0.00030048  0.16957672  1
  I  I64  1  0.50244887  0.00282543  0.50356440  1
  I  I65  1  0.50196503  0.00432527  0.82657450  1
  I  I66  1  0.50356008  0.33327498  0.16592073  1
  I  I67  1  0.50215527  0.33386249  0.50368969  1
  I  I68  1  0.50157972  0.32992329  0.83127230  1
  I  I69  1  0.49826776  0.66649598  0.16928813  1
  I  I70  1  0.49676378  0.66326740  0.49855241  1
  I  I71  1  0.50107537  0.66638070  0.83225038  1
  I  I72  1  0.83959449  0.00118178  0.16941415  1
  I  I73  1  0.83131893  -0.00184454  0.49904826  1
  I  I74  1  0.83345262  0.00337768  0.83199777  1
  I  I75  1  0.83608129  0.33049915  0.16478292  1
  I  I76  1  0.83548083  0.33596101  0.50035873  1
  I  I77  1  0.83233145  0.32929501  0.83796960  1
  I  I78  1  0.83639302  0.66893784  0.17133531  1
  I  I79  1  0.83324443  0.66601782  0.49380546  1
  I  I80  1  0.83359101  0.66636714  0.83516113  1
  I  I81  1  0.16652471  0.17201873  0.00277777  1
  I  I82  1  0.16028220  0.17197583  0.32913815  1
  I  I83  1  0.16413886  0.16738767  0.66655327  1
  I  I84  1  0.16485640  0.49877608  0.00014532  1
  I  I85  1  0.16583531  0.49364703  0.33373786  1
  I  I86  1  0.16648781  0.50414066  0.66613100  1
  I  I87  1  0.16374773  0.82852751  -0.00267798  1
  I  I88  1  0.16741120  0.83338134  0.33328987  1
  I  I89  1  0.16428299  0.82980370  0.66975793  1
  I  I90  1  0.50028508  0.16556883  -0.00249634  1
  I  I91  1  0.50093003  0.17242987  0.33616178  1
  I  I92  1  0.50542761  0.17079437  0.66662297  1
  I  I93  1  0.49908381  0.49848501  -0.00033233  1
  I  I94  1  0.49989043  0.49182095  0.33782198  1
  I  I95  1  0.49815962  0.49733056  0.66295544  1
  I  I96  1  0.50033729  0.83595891  -0.00034018  1
  I  I97  1  0.49574235  0.83621331  0.33351813  1
  I  I98  1  0.50222839  0.83241975  0.66653313  1
  I  I99  1  0.83266541  0.16076392  0.00071787  1
  I  I100  1  0.83598334  0.16595573  0.33079536  1
  I  I101  1  0.83184657  0.16686941  0.66848939  1
  I  I102  1  0.83582130  0.50204829  -0.00020369  1
  I  I103  1  0.83587451  0.49854733  0.33665744  1
  I  I104  1  0.83547364  0.50423665  0.66256505  1
  I  I105  1  0.83691729  0.83801317  0.00248965  1
  I  I106  1  0.83498124  0.83605349  0.33336145  1
  I  I107  1  0.83455211  0.83021380  0.66421010  1
  I  I108  1  -0.00076471  0.16720436  0.16101426  1
  I  I109  1  0.00007349  0.16783976  0.50276267  1
  I  I110  1  -0.00203331  0.16655725  0.83538807  1
  I  I111  1  0.00327618  0.49806381  0.16948988  1
  I  I112  1  0.00038641  0.50416468  0.49969017  1
  I  I113  1  0.00352907  0.50062849  0.83098264  1
  I  I114  1  -0.00308587  0.83577488  0.17068200  1
  I  I115  1  -0.00368711  0.82946099  0.49639665  1
  I  I116  1  0.00264817  0.83117033  0.83318608  1
  I  I117  1  0.33060009  0.17233227  0.16537210  1
  I  I118  1  0.33714727  0.17302069  0.50654199  1
  I  I119  1  0.33545034  0.16766515  0.83019614  1
  I  I120  1  0.32840514  0.49216468  0.16695427  1
  I  I121  1  0.33279657  0.49308961  0.50087125  1
  I  I122  1  0.32925892  0.50067098  0.83150622  1
  I  I123  1  0.33291278  0.83480763  0.16602949  1
  I  I124  1  0.33315534  0.83346798  0.50080505  1
  I  I125  1  0.32936598  0.82988547  0.83321445  1
  I  I126  1  0.66993937  0.16198180  0.16616771  1
  I  I127  1  0.66412645  0.17255537  0.49972721  1
  I  I128  1  0.66721392  0.16556722  0.83450782  1
  I  I129  1  0.66687622  0.49908311  0.16936511  1
  I  I130  1  0.66688459  0.49875161  0.49889941  1
  I  I131  1  0.66668274  0.50074192  0.83202072  1
  I  I132  1  0.67218554  0.84195347  0.17183586  1
  I  I133  1  0.67071394  0.82841845  0.49660372  1
  I  I134  1  0.66689745  0.83345515  0.83338450  1
