# generated using pymatgen
data_Cs27Sn14Pb13I81
_symmetry_space_group_name_H-M   'P 1'
_cell_length_a   18.98302109
_cell_length_b   18.96885159
_cell_length_c   18.97477594
_cell_angle_alpha   90.00077577
_cell_angle_beta   90.00045962
_cell_angle_gamma   89.99941818
_symmetry_Int_Tables_number   1
_chemical_formula_structural   Cs27Sn14Pb13I81
_chemical_formula_sum   'Cs27 Sn14 Pb13 I81'
_cell_volume   6832.55325108
_cell_formula_units_Z   1
loop_
 _symmetry_equiv_pos_site_id
 _symmetry_equiv_pos_as_xyz
  1  'x, y, z'
loop_
 _atom_site_type_symbol
 _atom_site_label
 _atom_site_symmetry_multiplicity
 _atom_site_fract_x
 _atom_site_fract_y
 _atom_site_fract_z
 _atom_site_occupancy
  Cs  Cs0  1  0.00190785  -0.00096777  0.00974080  1
  Cs  Cs1  1  0.00110672  0.00855565  0.32868733  1
  Cs  Cs2  1  0.00257483  -0.00341446  0.66367442  1
  Cs  Cs3  1  -0.00378967  0.33786578  -0.00184532  1
  Cs  Cs4  1  0.00087718  0.32886053  0.33489122  1
  Cs  Cs5  1  -0.00260711  0.33309694  0.66627618  1
  Cs  Cs6  1  0.00024321  0.66452183  -0.00190488  1
  Cs  Cs7  1  -0.00119219  0.66529102  0.33543537  1
  Cs  Cs8  1  0.00034825  0.66777480  0.66771730  1
  Cs  Cs9  1  0.33260502  -0.00092943  -0.00206042  1
  Cs  Cs10  1  0.33236405  0.00059248  0.33004854  1
  Cs  Cs11  1  0.33194698  -0.00028611  0.66931454  1
  Cs  Cs12  1  0.33658361  0.33543513  -0.00021606  1
  Cs  Cs13  1  0.33369493  0.33395426  0.33346046  1
  Cs  Cs14  1  0.33397501  0.33158357  0.66674347  1
  Cs  Cs15  1  0.33228618  0.66622030  -0.00009568  1
  Cs  Cs16  1  0.33590684  0.66635021  0.33513455  1
  Cs  Cs17  1  0.33196064  0.66778363  0.66482687  1
  Cs  Cs18  1  0.66844399  0.00240879  -0.00034145  1
  Cs  Cs19  1  0.66717757  -0.00162359  0.32951781  1
  Cs  Cs20  1  0.66750164  0.00158580  0.66920709  1
  Cs  Cs21  1  0.66395240  0.33169319  -0.00235937  1
  Cs  Cs22  1  0.66511993  0.33630878  0.33340294  1
  Cs  Cs23  1  0.66625335  0.32825438  0.66958149  1
  Cs  Cs24  1  0.66714636  0.66700783  0.00143246  1
  Cs  Cs25  1  0.66550322  0.66632743  0.33532992  1
  Cs  Cs26  1  0.66793268  0.66862818  0.66235178  1
  Sn  Sn27  1  0.49997094  0.16628548  0.49894825  1
  Sn  Sn28  1  0.83323777  0.50023562  0.16752085  1
  Sn  Sn29  1  0.49975421  0.16727029  0.16782963  1
  Sn  Sn30  1  0.83418794  0.50044354  0.49943700  1
  Sn  Sn31  1  0.16669687  0.50023478  0.16773686  1
  Sn  Sn32  1  0.16627198  0.83421716  0.83288074  1
  Sn  Sn33  1  0.83375229  0.83331934  0.83289903  1
  Sn  Sn34  1  0.16595642  0.50051768  0.49931366  1
  Sn  Sn35  1  0.50011344  0.83215132  0.83337028  1
  Sn  Sn36  1  0.16608825  0.16611389  0.83339919  1
  Sn  Sn37  1  0.49998619  0.50120967  0.83349025  1
  Sn  Sn38  1  0.50001998  0.49973107  0.16590549  1
  Sn  Sn39  1  0.83451183  0.83294070  0.50041128  1
  Sn  Sn40  1  0.16580019  0.83277027  0.50008977  1
  Pb  Pb41  1  0.49996034  0.83307131  0.16414855  1
  Pb  Pb42  1  0.83354818  0.83108726  0.16749388  1
  Pb  Pb43  1  0.16826277  0.50050886  0.83263663  1
  Pb  Pb44  1  0.83077930  0.16995955  0.16664366  1
  Pb  Pb45  1  0.83688183  0.16313300  0.83320463  1
  Pb  Pb46  1  0.50013034  0.49877706  0.50011551  1
  Pb  Pb47  1  0.16661507  0.83095203  0.16735119  1
  Pb  Pb48  1  0.49993715  0.83587529  0.50205303  1
  Pb  Pb49  1  0.16832907  0.16660708  0.50132775  1
  Pb  Pb50  1  0.16880200  0.16981011  0.16407321  1
  Pb  Pb51  1  0.83111878  0.16629382  0.50001038  1
  Pb  Pb52  1  0.83077928  0.50189027  0.83252941  1
  Pb  Pb53  1  0.49871357  0.16639962  0.83382492  1
  I  I54  1  0.16892862  0.00020440  0.16817153  1
  I  I55  1  0.16410796  -0.00316653  0.50456078  1
  I  I56  1  0.17067199  -0.00216370  0.82691019  1
  I  I57  1  0.16538209  0.33788923  0.17136291  1
  I  I58  1  0.16434543  0.33645193  0.49792284  1
  I  I59  1  0.17257116  0.33205478  0.83381871  1
  I  I60  1  0.17049975  0.66256648  0.16445676  1
  I  I61  1  0.16451122  0.66653751  0.50290126  1
  I  I62  1  0.16601243  0.66961985  0.83261573  1
  I  I63  1  0.49941450  0.00276354  0.16936287  1
  I  I64  1  0.49933698  0.00329871  0.49601970  1
  I  I65  1  0.50087742  -0.00286178  0.83227759  1
  I  I66  1  0.49995106  0.33512066  0.16369902  1
  I  I67  1  0.49912961  0.33112435  0.50187137  1
  I  I68  1  0.49740616  0.33552638  0.83457813  1
  I  I69  1  0.49997182  0.66300170  0.16378614  1
  I  I70  1  0.49977802  0.66687526  0.49861929  1
  I  I71  1  0.49693081  0.66677749  0.83882420  1
  I  I72  1  0.83082429  0.00001651  0.16621736  1
  I  I73  1  0.83623602  -0.00366553  0.50652578  1
  I  I74  1  0.82493460  -0.00507266  0.82605892  1
  I  I75  1  0.83608883  0.33835221  0.17260527  1
  I  I76  1  0.83683182  0.33671882  0.49509418  1
  I  I77  1  0.83232372  0.33353183  0.83338492  1
  I  I78  1  0.82951882  0.66270953  0.16716708  1
  I  I79  1  0.83589430  0.66636873  0.50034151  1
  I  I80  1  0.83851809  0.66995023  0.83256444  1
  I  I81  1  0.17027256  0.15982881  -0.00347463  1
  I  I82  1  0.16733296  0.16408448  0.33307085  1
  I  I83  1  0.17221491  0.16731870  0.66914665  1
  I  I84  1  0.16591123  0.49938741  0.00211597  1
  I  I85  1  0.16940723  0.50541846  0.33399295  1
  I  I86  1  0.16401838  0.50109079  0.66378751  1
  I  I87  1  0.16730878  0.83596558  -0.00319460  1
  I  I88  1  0.16235506  0.83068754  0.33701137  1
  I  I89  1  0.16677207  0.83066442  0.66696000  1
  I  I90  1  0.49830495  0.16966985  0.00230894  1
  I  I91  1  0.49901782  0.17394857  0.33251560  1
  I  I92  1  0.49851707  0.16773468  0.66528962  1
  I  I93  1  0.49922216  0.49746524  0.00090820  1
  I  I94  1  0.49981356  0.49658284  0.33075367  1
  I  I95  1  0.49878827  0.50169024  0.66894767  1
  I  I96  1  0.49920992  0.83365047  -0.00434753  1
  I  I97  1  0.50008942  0.83176272  0.33355338  1
  I  I98  1  0.49913564  0.82861429  0.67019358  1
  I  I99  1  0.83008541  0.16697348  -0.00016696  1
  I  I100  1  0.83534726  0.16112055  0.33332811  1
  I  I101  1  0.82774165  0.17374103  0.66669737  1
  I  I102  1  0.83538737  0.50105038  0.00237243  1
  I  I103  1  0.83061464  0.50643850  0.33382396  1
  I  I104  1  0.83740155  0.50233469  0.66355041  1
  I  I105  1  0.83292821  0.83223257  -0.00294295  1
  I  I106  1  0.83721990  0.83075149  0.33706053  1
  I  I107  1  0.83360946  0.82644269  0.66639951  1
  I  I108  1  0.00025373  0.16697170  0.16506920  1
  I  I109  1  0.00009551  0.16738014  0.50245501  1
  I  I110  1  0.00453680  0.16518511  0.83128316  1
  I  I111  1  0.00009898  0.50270524  0.17012402  1
  I  I112  1  0.00029007  0.50345195  0.49295517  1
  I  I113  1  -0.00008980  0.49949034  0.83725336  1
  I  I114  1  0.00010238  0.83119740  0.15980419  1
  I  I115  1  0.00036944  0.82747928  0.51024079  1
  I  I116  1  0.00054640  0.83723291  0.82812663  1
  I  I117  1  0.33658571  0.17350690  0.16974291  1
  I  I118  1  0.33608798  0.16828489  0.49775508  1
  I  I119  1  0.33122125  0.16101336  0.83282048  1
  I  I120  1  0.33379643  0.49635480  0.16595407  1
  I  I121  1  0.33083699  0.50324744  0.49791847  1
  I  I122  1  0.33616793  0.50421172  0.83728854  1
  I  I123  1  0.33335175  0.83015378  0.16653077  1
  I  I124  1  0.33042188  0.82895513  0.50494510  1
  I  I125  1  0.33276613  0.83357616  0.82996641  1
  I  I126  1  0.66264669  0.17193991  0.16847049  1
  I  I127  1  0.66321597  0.16827138  0.49798367  1
  I  I128  1  0.66667268  0.16634236  0.83364714  1
  I  I129  1  0.66622559  0.49652240  0.16658990  1
  I  I130  1  0.66917888  0.50385827  0.49721692  1
  I  I131  1  0.66286369  0.50376426  0.83723083  1
  I  I132  1  0.66663417  0.83099865  0.16658207  1
  I  I133  1  0.66941891  0.82881007  0.50442932  1
  I  I134  1  0.66664946  0.82722884  0.82963983  1
