# generated using pymatgen
data_Cs27Sn13Pb14I81
_symmetry_space_group_name_H-M   'P 1'
_cell_length_a   19.00113015
_cell_length_b   18.98352807
_cell_length_c   18.99313278
_cell_angle_alpha   89.99982070
_cell_angle_beta   90.00003587
_cell_angle_gamma   90.00020633
_symmetry_Int_Tables_number   1
_chemical_formula_structural   Cs27Sn13Pb14I81
_chemical_formula_sum   'Cs27 Sn13 Pb14 I81'
_cell_volume   6850.98419778
_cell_formula_units_Z   1
loop_
 _symmetry_equiv_pos_site_id
 _symmetry_equiv_pos_as_xyz
  1  'x, y, z'
loop_
 _atom_site_type_symbol
 _atom_site_label
 _atom_site_symmetry_multiplicity
 _atom_site_fract_x
 _atom_site_fract_y
 _atom_site_fract_z
 _atom_site_occupancy
  Cs  Cs0  1  -0.00086404  -0.00523544  -0.00291908  1
  Cs  Cs1  1  -0.00087402  0.00022131  0.33594218  1
  Cs  Cs2  1  0.00246316  -0.00004047  0.66566203  1
  Cs  Cs3  1  -0.00291879  0.33278840  0.00161505  1
  Cs  Cs4  1  -0.00013409  0.33519961  0.33205889  1
  Cs  Cs5  1  0.00380709  0.33376380  0.66690634  1
  Cs  Cs6  1  0.00533874  0.67421306  0.00087413  1
  Cs  Cs7  1  0.00389498  0.66464759  0.33293383  1
  Cs  Cs8  1  -0.00049079  0.66713427  0.66518720  1
  Cs  Cs9  1  0.33381217  -0.00470621  -0.00164551  1
  Cs  Cs10  1  0.33608677  0.00035189  0.33575192  1
  Cs  Cs11  1  0.32949305  0.00152869  0.66307052  1
  Cs  Cs12  1  0.33231120  0.33475866  0.00087401  1
  Cs  Cs13  1  0.33249920  0.33343730  0.33153949  1
  Cs  Cs14  1  0.32675147  0.33941026  0.66996797  1
  Cs  Cs15  1  0.32668817  0.67138791  -0.00693358  1
  Cs  Cs16  1  0.32878871  0.66642648  0.33084299  1
  Cs  Cs17  1  0.33749052  0.65761311  0.67506550  1
  Cs  Cs18  1  0.66753226  -0.00099187  0.00043738  1
  Cs  Cs19  1  0.66554407  0.00088015  0.33410792  1
  Cs  Cs20  1  0.66707013  0.00083883  0.66462471  1
  Cs  Cs21  1  0.66844628  0.33118821  0.00167968  1
  Cs  Cs22  1  0.66731612  0.33187333  0.33068134  1
  Cs  Cs23  1  0.66763681  0.33467709  0.66879382  1
  Cs  Cs24  1  0.66612814  0.67330952  -0.00218849  1
  Cs  Cs25  1  0.66691030  0.66533308  0.33502572  1
  Cs  Cs26  1  0.66365374  0.66223385  0.66738953  1
  Sn  Sn27  1  0.49996793  0.16712588  0.16637910  1
  Sn  Sn28  1  0.83240127  0.16731586  0.83320627  1
  Sn  Sn29  1  0.50059651  0.16669076  0.83298478  1
  Sn  Sn30  1  0.50098567  0.49977336  0.16644005  1
  Sn  Sn31  1  0.83200237  0.49965063  0.16519120  1
  Sn  Sn32  1  0.16659388  0.16622791  0.16654610  1
  Sn  Sn33  1  0.50061032  0.16687989  0.50069045  1
  Sn  Sn34  1  0.49989332  0.83361692  0.49979348  1
  Sn  Sn35  1  0.83288276  0.83398647  0.49968600  1
  Sn  Sn36  1  0.83317853  0.49927148  0.83501352  1
  Sn  Sn37  1  0.83263511  0.16627458  0.50011773  1
  Sn  Sn38  1  0.83346291  0.16677559  0.16661801  1
  Sn  Sn39  1  0.16731968  0.83319034  0.50010889  1
  Pb  Pb40  1  0.16296940  0.49959379  0.83388294  1
  Pb  Pb41  1  0.50029630  0.83631915  0.83026141  1
  Pb  Pb42  1  0.16674527  0.83630977  0.16871464  1
  Pb  Pb43  1  0.16640639  0.49799969  0.16645107  1
  Pb  Pb44  1  0.16675584  0.83370688  0.83012211  1
  Pb  Pb45  1  0.83317953  0.49911600  0.49967416  1
  Pb  Pb46  1  0.16677756  0.16586270  0.49814809  1
  Pb  Pb47  1  0.83316253  0.83312501  0.16907775  1
  Pb  Pb48  1  0.50232766  0.49732332  0.83667638  1
  Pb  Pb49  1  0.16638968  0.16662982  0.83608720  1
  Pb  Pb50  1  0.83309360  0.83361208  0.83047242  1
  Pb  Pb51  1  0.50009536  0.83321905  0.16858550  1
  Pb  Pb52  1  0.50016068  0.49885710  0.49764570  1
  Pb  Pb53  1  0.16687599  0.50300770  0.49987753  1
  I  I54  1  0.16630639  0.00439127  0.16708312  1
  I  I55  1  0.16599553  -0.00227482  0.49762703  1
  I  I56  1  0.16363980  0.00045361  0.83509014  1
  I  I57  1  0.16650981  0.32981980  0.16919774  1
  I  I58  1  0.16605109  0.33316660  0.49932305  1
  I  I59  1  0.16942786  0.33284820  0.83045861  1
  I  I60  1  0.16602435  0.66671494  0.16907137  1
  I  I61  1  0.16377316  0.67154601  0.49765339  1
  I  I62  1  0.16564825  0.66663237  0.83312957  1
  I  I63  1  0.50155169  0.00408463  0.16562259  1
  I  I64  1  0.50100011  0.00162109  0.49729132  1
  I  I65  1  0.50737425  0.00474469  0.84013249  1
  I  I66  1  0.50114943  0.33087630  0.16996165  1
  I  I67  1  0.50728562  0.32906031  0.50037203  1
  I  I68  1  0.50205366  0.32912445  0.82687804  1
  I  I69  1  0.50689296  0.66349010  0.17086727  1
  I  I70  1  0.50146688  0.66948497  0.49700204  1
  I  I71  1  0.50103217  0.66637167  0.83236529  1
  I  I72  1  0.83190950  0.00386773  0.16446298  1
  I  I73  1  0.83303922  0.00166747  0.49924272  1
  I  I74  1  0.83010836  0.00380599  0.83674074  1
  I  I75  1  0.83292536  0.33133630  0.16912073  1
  I  I76  1  0.82742575  0.32945933  0.49912170  1
  I  I77  1  0.82912719  0.33138886  0.83182626  1
  I  I78  1  0.82807724  0.66322026  0.16390301  1
  I  I79  1  0.83363512  0.66944820  0.49970266  1
  I  I80  1  0.83439438  0.66376423  0.83698711  1
  I  I81  1  0.16651005  0.16798632  0.00406906  1
  I  I82  1  0.16612613  0.16560449  0.33033326  1
  I  I83  1  0.16632110  0.16432097  0.66664410  1
  I  I84  1  0.16980500  0.50018188  0.00032262  1
  I  I85  1  0.16332404  0.49997819  0.33287695  1
  I  I86  1  0.16560233  0.49912371  0.66692828  1
  I  I87  1  0.16623230  0.83287901  -0.00002795  1
  I  I88  1  0.16597816  0.83423844  0.33676952  1
  I  I89  1  0.16429918  0.83815513  0.66193041  1
  I  I90  1  0.50302516  0.17203053  0.00076296  1
  I  I91  1  0.50270693  0.16561441  0.33320268  1
  I  I92  1  0.50885263  0.15975884  0.66598331  1
  I  I93  1  0.50222738  0.49212881  0.00431831  1
  I  I94  1  0.50738461  0.49338617  0.32992426  1
  I  I95  1  0.50087832  0.50074331  0.66702388  1
  I  I96  1  0.49942173  0.83437311  -0.00016604  1
  I  I97  1  0.50121179  0.84087060  0.33695277  1
  I  I98  1  0.50143707  0.83893812  0.66187319  1
  I  I99  1  0.83076163  0.17199332  0.00052321  1
  I  I100  1  0.83120484  0.16612326  0.33305365  1
  I  I101  1  0.82637183  0.16629669  0.66637229  1
  I  I102  1  0.82930548  0.48814446  0.00101486  1
  I  I103  1  0.83040393  0.49631279  0.33015983  1
  I  I104  1  0.83416597  0.49678087  0.66906654  1
  I  I105  1  0.83442880  0.83615709  -0.00010760  1
  I  I106  1  0.83261448  0.83874553  0.33722189  1
  I  I107  1  0.83372579  0.83819898  0.66235299  1
  I  I108  1  -0.00184615  0.17054789  0.16842326  1
  I  I109  1  -0.00331411  0.16284604  0.49975897  1
  I  I110  1  -0.00388216  0.17029940  0.83210549  1
  I  I111  1  -0.00366924  0.49483251  0.16454947  1
  I  I112  1  -0.00043216  0.49962895  0.49782797  1
  I  I113  1  -0.00519112  0.49154116  0.83857350  1
  I  I114  1  -0.00019154  0.83355264  0.17071013  1
  I  I115  1  -0.00094032  0.83850328  0.49961631  1
  I  I116  1  -0.00037457  0.83531443  0.83070128  1
  I  I117  1  0.33493059  0.17032891  0.16878208  1
  I  I118  1  0.33663346  0.16169305  0.49862342  1
  I  I119  1  0.33662376  0.16468335  0.83235657  1
  I  I120  1  0.33641123  0.49392698  0.17075689  1
  I  I121  1  0.33369516  0.49871494  0.49740104  1
  I  I122  1  0.33368788  0.49969611  0.83300630  1
  I  I123  1  0.33347175  0.83407375  0.17140335  1
  I  I124  1  0.33424441  0.84100557  0.49787995  1
  I  I125  1  0.33364197  0.83500833  0.83193660  1
  I  I126  1  0.66690418  0.17038882  0.16792546  1
  I  I127  1  0.66703520  0.15842058  0.49554372  1
  I  I128  1  0.66755116  0.16966377  0.83612341  1
  I  I129  1  0.66761238  0.49000167  0.16553585  1
  I  I130  1  0.66682149  0.50658641  0.50144497  1
  I  I131  1  0.67005550  0.49736761  0.83315199  1
  I  I132  1  0.66671307  0.83742174  0.17024227  1
  I  I133  1  0.66673935  0.83962142  0.49908206  1
  I  I134  1  0.66676964  0.83144699  0.83112587  1
