# generated using pymatgen
data_Cs27Sn14Pb13I81
_symmetry_space_group_name_H-M   'P 1'
_cell_length_a   18.95923757
_cell_length_b   18.96360848
_cell_length_c   18.95966389
_cell_angle_alpha   89.99973832
_cell_angle_beta   89.99976828
_cell_angle_gamma   89.99934569
_symmetry_Int_Tables_number   1
_chemical_formula_structural   Cs27Sn14Pb13I81
_chemical_formula_sum   'Cs27 Sn14 Pb13 I81'
_cell_volume   6816.67334245
_cell_formula_units_Z   1
loop_
 _symmetry_equiv_pos_site_id
 _symmetry_equiv_pos_as_xyz
  1  'x, y, z'
loop_
 _atom_site_type_symbol
 _atom_site_label
 _atom_site_symmetry_multiplicity
 _atom_site_fract_x
 _atom_site_fract_y
 _atom_site_fract_z
 _atom_site_occupancy
  Cs  Cs0  1  0.00026855  0.00136955  -0.00153014  1
  Cs  Cs1  1  0.00154446  -0.00104666  0.33421609  1
  Cs  Cs2  1  -0.00179532  -0.00076417  0.66783367  1
  Cs  Cs3  1  0.00069842  0.33172822  -0.00141011  1
  Cs  Cs4  1  -0.00243626  0.33421228  0.33440559  1
  Cs  Cs5  1  0.00073113  0.33204087  0.66839654  1
  Cs  Cs6  1  0.00146923  0.66643387  -0.00157633  1
  Cs  Cs7  1  -0.00310074  0.66794059  0.33290115  1
  Cs  Cs8  1  -0.00011578  0.66770593  0.66836478  1
  Cs  Cs9  1  0.33626013  -0.00021208  -0.00043299  1
  Cs  Cs10  1  0.33197162  0.00180993  0.33428748  1
  Cs  Cs11  1  0.33575215  0.00075605  0.66627023  1
  Cs  Cs12  1  0.33244202  0.33667918  -0.00039726  1
  Cs  Cs13  1  0.33459476  0.33229211  0.34017572  1
  Cs  Cs14  1  0.33354878  0.33359839  0.65809626  1
  Cs  Cs15  1  0.33310212  0.66478696  0.00002470  1
  Cs  Cs16  1  0.33346165  0.66745059  0.33213251  1
  Cs  Cs17  1  0.33226937  0.66621021  0.66701807  1
  Cs  Cs18  1  0.65946218  0.00105299  0.00465590  1
  Cs  Cs19  1  0.66684925  0.00023348  0.32603526  1
  Cs  Cs20  1  0.66997104  -0.00104042  0.66907985  1
  Cs  Cs21  1  0.66618339  0.33239609  0.00079529  1
  Cs  Cs22  1  0.66688586  0.33580093  0.33255243  1
  Cs  Cs23  1  0.66580947  0.33274526  0.66609813  1
  Cs  Cs24  1  0.66404243  0.66631678  0.00080403  1
  Cs  Cs25  1  0.66970831  0.66462119  0.33312648  1
  Cs  Cs26  1  0.66748421  0.66757620  0.66606102  1
  Sn  Sn27  1  0.16647517  0.16583991  0.83380789  1
  Sn  Sn28  1  0.16648458  0.83344993  0.16619571  1
  Sn  Sn29  1  0.83240897  0.50006921  0.83348166  1
  Sn  Sn30  1  0.50055224  0.49990060  0.83349682  1
  Sn  Sn31  1  0.83360189  0.83369092  0.83334919  1
  Sn  Sn32  1  0.16727797  0.49974470  0.16670954  1
  Sn  Sn33  1  0.50051739  0.83353014  0.50008755  1
  Sn  Sn34  1  0.16670779  0.83332022  0.50042243  1
  Sn  Sn35  1  0.16653874  0.16682845  0.16600211  1
  Sn  Sn36  1  0.16625941  0.83430343  0.83339270  1
  Sn  Sn37  1  0.83342990  0.16570766  0.50054378  1
  Sn  Sn38  1  0.83371511  0.16611975  0.83294658  1
  Sn  Sn39  1  0.83306987  0.83443341  0.50056997  1
  Sn  Sn40  1  0.49915861  0.50003695  0.16611538  1
  Pb  Pb41  1  0.49987706  0.83156572  0.83193964  1
  Pb  Pb42  1  0.16635785  0.50269908  0.49684274  1
  Pb  Pb43  1  0.50013887  0.50200536  0.49995931  1
  Pb  Pb44  1  0.16474391  0.16456571  0.50053884  1
  Pb  Pb45  1  0.16668770  0.49973832  0.83449597  1
  Pb  Pb46  1  0.50355693  0.16375359  0.50012107  1
  Pb  Pb47  1  0.83527793  0.83345389  0.16610436  1
  Pb  Pb48  1  0.83349116  0.50000778  0.16397195  1
  Pb  Pb49  1  0.83537457  0.16655946  0.16632310  1
  Pb  Pb50  1  0.49675392  0.16948817  0.16670049  1
  Pb  Pb51  1  0.49964235  0.16922210  0.83319124  1
  Pb  Pb52  1  0.49733982  0.83135286  0.16897463  1
  Pb  Pb53  1  0.83351009  0.50011123  0.50267883  1
  I  I54  1  0.16404650  -0.00056849  0.16658136  1
  I  I55  1  0.16811740  -0.00392460  0.49528718  1
  I  I56  1  0.15921332  -0.00085621  0.83753607  1
  I  I57  1  0.16933448  0.33312848  0.15972958  1
  I  I58  1  0.16546026  0.33298068  0.50026349  1
  I  I59  1  0.16262959  0.33072687  0.83911553  1
  I  I60  1  0.17019705  0.66722920  0.16666149  1
  I  I61  1  0.16362583  0.67156776  0.50227143  1
  I  I62  1  0.16377173  0.66954396  0.83357697  1
  I  I63  1  0.49956845  -0.00015763  0.16773369  1
  I  I64  1  0.49539361  -0.00427018  0.50117338  1
  I  I65  1  0.50160044  -0.00017665  0.83184741  1
  I  I66  1  0.49538823  0.33753306  0.16266605  1
  I  I67  1  0.50060054  0.33327990  0.49960488  1
  I  I68  1  0.50367679  0.33736132  0.83757035  1
  I  I69  1  0.49381839  0.66350022  0.16275433  1
  I  I70  1  0.50160289  0.67014910  0.50031275  1
  I  I71  1  0.50312722  0.66360247  0.83630998  1
  I  I72  1  0.83467359  -0.00005437  0.16388039  1
  I  I73  1  0.83433212  -0.00141347  0.50843653  1
  I  I74  1  0.84031194  -0.00045419  0.82722559  1
  I  I75  1  0.83652168  0.33332930  0.16755259  1
  I  I76  1  0.83482151  0.33040311  0.50362116  1
  I  I77  1  0.83463856  0.33253433  0.83030274  1
  I  I78  1  0.83677062  0.66673096  0.16736263  1
  I  I79  1  0.83407047  0.67039296  0.50330080  1
  I  I80  1  0.83469109  0.66780220  0.82989641  1
  I  I81  1  0.16078244  0.16257481  -0.00078880  1
  I  I82  1  0.16563903  0.16594742  0.33095069  1
  I  I83  1  0.16421949  0.16288348  0.66987177  1
  I  I84  1  0.16728420  0.50479788  0.00264149  1
  I  I85  1  0.17308951  0.49877363  0.32839953  1
  I  I86  1  0.16744134  0.50030479  0.66682567  1
  I  I87  1  0.16171494  0.83295672  -0.00071995  1
  I  I88  1  0.16671643  0.83224871  0.33340029  1
  I  I89  1  0.16548774  0.83716538  0.66742220  1
  I  I90  1  0.50449822  0.16378555  -0.00010043  1
  I  I91  1  0.49971169  0.16872527  0.33340757  1
  I  I92  1  0.49405281  0.17068096  0.66672835  1
  I  I93  1  0.49969381  0.50169513  -0.00019433  1
  I  I94  1  0.49408213  0.50168294  0.33042503  1
  I  I95  1  0.50445111  0.50142263  0.66950056  1
  I  I96  1  0.50015498  0.83298552  0.00009816  1
  I  I97  1  0.50116016  0.83086664  0.33697005  1
  I  I98  1  0.49560793  0.82997546  0.66394714  1
  I  I99  1  0.83650480  0.16660321  -0.00376724  1
  I  I100  1  0.83498429  0.16107400  0.33616645  1
  I  I101  1  0.83914119  0.16602591  0.66820720  1
  I  I102  1  0.83325326  0.50060080  -0.00439994  1
  I  I103  1  0.83298868  0.50026400  0.33329974  1
  I  I104  1  0.82850611  0.50097818  0.67106284  1
  I  I105  1  0.83865415  0.83314975  -0.00387694  1
  I  I106  1  0.83459283  0.83712418  0.33661235  1
  I  I107  1  0.83794400  0.83297439  0.66715540  1
  I  I108  1  0.00395949  0.16857057  0.16489337  1
  I  I109  1  -0.00316019  0.16083537  0.50159886  1
  I  I110  1  -0.00018433  0.16806627  0.83359969  1
  I  I111  1  0.00336485  0.50099150  0.16581191  1
  I  I112  1  -0.00008124  0.50272308  0.49932490  1
  I  I113  1  -0.00247680  0.50073651  0.83418788  1
  I  I114  1  0.00415899  0.83014277  0.17061425  1
  I  I115  1  -0.00013589  0.83646000  0.50029028  1
  I  I116  1  0.00022674  0.83117225  0.82970722  1
  I  I117  1  0.32835780  0.16267448  0.16070997  1
  I  I118  1  0.33309741  0.16573683  0.50006738  1
  I  I119  1  0.32967000  0.16246661  0.83821479  1
  I  I120  1  0.33248235  0.50155094  0.15935075  1
  I  I121  1  0.33323331  0.50184106  0.50516094  1
  I  I122  1  0.33532428  0.50175755  0.83664831  1
  I  I123  1  0.32871953  0.83470758  0.16562585  1
  I  I124  1  0.33202781  0.83075567  0.49939708  1
  I  I125  1  0.32993555  0.83533420  0.83280656  1
  I  I126  1  0.66659328  0.16839703  0.16677389  1
  I  I127  1  0.67157623  0.16238103  0.50738500  1
  I  I128  1  0.67022611  0.16440620  0.82874684  1
  I  I129  1  0.66397374  0.50114508  0.16482923  1
  I  I130  1  0.66688099  0.50285073  0.49551770  1
  I  I131  1  0.66741505  0.50103505  0.83849283  1
  I  I132  1  0.66641763  0.83084832  0.16727092  1
  I  I133  1  0.66820401  0.83554519  0.50644960  1
  I  I134  1  0.66981954  0.83448783  0.82775657  1
