# generated using pymatgen
data_Cs27Sn13Pb14I81
_symmetry_space_group_name_H-M   'P 1'
_cell_length_a   18.99653673
_cell_length_b   19.00538952
_cell_length_c   18.97776374
_cell_angle_alpha   89.99928549
_cell_angle_beta   90.00172707
_cell_angle_gamma   90.00076638
_symmetry_Int_Tables_number   1
_chemical_formula_structural   Cs27Sn13Pb14I81
_chemical_formula_sum   'Cs27 Sn13 Pb14 I81'
_cell_volume   6851.66691374
_cell_formula_units_Z   1
loop_
 _symmetry_equiv_pos_site_id
 _symmetry_equiv_pos_as_xyz
  1  'x, y, z'
loop_
 _atom_site_type_symbol
 _atom_site_label
 _atom_site_symmetry_multiplicity
 _atom_site_fract_x
 _atom_site_fract_y
 _atom_site_fract_z
 _atom_site_occupancy
  Cs  Cs0  1  0.00300117  -0.00205366  -0.00225967  1
  Cs  Cs1  1  -0.00068218  -0.00052753  0.33265816  1
  Cs  Cs2  1  -0.00311380  -0.00060369  0.67162689  1
  Cs  Cs3  1  0.00345570  0.33280001  -0.00111892  1
  Cs  Cs4  1  -0.00033175  0.33517462  0.33395341  1
  Cs  Cs5  1  -0.00303778  0.33266296  0.66857226  1
  Cs  Cs6  1  -0.00180475  0.66894128  -0.00062008  1
  Cs  Cs7  1  0.00054611  0.66574577  0.33253242  1
  Cs  Cs8  1  0.00168447  0.66754145  0.67035103  1
  Cs  Cs9  1  0.33410969  0.01156243  -0.00093270  1
  Cs  Cs10  1  0.33387544  -0.00116906  0.33311662  1
  Cs  Cs11  1  0.33365873  -0.00260508  0.66557187  1
  Cs  Cs12  1  0.34231133  0.32346503  -0.00746044  1
  Cs  Cs13  1  0.33102138  0.33328310  0.33416626  1
  Cs  Cs14  1  0.33406717  0.33440115  0.66662612  1
  Cs  Cs15  1  0.33567910  0.66361594  -0.00223691  1
  Cs  Cs16  1  0.33233514  0.66742248  0.33521080  1
  Cs  Cs17  1  0.33081982  0.66803191  0.66490114  1
  Cs  Cs18  1  0.66383935  0.00134028  -0.00197210  1
  Cs  Cs19  1  0.66880028  -0.00395419  0.33310354  1
  Cs  Cs20  1  0.66877485  0.00171370  0.66806459  1
  Cs  Cs21  1  0.65629076  0.33475439  -0.00737237  1
  Cs  Cs22  1  0.67082540  0.33560574  0.33454240  1
  Cs  Cs23  1  0.66780518  0.32931890  0.66982493  1
  Cs  Cs24  1  0.66524732  0.66381289  -0.00027313  1
  Cs  Cs25  1  0.66738297  0.66767065  0.33248905  1
  Cs  Cs26  1  0.66728906  0.66828826  0.66721119  1
  Sn  Sn27  1  0.16698364  0.16657526  0.49952902  1
  Sn  Sn28  1  0.83413316  0.83326851  0.16757507  1
  Sn  Sn29  1  0.83449986  0.83235804  0.49932484  1
  Sn  Sn30  1  0.49968135  0.83292080  0.83335865  1
  Sn  Sn31  1  0.50032133  0.49928731  0.49945549  1
  Sn  Sn32  1  0.83357945  0.50106875  0.49967019  1
  Sn  Sn33  1  0.16528183  0.83346222  0.49911399  1
  Sn  Sn34  1  0.83415175  0.49969098  0.16724038  1
  Sn  Sn35  1  0.16640207  0.50046105  0.16702871  1
  Sn  Sn36  1  0.16639506  0.83247654  0.16743375  1
  Sn  Sn37  1  0.83321208  0.16721438  0.16669974  1
  Sn  Sn38  1  0.49954807  0.16733085  0.49894688  1
  Sn  Sn39  1  0.16618262  0.49993793  0.49944005  1
  Pb  Pb40  1  0.50021367  0.83316748  0.50074653  1
  Pb  Pb41  1  0.49931535  0.50005744  0.16893757  1
  Pb  Pb42  1  0.83349868  0.16673576  0.83746154  1
  Pb  Pb43  1  0.16636981  0.16670210  0.82991509  1
  Pb  Pb44  1  0.49923091  0.83325265  0.16453930  1
  Pb  Pb45  1  0.83361452  0.50012046  0.83391698  1
  Pb  Pb46  1  0.16499289  0.16707981  0.16876930  1
  Pb  Pb47  1  0.50270426  0.16678699  0.16993618  1
  Pb  Pb48  1  0.83376175  0.16659862  0.49882486  1
  Pb  Pb49  1  0.50002507  0.16434526  0.82979079  1
  Pb  Pb50  1  0.49987090  0.50214948  0.82987506  1
  Pb  Pb51  1  0.83177860  0.83312171  0.83379102  1
  Pb  Pb52  1  0.16854531  0.83315528  0.83423115  1
  Pb  Pb53  1  0.16661461  0.50010618  0.83440542  1
  I  I54  1  0.16222035  -0.00285735  0.17132629  1
  I  I55  1  0.16813366  -0.00106410  0.49598623  1
  I  I56  1  0.16794229  -0.00021606  0.83360193  1
  I  I57  1  0.16026834  0.33651138  0.17329808  1
  I  I58  1  0.16776166  0.33457170  0.49602746  1
  I  I59  1  0.16797457  0.33337625  0.83447717  1
  I  I60  1  0.15853969  0.66676542  0.17599798  1
  I  I61  1  0.16769857  0.66659732  0.49700518  1
  I  I62  1  0.16858949  0.66677043  0.82694750  1
  I  I63  1  0.50061961  -0.00005707  0.16863929  1
  I  I64  1  0.49679065  0.00189975  0.50261154  1
  I  I65  1  0.50048044  -0.00281997  0.83114876  1
  I  I66  1  0.50023369  0.33346628  0.16437277  1
  I  I67  1  0.49684998  0.33409948  0.49887334  1
  I  I68  1  0.50018955  0.33315307  0.83529790  1
  I  I69  1  0.50483313  0.66665830  0.16839167  1
  I  I70  1  0.49808747  0.66412500  0.50201943  1
  I  I71  1  0.50065064  0.66934696  0.83123136  1
  I  I72  1  0.83621118  -0.00159587  0.17237374  1
  I  I73  1  0.83484767  -0.00282530  0.49576424  1
  I  I74  1  0.83134539  -0.00026022  0.83007638  1
  I  I75  1  0.83789752  0.33501531  0.17410626  1
  I  I76  1  0.83501873  0.33626069  0.49556914  1
  I  I77  1  0.83154164  0.33343068  0.82970083  1
  I  I78  1  0.83693192  0.66672538  0.17143092  1
  I  I79  1  0.83400616  0.66651976  0.49323417  1
  I  I80  1  0.83110504  0.66676035  0.83542002  1
  I  I81  1  0.16513783  0.16574275  0.00056212  1
  I  I82  1  0.17080196  0.16655155  0.33708719  1
  I  I83  1  0.16989053  0.16662926  0.66092103  1
  I  I84  1  0.15879616  0.50759133  0.00443992  1
  I  I85  1  0.16571755  0.50105443  0.33482665  1
  I  I86  1  0.16670861  0.50097359  0.66232564  1
  I  I87  1  0.16132800  0.82759386  0.00405794  1
  I  I88  1  0.16355342  0.83242000  0.33462769  1
  I  I89  1  0.16400406  0.83257751  0.66297620  1
  I  I90  1  0.50126185  0.16583254  -0.00022286  1
  I  I91  1  0.49451893  0.16835081  0.33762519  1
  I  I92  1  0.49738510  0.17166330  0.66211185  1
  I  I93  1  0.50092928  0.50101523  -0.00003275  1
  I  I94  1  0.50034920  0.49861253  0.33743311  1
  I  I95  1  0.49971160  0.49579263  0.66134315  1
  I  I96  1  0.50161858  0.83278886  -0.00306037  1
  I  I97  1  0.50080846  0.83405243  0.33343986  1
  I  I98  1  0.50019187  0.83329083  0.66820180  1
  I  I99  1  0.83490857  0.16486248  0.00562802  1
  I  I100  1  0.83280689  0.16608592  0.33106366  1
  I  I101  1  0.83241196  0.16605534  0.66631245  1
  I  I102  1  0.83907933  0.50220368  0.00437198  1
  I  I103  1  0.83354941  0.50097358  0.33412089  1
  I  I104  1  0.83405917  0.50474900  0.66244381  1
  I  I105  1  0.83716340  0.83266924  0.00404050  1
  I  I106  1  0.83544924  0.83265074  0.33360694  1
  I  I107  1  0.83648420  0.82905067  0.66315396  1
  I  I108  1  -0.00281350  0.16628418  0.17191485  1
  I  I109  1  0.00265531  0.16881478  0.49756533  1
  I  I110  1  -0.00011897  0.16535029  0.82868581  1
  I  I111  1  -0.00045150  0.50108775  0.17613876  1
  I  I112  1  0.00013599  0.49998557  0.49579458  1
  I  I113  1  0.00006317  0.50066040  0.82685985  1
  I  I114  1  -0.00049731  0.83282883  0.17128593  1
  I  I115  1  0.00023842  0.83116885  0.49673392  1
  I  I116  1  0.00010022  0.83400140  0.83216207  1
  I  I117  1  0.33308675  0.16562469  0.16491179  1
  I  I118  1  0.33263351  0.16931692  0.49987348  1
  I  I119  1  0.33351535  0.16546052  0.83784052  1
  I  I120  1  0.32945168  0.50750784  0.17289707  1
  I  I121  1  0.33215052  0.50022009  0.49684055  1
  I  I122  1  0.33341012  0.50180723  0.83323914  1
  I  I123  1  0.32930710  0.82774500  0.17241506  1
  I  I124  1  0.33032439  0.83123997  0.49778886  1
  I  I125  1  0.33584067  0.83243677  0.82926878  1
  I  I126  1  0.67083424  0.16509106  0.17019923  1
  I  I127  1  0.66482419  0.16946374  0.49850164  1
  I  I128  1  0.66648324  0.16540141  0.83026155  1
  I  I129  1  0.67007301  0.50202297  0.17175313  1
  I  I130  1  0.66775402  0.50068497  0.49575901  1
  I  I131  1  0.66661693  0.50091937  0.83395278  1
  I  I132  1  0.67026320  0.83251971  0.17128890  1
  I  I133  1  0.66966948  0.83076147  0.49698708  1
  I  I134  1  0.66429676  0.83373101  0.83051125  1
