# generated using pymatgen
data_Cs27Sn14Pb13I81
_symmetry_space_group_name_H-M   'P 1'
_cell_length_a   18.97059290
_cell_length_b   18.97469450
_cell_length_c   18.98099563
_cell_angle_alpha   90.00005216
_cell_angle_beta   90.00247670
_cell_angle_gamma   90.00211978
_symmetry_Int_Tables_number   1
_chemical_formula_structural   Cs27Sn14Pb13I81
_chemical_formula_sum   'Cs27 Sn14 Pb13 I81'
_cell_volume   6832.42204355
_cell_formula_units_Z   1
loop_
 _symmetry_equiv_pos_site_id
 _symmetry_equiv_pos_as_xyz
  1  'x, y, z'
loop_
 _atom_site_type_symbol
 _atom_site_label
 _atom_site_symmetry_multiplicity
 _atom_site_fract_x
 _atom_site_fract_y
 _atom_site_fract_z
 _atom_site_occupancy
  Cs  Cs0  1  0.00329278  -0.00057521  -0.00036035  1
  Cs  Cs1  1  -0.00042932  0.00076988  0.33642255  1
  Cs  Cs2  1  -0.00149410  0.00019959  0.66301412  1
  Cs  Cs3  1  -0.00384198  0.33186005  0.00805053  1
  Cs  Cs4  1  0.00232749  0.33359869  0.33027786  1
  Cs  Cs5  1  0.00173465  0.33013586  0.65973574  1
  Cs  Cs6  1  0.00078073  0.66553971  -0.00126069  1
  Cs  Cs7  1  -0.00058387  0.66415604  0.33162572  1
  Cs  Cs8  1  -0.00175648  0.66862494  0.66986263  1
  Cs  Cs9  1  0.33050778  -0.00056274  0.00321450  1
  Cs  Cs10  1  0.33449028  0.00010110  0.33084230  1
  Cs  Cs11  1  0.33245873  -0.00076807  0.66715900  1
  Cs  Cs12  1  0.33463885  0.33224943  -0.00294111  1
  Cs  Cs13  1  0.33213786  0.33200671  0.33540865  1
  Cs  Cs14  1  0.33442197  0.33569931  0.66616176  1
  Cs  Cs15  1  0.33017405  0.66776268  -0.00397826  1
  Cs  Cs16  1  0.33682321  0.66776876  0.33314692  1
  Cs  Cs17  1  0.33112796  0.66649956  0.66976361  1
  Cs  Cs18  1  0.66705668  0.00046884  -0.00117652  1
  Cs  Cs19  1  0.66540478  -0.00249220  0.33431681  1
  Cs  Cs20  1  0.66959240  0.00062495  0.66688477  1
  Cs  Cs21  1  0.66872951  0.33105955  -0.00341775  1
  Cs  Cs22  1  0.66553946  0.33621667  0.33097420  1
  Cs  Cs23  1  0.66403459  0.33587170  0.67207602  1
  Cs  Cs24  1  0.66762345  0.66871803  -0.00043221  1
  Cs  Cs25  1  0.66428000  0.66739545  0.33578480  1
  Cs  Cs26  1  0.66800209  0.66583383  0.66564496  1
  Sn  Sn27  1  0.16764513  0.16585375  0.16596488  1
  Sn  Sn28  1  0.49973689  0.49897550  0.16678426  1
  Sn  Sn29  1  0.50068217  0.83354845  0.83225557  1
  Sn  Sn30  1  0.49948635  0.16780607  0.16729408  1
  Sn  Sn31  1  0.83367507  0.50035653  0.83256355  1
  Sn  Sn32  1  0.83443952  0.83345574  0.16608291  1
  Sn  Sn33  1  0.83277240  0.49994097  0.50059723  1
  Sn  Sn34  1  0.16748124  0.83290164  0.49898115  1
  Sn  Sn35  1  0.83255993  0.83286531  0.83421952  1
  Sn  Sn36  1  0.50021158  0.16665149  0.49950572  1
  Sn  Sn37  1  0.16658938  0.16688705  0.83397954  1
  Sn  Sn38  1  0.50058388  0.49994513  0.49939123  1
  Sn  Sn39  1  0.16555900  0.83368481  0.16779639  1
  Sn  Sn40  1  0.49921814  0.83345230  0.50133387  1
  Pb  Pb41  1  0.16617676  0.83453447  0.83336338  1
  Pb  Pb42  1  0.83604619  0.16649220  0.83328740  1
  Pb  Pb43  1  0.16957543  0.49999083  0.16667475  1
  Pb  Pb44  1  0.16313097  0.49667630  0.83345143  1
  Pb  Pb45  1  0.83320359  0.83183504  0.50003974  1
  Pb  Pb46  1  0.16886481  0.16454029  0.49926995  1
  Pb  Pb47  1  0.49845762  0.16422625  0.83354780  1
  Pb  Pb48  1  0.83297500  0.16392569  0.16691247  1
  Pb  Pb49  1  0.16711256  0.50281092  0.49998514  1
  Pb  Pb50  1  0.82996436  0.17016687  0.49982221  1
  Pb  Pb51  1  0.83092048  0.50230977  0.16673058  1
  Pb  Pb52  1  0.49974116  0.83348584  0.16665394  1
  Pb  Pb53  1  0.50137515  0.50224637  0.83333749  1
  I  I54  1  0.16986685  -0.00030571  0.16609441  1
  I  I55  1  0.17159879  -0.00348115  0.49895780  1
  I  I56  1  0.16628949  0.00211185  0.83540969  1
  I  I57  1  0.16862068  0.33005560  0.16256284  1
  I  I58  1  0.16646868  0.33318323  0.50020952  1
  I  I59  1  0.16842772  0.32897069  0.83952664  1
  I  I60  1  0.16456164  0.67000723  0.17052824  1
  I  I61  1  0.17292459  0.67092871  0.49463354  1
  I  I62  1  0.16868265  0.66686145  0.83357775  1
  I  I63  1  0.49871909  0.00221557  0.16963531  1
  I  I64  1  0.49458519  -0.00071405  0.49893934  1
  I  I65  1  0.50586885  -0.00381560  0.82959157  1
  I  I66  1  0.49522602  0.33251736  0.17485653  1
  I  I67  1  0.50451378  0.33367689  0.49477437  1
  I  I68  1  0.50048695  0.33330777  0.83147912  1
  I  I69  1  0.50152499  0.66506338  0.17069395  1
  I  I70  1  0.50072105  0.66679834  0.49827976  1
  I  I71  1  0.50048820  0.67036174  0.83064461  1
  I  I72  1  0.83171201  -0.00421894  0.16053334  1
  I  I73  1  0.83277252  -0.00019776  0.50083338  1
  I  I74  1  0.82997923  -0.00335573  0.83753243  1
  I  I75  1  0.83565090  0.33353282  0.16642424  1
  I  I76  1  0.82917210  0.33825602  0.50644429  1
  I  I77  1  0.83335341  0.33627817  0.82876388  1
  I  I78  1  0.83709089  0.67027132  0.16518613  1
  I  I79  1  0.82666095  0.66418054  0.50052986  1
  I  I80  1  0.82925792  0.66786087  0.83312184  1
  I  I81  1  0.17258114  0.15937988  0.00185482  1
  I  I82  1  0.16948543  0.16362032  0.33027872  1
  I  I83  1  0.16704651  0.16427549  0.66821867  1
  I  I84  1  0.16815097  0.50608421  0.00011065  1
  I  I85  1  0.16088232  0.49657795  0.33337026  1
  I  I86  1  0.17160948  0.49981574  0.66665967  1
  I  I87  1  0.16691261  0.83606273  0.00258654  1
  I  I88  1  0.16727755  0.83897134  0.33253148  1
  I  I89  1  0.16855521  0.83507614  0.66448923  1
  I  I90  1  0.49779352  0.16937553  0.00299115  1
  I  I91  1  0.49421296  0.16498753  0.33310176  1
  I  I92  1  0.49815575  0.16874814  0.66391505  1
  I  I93  1  0.50110276  0.49717783  0.00245270  1
  I  I94  1  0.50582957  0.50229294  0.33466549  1
  I  I95  1  0.50238711  0.49782745  0.66361269  1
  I  I96  1  0.50107257  0.83309050  -0.00182175  1
  I  I97  1  0.49957992  0.83290906  0.33575883  1
  I  I98  1  0.49933833  0.83321231  0.66525440  1
  I  I99  1  0.82841333  0.17105738  0.00012265  1
  I  I100  1  0.83846897  0.16542470  0.33336353  1
  I  I101  1  0.83543628  0.16108770  0.66656574  1
  I  I102  1  0.83203801  0.50313372  -0.00232715  1
  I  I103  1  0.82985457  0.50238016  0.33575059  1
  I  I104  1  0.82652021  0.50702605  0.66650939  1
  I  I105  1  0.83207750  0.82772797  -0.00075320  1
  I  I106  1  0.83360411  0.83227368  0.33125052  1
  I  I107  1  0.83248505  0.83094998  0.66900013  1
  I  I108  1  0.00308730  0.16422815  0.16165443  1
  I  I109  1  0.00021463  0.16591496  0.50041584  1
  I  I110  1  0.00379418  0.16409453  0.84026465  1
  I  I111  1  -0.00022396  0.49799584  0.16701843  1
  I  I112  1  -0.00283573  0.50328661  0.50502315  1
  I  I113  1  -0.00469029  0.50969893  0.82761758  1
  I  I114  1  0.00093407  0.83815888  0.16669114  1
  I  I115  1  0.00220539  0.83242067  0.49937467  1
  I  I116  1  -0.00270493  0.83062305  0.83425672  1
  I  I117  1  0.33356005  0.16308561  0.16685117  1
  I  I118  1  0.33704203  0.17085618  0.49864869  1
  I  I119  1  0.33081188  0.16271671  0.83540943  1
  I  I120  1  0.33761561  0.50193866  0.17422835  1
  I  I121  1  0.33713216  0.49841333  0.49530063  1
  I  I122  1  0.33340321  0.50207548  0.83291014  1
  I  I123  1  0.33114206  0.83471767  0.16749292  1
  I  I124  1  0.33494553  0.83166139  0.49972661  1
  I  I125  1  0.33542949  0.83489701  0.83242669  1
  I  I126  1  0.66310763  0.16880890  0.17117278  1
  I  I127  1  0.66166189  0.15894578  0.49428337  1
  I  I128  1  0.66664402  0.16698670  0.83341451  1
  I  I129  1  0.66298882  0.49641887  0.16890241  1
  I  I130  1  0.66508608  0.50307435  0.49959538  1
  I  I131  1  0.66937130  0.50206919  0.83187423  1
  I  I132  1  0.66828342  0.83247807  0.16563431  1
  I  I133  1  0.66361867  0.83446885  0.49980865  1
  I  I134  1  0.66702026  0.83073987  0.83409947  1
