# generated using pymatgen
data_Cs27Sn13Pb14I81
_symmetry_space_group_name_H-M   'P 1'
_cell_length_a   18.98421823
_cell_length_b   19.00057566
_cell_length_c   18.99097551
_cell_angle_alpha   90.00070194
_cell_angle_beta   90.00149471
_cell_angle_gamma   89.99936521
_symmetry_Int_Tables_number   1
_chemical_formula_structural   Cs27Sn13Pb14I81
_chemical_formula_sum   'Cs27 Sn13 Pb14 I81'
_cell_volume   6850.25518796
_cell_formula_units_Z   1
loop_
 _symmetry_equiv_pos_site_id
 _symmetry_equiv_pos_as_xyz
  1  'x, y, z'
loop_
 _atom_site_type_symbol
 _atom_site_label
 _atom_site_symmetry_multiplicity
 _atom_site_fract_x
 _atom_site_fract_y
 _atom_site_fract_z
 _atom_site_occupancy
  Cs  Cs0  1  0.00122872  0.01189513  -0.00271937  1
  Cs  Cs1  1  -0.00049244  -0.00404715  0.33701469  1
  Cs  Cs2  1  -0.00833703  -0.00016153  0.66550735  1
  Cs  Cs3  1  0.00268777  0.32493048  -0.00162660  1
  Cs  Cs4  1  0.00051651  0.33014731  0.33213106  1
  Cs  Cs5  1  -0.00329250  0.33180312  0.66863005  1
  Cs  Cs6  1  -0.00149741  0.66479230  0.00221871  1
  Cs  Cs7  1  0.00487429  0.67231092  0.33023890  1
  Cs  Cs8  1  -0.00598817  0.66848214  0.66652543  1
  Cs  Cs9  1  0.33470867  0.00191329  -0.00241508  1
  Cs  Cs10  1  0.33284793  -0.00118106  0.33535570  1
  Cs  Cs11  1  0.33376640  0.00077719  0.66692549  1
  Cs  Cs12  1  0.33178543  0.33300054  -0.00088466  1
  Cs  Cs13  1  0.33288196  0.33394433  0.33629404  1
  Cs  Cs14  1  0.33338499  0.33352902  0.66585429  1
  Cs  Cs15  1  0.33446029  0.66574914  -0.00193919  1
  Cs  Cs16  1  0.33104116  0.66707012  0.33339456  1
  Cs  Cs17  1  0.33446431  0.66541165  0.66827526  1
  Cs  Cs18  1  0.66500127  -0.00206593  0.00292225  1
  Cs  Cs19  1  0.66630906  0.00309039  0.33056032  1
  Cs  Cs20  1  0.66756351  -0.00119952  0.66707582  1
  Cs  Cs21  1  0.66702081  0.33414255  0.00333851  1
  Cs  Cs22  1  0.66913724  0.33328400  0.33358075  1
  Cs  Cs23  1  0.67071157  0.33783785  0.66272562  1
  Cs  Cs24  1  0.66658454  0.66709350  0.00089988  1
  Cs  Cs25  1  0.66537037  0.66407523  0.32987900  1
  Cs  Cs26  1  0.67074281  0.66378542  0.66630809  1
  Sn  Sn27  1  0.49948625  0.49992679  0.83399875  1
  Sn  Sn28  1  0.49982646  0.83363099  0.50020897  1
  Sn  Sn29  1  0.83296179  0.50076642  0.16644938  1
  Sn  Sn30  1  0.16706501  0.83252382  0.83341894  1
  Sn  Sn31  1  0.16730926  0.50110038  0.83220238  1
  Sn  Sn32  1  0.83280452  0.83267442  0.16601762  1
  Sn  Sn33  1  0.16760002  0.16721724  0.50041484  1
  Sn  Sn34  1  0.49942816  0.83301882  0.83294374  1
  Sn  Sn35  1  0.49930175  0.16606156  0.50102698  1
  Sn  Sn36  1  0.16674416  0.49970619  0.50118208  1
  Sn  Sn37  1  0.50013141  0.83229398  0.16672993  1
  Sn  Sn38  1  0.50019070  0.50069521  0.16597103  1
  Sn  Sn39  1  0.49994240  0.16713003  0.83226434  1
  Pb  Pb40  1  0.83278466  0.16666524  0.50001697  1
  Pb  Pb41  1  0.16719903  0.16639043  0.17011513  1
  Pb  Pb42  1  0.16700471  0.49998916  0.16603904  1
  Pb  Pb43  1  0.82932444  0.16674700  0.83322365  1
  Pb  Pb44  1  0.82985951  0.83304220  0.49721082  1
  Pb  Pb45  1  0.49886095  0.50011288  0.49994238  1
  Pb  Pb46  1  0.16724777  0.83343562  0.16344402  1
  Pb  Pb47  1  0.16871134  0.16672896  0.83095533  1
  Pb  Pb48  1  0.49967635  0.16687660  0.16699813  1
  Pb  Pb49  1  0.83315432  0.83328409  0.83598167  1
  Pb  Pb50  1  0.16867501  0.83321619  0.50282958  1
  Pb  Pb51  1  0.83723759  0.50026873  0.49683873  1
  Pb  Pb52  1  0.83312108  0.16640150  0.16672903  1
  Pb  Pb53  1  0.83360202  0.50001703  0.83568550  1
  I  I54  1  0.16658744  -0.00033092  0.16564007  1
  I  I55  1  0.17037982  0.00227444  0.49962801  1
  I  I56  1  0.17212994  -0.00243419  0.83473702  1
  I  I57  1  0.16628357  0.33359232  0.16178399  1
  I  I58  1  0.17434741  0.33356946  0.50423185  1
  I  I59  1  0.17126800  0.33623810  0.83279954  1
  I  I60  1  0.16646299  0.66664148  0.17308632  1
  I  I61  1  0.16887178  0.66423580  0.50076394  1
  I  I62  1  0.17663937  0.66580494  0.82830480  1
  I  I63  1  0.50425311  -0.00324630  0.16431743  1
  I  I64  1  0.49414862  -0.00009621  0.50213440  1
  I  I65  1  0.49602373  -0.00106271  0.83387225  1
  I  I66  1  0.50381306  0.33665229  0.16350151  1
  I  I67  1  0.49719304  0.33104094  0.50264884  1
  I  I68  1  0.49550825  0.33428727  0.83451119  1
  I  I69  1  0.50401591  0.66694757  0.16410791  1
  I  I70  1  0.49804170  0.66918901  0.50116977  1
  I  I71  1  0.49551994  0.66674554  0.83460947  1
  I  I72  1  0.82632335  -0.00351308  0.16651539  1
  I  I73  1  0.83873354  -0.00021778  0.49671903  1
  I  I74  1  0.83555158  -0.00012916  0.83669617  1
  I  I75  1  0.82751806  0.33667984  0.16697666  1
  I  I76  1  0.82758557  0.33357025  0.49639555  1
  I  I77  1  0.83436517  0.33351353  0.83735452  1
  I  I78  1  0.82689852  0.66667904  0.16641519  1
  I  I79  1  0.83306513  0.66665035  0.50237803  1
  I  I80  1  0.82967968  0.66665657  0.83161888  1
  I  I81  1  0.16660873  0.16734855  -0.00071347  1
  I  I82  1  0.17448072  0.17358006  0.33832799  1
  I  I83  1  0.17153993  0.16865206  0.66350389  1
  I  I84  1  0.16888140  0.50510015  -0.00337249  1
  I  I85  1  0.16741857  0.49477939  0.33574060  1
  I  I86  1  0.17536399  0.49969391  0.66777447  1
  I  I87  1  0.17374457  0.82565247  -0.00425093  1
  I  I88  1  0.16728484  0.83351720  0.33348873  1
  I  I89  1  0.17481812  0.83181070  0.67035825  1
  I  I90  1  0.50013280  0.16408564  -0.00294896  1
  I  I91  1  0.49626073  0.16310411  0.33654750  1
  I  I92  1  0.49515773  0.16270124  0.66673832  1
  I  I93  1  0.49811892  0.50268570  -0.00076684  1
  I  I94  1  0.50183116  0.50299764  0.33081606  1
  I  I95  1  0.49668023  0.50215906  0.66956005  1
  I  I96  1  0.50050060  0.83321703  -0.00044136  1
  I  I97  1  0.50437490  0.83374629  0.33297390  1
  I  I98  1  0.49380045  0.83451622  0.66750033  1
  I  I99  1  0.83377385  0.16673430  0.00006911  1
  I  I100  1  0.83127169  0.16719628  0.33333921  1
  I  I101  1  0.83535131  0.16649936  0.66656063  1
  I  I102  1  0.83183011  0.50567808  0.00343332  1
  I  I103  1  0.82483884  0.50344563  0.32919168  1
  I  I104  1  0.83028310  0.49869854  0.66666868  1
  I  I105  1  0.82546297  0.82779672  0.00359740  1
  I  I106  1  0.82908197  0.82912496  0.32924668  1
  I  I107  1  0.83310702  0.83496577  0.66681089  1
  I  I108  1  -0.00005979  0.16749646  0.16682373  1
  I  I109  1  0.00319348  0.17188407  0.49858620  1
  I  I110  1  0.00040677  0.16636999  0.83315328  1
  I  I111  1  -0.00262415  0.50570490  0.16865993  1
  I  I112  1  0.00517330  0.49315566  0.50617712  1
  I  I113  1  0.00358549  0.50527111  0.83019340  1
  I  I114  1  -0.00272624  0.82722852  0.16639677  1
  I  I115  1  0.00015184  0.83459418  0.49930029  1
  I  I116  1  0.00305340  0.82754627  0.83388664  1
  I  I117  1  0.33393637  0.16708627  0.16444447  1
  I  I118  1  0.33466726  0.16674329  0.50348022  1
  I  I119  1  0.33693759  0.16597803  0.83202999  1
  I  I120  1  0.33657534  0.50488464  0.16534656  1
  I  I121  1  0.33108007  0.49875620  0.49871218  1
  I  I122  1  0.33477408  0.50096490  0.83604603  1
  I  I123  1  0.33726757  0.82849768  0.16866086  1
  I  I124  1  0.33699254  0.83487791  0.49439133  1
  I  I125  1  0.33557365  0.83245686  0.83579606  1
  I  I126  1  0.66611433  0.16718650  0.16848826  1
  I  I127  1  0.66268036  0.16189077  0.50331539  1
  I  I128  1  0.66075163  0.16561685  0.82723852  1
  I  I129  1  0.66468967  0.50408064  0.16125718  1
  I  I130  1  0.66660417  0.49937515  0.50233728  1
  I  I131  1  0.66298170  0.50104054  0.83503135  1
  I  I132  1  0.66437557  0.82931407  0.16493706  1
  I  I133  1  0.66133983  0.83906638  0.50613064  1
  I  I134  1  0.66256396  0.83317480  0.83159802  1
