# generated using pymatgen
data_Cs27Sn13Pb14I81
_symmetry_space_group_name_H-M   'P 1'
_cell_length_a   18.97608108
_cell_length_b   18.97656388
_cell_length_c   18.97650075
_cell_angle_alpha   90.00103055
_cell_angle_beta   90.00082103
_cell_angle_gamma   90.00222316
_symmetry_Int_Tables_number   1
_chemical_formula_structural   Cs27Sn13Pb14I81
_chemical_formula_sum   'Cs27 Sn13 Pb14 I81'
_cell_volume   6833.45337572
_cell_formula_units_Z   1
loop_
 _symmetry_equiv_pos_site_id
 _symmetry_equiv_pos_as_xyz
  1  'x, y, z'
loop_
 _atom_site_type_symbol
 _atom_site_label
 _atom_site_symmetry_multiplicity
 _atom_site_fract_x
 _atom_site_fract_y
 _atom_site_fract_z
 _atom_site_occupancy
  Cs  Cs0  1  0.00054573  -0.00417639  -0.00140205  1
  Cs  Cs1  1  -0.00037811  -0.00102259  0.33570274  1
  Cs  Cs2  1  -0.00320926  0.00277843  0.66493186  1
  Cs  Cs3  1  0.00053533  0.33876943  0.00302074  1
  Cs  Cs4  1  -0.00177418  0.33783037  0.33099015  1
  Cs  Cs5  1  0.00024458  0.33020032  0.66653213  1
  Cs  Cs6  1  0.00813280  0.66594235  0.00027110  1
  Cs  Cs7  1  -0.00232633  0.66660148  0.33165958  1
  Cs  Cs8  1  0.00245929  0.66595082  0.66766708  1
  Cs  Cs9  1  0.33072839  0.00177050  0.00287827  1
  Cs  Cs10  1  0.33171336  0.00266065  0.33130532  1
  Cs  Cs11  1  0.33465398  0.00057634  0.66569572  1
  Cs  Cs12  1  0.33660070  0.32925197  -0.00119426  1
  Cs  Cs13  1  0.33216667  0.33045853  0.33463498  1
  Cs  Cs14  1  0.33290687  0.33434297  0.66656506  1
  Cs  Cs15  1  0.32741889  0.66926256  -0.00309365  1
  Cs  Cs16  1  0.33434696  0.66574389  0.33958918  1
  Cs  Cs17  1  0.33473803  0.66565140  0.66495608  1
  Cs  Cs18  1  0.66763781  -0.00136770  -0.00017728  1
  Cs  Cs19  1  0.66763731  -0.00103322  0.33231010  1
  Cs  Cs20  1  0.66875379  -0.00007247  0.66919163  1
  Cs  Cs21  1  0.66433166  0.33589441  -0.00012580  1
  Cs  Cs22  1  0.66766548  0.33353627  0.33114172  1
  Cs  Cs23  1  0.66790156  0.33199697  0.66826334  1
  Cs  Cs24  1  0.66720093  0.66457121  0.00119531  1
  Cs  Cs25  1  0.66705611  0.66739484  0.33296787  1
  Cs  Cs26  1  0.66346936  0.66813772  0.66662685  1
  Sn  Sn27  1  0.49955477  0.16701780  0.83236068  1
  Sn  Sn28  1  0.16713377  0.16671104  0.83275872  1
  Sn  Sn29  1  0.16734507  0.16592457  0.50075746  1
  Sn  Sn30  1  0.50076478  0.49966216  0.83402927  1
  Sn  Sn31  1  0.83260401  0.83410738  0.16713858  1
  Sn  Sn32  1  0.83275668  0.50030184  0.83233975  1
  Sn  Sn33  1  0.50041935  0.83218494  0.16657209  1
  Sn  Sn34  1  0.49985455  0.16656036  0.50065745  1
  Sn  Sn35  1  0.83344038  0.16573206  0.16639639  1
  Sn  Sn36  1  0.16599455  0.83399305  0.50001165  1
  Sn  Sn37  1  0.49989851  0.50123933  0.16607005  1
  Sn  Sn38  1  0.83297009  0.50094815  0.50124950  1
  Sn  Sn39  1  0.83381001  0.83242354  0.49974378  1
  Pb  Pb40  1  0.83335455  0.16866728  0.83597147  1
  Pb  Pb41  1  0.83332126  0.83039628  0.83347361  1
  Pb  Pb42  1  0.50149582  0.16649403  0.16632786  1
  Pb  Pb43  1  0.16361933  0.16662846  0.16682708  1
  Pb  Pb44  1  0.17098836  0.50001529  0.16672261  1
  Pb  Pb45  1  0.16660751  0.83327562  0.16921959  1
  Pb  Pb46  1  0.16673891  0.83631657  0.83009159  1
  Pb  Pb47  1  0.50041172  0.83579281  0.49807386  1
  Pb  Pb48  1  0.83347500  0.16650000  0.49862062  1
  Pb  Pb49  1  0.16740728  0.49758634  0.83315364  1
  Pb  Pb50  1  0.50000197  0.83343398  0.83594064  1
  Pb  Pb51  1  0.83205936  0.50103641  0.16635484  1
  Pb  Pb52  1  0.50212359  0.49770376  0.50030321  1
  Pb  Pb53  1  0.16398392  0.49956066  0.50007923  1
  I  I54  1  0.17132787  0.00006443  0.16450330  1
  I  I55  1  0.16392226  0.00069386  0.50333313  1
  I  I56  1  0.17274034  0.00436824  0.83287335  1
  I  I57  1  0.16360652  0.33299698  0.16992255  1
  I  I58  1  0.16962912  0.32981242  0.50379037  1
  I  I59  1  0.16763320  0.32968403  0.82582899  1
  I  I60  1  0.16111561  0.66684722  0.16778014  1
  I  I61  1  0.16437056  0.66953084  0.49727443  1
  I  I62  1  0.16660416  0.66660950  0.83330277  1
  I  I63  1  0.50329816  -0.00218218  0.16797332  1
  I  I64  1  0.50105504  0.00371394  0.50368069  1
  I  I65  1  0.49626135  0.00348260  0.83072557  1
  I  I66  1  0.50336289  0.33526386  0.16534606  1
  I  I67  1  0.49604505  0.32979325  0.49845853  1
  I  I68  1  0.50041056  0.33319854  0.83610147  1
  I  I69  1  0.50755508  0.66655869  0.16299396  1
  I  I70  1  0.49758367  0.66672669  0.50143301  1
  I  I71  1  0.50545758  0.66338762  0.83552560  1
  I  I72  1  0.82710734  -0.00132742  0.17251361  1
  I  I73  1  0.83439677  -0.00245528  0.49612468  1
  I  I74  1  0.83295129  0.00015689  0.83187595  1
  I  I75  1  0.83183634  0.33210616  0.16777167  1
  I  I76  1  0.83239374  0.33532481  0.50097702  1
  I  I77  1  0.83155740  0.33644023  0.82894842  1
  I  I78  1  0.82987372  0.66958103  0.16947402  1
  I  I79  1  0.83786962  0.66759736  0.49677735  1
  I  I80  1  0.82595262  0.66238330  0.83343039  1
  I  I81  1  0.17164612  0.16884523  -0.00287094  1
  I  I82  1  0.17106201  0.16274053  0.33677505  1
  I  I83  1  0.17015252  0.16316933  0.66587529  1
  I  I84  1  0.15963171  0.49848796  -0.00026064  1
  I  I85  1  0.16546272  0.49652737  0.33368669  1
  I  I86  1  0.17006485  0.50259742  0.66653455  1
  I  I87  1  0.16564215  0.83418008  0.00000492  1
  I  I88  1  0.16506565  0.84119349  0.33704420  1
  I  I89  1  0.16045712  0.83471941  0.66210845  1
  I  I90  1  0.49722543  0.16847650  -0.00275896  1
  I  I91  1  0.49715622  0.16670625  0.33541394  1
  I  I92  1  0.49707606  0.17194612  0.66719214  1
  I  I93  1  0.50753491  0.49651777  -0.00089144  1
  I  I94  1  0.50276163  0.50181353  0.33110146  1
  I  I95  1  0.50255445  0.49644455  0.66950329  1
  I  I96  1  0.50763970  0.83451183  0.00399643  1
  I  I97  1  0.50241765  0.82908747  0.33017431  1
  I  I98  1  0.50013848  0.83159519  0.66640089  1
  I  I99  1  0.83184083  0.16232561  0.00347316  1
  I  I100  1  0.83169989  0.16784278  0.33092523  1
  I  I101  1  0.83282337  0.16533812  0.66680545  1
  I  I102  1  0.83001350  0.49728997  -0.00224555  1
  I  I103  1  0.83241502  0.50003974  0.33532040  1
  I  I104  1  0.82756857  0.50355001  0.66647249  1
  I  I105  1  0.82820662  0.83715721  0.00327953  1
  I  I106  1  0.83328849  0.83165235  0.33369016  1
  I  I107  1  0.83729050  0.83207996  0.66335723  1
  I  I108  1  -0.00417473  0.16149019  0.16769812  1
  I  I109  1  0.00245382  0.16534696  0.50334473  1
  I  I110  1  0.00236646  0.16739713  0.82871770  1
  I  I111  1  -0.00031916  0.49909629  0.16629593  1
  I  I112  1  -0.00423519  0.49852213  0.50418535  1
  I  I113  1  -0.00267309  0.49876079  0.82974808  1
  I  I114  1  -0.00331283  0.83796748  0.16918966  1
  I  I115  1  -0.00104099  0.83572655  0.49452317  1
  I  I116  1  -0.00009957  0.83295477  0.83823010  1
  I  I117  1  0.33341834  0.16707425  0.16722117  1
  I  I118  1  0.33311543  0.16202760  0.50240079  1
  I  I119  1  0.33453868  0.17274671  0.82999820  1
  I  I120  1  0.33911567  0.50414886  0.16073506  1
  I  I121  1  0.33359935  0.50228893  0.49959191  1
  I  I122  1  0.33697926  0.49731093  0.83836321  1
  I  I123  1  0.33631559  0.82962284  0.16705562  1
  I  I124  1  0.33116021  0.83652225  0.49831971  1
  I  I125  1  0.33344287  0.82849098  0.83379907  1
  I  I126  1  0.66916959  0.16560170  0.16824845  1
  I  I127  1  0.66452099  0.16744083  0.50257175  1
  I  I128  1  0.66375489  0.16942974  0.82995384  1
  I  I129  1  0.66416912  0.50006946  0.16535452  1
  I  I130  1  0.67001919  0.50390116  0.50029307  1
  I  I131  1  0.66574282  0.49340600  0.83361773  1
  I  I132  1  0.66761961  0.83393597  0.17290112  1
  I  I133  1  0.66961663  0.83103916  0.49673945  1
  I  I134  1  0.66669021  0.83862215  0.82870535  1
