# generated using pymatgen
data_Cs27Sn14Pb13I81
_symmetry_space_group_name_H-M   'P 1'
_cell_length_a   18.96851819
_cell_length_b   18.98992824
_cell_length_c   18.97214478
_cell_angle_alpha   90.00012161
_cell_angle_beta   89.99980881
_cell_angle_gamma   89.99911685
_symmetry_Int_Tables_number   1
_chemical_formula_structural   Cs27Sn14Pb13I81
_chemical_formula_sum   'Cs27 Sn14 Pb13 I81'
_cell_volume   6833.97143637
_cell_formula_units_Z   1
loop_
 _symmetry_equiv_pos_site_id
 _symmetry_equiv_pos_as_xyz
  1  'x, y, z'
loop_
 _atom_site_type_symbol
 _atom_site_label
 _atom_site_symmetry_multiplicity
 _atom_site_fract_x
 _atom_site_fract_y
 _atom_site_fract_z
 _atom_site_occupancy
  Cs  Cs0  1  -0.00190661  -0.00000088  0.00018843  1
  Cs  Cs1  1  0.00078887  -0.00060453  0.33456130  1
  Cs  Cs2  1  -0.00056119  -0.00097734  0.66583216  1
  Cs  Cs3  1  0.00934427  0.33125632  0.00458126  1
  Cs  Cs4  1  -0.00027107  0.33476093  0.33116911  1
  Cs  Cs5  1  -0.00260574  0.33175665  0.66552899  1
  Cs  Cs6  1  0.00054608  0.66848852  0.00008492  1
  Cs  Cs7  1  -0.00081930  0.66591678  0.33539460  1
  Cs  Cs8  1  -0.00116845  0.66847818  0.66507709  1
  Cs  Cs9  1  0.33255765  0.00099929  -0.00011612  1
  Cs  Cs10  1  0.33484627  -0.00141373  0.33517144  1
  Cs  Cs11  1  0.33899266  0.00093445  0.66480350  1
  Cs  Cs12  1  0.32582707  0.33407756  -0.00552774  1
  Cs  Cs13  1  0.33486510  0.33490819  0.33274395  1
  Cs  Cs14  1  0.33379565  0.33213895  0.67250921  1
  Cs  Cs15  1  0.33431953  0.66472388  -0.00043335  1
  Cs  Cs16  1  0.33361147  0.66706383  0.33327699  1
  Cs  Cs17  1  0.33404010  0.66755123  0.66731470  1
  Cs  Cs18  1  0.66913178  -0.00050268  0.00154347  1
  Cs  Cs19  1  0.66445284  0.00126498  0.33154226  1
  Cs  Cs20  1  0.66476095  0.00102717  0.66640526  1
  Cs  Cs21  1  0.66582311  0.33239123  -0.00016687  1
  Cs  Cs22  1  0.66547509  0.33732071  0.33261540  1
  Cs  Cs23  1  0.66912500  0.33132418  0.66728615  1
  Cs  Cs24  1  0.66584222  0.66768245  -0.00058325  1
  Cs  Cs25  1  0.66639129  0.66252587  0.33148830  1
  Cs  Cs26  1  0.66818897  0.66706433  0.66937558  1
  Sn  Sn27  1  0.16624017  0.16654212  0.49998678  1
  Sn  Sn28  1  0.49919177  0.83328714  0.16686506  1
  Sn  Sn29  1  0.83352446  0.83417930  0.50047119  1
  Sn  Sn30  1  0.49917443  0.50017204  0.50016513  1
  Sn  Sn31  1  0.16620512  0.83347554  0.83272274  1
  Sn  Sn32  1  0.83397731  0.49981727  0.83385898  1
  Sn  Sn33  1  0.16764055  0.49994211  0.50019495  1
  Sn  Sn34  1  0.83415029  0.83348321  0.83224130  1
  Sn  Sn35  1  0.49960898  0.49978926  0.16685470  1
  Sn  Sn36  1  0.83391276  0.16564540  0.50020511  1
  Sn  Sn37  1  0.83373663  0.16655183  0.83299380  1
  Sn  Sn38  1  0.16746956  0.83334578  0.16693290  1
  Sn  Sn39  1  0.16629679  0.83354166  0.50036698  1
  Sn  Sn40  1  0.49961669  0.16699194  0.16651027  1
  Pb  Pb41  1  0.83190920  0.16673750  0.16731271  1
  Pb  Pb42  1  0.16422227  0.50226420  0.83065078  1
  Pb  Pb43  1  0.83344706  0.50000532  0.50123628  1
  Pb  Pb44  1  0.50056888  0.83143348  0.49823421  1
  Pb  Pb45  1  0.50030946  0.16900227  0.49858325  1
  Pb  Pb46  1  0.83374041  0.83325973  0.16717024  1
  Pb  Pb47  1  0.16437565  0.16402493  0.83080232  1
  Pb  Pb48  1  0.16879333  0.16429042  0.16923286  1
  Pb  Pb49  1  0.50173950  0.50000104  0.83317950  1
  Pb  Pb50  1  0.16869854  0.50230358  0.16876902  1
  Pb  Pb51  1  0.50013328  0.83349565  0.83581275  1
  Pb  Pb52  1  0.83143530  0.49991823  0.16354772  1
  Pb  Pb53  1  0.50237957  0.16653617  0.83590737  1
  I  I54  1  0.17233489  -0.00382088  0.16882893  1
  I  I55  1  0.16121231  -0.00116783  0.49911362  1
  I  I56  1  0.16101888  -0.00403267  0.83284752  1
  I  I57  1  0.16779267  0.33330185  0.16770787  1
  I  I58  1  0.16583087  0.33320568  0.49916965  1
  I  I59  1  0.16545985  0.33319597  0.83274488  1
  I  I60  1  0.17176437  0.67049534  0.16858348  1
  I  I61  1  0.16619949  0.66805282  0.49935289  1
  I  I62  1  0.16084327  0.67037621  0.83171494  1
  I  I63  1  0.49704292  -0.00068871  0.16633675  1
  I  I64  1  0.49828172  -0.00001766  0.49735475  1
  I  I65  1  0.50229238  -0.00015485  0.83481073  1
  I  I66  1  0.50464082  0.33398757  0.17280501  1
  I  I67  1  0.49778011  0.33670556  0.49326549  1
  I  I68  1  0.50285009  0.33332796  0.83541406  1
  I  I69  1  0.49656200  0.66672031  0.17079477  1
  I  I70  1  0.49723661  0.66371231  0.49384847  1
  I  I71  1  0.50386130  0.66685272  0.83578932  1
  I  I72  1  0.82890945  -0.00023178  0.16268684  1
  I  I73  1  0.84070057  -0.00061105  0.50735202  1
  I  I74  1  0.83681915  -0.00080576  0.82953396  1
  I  I75  1  0.82980493  0.33328219  0.16785645  1
  I  I76  1  0.83534756  0.33088164  0.50438694  1
  I  I77  1  0.82892240  0.33259657  0.82728282  1
  I  I78  1  0.82997645  0.66688350  0.16744814  1
  I  I79  1  0.83627926  0.66940124  0.50378004  1
  I  I80  1  0.83585404  0.66824933  0.82886729  1
  I  I81  1  0.16632044  0.16536068  -0.00005637  1
  I  I82  1  0.15981591  0.16438887  0.33736572  1
  I  I83  1  0.16635699  0.16512318  0.66258610  1
  I  I84  1  0.16719057  0.50160037  -0.00019785  1
  I  I85  1  0.16643343  0.50269577  0.33710985  1
  I  I86  1  0.17357879  0.50257723  0.66247563  1
  I  I87  1  0.16619843  0.83290858  -0.00016347  1
  I  I88  1  0.16696737  0.83330938  0.33467664  1
  I  I89  1  0.16020751  0.83225131  0.66548686  1
  I  I90  1  0.50222747  0.16789861  0.00414807  1
  I  I91  1  0.50215609  0.16392622  0.33063514  1
  I  I92  1  0.49873490  0.16843611  0.66639853  1
  I  I93  1  0.50425925  0.50170299  0.00312027  1
  I  I94  1  0.49749564  0.50076421  0.33322725  1
  I  I95  1  0.49695435  0.50062130  0.66364814  1
  I  I96  1  0.49713305  0.83019013  0.00413308  1
  I  I97  1  0.49638673  0.83474246  0.33015654  1
  I  I98  1  0.49810529  0.83105664  0.66651018  1
  I  I99  1  0.82900959  0.16437745  -0.00301415  1
  I  I100  1  0.83609077  0.16072529  0.33711935  1
  I  I101  1  0.83633603  0.16580132  0.66597387  1
  I  I102  1  0.83043783  0.50256730  -0.00461733  1
  I  I103  1  0.83385935  0.50053847  0.33361249  1
  I  I104  1  0.83102328  0.50128049  0.66907925  1
  I  I105  1  0.83550870  0.83392382  -0.00306728  1
  I  I106  1  0.83649481  0.83806715  0.33672847  1
  I  I107  1  0.84069554  0.83319794  0.66653091  1
  I  I108  1  0.00039750  0.16467235  0.16481417  1
  I  I109  1  -0.00028823  0.16711208  0.50347571  1
  I  I110  1  -0.00388145  0.16844282  0.83255012  1
  I  I111  1  0.00049011  0.50181845  0.16792665  1
  I  I112  1  0.00262728  0.50155849  0.50265182  1
  I  I113  1  -0.00370936  0.49903195  0.83014796  1
  I  I114  1  0.00309631  0.83358268  0.16711939  1
  I  I115  1  0.00088193  0.83133905  0.49823332  1
  I  I116  1  -0.00073344  0.83283789  0.83452159  1
  I  I117  1  0.33679244  0.16813386  0.16952499  1
  I  I118  1  0.33058737  0.16255314  0.49681313  1
  I  I119  1  0.33283610  0.16543055  0.83256399  1
  I  I120  1  0.33698051  0.49886887  0.16831544  1
  I  I121  1  0.33271290  0.50152055  0.49504711  1
  I  I122  1  0.33286758  0.50196112  0.83489636  1
  I  I123  1  0.33292597  0.83310176  0.16790405  1
  I  I124  1  0.33012252  0.83572957  0.50209763  1
  I  I125  1  0.33002874  0.83252695  0.82994769  1
  I  I126  1  0.66354641  0.16329143  0.16837221  1
  I  I127  1  0.66983648  0.16293780  0.50290924  1
  I  I128  1  0.67091111  0.16334669  0.82602459  1
  I  I129  1  0.66278070  0.50376828  0.17477365  1
  I  I130  1  0.66456078  0.50026781  0.49636250  1
  I  I131  1  0.66998519  0.50375287  0.83095261  1
  I  I132  1  0.66391105  0.83278598  0.16664581  1
  I  I133  1  0.66985373  0.83650537  0.50373929  1
  I  I134  1  0.67039180  0.83319721  0.82990979  1
