# generated using pymatgen
data_Cs27Sn13Pb14I81
_symmetry_space_group_name_H-M   'P 1'
_cell_length_a   18.97423200
_cell_length_b   18.97822494
_cell_length_c   18.98223170
_cell_angle_alpha   90.00016772
_cell_angle_beta   90.00069113
_cell_angle_gamma   89.99940015
_symmetry_Int_Tables_number   1
_chemical_formula_structural   Cs27Sn13Pb14I81
_chemical_formula_sum   'Cs27 Sn13 Pb14 I81'
_cell_volume   6835.44930099
_cell_formula_units_Z   1
loop_
 _symmetry_equiv_pos_site_id
 _symmetry_equiv_pos_as_xyz
  1  'x, y, z'
loop_
 _atom_site_type_symbol
 _atom_site_label
 _atom_site_symmetry_multiplicity
 _atom_site_fract_x
 _atom_site_fract_y
 _atom_site_fract_z
 _atom_site_occupancy
  Cs  Cs0  1  0.00031970  0.00152018  0.00233561  1
  Cs  Cs1  1  0.00196055  0.00372157  0.33250163  1
  Cs  Cs2  1  0.00336624  -0.00806075  0.66567609  1
  Cs  Cs3  1  0.00212967  0.33134336  0.00104399  1
  Cs  Cs4  1  0.00328821  0.32979041  0.33393887  1
  Cs  Cs5  1  -0.00005378  0.33397651  0.66501187  1
  Cs  Cs6  1  0.00042982  0.66649538  -0.00031848  1
  Cs  Cs7  1  0.00069728  0.66653687  0.33313739  1
  Cs  Cs8  1  0.00371127  0.67356722  0.66771476  1
  Cs  Cs9  1  0.33543134  0.00154909  -0.00724412  1
  Cs  Cs10  1  0.33438549  -0.00028265  0.33528056  1
  Cs  Cs11  1  0.32836391  -0.00421912  0.67513482  1
  Cs  Cs12  1  0.32964722  0.33228796  -0.00319441  1
  Cs  Cs13  1  0.33266593  0.33390976  0.33490274  1
  Cs  Cs14  1  0.32872120  0.33075129  0.66754579  1
  Cs  Cs15  1  0.33100431  0.66510501  0.00293804  1
  Cs  Cs16  1  0.33411510  0.66645798  0.33196502  1
  Cs  Cs17  1  0.32631349  0.67309216  0.66626763  1
  Cs  Cs18  1  0.66602950  0.00151566  -0.00066648  1
  Cs  Cs19  1  0.66636426  0.00213228  0.33335064  1
  Cs  Cs20  1  0.66606264  -0.00433112  0.66798704  1
  Cs  Cs21  1  0.66751934  0.33449040  -0.00118870  1
  Cs  Cs22  1  0.66680085  0.33377686  0.33503449  1
  Cs  Cs23  1  0.66760900  0.33454018  0.66547206  1
  Cs  Cs24  1  0.66757008  0.66429490  0.00127819  1
  Cs  Cs25  1  0.66594024  0.66529883  0.33296914  1
  Cs  Cs26  1  0.66794836  0.66720513  0.66570655  1
  Sn  Sn27  1  0.50023070  0.83343265  0.16677160  1
  Sn  Sn28  1  0.83274076  0.50036981  0.16689572  1
  Sn  Sn29  1  0.50045364  0.49928536  0.50053224  1
  Sn  Sn30  1  0.83262541  0.49912262  0.83308104  1
  Sn  Sn31  1  0.16683691  0.83345508  0.16690992  1
  Sn  Sn32  1  0.83217787  0.16731942  0.50137041  1
  Sn  Sn33  1  0.83274047  0.16739993  0.83176617  1
  Sn  Sn34  1  0.50048141  0.49999656  0.83281466  1
  Sn  Sn35  1  0.83315195  0.83270225  0.16695115  1
  Sn  Sn36  1  0.83282349  0.49935328  0.50001665  1
  Sn  Sn37  1  0.50074760  0.16722193  0.50000107  1
  Sn  Sn38  1  0.50081141  0.49934840  0.16655764  1
  Sn  Sn39  1  0.50046232  0.16738855  0.16715427  1
  Pb  Pb40  1  0.83302187  0.83295135  0.83593436  1
  Pb  Pb41  1  0.16669015  0.49992406  0.49988052  1
  Pb  Pb42  1  0.83165669  0.16737816  0.16703625  1
  Pb  Pb43  1  0.83310629  0.83335082  0.49735330  1
  Pb  Pb44  1  0.16677732  0.83336147  0.49730923  1
  Pb  Pb45  1  0.17061939  0.16418492  0.16671927  1
  Pb  Pb46  1  0.50013739  0.83332008  0.49831556  1
  Pb  Pb47  1  0.50044371  0.82995043  0.83596113  1
  Pb  Pb48  1  0.16272331  0.16700459  0.83317497  1
  Pb  Pb49  1  0.16654494  0.83311960  0.83633004  1
  Pb  Pb50  1  0.16610649  0.49988357  0.83331576  1
  Pb  Pb51  1  0.16660822  0.50126992  0.16682011  1
  Pb  Pb52  1  0.16705550  0.16676612  0.50006181  1
  Pb  Pb53  1  0.50183827  0.16885876  0.83241732  1
  I  I54  1  0.16252865  -0.00389632  0.16733988  1
  I  I55  1  0.16557418  0.00018214  0.49802003  1
  I  I56  1  0.16664728  0.00003786  0.83448893  1
  I  I57  1  0.16586649  0.33304810  0.16646837  1
  I  I58  1  0.16658456  0.33334014  0.49790543  1
  I  I59  1  0.16939970  0.33347433  0.83565186  1
  I  I60  1  0.17082624  0.66941970  0.16654688  1
  I  I61  1  0.16665145  0.66652468  0.49965464  1
  I  I62  1  0.16497951  0.66652361  0.83376842  1
  I  I63  1  0.50071748  0.00006948  0.17209468  1
  I  I64  1  0.50528537  0.00349672  0.49266917  1
  I  I65  1  0.50093135  0.00019440  0.83476703  1
  I  I66  1  0.50624022  0.33458893  0.16762730  1
  I  I67  1  0.50469890  0.33417023  0.49297830  1
  I  I68  1  0.50279215  0.33693577  0.83994148  1
  I  I69  1  0.50033864  0.66571522  0.16645134  1
  I  I70  1  0.50504565  0.66286661  0.49831408  1
  I  I71  1  0.50774210  0.66160070  0.83299489  1
  I  I72  1  0.83208528  -0.00206166  0.16632355  1
  I  I73  1  0.82897563  0.00348791  0.50258804  1
  I  I74  1  0.83343332  0.00290429  0.83077929  1
  I  I75  1  0.82805356  0.33662013  0.16599289  1
  I  I76  1  0.82908653  0.33432462  0.49803895  1
  I  I77  1  0.82897105  0.33478382  0.83590350  1
  I  I78  1  0.82919895  0.66534518  0.16642570  1
  I  I79  1  0.82858802  0.66293958  0.50141151  1
  I  I80  1  0.82961786  0.66282973  0.83195740  1
  I  I81  1  0.16635628  0.16593177  0.00017920  1
  I  I82  1  0.16120821  0.16548980  0.33317187  1
  I  I83  1  0.17244366  0.16572321  0.66664127  1
  I  I84  1  0.16698681  0.50167574  0.00015467  1
  I  I85  1  0.16635727  0.50196331  0.33323424  1
  I  I86  1  0.16739658  0.50123055  0.66663019  1
  I  I87  1  0.16681466  0.83195214  0.00442024  1
  I  I88  1  0.16707661  0.83222166  0.32899501  1
  I  I89  1  0.16649353  0.83331480  0.66688080  1
  I  I90  1  0.50160340  0.16601330  0.00244964  1
  I  I91  1  0.50570400  0.17000016  0.33310537  1
  I  I92  1  0.50273749  0.17275287  0.66334371  1
  I  I93  1  0.50597194  0.50133177  0.00126023  1
  I  I94  1  0.50520771  0.50046552  0.33258420  1
  I  I95  1  0.50761735  0.49386785  0.66587036  1
  I  I96  1  0.50055325  0.83489760  0.00495153  1
  I  I97  1  0.50063779  0.82878317  0.32916289  1
  I  I98  1  0.49899496  0.83374103  0.66683053  1
  I  I99  1  0.83170065  0.16921270  -0.00160760  1
  I  I100  1  0.83111726  0.16894586  0.33586270  1
  I  I101  1  0.82747400  0.17612175  0.66572581  1
  I  I102  1  0.82752232  0.50061654  0.00046538  1
  I  I103  1  0.82753750  0.50098928  0.33310065  1
  I  I104  1  0.82622168  0.49410397  0.66637680  1
  I  I105  1  0.83239740  0.82959873  0.00442227  1
  I  I106  1  0.83203203  0.82914087  0.32894694  1
  I  I107  1  0.83485109  0.83103799  0.66660932  1
  I  I108  1  -0.00016902  0.16574389  0.16653164  1
  I  I109  1  -0.00384267  0.17173189  0.50229059  1
  I  I110  1  -0.00561036  0.17422503  0.83014957  1
  I  I111  1  -0.00381681  0.50457407  0.16617508  1
  I  I112  1  -0.00427011  0.49576986  0.49855745  1
  I  I113  1  -0.00444517  0.49651734  0.83499025  1
  I  I114  1  -0.00111803  0.82744241  0.16642281  1
  I  I115  1  -0.00042278  0.83284411  0.49666762  1
  I  I116  1  -0.00044753  0.83169574  0.83641737  1
  I  I117  1  0.33900385  0.16913433  0.17239965  1
  I  I118  1  0.33748031  0.17214180  0.49289023  1
  I  I119  1  0.33366251  0.16745443  0.83434317  1
  I  I120  1  0.33735462  0.50133220  0.16682842  1
  I  I121  1  0.33759916  0.49610046  0.49767014  1
  I  I122  1  0.33685443  0.50052612  0.83584760  1
  I  I123  1  0.33470477  0.83209103  0.16748924  1
  I  I124  1  0.33375088  0.83205087  0.49603849  1
  I  I125  1  0.33367029  0.83240224  0.83561001  1
  I  I126  1  0.66355778  0.16248165  0.16766130  1
  I  I127  1  0.66670887  0.17151989  0.49788546  1
  I  I128  1  0.66985105  0.16917273  0.83404003  1
  I  I129  1  0.66625826  0.50485523  0.16656394  1
  I  I130  1  0.66673582  0.49649554  0.49821500  1
  I  I131  1  0.66737292  0.49687258  0.83549747  1
  I  I132  1  0.66629353  0.83098119  0.16676401  1
  I  I133  1  0.66668835  0.83350300  0.49651174  1
  I  I134  1  0.66676482  0.83556544  0.83663705  1
