# generated using pymatgen
data_Cs27Sn14Pb13I81
_symmetry_space_group_name_H-M   'P 1'
_cell_length_a   18.98383650
_cell_length_b   18.96835776
_cell_length_c   18.97429846
_cell_angle_alpha   89.99975278
_cell_angle_beta   90.00068487
_cell_angle_gamma   89.99929393
_symmetry_Int_Tables_number   1
_chemical_formula_structural   Cs27Sn14Pb13I81
_chemical_formula_sum   'Cs27 Sn14 Pb13 I81'
_cell_volume   6832.49691980
_cell_formula_units_Z   1
loop_
 _symmetry_equiv_pos_site_id
 _symmetry_equiv_pos_as_xyz
  1  'x, y, z'
loop_
 _atom_site_type_symbol
 _atom_site_label
 _atom_site_symmetry_multiplicity
 _atom_site_fract_x
 _atom_site_fract_y
 _atom_site_fract_z
 _atom_site_occupancy
  Cs  Cs0  1  -0.00167283  0.00114050  -0.00219703  1
  Cs  Cs1  1  0.00069982  0.00130657  0.33449456  1
  Cs  Cs2  1  -0.00003076  0.00016139  0.66786296  1
  Cs  Cs3  1  0.00188338  0.33083176  0.00014643  1
  Cs  Cs4  1  -0.00050891  0.33220555  0.33490306  1
  Cs  Cs5  1  0.00062907  0.33483940  0.66549145  1
  Cs  Cs6  1  0.00083416  0.66654735  0.00507089  1
  Cs  Cs7  1  -0.00108808  0.66453380  0.32106448  1
  Cs  Cs8  1  -0.00153173  0.66498568  0.66838359  1
  Cs  Cs9  1  0.33343228  0.00256515  -0.00399337  1
  Cs  Cs10  1  0.33381940  -0.00478237  0.33811643  1
  Cs  Cs11  1  0.33241040  -0.00243070  0.66616000  1
  Cs  Cs12  1  0.33531797  0.33371493  -0.00023293  1
  Cs  Cs13  1  0.33338654  0.33273724  0.33571349  1
  Cs  Cs14  1  0.33318766  0.33378254  0.66601020  1
  Cs  Cs15  1  0.33252250  0.66399461  0.00668565  1
  Cs  Cs16  1  0.33479696  0.67312341  0.32802480  1
  Cs  Cs17  1  0.33228805  0.66869434  0.66559006  1
  Cs  Cs18  1  0.66921908  0.00170964  -0.00137654  1
  Cs  Cs19  1  0.66639013  0.00079418  0.33357284  1
  Cs  Cs20  1  0.66755383  -0.00019849  0.66722800  1
  Cs  Cs21  1  0.66118529  0.33521246  -0.00269312  1
  Cs  Cs22  1  0.66698786  0.33145728  0.33717080  1
  Cs  Cs23  1  0.66511283  0.33644850  0.66544012  1
  Cs  Cs24  1  0.66457838  0.65990899  0.00667879  1
  Cs  Cs25  1  0.66570044  0.66763480  0.32616748  1
  Cs  Cs26  1  0.66908111  0.66575419  0.66638586  1
  Sn  Sn27  1  0.83388493  0.16655877  0.83295258  1
  Sn  Sn28  1  0.50048797  0.16692621  0.49970937  1
  Sn  Sn29  1  0.50068420  0.83292099  0.83348639  1
  Sn  Sn30  1  0.16650291  0.83307921  0.83306994  1
  Sn  Sn31  1  0.16706679  0.16648747  0.16624390  1
  Sn  Sn32  1  0.83290345  0.83366125  0.83263718  1
  Sn  Sn33  1  0.49891402  0.50006829  0.50025686  1
  Sn  Sn34  1  0.16657637  0.49995083  0.83247465  1
  Sn  Sn35  1  0.83375337  0.83378421  0.50046377  1
  Sn  Sn36  1  0.16603177  0.16683948  0.83363082  1
  Sn  Sn37  1  0.16742079  0.50059213  0.50024380  1
  Sn  Sn38  1  0.49973571  0.16638087  0.16762435  1
  Sn  Sn39  1  0.83307338  0.16651347  0.16640571  1
  Sn  Sn40  1  0.83256977  0.16580898  0.50061527  1
  Pb  Pb41  1  0.83318163  0.49637359  0.16650068  1
  Pb  Pb42  1  0.50222725  0.83331073  0.50164763  1
  Pb  Pb43  1  0.16660260  0.16765285  0.50044961  1
  Pb  Pb44  1  0.50003441  0.83646156  0.16371671  1
  Pb  Pb45  1  0.49740046  0.50301585  0.83111505  1
  Pb  Pb46  1  0.83343154  0.50053807  0.49999548  1
  Pb  Pb47  1  0.49975645  0.49721396  0.16984392  1
  Pb  Pb48  1  0.83327310  0.83571930  0.16610139  1
  Pb  Pb49  1  0.83543076  0.50006912  0.83345392  1
  Pb  Pb50  1  0.50009349  0.16560250  0.83257163  1
  Pb  Pb51  1  0.16682730  0.49730879  0.16683333  1
  Pb  Pb52  1  0.16669682  0.83667543  0.16385591  1
  Pb  Pb53  1  0.16353594  0.83010812  0.50174626  1
  I  I54  1  0.16537182  0.00490730  0.16210443  1
  I  I55  1  0.16924687  -0.00017837  0.50011674  1
  I  I56  1  0.16553198  0.00050343  0.83860935  1
  I  I57  1  0.16551326  0.32908381  0.16009941  1
  I  I58  1  0.16581147  0.33545735  0.50587388  1
  I  I59  1  0.16173464  0.33215128  0.83364121  1
  I  I60  1  0.16657523  0.66668297  0.16610828  1
  I  I61  1  0.17229343  0.66242511  0.50769745  1
  I  I62  1  0.16655434  0.66703664  0.82575930  1
  I  I63  1  0.50037237  0.00470036  0.17418506  1
  I  I64  1  0.50240837  0.00304621  0.49681968  1
  I  I65  1  0.49559505  -0.00221551  0.83163304  1
  I  I66  1  0.50067007  0.32877645  0.16510132  1
  I  I67  1  0.50237440  0.33182291  0.49710152  1
  I  I68  1  0.49999006  0.33340114  0.83541122  1
  I  I69  1  0.49984492  0.66670319  0.16698016  1
  I  I70  1  0.49700810  0.66427258  0.50511597  1
  I  I71  1  0.50230487  0.67091512  0.82962853  1
  I  I72  1  0.83365247  0.00434894  0.16600504  1
  I  I73  1  0.82797636  0.00199603  0.50122558  1
  I  I74  1  0.83809800  0.00104540  0.83280474  1
  I  I75  1  0.83460288  0.32752803  0.16749846  1
  I  I76  1  0.83260767  0.32988901  0.49995094  1
  I  I77  1  0.83788491  0.32954226  0.83290542  1
  I  I78  1  0.83359373  0.66691612  0.16747299  1
  I  I79  1  0.83388316  0.66975289  0.50870559  1
  I  I80  1  0.83425457  0.67024920  0.82577613  1
  I  I81  1  0.16371056  0.16778809  -0.00143822  1
  I  I82  1  0.16356420  0.17061020  0.33127019  1
  I  I83  1  0.16376158  0.16513731  0.66990276  1
  I  I84  1  0.16495284  0.50196438  -0.00323476  1
  I  I85  1  0.16906280  0.49619115  0.33630710  1
  I  I86  1  0.16967622  0.49616034  0.66758963  1
  I  I87  1  0.16300529  0.82819060  -0.00498922  1
  I  I88  1  0.16575980  0.83288047  0.33341989  1
  I  I89  1  0.16838282  0.84037506  0.67042875  1
  I  I90  1  0.50197315  0.16323594  0.00188187  1
  I  I91  1  0.50347178  0.17092261  0.33393961  1
  I  I92  1  0.50311865  0.16902407  0.66380188  1
  I  I93  1  0.49938459  0.49966895  -0.00002505  1
  I  I94  1  0.49375366  0.49883839  0.33780378  1
  I  I95  1  0.49884078  0.49092694  0.66350274  1
  I  I96  1  0.50165956  0.83589748  -0.00446247  1
  I  I97  1  0.50170778  0.83123897  0.33343848  1
  I  I98  1  0.49761991  0.83745425  0.66962407  1
  I  I99  1  0.83488726  0.16255292  -0.00083311  1
  I  I100  1  0.83313067  0.16369200  0.33394399  1
  I  I101  1  0.83389417  0.16269893  0.66689552  1
  I  I102  1  0.83537169  0.50098498  -0.00026062  1
  I  I103  1  0.83679211  0.50077663  0.33363900  1
  I  I104  1  0.83232550  0.49437783  0.66663757  1
  I  I105  1  0.83512101  0.83861777  -0.00390403  1
  I  I106  1  0.83227097  0.83749726  0.33613971  1
  I  I107  1  0.83359708  0.84245624  0.66792424  1
  I  I108  1  -0.00032506  0.16685197  0.16532577  1
  I  I109  1  -0.00275166  0.16497914  0.49827054  1
  I  I110  1  0.00004490  0.16304779  0.83584606  1
  I  I111  1  0.00030954  0.49813276  0.16938901  1
  I  I112  1  0.00273090  0.49818304  0.50543953  1
  I  I113  1  0.00378441  0.50155386  0.82618686  1
  I  I114  1  -0.00003910  0.83480173  0.16636753  1
  I  I115  1  -0.00400437  0.84142734  0.50669437  1
  I  I116  1  -0.00021830  0.83571656  0.82881021  1
  I  I117  1  0.33321670  0.16764956  0.16493619  1
  I  I118  1  0.33566888  0.16961217  0.49737637  1
  I  I119  1  0.33054821  0.16565831  0.83627933  1
  I  I120  1  0.33325418  0.49601026  0.16369615  1
  I  I121  1  0.33339678  0.49159493  0.50538417  1
  I  I122  1  0.32931154  0.49672014  0.83139842  1
  I  I123  1  0.33330584  0.83655249  0.16550098  1
  I  I124  1  0.33320022  0.83615460  0.50271556  1
  I  I125  1  0.33231142  0.83566119  0.83346521  1
  I  I126  1  0.66711497  0.16594351  0.16729491  1
  I  I127  1  0.66715256  0.16890748  0.49745530  1
  I  I128  1  0.66947391  0.16121685  0.83549481  1
  I  I129  1  0.66630134  0.49883280  0.16768210  1
  I  I130  1  0.66417315  0.49655417  0.49988461  1
  I  I131  1  0.66638726  0.49917810  0.83201967  1
  I  I132  1  0.66673008  0.83558912  0.16422872  1
  I  I133  1  0.66999856  0.83450819  0.50752679  1
  I  I134  1  0.66808967  0.84174760  0.82854103  1
