# generated using pymatgen
data_Cs27Sn13Pb14I81
_symmetry_space_group_name_H-M   'P 1'
_cell_length_a   18.97624941
_cell_length_b   18.98048752
_cell_length_c   18.97089661
_cell_angle_alpha   89.99781700
_cell_angle_beta   89.99740262
_cell_angle_gamma   89.99976077
_symmetry_Int_Tables_number   1
_chemical_formula_structural   Cs27Sn13Pb14I81
_chemical_formula_sum   'Cs27 Sn13 Pb14 I81'
_cell_volume   6832.90840815
_cell_formula_units_Z   1
loop_
 _symmetry_equiv_pos_site_id
 _symmetry_equiv_pos_as_xyz
  1  'x, y, z'
loop_
 _atom_site_type_symbol
 _atom_site_label
 _atom_site_symmetry_multiplicity
 _atom_site_fract_x
 _atom_site_fract_y
 _atom_site_fract_z
 _atom_site_occupancy
  Cs  Cs0  1  0.00112255  -0.00031240  0.00396816  1
  Cs  Cs1  1  0.00232045  0.00265477  0.32894307  1
  Cs  Cs2  1  -0.00026130  -0.00133489  0.66669312  1
  Cs  Cs3  1  -0.00198052  0.33689876  0.00016089  1
  Cs  Cs4  1  -0.00011516  0.33179083  0.33512758  1
  Cs  Cs5  1  0.00046181  0.33328982  0.66542730  1
  Cs  Cs6  1  -0.00080939  0.66499506  -0.00092428  1
  Cs  Cs7  1  -0.00115585  0.66540080  0.33056772  1
  Cs  Cs8  1  -0.00162375  0.66902321  0.66872915  1
  Cs  Cs9  1  0.33464625  -0.00110372  0.00169921  1
  Cs  Cs10  1  0.32851820  -0.00358758  0.32501153  1
  Cs  Cs11  1  0.33232863  0.00059926  0.66965509  1
  Cs  Cs12  1  0.33899305  0.33421619  -0.00274815  1
  Cs  Cs13  1  0.33196148  0.33721113  0.33886928  1
  Cs  Cs14  1  0.33196820  0.33317602  0.66568422  1
  Cs  Cs15  1  0.33154764  0.66723452  0.00013030  1
  Cs  Cs16  1  0.34292727  0.66621108  0.33340464  1
  Cs  Cs17  1  0.33250765  0.66671326  0.66635683  1
  Cs  Cs18  1  0.66396981  0.00768353  0.00096155  1
  Cs  Cs19  1  0.66641813  -0.00248908  0.33586917  1
  Cs  Cs20  1  0.66697884  0.00039806  0.66435439  1
  Cs  Cs21  1  0.66427104  0.33070561  0.00111736  1
  Cs  Cs22  1  0.66801460  0.33455998  0.33199157  1
  Cs  Cs23  1  0.66841048  0.32993499  0.66740212  1
  Cs  Cs24  1  0.66984000  0.66441697  -0.00134788  1
  Cs  Cs25  1  0.66086163  0.66825681  0.33497282  1
  Cs  Cs26  1  0.67010610  0.67128988  0.66619140  1
  Sn  Sn27  1  0.49994778  0.16648361  0.49978841  1
  Sn  Sn28  1  0.83403262  0.50098149  0.16782254  1
  Sn  Sn29  1  0.83308519  0.83257706  0.16658168  1
  Sn  Sn30  1  0.83452916  0.16666731  0.83267847  1
  Sn  Sn31  1  0.49948960  0.50116841  0.83287304  1
  Sn  Sn32  1  0.16634174  0.49996811  0.16627991  1
  Sn  Sn33  1  0.16726504  0.49998131  0.83389708  1
  Sn  Sn34  1  0.83355317  0.49988424  0.49941480  1
  Sn  Sn35  1  0.16721769  0.83326647  0.83268799  1
  Sn  Sn36  1  0.16555982  0.16676618  0.83344764  1
  Sn  Sn37  1  0.49970003  0.83233716  0.83319120  1
  Sn  Sn38  1  0.83272512  0.16732537  0.50079213  1
  Sn  Sn39  1  0.16655626  0.83295725  0.50008064  1
  Pb  Pb40  1  0.83330356  0.16730888  0.16727509  1
  Pb  Pb41  1  0.50284971  0.83325145  0.16365054  1
  Pb  Pb42  1  0.50277882  0.49847018  0.50292040  1
  Pb  Pb43  1  0.16536935  0.83082137  0.16609097  1
  Pb  Pb44  1  0.16630854  0.16468835  0.50171956  1
  Pb  Pb45  1  0.83342774  0.49822530  0.83335652  1
  Pb  Pb46  1  0.16685927  0.17014425  0.16363876  1
  Pb  Pb47  1  0.16484529  0.50208836  0.50034527  1
  Pb  Pb48  1  0.49965491  0.16657866  0.83207584  1
  Pb  Pb49  1  0.49970915  0.16690451  0.17068355  1
  Pb  Pb50  1  0.49745153  0.83565172  0.50220087  1
  Pb  Pb51  1  0.83345823  0.83612592  0.83535339  1
  Pb  Pb52  1  0.83517770  0.83375105  0.49795740  1
  Pb  Pb53  1  0.50020467  0.49995663  0.16452663  1
  I  I54  1  0.16427487  -0.00025370  0.16660491  1
  I  I55  1  0.16461300  -0.00303135  0.50654051  1
  I  I56  1  0.16656712  -0.00042852  0.82758423  1
  I  I57  1  0.15876043  0.33806985  0.16288268  1
  I  I58  1  0.16757988  0.33340897  0.50072489  1
  I  I59  1  0.16653851  0.33395000  0.83742772  1
  I  I60  1  0.16236186  0.66320530  0.15983788  1
  I  I61  1  0.16367777  0.66957468  0.50713301  1
  I  I62  1  0.17107556  0.66645969  0.83363500  1
  I  I63  1  0.50221149  -0.00013953  0.16261629  1
  I  I64  1  0.50883582  0.00316620  0.50465230  1
  I  I65  1  0.49706649  -0.00217057  0.83189307  1
  I  I66  1  0.50275921  0.33368611  0.16113629  1
  I  I67  1  0.50069350  0.33060157  0.50391531  1
  I  I68  1  0.49699120  0.33548296  0.83254353  1
  I  I69  1  0.49922022  0.66658933  0.16920579  1
  I  I70  1  0.50073748  0.66679596  0.49960710  1
  I  I71  1  0.49225518  0.66652254  0.83347020  1
  I  I72  1  0.83383990  -0.00203214  0.16518694  1
  I  I73  1  0.83068965  0.00290997  0.50339572  1
  I  I74  1  0.83621937  0.00382464  0.82893612  1
  I  I75  1  0.83746070  0.33653611  0.16722291  1
  I  I76  1  0.83137538  0.33301389  0.49878834  1
  I  I77  1  0.83646256  0.33041974  0.83327725  1
  I  I78  1  0.83781651  0.66506877  0.16990013  1
  I  I79  1  0.83618300  0.66429654  0.49858674  1
  I  I80  1  0.83470173  0.66665898  0.83140108  1
  I  I81  1  0.16074818  0.16102975  -0.00506807  1
  I  I82  1  0.16629180  0.16502341  0.33346445  1
  I  I83  1  0.16514394  0.17125208  0.67029553  1
  I  I84  1  0.16325688  0.50169589  -0.00156230  1
  I  I85  1  0.16248684  0.50169871  0.33104581  1
  I  I86  1  0.16862135  0.49826034  0.67008506  1
  I  I87  1  0.16902793  0.83507542  -0.00352305  1
  I  I88  1  0.16295078  0.83389451  0.33527821  1
  I  I89  1  0.16843287  0.83163514  0.66894720  1
  I  I90  1  0.50143541  0.16681769  -0.00050413  1
  I  I91  1  0.50867501  0.16718625  0.33846733  1
  I  I92  1  0.50307242  0.16706509  0.66461440  1
  I  I93  1  0.50052284  0.50164182  -0.00390010  1
  I  I94  1  0.49727316  0.49773409  0.33369421  1
  I  I95  1  0.49386761  0.50258562  0.67079340  1
  I  I96  1  0.49227601  0.83143851  -0.00444309  1
  I  I97  1  0.49837904  0.83531050  0.33351174  1
  I  I98  1  0.49943421  0.82983714  0.67034872  1
  I  I99  1  0.83721870  0.16660435  -0.00262714  1
  I  I100  1  0.82899692  0.16787442  0.33655611  1
  I  I101  1  0.83351137  0.17205605  0.66635626  1
  I  I102  1  0.83491878  0.50220525  0.00212803  1
  I  I103  1  0.83981439  0.49722470  0.33293289  1
  I  I104  1  0.83351064  0.49638727  0.66463516  1
  I  I105  1  0.83574953  0.82702916  0.00275324  1
  I  I106  1  0.83691965  0.83348963  0.33034535  1
  I  I107  1  0.83259070  0.83137348  0.66688377  1
  I  I108  1  -0.00000487  0.16442285  0.16989722  1
  I  I109  1  -0.00297146  0.16949801  0.50266061  1
  I  I110  1  0.00033340  0.16732352  0.82755049  1
  I  I111  1  -0.00059618  0.50359114  0.16285578  1
  I  I112  1  -0.00314278  0.49364279  0.50088428  1
  I  I113  1  0.00269741  0.50190868  0.83445957  1
  I  I114  1  -0.00251702  0.83126473  0.16432396  1
  I  I115  1  0.00274764  0.83457712  0.50817560  1
  I  I116  1  0.00305447  0.83068723  0.83110564  1
  I  I117  1  0.33303422  0.16643503  0.16553860  1
  I  I118  1  0.33524049  0.16558735  0.50389189  1
  I  I119  1  0.33053296  0.16712592  0.83135572  1
  I  I120  1  0.33036121  0.49972291  0.16308022  1
  I  I121  1  0.33330147  0.49843607  0.49744671  1
  I  I122  1  0.33166591  0.49810812  0.83857660  1
  I  I123  1  0.33322128  0.83252673  0.16873710  1
  I  I124  1  0.32966905  0.83403219  0.50223485  1
  I  I125  1  0.33187488  0.83485108  0.82974678  1
  I  I126  1  0.66707339  0.16874032  0.15903978  1
  I  I127  1  0.66852442  0.16980480  0.50740935  1
  I  I128  1  0.66888241  0.16716836  0.83177970  1
  I  I129  1  0.67008592  0.50274940  0.16882712  1
  I  I130  1  0.67078644  0.49882491  0.49551668  1
  I  I131  1  0.66460591  0.50239411  0.83288581  1
  I  I132  1  0.67070060  0.82696399  0.16684790  1
  I  I133  1  0.66672800  0.83231223  0.50061643  1
  I  I134  1  0.66438599  0.82952465  0.83534220  1
