# generated using pymatgen
data_Cs27Sn13Pb14I81
_symmetry_space_group_name_H-M   'P 1'
_cell_length_a   18.98887563
_cell_length_b   18.97164579
_cell_length_c   18.97211451
_cell_angle_alpha   90.00527778
_cell_angle_beta   90.00104663
_cell_angle_gamma   89.99992708
_symmetry_Int_Tables_number   1
_chemical_formula_structural   Cs27Sn13Pb14I81
_chemical_formula_sum   'Cs27 Sn13 Pb14 I81'
_cell_volume   6834.70844198
_cell_formula_units_Z   1
loop_
 _symmetry_equiv_pos_site_id
 _symmetry_equiv_pos_as_xyz
  1  'x, y, z'
loop_
 _atom_site_type_symbol
 _atom_site_label
 _atom_site_symmetry_multiplicity
 _atom_site_fract_x
 _atom_site_fract_y
 _atom_site_fract_z
 _atom_site_occupancy
  Cs  Cs0  1  0.00043374  -0.00069573  -0.00009199  1
  Cs  Cs1  1  -0.00612769  0.00151572  0.33860772  1
  Cs  Cs2  1  0.00211009  0.00857331  0.66097112  1
  Cs  Cs3  1  -0.00187252  0.33159967  0.00195786  1
  Cs  Cs4  1  -0.00266774  0.33482618  0.33226077  1
  Cs  Cs5  1  0.00083685  0.33263363  0.66569529  1
  Cs  Cs6  1  0.00190245  0.66831080  -0.00268656  1
  Cs  Cs7  1  -0.00270473  0.66535570  0.33206554  1
  Cs  Cs8  1  0.00037492  0.66442311  0.67012401  1
  Cs  Cs9  1  0.33297394  -0.00136059  0.00201378  1
  Cs  Cs10  1  0.33447708  0.00063505  0.33172948  1
  Cs  Cs11  1  0.33037335  0.00040824  0.66446927  1
  Cs  Cs12  1  0.33727534  0.33222416  0.00159442  1
  Cs  Cs13  1  0.33506069  0.33312053  0.33118959  1
  Cs  Cs14  1  0.33385656  0.33222423  0.66770824  1
  Cs  Cs15  1  0.33227288  0.66776626  0.00011588  1
  Cs  Cs16  1  0.33279609  0.66724898  0.33337828  1
  Cs  Cs17  1  0.33194844  0.66750678  0.66651237  1
  Cs  Cs18  1  0.66693574  0.00059372  0.00054437  1
  Cs  Cs19  1  0.66924215  -0.00113025  0.33343138  1
  Cs  Cs20  1  0.66792495  0.00037303  0.66557758  1
  Cs  Cs21  1  0.66348817  0.33144939  -0.00010371  1
  Cs  Cs22  1  0.66523198  0.33338070  0.33190692  1
  Cs  Cs23  1  0.66536505  0.33446719  0.66836688  1
  Cs  Cs24  1  0.66635976  0.66675277  -0.00103799  1
  Cs  Cs25  1  0.66989593  0.66847029  0.33406579  1
  Cs  Cs26  1  0.66789360  0.66583654  0.66704498  1
  Sn  Sn27  1  0.49902631  0.16556247  0.16756995  1
  Sn  Sn28  1  0.16711836  0.83429061  0.16646465  1
  Sn  Sn29  1  0.83391961  0.83312784  0.83306333  1
  Sn  Sn30  1  0.83335143  0.50017142  0.50087083  1
  Sn  Sn31  1  0.49929701  0.83392574  0.16594617  1
  Sn  Sn32  1  0.16681457  0.50033768  0.50061904  1
  Sn  Sn33  1  0.49969014  0.16723921  0.49943104  1
  Sn  Sn34  1  0.16644767  0.83305614  0.83357409  1
  Sn  Sn35  1  0.16629233  0.50028273  0.83281869  1
  Sn  Sn36  1  0.83407455  0.50056822  0.83282924  1
  Sn  Sn37  1  0.49982465  0.49949011  0.49998355  1
  Sn  Sn38  1  0.16711768  0.16561860  0.16670794  1
  Sn  Sn39  1  0.49966760  0.83338264  0.83381364  1
  Pb  Pb40  1  0.16676484  0.16687855  0.83561604  1
  Pb  Pb41  1  0.16668310  0.50034675  0.16592650  1
  Pb  Pb42  1  0.16875792  0.16942952  0.49726633  1
  Pb  Pb43  1  0.50007704  0.50073669  0.16901167  1
  Pb  Pb44  1  0.49981842  0.16362297  0.83339084  1
  Pb  Pb45  1  0.83362505  0.83113496  0.50308130  1
  Pb  Pb46  1  0.83348561  0.16712308  0.83328537  1
  Pb  Pb47  1  0.83296850  0.16639856  0.16664348  1
  Pb  Pb48  1  0.83364172  0.83329025  0.16438215  1
  Pb  Pb49  1  0.83327531  0.50014275  0.16552016  1
  Pb  Pb50  1  0.49988627  0.83349672  0.49958883  1
  Pb  Pb51  1  0.16655261  0.83149059  0.49964820  1
  Pb  Pb52  1  0.83046163  0.16962003  0.50009092  1
  Pb  Pb53  1  0.49963884  0.50210525  0.83135991  1
  I  I54  1  0.17240949  -0.00119758  0.15945205  1
  I  I55  1  0.16922034  0.00030826  0.50341746  1
  I  I56  1  0.16670676  -0.00356234  0.83604551  1
  I  I57  1  0.17176170  0.33078593  0.16755332  1
  I  I58  1  0.16462386  0.33760740  0.50522360  1
  I  I59  1  0.16129011  0.33685912  0.83011921  1
  I  I60  1  0.17158246  0.66985163  0.16523019  1
  I  I61  1  0.16994110  0.66282014  0.49934670  1
  I  I62  1  0.16622317  0.66712299  0.83535651  1
  I  I63  1  0.49548511  -0.00033555  0.16829031  1
  I  I64  1  0.49909718  0.00260529  0.49895299  1
  I  I65  1  0.49982662  -0.00467584  0.83255025  1
  I  I66  1  0.49573989  0.33039136  0.16898345  1
  I  I67  1  0.50018893  0.33387123  0.49442784  1
  I  I68  1  0.50102510  0.33342331  0.83584653  1
  I  I69  1  0.49541532  0.67027381  0.16350343  1
  I  I70  1  0.50050332  0.66370614  0.50064903  1
  I  I71  1  0.49982697  0.67025860  0.83781227  1
  I  I72  1  0.83311193  -0.00029658  0.16423597  1
  I  I73  1  0.83152188  0.00022589  0.50093057  1
  I  I74  1  0.83294625  -0.00360310  0.83636536  1
  I  I75  1  0.83366678  0.33328058  0.16435828  1
  I  I76  1  0.83629352  0.33786452  0.50715940  1
  I  I77  1  0.83824298  0.33745327  0.82900491  1
  I  I78  1  0.83227554  0.66684531  0.17042689  1
  I  I79  1  0.82956242  0.66253458  0.50047397  1
  I  I80  1  0.83393636  0.66650110  0.82945810  1
  I  I81  1  0.17429305  0.16803161  0.00356024  1
  I  I82  1  0.16947672  0.16138174  0.32945253  1
  I  I83  1  0.16775259  0.16415929  0.66639577  1
  I  I84  1  0.16119307  0.50191856  -0.00343807  1
  I  I85  1  0.16646790  0.49975764  0.33606108  1
  I  I86  1  0.16640791  0.50579829  0.66729159  1
  I  I87  1  0.16768008  0.83048192  -0.00079348  1
  I  I88  1  0.17419852  0.83473208  0.32985255  1
  I  I89  1  0.16830723  0.82961585  0.67019394  1
  I  I90  1  0.49647286  0.16508134  0.00333722  1
  I  I91  1  0.49563368  0.16605046  0.33254604  1
  I  I92  1  0.50169137  0.17070121  0.66388370  1
  I  I93  1  0.50041473  0.49717783  -0.00018794  1
  I  I94  1  0.49950592  0.50060118  0.33741979  1
  I  I95  1  0.50004613  0.49594706  0.66316564  1
  I  I96  1  0.49952912  0.83781340  0.00022211  1
  I  I97  1  0.49408062  0.83353501  0.33011670  1
  I  I98  1  0.49960343  0.83186848  0.66958951  1
  I  I99  1  0.83016217  0.17089214  0.00000157  1
  I  I100  1  0.83553136  0.16903711  0.33349128  1
  I  I101  1  0.83125843  0.16331402  0.66652619  1
  I  I102  1  0.83913125  0.50445753  -0.00432678  1
  I  I103  1  0.83420439  0.49840425  0.33667036  1
  I  I104  1  0.83356363  0.50488749  0.66693640  1
  I  I105  1  0.83282260  0.82521766  -0.00382852  1
  I  I106  1  0.83229414  0.83166790  0.33339739  1
  I  I107  1  0.83164533  0.83073195  0.67146882  1
  I  I108  1  0.00329916  0.16340934  0.16436967  1
  I  I109  1  0.00016500  0.16707260  0.49861758  1
  I  I110  1  0.00026663  0.16281769  0.83603534  1
  I  I111  1  0.00029978  0.49915304  0.17226207  1
  I  I112  1  0.00015162  0.50218487  0.50429036  1
  I  I113  1  0.00046385  0.50883309  0.82528750  1
  I  I114  1  0.00354019  0.83595666  0.16261206  1
  I  I115  1  0.00013118  0.83211750  0.49742289  1
  I  I116  1  0.00096707  0.82663757  0.83876680  1
  I  I117  1  0.33421565  0.16270679  0.17026272  1
  I  I118  1  0.33659414  0.17264477  0.49865948  1
  I  I119  1  0.33339808  0.16886357  0.83076335  1
  I  I120  1  0.33331372  0.49993370  0.16720459  1
  I  I121  1  0.33322408  0.49702000  0.50351215  1
  I  I122  1  0.33049196  0.50444465  0.82930914  1
  I  I123  1  0.33347378  0.83671647  0.15834515  1
  I  I124  1  0.33341366  0.82888831  0.50529887  1
  I  I125  1  0.33264115  0.82881907  0.83763062  1
  I  I126  1  0.66268162  0.16279782  0.17053464  1
  I  I127  1  0.66247578  0.17093650  0.49351182  1
  I  I128  1  0.66639580  0.16712127  0.83565996  1
  I  I129  1  0.66641846  0.49938983  0.16671390  1
  I  I130  1  0.66671295  0.49629163  0.50385676  1
  I  I131  1  0.66909290  0.50472782  0.82887514  1
  I  I132  1  0.66339508  0.83714117  0.16350015  1
  I  I133  1  0.66648737  0.83064213  0.49998327  1
  I  I134  1  0.66656014  0.82917015  0.83661908  1
