# generated using pymatgen
data_Cs27Sn14Pb13I81
_symmetry_space_group_name_H-M   'P 1'
_cell_length_a   18.97049565
_cell_length_b   18.97569426
_cell_length_c   18.98028517
_cell_angle_alpha   89.99889608
_cell_angle_beta   90.00181954
_cell_angle_gamma   89.99949563
_symmetry_Int_Tables_number   1
_chemical_formula_structural   Cs27Sn14Pb13I81
_chemical_formula_sum   'Cs27 Sn14 Pb13 I81'
_cell_volume   6832.49126446
_cell_formula_units_Z   1
loop_
 _symmetry_equiv_pos_site_id
 _symmetry_equiv_pos_as_xyz
  1  'x, y, z'
loop_
 _atom_site_type_symbol
 _atom_site_label
 _atom_site_symmetry_multiplicity
 _atom_site_fract_x
 _atom_site_fract_y
 _atom_site_fract_z
 _atom_site_occupancy
  Cs  Cs0  1  0.00241942  -0.00343205  0.00325335  1
  Cs  Cs1  1  -0.00003361  -0.00036419  0.33350976  1
  Cs  Cs2  1  -0.00063728  -0.00078888  0.66503230  1
  Cs  Cs3  1  -0.00228686  0.33976186  -0.00270337  1
  Cs  Cs4  1  -0.00011547  0.33298294  0.33399959  1
  Cs  Cs5  1  0.00133533  0.33129725  0.66802435  1
  Cs  Cs6  1  -0.00188503  0.66526126  -0.00220596  1
  Cs  Cs7  1  -0.00074375  0.66769365  0.33324832  1
  Cs  Cs8  1  0.00200361  0.66884922  0.66785906  1
  Cs  Cs9  1  0.33967737  0.00264515  0.00752047  1
  Cs  Cs10  1  0.33274444  0.00173970  0.32497801  1
  Cs  Cs11  1  0.33138979  0.00073862  0.66759108  1
  Cs  Cs12  1  0.33478607  0.33344537  0.00079349  1
  Cs  Cs13  1  0.33321812  0.33385825  0.33376479  1
  Cs  Cs14  1  0.33042778  0.33503456  0.66432259  1
  Cs  Cs15  1  0.33461982  0.66555828  0.00037793  1
  Cs  Cs16  1  0.33575640  0.66564626  0.33437369  1
  Cs  Cs17  1  0.33395227  0.66560204  0.66540140  1
  Cs  Cs18  1  0.65894553  0.00214958  -0.00204298  1
  Cs  Cs19  1  0.66982216  -0.00013437  0.33202288  1
  Cs  Cs20  1  0.66657243  0.00272835  0.67139903  1
  Cs  Cs21  1  0.66782511  0.33368056  -0.00251874  1
  Cs  Cs22  1  0.66856154  0.33558864  0.33440273  1
  Cs  Cs23  1  0.66712221  0.32646480  0.66715565  1
  Cs  Cs24  1  0.66909117  0.66483037  0.00043040  1
  Cs  Cs25  1  0.66629480  0.66514310  0.33566723  1
  Cs  Cs26  1  0.66086313  0.66989613  0.66194702  1
  Sn  Sn27  1  0.16653654  0.16541682  0.83328742  1
  Sn  Sn28  1  0.83447874  0.50056992  0.50051970  1
  Sn  Sn29  1  0.16560689  0.50034022  0.49914153  1
  Sn  Sn30  1  0.49929341  0.50002023  0.16577401  1
  Sn  Sn31  1  0.16644269  0.83469326  0.83294534  1
  Sn  Sn32  1  0.16628608  0.83347512  0.50033795  1
  Sn  Sn33  1  0.83341008  0.83435121  0.16662667  1
  Sn  Sn34  1  0.49894712  0.16605885  0.49975564  1
  Sn  Sn35  1  0.16766214  0.16614803  0.50037256  1
  Sn  Sn36  1  0.16717107  0.50020432  0.16743361  1
  Sn  Sn37  1  0.83412813  0.83253458  0.50036465  1
  Sn  Sn38  1  0.49996572  0.50006717  0.83374378  1
  Sn  Sn39  1  0.83381418  0.83329680  0.83298154  1
  Sn  Sn40  1  0.83377650  0.16600027  0.16627033  1
  Pb  Pb41  1  0.49715655  0.16871258  0.83147489  1
  Pb  Pb42  1  0.50244814  0.16916104  0.16882453  1
  Pb  Pb43  1  0.49903619  0.83167488  0.83323859  1
  Pb  Pb44  1  0.50305301  0.83077763  0.16685340  1
  Pb  Pb45  1  0.83599549  0.16408592  0.83604386  1
  Pb  Pb46  1  0.16781876  0.50050234  0.83284988  1
  Pb  Pb47  1  0.49942484  0.83641004  0.49992863  1
  Pb  Pb48  1  0.83353780  0.50038948  0.16834191  1
  Pb  Pb49  1  0.83101441  0.50245501  0.82972835  1
  Pb  Pb50  1  0.83420362  0.16606506  0.49907595  1
  Pb  Pb51  1  0.16510133  0.83102026  0.16660410  1
  Pb  Pb52  1  0.49986999  0.49837780  0.49996438  1
  Pb  Pb53  1  0.16486434  0.16895300  0.16654351  1
  I  I54  1  0.16615857  -0.00012152  0.16897018  1
  I  I55  1  0.16536417  -0.00039301  0.50551530  1
  I  I56  1  0.16197045  -0.00077946  0.82358291  1
  I  I57  1  0.16704612  0.33679626  0.17113351  1
  I  I58  1  0.16678673  0.33357730  0.50015876  1
  I  I59  1  0.16947949  0.33150712  0.82968274  1
  I  I60  1  0.16769962  0.66309875  0.17087293  1
  I  I61  1  0.16146821  0.66673212  0.50031594  1
  I  I62  1  0.16372034  0.66953240  0.83035479  1
  I  I63  1  0.49925966  0.00029257  0.16750441  1
  I  I64  1  0.49701970  0.00404934  0.50087223  1
  I  I65  1  0.50251382  0.00021322  0.83147221  1
  I  I66  1  0.49843810  0.33689910  0.16414070  1
  I  I67  1  0.49632876  0.33083632  0.49982662  1
  I  I68  1  0.49847679  0.33648156  0.83672437  1
  I  I69  1  0.49749165  0.66272946  0.16519715  1
  I  I70  1  0.49914792  0.66662850  0.49965499  1
  I  I71  1  0.49798295  0.66369483  0.83574002  1
  I  I72  1  0.83538907  -0.00121604  0.17126492  1
  I  I73  1  0.83618769  -0.00326207  0.50054146  1
  I  I74  1  0.83407521  -0.00404457  0.82591965  1
  I  I75  1  0.83347005  0.33196398  0.17097243  1
  I  I76  1  0.83533437  0.33535967  0.49549943  1
  I  I77  1  0.83375223  0.33338429  0.83448980  1
  I  I78  1  0.83349213  0.66936302  0.16600902  1
  I  I79  1  0.83971042  0.66753681  0.49713440  1
  I  I80  1  0.84113987  0.67037023  0.83921037  1
  I  I81  1  0.16354624  0.16351218  -0.00250629  1
  I  I82  1  0.16869639  0.16482496  0.33652906  1
  I  I83  1  0.16953364  0.16903683  0.66508313  1
  I  I84  1  0.16894053  0.49955284  0.00199829  1
  I  I85  1  0.16859895  0.49973346  0.33491299  1
  I  I86  1  0.16506095  0.49969346  0.66349100  1
  I  I87  1  0.16157593  0.83514120  -0.00274543  1
  I  I88  1  0.16205004  0.83537375  0.33656504  1
  I  I89  1  0.15872894  0.83169582  0.66556685  1
  I  I90  1  0.49982694  0.16658050  0.00005625  1
  I  I91  1  0.49267592  0.16933199  0.33644022  1
  I  I92  1  0.50072444  0.17047923  0.66360351  1
  I  I93  1  0.49384009  0.50032976  0.00086073  1
  I  I94  1  0.49941083  0.49818330  0.33147128  1
  I  I95  1  0.49967293  0.49936419  0.66822956  1
  I  I96  1  0.49953499  0.83470321  0.00005282  1
  I  I97  1  0.50030767  0.83026093  0.33349846  1
  I  I98  1  0.50552692  0.82892367  0.66645780  1
  I  I99  1  0.83467660  0.16379128  0.00358178  1
  I  I100  1  0.83493429  0.16215504  0.33139263  1
  I  I101  1  0.83058215  0.16763198  0.66680811  1
  I  I102  1  0.83508387  0.50071116  -0.00016978  1
  I  I103  1  0.83245446  0.50493087  0.33622258  1
  I  I104  1  0.83914839  0.50327716  0.66196626  1
  I  I105  1  0.83815675  0.83686195  -0.00024122  1
  I  I106  1  0.83712327  0.83295692  0.33437646  1
  I  I107  1  0.83782396  0.82761894  0.66576809  1
  I  I108  1  -0.00267858  0.16494147  0.17065964  1
  I  I109  1  0.00332365  0.16755029  0.50206461  1
  I  I110  1  0.00370928  0.16786454  0.82479320  1
  I  I111  1  0.00226494  0.49963934  0.16992767  1
  I  I112  1  0.00143004  0.49857772  0.49359133  1
  I  I113  1  0.00000004  0.49804553  0.83660038  1
  I  I114  1  -0.00312440  0.83374914  0.16788638  1
  I  I115  1  0.00023529  0.83391312  0.50033489  1
  I  I116  1  0.00037745  0.83559257  0.83174487  1
  I  I117  1  0.33314155  0.16676680  0.16560518  1
  I  I118  1  0.33099846  0.16920558  0.50358316  1
  I  I119  1  0.32919723  0.16025451  0.83196328  1
  I  I120  1  0.33261035  0.49939178  0.16962975  1
  I  I121  1  0.33020291  0.50209453  0.49936084  1
  I  I122  1  0.33550000  0.50160871  0.83250024  1
  I  I123  1  0.33312732  0.83346343  0.16680898  1
  I  I124  1  0.32933842  0.82874329  0.50609897  1
  I  I125  1  0.32946436  0.83445052  0.82616848  1
  I  I126  1  0.67015808  0.16398098  0.16996236  1
  I  I127  1  0.66537039  0.16947145  0.49670543  1
  I  I128  1  0.66669025  0.16652543  0.83189011  1
  I  I129  1  0.66478681  0.50022503  0.16528445  1
  I  I130  1  0.66903858  0.50344116  0.49894775  1
  I  I131  1  0.66359481  0.50113324  0.83940156  1
  I  I132  1  0.67155616  0.83502886  0.16784486  1
  I  I133  1  0.67007349  0.82859952  0.49951275  1
  I  I134  1  0.66970273  0.83021646  0.83246663  1
