# generated using pymatgen
data_Cs27Sn14Pb13I81
_symmetry_space_group_name_H-M   'P 1'
_cell_length_a   18.96347727
_cell_length_b   18.96058742
_cell_length_c   18.95966176
_cell_angle_alpha   89.99855797
_cell_angle_beta   90.00164418
_cell_angle_gamma   90.00080737
_symmetry_Int_Tables_number   1
_chemical_formula_structural   Cs27Sn14Pb13I81
_chemical_formula_sum   'Cs27 Sn14 Pb13 I81'
_cell_volume   6817.11073588
_cell_formula_units_Z   1
loop_
 _symmetry_equiv_pos_site_id
 _symmetry_equiv_pos_as_xyz
  1  'x, y, z'
loop_
 _atom_site_type_symbol
 _atom_site_label
 _atom_site_symmetry_multiplicity
 _atom_site_fract_x
 _atom_site_fract_y
 _atom_site_fract_z
 _atom_site_occupancy
  Cs  Cs0  1  -0.00222265  -0.00063765  -0.00212625  1
  Cs  Cs1  1  0.00136405  0.00226355  0.33365379  1
  Cs  Cs2  1  -0.00008227  -0.00078527  0.66881040  1
  Cs  Cs3  1  0.00034337  0.33279283  0.00264553  1
  Cs  Cs4  1  -0.00217382  0.33404764  0.33317665  1
  Cs  Cs5  1  0.00014372  0.33548230  0.66479601  1
  Cs  Cs6  1  0.00052644  0.66863516  0.00106802  1
  Cs  Cs7  1  0.00136000  0.66373450  0.33685956  1
  Cs  Cs8  1  0.00036064  0.66591229  0.66565800  1
  Cs  Cs9  1  0.33169478  0.00209265  -0.00114710  1
  Cs  Cs10  1  0.33552131  0.00053504  0.33354542  1
  Cs  Cs11  1  0.33288326  0.00013355  0.66732974  1
  Cs  Cs12  1  0.33443001  0.33166150  -0.00098599  1
  Cs  Cs13  1  0.33133703  0.33064165  0.33191788  1
  Cs  Cs14  1  0.33331108  0.33308788  0.66839400  1
  Cs  Cs15  1  0.33363454  0.66494391  -0.00088851  1
  Cs  Cs16  1  0.33365184  0.66853827  0.33178941  1
  Cs  Cs17  1  0.33246269  0.66691125  0.66749812  1
  Cs  Cs18  1  0.67357229  -0.00044343  0.00009925  1
  Cs  Cs19  1  0.66202450  -0.00077092  0.33187996  1
  Cs  Cs20  1  0.66665837  0.00173528  0.66698139  1
  Cs  Cs21  1  0.66339186  0.33291830  0.00217425  1
  Cs  Cs22  1  0.67252411  0.33117012  0.33407905  1
  Cs  Cs23  1  0.66823193  0.33644138  0.66564967  1
  Cs  Cs24  1  0.66459308  0.66816595  0.00759499  1
  Cs  Cs25  1  0.66509636  0.67006942  0.33033987  1
  Cs  Cs26  1  0.66899063  0.66340543  0.66574563  1
  Sn  Sn27  1  0.16709898  0.16671694  0.83393201  1
  Sn  Sn28  1  0.16607233  0.83270468  0.49996576  1
  Sn  Sn29  1  0.83336709  0.50125787  0.50090120  1
  Sn  Sn30  1  0.83413971  0.50028350  0.83351630  1
  Sn  Sn31  1  0.49954659  0.49994191  0.49970674  1
  Sn  Sn32  1  0.16673334  0.83414031  0.16661566  1
  Sn  Sn33  1  0.16732032  0.16565630  0.16570110  1
  Sn  Sn34  1  0.16731787  0.83324707  0.83328295  1
  Sn  Sn35  1  0.49967491  0.83391302  0.83306909  1
  Sn  Sn36  1  0.16574665  0.50003495  0.83272550  1
  Sn  Sn37  1  0.49913527  0.16661668  0.16574352  1
  Sn  Sn38  1  0.49942696  0.16561558  0.83394999  1
  Sn  Sn39  1  0.16712653  0.50067134  0.50079344  1
  Sn  Sn40  1  0.83395226  0.83295730  0.50033770  1
  Pb  Pb41  1  0.83341001  0.50025288  0.16671033  1
  Pb  Pb42  1  0.83376875  0.16639426  0.16640946  1
  Pb  Pb43  1  0.83629616  0.83332272  0.16986327  1
  Pb  Pb44  1  0.49977002  0.49725860  0.16982886  1
  Pb  Pb45  1  0.83339384  0.16935366  0.83326909  1
  Pb  Pb46  1  0.83334720  0.83102500  0.83164237  1
  Pb  Pb47  1  0.83342429  0.16621259  0.50025817  1
  Pb  Pb48  1  0.49965020  0.83158655  0.50212597  1
  Pb  Pb49  1  0.16658418  0.16640093  0.50027992  1
  Pb  Pb50  1  0.49989745  0.49996684  0.83225049  1
  Pb  Pb51  1  0.49989897  0.16892450  0.50055281  1
  Pb  Pb52  1  0.16676406  0.49980757  0.16641777  1
  Pb  Pb53  1  0.49756903  0.83551857  0.16380362  1
  I  I54  1  0.16999123  0.00000446  0.16473792  1
  I  I55  1  0.16238970  -0.00347515  0.50231527  1
  I  I56  1  0.17110160  -0.00040537  0.83293397  1
  I  I57  1  0.17041472  0.33022073  0.16382103  1
  I  I58  1  0.16547490  0.33663245  0.50290450  1
  I  I59  1  0.16731577  0.33343479  0.83277803  1
  I  I60  1  0.16550972  0.66960145  0.16497154  1
  I  I61  1  0.16576706  0.66653590  0.50274286  1
  I  I62  1  0.16736522  0.66705245  0.83233947  1
  I  I63  1  0.49703055  0.00355671  0.16756772  1
  I  I64  1  0.50034386  -0.00016352  0.49883585  1
  I  I65  1  0.49146649  0.00039811  0.83459756  1
  I  I66  1  0.49222209  0.32930591  0.15901508  1
  I  I67  1  0.49963231  0.33717234  0.50243889  1
  I  I68  1  0.49646784  0.33070118  0.83537418  1
  I  I69  1  0.49949891  0.66699635  0.16560465  1
  I  I70  1  0.49929571  0.66353069  0.50368637  1
  I  I71  1  0.49559159  0.66892545  0.82978578  1
  I  I72  1  0.83230680  -0.00022210  0.16863251  1
  I  I73  1  0.83963519  -0.00361934  0.50001120  1
  I  I74  1  0.83525056  -0.00029639  0.83132988  1
  I  I75  1  0.83573836  0.33330153  0.16983463  1
  I  I76  1  0.83438888  0.33720839  0.50311972  1
  I  I77  1  0.83718723  0.33740265  0.82561182  1
  I  I78  1  0.83420531  0.66689716  0.16429925  1
  I  I79  1  0.83562124  0.66555859  0.50444539  1
  I  I80  1  0.83764762  0.66302952  0.82926410  1
  I  I81  1  0.17028932  0.16489334  -0.00109323  1
  I  I82  1  0.17075621  0.16409017  0.33049154  1
  I  I83  1  0.17105682  0.16538033  0.67016265  1
  I  I84  1  0.16294381  0.50212915  -0.00362450  1
  I  I85  1  0.16532775  0.50241384  0.33674862  1
  I  I86  1  0.16599486  0.50198141  0.66683418  1
  I  I87  1  0.17123480  0.83309587  -0.00121257  1
  I  I88  1  0.16204330  0.83280237  0.33416381  1
  I  I89  1  0.16669249  0.83267199  0.66715323  1
  I  I90  1  0.49426189  0.16491401  -0.00120872  1
  I  I91  1  0.49513489  0.16917336  0.33052043  1
  I  I92  1  0.49454799  0.16429703  0.67027541  1
  I  I93  1  0.50010526  0.50140989  -0.00012105  1
  I  I94  1  0.49940362  0.50011785  0.33801740  1
  I  I95  1  0.49960474  0.49806291  0.66422503  1
  I  I96  1  0.49493690  0.83189293  -0.00429529  1
  I  I97  1  0.49974884  0.83379871  0.33333150  1
  I  I98  1  0.49327133  0.83911148  0.67005640  1
  I  I99  1  0.83387818  0.16901890  -0.00037606  1
  I  I100  1  0.83380620  0.17007234  0.33332524  1
  I  I101  1  0.83307058  0.16598841  0.66698905  1
  I  I102  1  0.83918169  0.49858761  -0.00333327  1
  I  I103  1  0.83515192  0.50239440  0.33743303  1
  I  I104  1  0.83465247  0.50263512  0.66569125  1
  I  I105  1  0.83368238  0.83181625  -0.00016326  1
  I  I106  1  0.83731372  0.82580737  0.33806435  1
  I  I107  1  0.83945805  0.83046175  0.66353797  1
  I  I108  1  0.00397756  0.16373004  0.16281729  1
  I  I109  1  0.00044102  0.17095115  0.49916029  1
  I  I110  1  0.00376170  0.16400483  0.83677118  1
  I  I111  1  0.00046297  0.49690501  0.17034870  1
  I  I112  1  0.00080488  0.50400056  0.50420432  1
  I  I113  1  0.00199203  0.49970590  0.82556093  1
  I  I114  1  0.00482419  0.83914593  0.16081295  1
  I  I115  1  0.00187982  0.82571304  0.50132557  1
  I  I116  1  0.00359349  0.83589455  0.83467186  1
  I  I117  1  0.33205814  0.16388169  0.16264337  1
  I  I118  1  0.33306553  0.16842666  0.49971342  1
  I  I119  1  0.33198276  0.16847354  0.83674107  1
  I  I120  1  0.33299506  0.50171780  0.16767718  1
  I  I121  1  0.33164898  0.50301708  0.50461000  1
  I  I122  1  0.33010695  0.50002790  0.82866229  1
  I  I123  1  0.32922014  0.83430528  0.17242101  1
  I  I124  1  0.32986969  0.82889346  0.49923957  1
  I  I125  1  0.33110137  0.83190122  0.83088390  1
  I  I126  1  0.66341426  0.16892911  0.16266411  1
  I  I127  1  0.66648413  0.16762749  0.49965810  1
  I  I128  1  0.66328092  0.16335505  0.83700019  1
  I  I129  1  0.66651114  0.49742535  0.16559289  1
  I  I130  1  0.66781665  0.50194710  0.50511671  1
  I  I131  1  0.66873511  0.49925290  0.82700901  1
  I  I132  1  0.66640522  0.83468066  0.16687715  1
  I  I133  1  0.66890680  0.82835887  0.50279143  1
  I  I134  1  0.66418688  0.83695940  0.83024138  1
