# generated using pymatgen
data_Cs27Sn13Pb14I81
_symmetry_space_group_name_H-M   'P 1'
_cell_length_a   18.99557974
_cell_length_b   19.00040440
_cell_length_c   18.98144167
_cell_angle_alpha   89.99964195
_cell_angle_beta   90.00125063
_cell_angle_gamma   90.00025878
_symmetry_Int_Tables_number   1
_chemical_formula_structural   Cs27Sn13Pb14I81
_chemical_formula_sum   'Cs27 Sn13 Pb14 I81'
_cell_volume   6850.85209750
_cell_formula_units_Z   1
loop_
 _symmetry_equiv_pos_site_id
 _symmetry_equiv_pos_as_xyz
  1  'x, y, z'
loop_
 _atom_site_type_symbol
 _atom_site_label
 _atom_site_symmetry_multiplicity
 _atom_site_fract_x
 _atom_site_fract_y
 _atom_site_fract_z
 _atom_site_occupancy
  Cs  Cs0  1  0.00324765  -0.00181138  -0.00010574  1
  Cs  Cs1  1  0.00826085  0.00352999  0.34005904  1
  Cs  Cs2  1  -0.00606825  0.00226646  0.66189142  1
  Cs  Cs3  1  0.00412095  0.33726717  -0.00047144  1
  Cs  Cs4  1  0.00066076  0.33248084  0.33469643  1
  Cs  Cs5  1  -0.00279305  0.33187518  0.66528007  1
  Cs  Cs6  1  0.00218488  0.66563564  -0.00179643  1
  Cs  Cs7  1  0.00168751  0.66475971  0.33218418  1
  Cs  Cs8  1  -0.00534537  0.66605082  0.67005058  1
  Cs  Cs9  1  0.33225001  -0.00107678  -0.00183929  1
  Cs  Cs10  1  0.32908582  -0.00020452  0.33630395  1
  Cs  Cs11  1  0.33226004  -0.00197919  0.66923404  1
  Cs  Cs12  1  0.33195345  0.33413020  -0.00411703  1
  Cs  Cs13  1  0.33485830  0.33347013  0.33360481  1
  Cs  Cs14  1  0.33601879  0.33498941  0.66884193  1
  Cs  Cs15  1  0.33012774  0.66856047  -0.00179746  1
  Cs  Cs16  1  0.33450345  0.66731447  0.33508237  1
  Cs  Cs17  1  0.33367358  0.66741341  0.66605746  1
  Cs  Cs18  1  0.66564184  0.00081382  0.00124010  1
  Cs  Cs19  1  0.66542645  0.00076762  0.33074467  1
  Cs  Cs20  1  0.67614055  -0.00035848  0.66595733  1
  Cs  Cs21  1  0.66467335  0.33068620  -0.00048088  1
  Cs  Cs22  1  0.66526807  0.33491284  0.33176587  1
  Cs  Cs23  1  0.66520888  0.33112062  0.67268573  1
  Cs  Cs24  1  0.66734722  0.66840478  0.00297404  1
  Cs  Cs25  1  0.66510460  0.66430705  0.33228038  1
  Cs  Cs26  1  0.67039076  0.66900857  0.66626744  1
  Sn  Sn27  1  0.16692803  0.50012930  0.49991676  1
  Sn  Sn28  1  0.50024050  0.16670658  0.16730774  1
  Sn  Sn29  1  0.16713703  0.83435944  0.83303375  1
  Sn  Sn30  1  0.83250732  0.49973600  0.49905050  1
  Sn  Sn31  1  0.83301915  0.83363847  0.16713375  1
  Sn  Sn32  1  0.50013514  0.16704174  0.49966761  1
  Sn  Sn33  1  0.49984335  0.83339898  0.83379889  1
  Sn  Sn34  1  0.83320588  0.16665382  0.16673235  1
  Sn  Sn35  1  0.83243642  0.49978013  0.16731797  1
  Sn  Sn36  1  0.50032365  0.49991072  0.16692101  1
  Sn  Sn37  1  0.50031514  0.83338377  0.16604942  1
  Sn  Sn38  1  0.16670103  0.16596751  0.83317400  1
  Sn  Sn39  1  0.50049624  0.49903148  0.49944920  1
  Pb  Pb40  1  0.16726418  0.16675167  0.16513017  1
  Pb  Pb41  1  0.83587087  0.16669531  0.83644534  1
  Pb  Pb42  1  0.16709933  0.49995244  0.16872771  1
  Pb  Pb43  1  0.49899744  0.16419049  0.83334425  1
  Pb  Pb44  1  0.83061314  0.16908524  0.49732804  1
  Pb  Pb45  1  0.83311918  0.83345795  0.83589703  1
  Pb  Pb46  1  0.16677624  0.50026989  0.83054069  1
  Pb  Pb47  1  0.16937816  0.16880128  0.50234103  1
  Pb  Pb48  1  0.83318909  0.83112544  0.49624359  1
  Pb  Pb49  1  0.16651851  0.83106327  0.50305075  1
  Pb  Pb50  1  0.83287285  0.49975128  0.83424994  1
  Pb  Pb51  1  0.16692104  0.83330360  0.16527297  1
  Pb  Pb52  1  0.50019048  0.50264710  0.83361155  1
  Pb  Pb53  1  0.50014728  0.83351353  0.49958331  1
  I  I54  1  0.16590995  0.00002846  0.16824636  1
  I  I55  1  0.16851178  0.00031760  0.49846079  1
  I  I56  1  0.17296933  -0.00081239  0.83586809  1
  I  I57  1  0.16623451  0.33338065  0.16178508  1
  I  I58  1  0.16446676  0.33663494  0.50200526  1
  I  I59  1  0.16678290  0.33100004  0.83376229  1
  I  I60  1  0.16637620  0.66656068  0.16384663  1
  I  I61  1  0.17072378  0.66282421  0.50018878  1
  I  I62  1  0.17085156  0.66955216  0.83317832  1
  I  I63  1  0.50649444  0.00012989  0.16597531  1
  I  I64  1  0.49820057  0.00284649  0.49574524  1
  I  I65  1  0.49691255  -0.00334005  0.83857398  1
  I  I66  1  0.50595179  0.33356786  0.17200608  1
  I  I67  1  0.49927388  0.33453892  0.49174953  1
  I  I68  1  0.49709865  0.33317378  0.83554697  1
  I  I69  1  0.50560121  0.66629598  0.16683110  1
  I  I70  1  0.49970269  0.66329662  0.49685905  1
  I  I71  1  0.49309884  0.67031671  0.83778149  1
  I  I72  1  0.82489581  -0.00000945  0.16288424  1
  I  I73  1  0.83243543  0.00042318  0.50012543  1
  I  I74  1  0.83133437  -0.00003473  0.83436704  1
  I  I75  1  0.82705047  0.33392653  0.17053335  1
  I  I76  1  0.83667347  0.33710508  0.49360659  1
  I  I77  1  0.83648463  0.33316912  0.83563632  1
  I  I78  1  0.82662926  0.66614993  0.17002865  1
  I  I79  1  0.82973350  0.66252435  0.49552630  1
  I  I80  1  0.83651469  0.66679227  0.83456175  1
  I  I81  1  0.16860977  0.16334805  -0.00273431  1
  I  I82  1  0.16482694  0.16767671  0.33364212  1
  I  I83  1  0.16940982  0.16227566  0.66994233  1
  I  I84  1  0.16609748  0.50018205  -0.00026702  1
  I  I85  1  0.16710784  0.49928203  0.33658817  1
  I  I86  1  0.16804100  0.50046415  0.66265000  1
  I  I87  1  0.16849763  0.83552243  -0.00281143  1
  I  I88  1  0.16707058  0.83240245  0.33353689  1
  I  I89  1  0.17574498  0.83634965  0.67103111  1
  I  I90  1  0.50288195  0.16961340  0.00350698  1
  I  I91  1  0.50325672  0.16627638  0.33184932  1
  I  I92  1  0.49640165  0.17253483  0.66407191  1
  I  I93  1  0.50545707  0.49682536  0.00381962  1
  I  I94  1  0.50031564  0.50180059  0.33270819  1
  I  I95  1  0.49996741  0.49592161  0.66318200  1
  I  I96  1  0.49978285  0.83304041  0.00175308  1
  I  I97  1  0.50530313  0.83217415  0.32970313  1
  I  I98  1  0.49326594  0.83212494  0.66921147  1
  I  I99  1  0.82485429  0.16985463  0.00478168  1
  I  I100  1  0.83249954  0.16418935  0.32915408  1
  I  I101  1  0.83247533  0.16834205  0.66631194  1
  I  I102  1  0.82833095  0.50061069  0.00457683  1
  I  I103  1  0.83237269  0.50095272  0.33223612  1
  I  I104  1  0.83325949  0.50058258  0.66323890  1
  I  I105  1  0.83158892  0.82913826  0.00411951  1
  I  I106  1  0.82416369  0.83445205  0.32829517  1
  I  I107  1  0.83318055  0.83087489  0.66660699  1
  I  I108  1  -0.00305880  0.16764994  0.16350594  1
  I  I109  1  -0.00015626  0.16840371  0.49976962  1
  I  I110  1  0.00364448  0.15994888  0.83402878  1
  I  I111  1  -0.00339145  0.50046976  0.16995732  1
  I  I112  1  -0.00083647  0.50225141  0.49596165  1
  I  I113  1  0.00006730  0.50279764  0.83431040  1
  I  I114  1  -0.00321941  0.83099867  0.16493945  1
  I  I115  1  -0.00015226  0.83118458  0.49983765  1
  I  I116  1  0.00276388  0.83570542  0.83473872  1
  I  I117  1  0.33729613  0.16691095  0.16937010  1
  I  I118  1  0.33704194  0.17306298  0.49209476  1
  I  I119  1  0.33117624  0.16470966  0.83559767  1
  I  I120  1  0.33713528  0.50009042  0.17050075  1
  I  I121  1  0.33493174  0.49655982  0.49657366  1
  I  I122  1  0.33349266  0.49892104  0.83371225  1
  I  I123  1  0.33700732  0.83267048  0.16459864  1
  I  I124  1  0.33358919  0.82966229  0.49519913  1
  I  I125  1  0.33405810  0.83602810  0.84025526  1
  I  I126  1  0.66553683  0.16690860  0.16962876  1
  I  I127  1  0.66278833  0.17163880  0.49985537  1
  I  I128  1  0.66655899  0.16591709  0.83116164  1
  I  I129  1  0.66603811  0.50112973  0.17424969  1
  I  I130  1  0.66592105  0.49728686  0.49379142  1
  I  I131  1  0.66637376  0.50161403  0.82796217  1
  I  I132  1  0.66537677  0.83242969  0.16050230  1
  I  I133  1  0.66645421  0.83157689  0.50783157  1
  I  I134  1  0.66374995  0.83162019  0.83576765  1
