# generated using pymatgen
data_Cs27Sn14Pb13I81
_symmetry_space_group_name_H-M   'P 1'
_cell_length_a   18.97454200
_cell_length_b   18.98504694
_cell_length_c   18.96651481
_cell_angle_alpha   89.99933495
_cell_angle_beta   89.99930720
_cell_angle_gamma   90.00029229
_symmetry_Int_Tables_number   1
_chemical_formula_structural   Cs27Sn14Pb13I81
_chemical_formula_sum   'Cs27 Sn14 Pb13 I81'
_cell_volume   6832.35638218
_cell_formula_units_Z   1
loop_
 _symmetry_equiv_pos_site_id
 _symmetry_equiv_pos_as_xyz
  1  'x, y, z'
loop_
 _atom_site_type_symbol
 _atom_site_label
 _atom_site_symmetry_multiplicity
 _atom_site_fract_x
 _atom_site_fract_y
 _atom_site_fract_z
 _atom_site_occupancy
  Cs  Cs0  1  -0.00147623  0.00133045  -0.00140439  1
  Cs  Cs1  1  0.00054124  -0.00393183  0.33251134  1
  Cs  Cs2  1  0.00100945  0.00253206  0.66878765  1
  Cs  Cs3  1  -0.00182977  0.33271596  -0.00247189  1
  Cs  Cs4  1  0.00022801  0.33650136  0.33200907  1
  Cs  Cs5  1  0.00117021  0.33089690  0.66993004  1
  Cs  Cs6  1  -0.00123905  0.66651793  0.00262658  1
  Cs  Cs7  1  -0.00517978  0.66819297  0.32595723  1
  Cs  Cs8  1  0.00299929  0.66662782  0.66846929  1
  Cs  Cs9  1  0.33646471  0.00180198  0.00149294  1
  Cs  Cs10  1  0.33226425  0.00297257  0.33153044  1
  Cs  Cs11  1  0.33130720  -0.00471356  0.66589698  1
  Cs  Cs12  1  0.33558948  0.33291340  0.00057901  1
  Cs  Cs13  1  0.33360808  0.33148841  0.33273811  1
  Cs  Cs14  1  0.33069386  0.33553395  0.66616488  1
  Cs  Cs15  1  0.33409503  0.66605300  -0.00067111  1
  Cs  Cs16  1  0.33036889  0.66533430  0.33249942  1
  Cs  Cs17  1  0.33292097  0.66750801  0.66721456  1
  Cs  Cs18  1  0.66202037  0.00150141  0.00069866  1
  Cs  Cs19  1  0.66900290  -0.00006007  0.33797603  1
  Cs  Cs20  1  0.66790433  -0.00294179  0.65757406  1
  Cs  Cs21  1  0.66304143  0.33250598  0.00051526  1
  Cs  Cs22  1  0.66661283  0.33379376  0.33950055  1
  Cs  Cs23  1  0.66953338  0.33327295  0.65996148  1
  Cs  Cs24  1  0.66604740  0.66631247  -0.00219190  1
  Cs  Cs25  1  0.67656647  0.66616471  0.34035241  1
  Cs  Cs26  1  0.66586929  0.66871822  0.66449282  1
  Sn  Sn27  1  0.50005851  0.16728493  0.83283988  1
  Sn  Sn28  1  0.50022212  0.83276343  0.16717590  1
  Sn  Sn29  1  0.83294712  0.16682875  0.16634679  1
  Sn  Sn30  1  0.16596590  0.83256372  0.83337912  1
  Sn  Sn31  1  0.16624698  0.16682155  0.16710099  1
  Sn  Sn32  1  0.16679333  0.83285121  0.50025013  1
  Sn  Sn33  1  0.50014201  0.50037546  0.16660443  1
  Sn  Sn34  1  0.50029885  0.49883617  0.83371367  1
  Sn  Sn35  1  0.16672470  0.50038337  0.50025345  1
  Sn  Sn36  1  0.83310073  0.50055882  0.83357511  1
  Sn  Sn37  1  0.16667395  0.50078505  0.83312294  1
  Sn  Sn38  1  0.83380704  0.83308490  0.83376155  1
  Sn  Sn39  1  0.50053332  0.16688387  0.16626215  1
  Sn  Sn40  1  0.16694903  0.16674505  0.49907808  1
  Pb  Pb41  1  0.83060388  0.83531182  0.16410310  1
  Pb  Pb42  1  0.16859699  0.16658159  0.83352111  1
  Pb  Pb43  1  0.49783372  0.16666217  0.50009452  1
  Pb  Pb44  1  0.83026307  0.49795832  0.16429032  1
  Pb  Pb45  1  0.49792067  0.50014886  0.50034618  1
  Pb  Pb46  1  0.83679718  0.49999795  0.50303644  1
  Pb  Pb47  1  0.83016293  0.16645428  0.83466656  1
  Pb  Pb48  1  0.16803704  0.83530020  0.16587493  1
  Pb  Pb49  1  0.83653186  0.83328476  0.50289819  1
  Pb  Pb50  1  0.49745372  0.83306770  0.49656565  1
  Pb  Pb51  1  0.49988580  0.83316672  0.83434518  1
  Pb  Pb52  1  0.83670847  0.16673203  0.49705610  1
  Pb  Pb53  1  0.16825559  0.49795616  0.16593321  1
  I  I54  1  0.17026763  0.00353531  0.16958445  1
  I  I55  1  0.16771253  -0.00012752  0.50031213  1
  I  I56  1  0.16403075  -0.00232289  0.83077606  1
  I  I57  1  0.16992636  0.32978409  0.16978602  1
  I  I58  1  0.16794261  0.33355586  0.50073560  1
  I  I59  1  0.16499268  0.33594471  0.83073339  1
  I  I60  1  0.16987632  0.66654767  0.16943353  1
  I  I61  1  0.16912516  0.66654515  0.50734871  1
  I  I62  1  0.16892971  0.66598558  0.82594919  1
  I  I63  1  0.49844501  0.00163522  0.16133897  1
  I  I64  1  0.49624565  -0.00002601  0.50180765  1
  I  I65  1  0.49814591  0.00217595  0.83970363  1
  I  I66  1  0.49850986  0.33261195  0.16099587  1
  I  I67  1  0.49607310  0.33336339  0.49659037  1
  I  I68  1  0.49792243  0.33431528  0.84231897  1
  I  I69  1  0.49638611  0.66580431  0.15984670  1
  I  I70  1  0.49592967  0.66659629  0.50039916  1
  I  I71  1  0.49887944  0.66369844  0.83837786  1
  I  I72  1  0.83213191  0.00321636  0.16344923  1
  I  I73  1  0.83516237  0.00001424  0.50292462  1
  I  I74  1  0.83864625  -0.00238862  0.83552942  1
  I  I75  1  0.83302448  0.33011149  0.16339742  1
  I  I76  1  0.83564375  0.33336318  0.50249581  1
  I  I77  1  0.83708679  0.33606330  0.83517340  1
  I  I78  1  0.83225589  0.66656182  0.16769537  1
  I  I79  1  0.83434648  0.66662273  0.49577939  1
  I  I80  1  0.83261831  0.66600850  0.83425991  1
  I  I81  1  0.16727259  0.16641395  0.00256840  1
  I  I82  1  0.16979998  0.16655069  0.33291299  1
  I  I83  1  0.16934432  0.16672205  0.66460048  1
  I  I84  1  0.16604017  0.50347264  -0.00353807  1
  I  I85  1  0.17028229  0.50086726  0.33556356  1
  I  I86  1  0.16886485  0.49803561  0.66798750  1
  I  I87  1  0.16481451  0.82935298  -0.00324627  1
  I  I88  1  0.17089149  0.83221563  0.33566609  1
  I  I89  1  0.16416086  0.83557109  0.66746593  1
  I  I90  1  0.49647530  0.16732930  0.00136860  1
  I  I91  1  0.50047990  0.16750154  0.32961279  1
  I  I92  1  0.49779835  0.17216329  0.66966308  1
  I  I93  1  0.49664975  0.49820718  -0.00097042  1
  I  I94  1  0.49621091  0.49694385  0.33025785  1
  I  I95  1  0.50088192  0.49506708  0.67055247  1
  I  I96  1  0.49665830  0.83529473  0.00234248  1
  I  I97  1  0.49710297  0.83658552  0.32845556  1
  I  I98  1  0.50161858  0.83422342  0.66670884  1
  I  I99  1  0.83850834  0.16669999  0.00262940  1
  I  I100  1  0.82597370  0.16650035  0.32899877  1
  I  I101  1  0.83322927  0.16662150  0.66679267  1
  I  I102  1  0.83979223  0.50321209  -0.00385326  1
  I  I103  1  0.83326094  0.49857433  0.33316299  1
  I  I104  1  0.82693949  0.50245645  0.67140233  1
  I  I105  1  0.84147461  0.82930663  -0.00359245  1
  I  I106  1  0.83351047  0.83489382  0.33315571  1
  I  I107  1  0.83214773  0.83060577  0.67098954  1
  I  I108  1  0.00072412  0.16623200  0.17101678  1
  I  I109  1  0.00501461  0.16676679  0.49699355  1
  I  I110  1  0.00007683  0.16875883  0.83496603  1
  I  I111  1  -0.00009506  0.49730709  0.16642426  1
  I  I112  1  0.00507657  0.49867787  0.50459934  1
  I  I113  1  0.00090813  0.50369736  0.82824723  1
  I  I114  1  -0.00006433  0.83603656  0.16851681  1
  I  I115  1  0.00478087  0.83413085  0.49985563  1
  I  I116  1  0.00129133  0.82672679  0.83026705  1
  I  I117  1  0.33419669  0.16641378  0.16706468  1
  I  I118  1  0.32958886  0.16698524  0.49422881  1
  I  I119  1  0.33626801  0.17012723  0.83966243  1
  I  I120  1  0.33635719  0.49704851  0.16110827  1
  I  I121  1  0.32957084  0.49939893  0.50587746  1
  I  I122  1  0.33309954  0.49993213  0.83325294  1
  I  I123  1  0.33598614  0.83680581  0.16379918  1
  I  I124  1  0.32913475  0.83379343  0.50839184  1
  I  I125  1  0.33057643  0.83080652  0.83037228  1
  I  I126  1  0.66503508  0.16642098  0.15878882  1
  I  I127  1  0.66679510  0.16637343  0.49998285  1
  I  I128  1  0.66240215  0.17005604  0.84184399  1
  I  I129  1  0.66210585  0.49767777  0.15983936  1
  I  I130  1  0.66691334  0.49913897  0.49982687  1
  I  I131  1  0.66586977  0.49998704  0.84077327  1
  I  I132  1  0.66267644  0.83601373  0.16201307  1
  I  I133  1  0.66696491  0.83441869  0.50080530  1
  I  I134  1  0.66865614  0.83075093  0.83814631  1
