# generated using pymatgen
data_Cs27Sn14Pb13I81
_symmetry_space_group_name_H-M   'P 1'
_cell_length_a   18.98415405
_cell_length_b   18.97174900
_cell_length_c   18.97419472
_cell_angle_alpha   90.00069435
_cell_angle_beta   89.99928347
_cell_angle_gamma   89.99911411
_symmetry_Int_Tables_number   1
_chemical_formula_structural   Cs27Sn14Pb13I81
_chemical_formula_sum   'Cs27 Sn14 Pb13 I81'
_cell_volume   6833.79540724
_cell_formula_units_Z   1
loop_
 _symmetry_equiv_pos_site_id
 _symmetry_equiv_pos_as_xyz
  1  'x, y, z'
loop_
 _atom_site_type_symbol
 _atom_site_label
 _atom_site_symmetry_multiplicity
 _atom_site_fract_x
 _atom_site_fract_y
 _atom_site_fract_z
 _atom_site_occupancy
  Cs  Cs0  1  0.00106113  0.00122114  -0.00123433  1
  Cs  Cs1  1  -0.00105583  0.00112614  0.33422891  1
  Cs  Cs2  1  -0.00035486  -0.00104905  0.66680038  1
  Cs  Cs3  1  -0.00163858  0.33400247  0.00071793  1
  Cs  Cs4  1  -0.00075404  0.33292476  0.33471838  1
  Cs  Cs5  1  0.00295511  0.33150122  0.66472474  1
  Cs  Cs6  1  0.00032747  0.66562476  0.00032854  1
  Cs  Cs7  1  0.00412780  0.66663828  0.33124289  1
  Cs  Cs8  1  -0.00267697  0.67294469  0.66838392  1
  Cs  Cs9  1  0.33362675  0.00072294  -0.00070530  1
  Cs  Cs10  1  0.33506135  0.00092129  0.33252297  1
  Cs  Cs11  1  0.33422933  -0.00303219  0.66905191  1
  Cs  Cs12  1  0.33396831  0.33178562  -0.00297791  1
  Cs  Cs13  1  0.33385596  0.33373320  0.33537415  1
  Cs  Cs14  1  0.33068815  0.33235654  0.66481290  1
  Cs  Cs15  1  0.33006372  0.66904168  0.00284860  1
  Cs  Cs16  1  0.33415225  0.66656758  0.33138950  1
  Cs  Cs17  1  0.33395066  0.67138023  0.66751834  1
  Cs  Cs18  1  0.66461123  0.00098345  0.00486538  1
  Cs  Cs19  1  0.66599522  -0.00082800  0.33082351  1
  Cs  Cs20  1  0.66705598  -0.00553528  0.66842862  1
  Cs  Cs21  1  0.66898560  0.33622742  -0.00268305  1
  Cs  Cs22  1  0.66706149  0.33253554  0.33414446  1
  Cs  Cs23  1  0.66656871  0.33378381  0.66585974  1
  Cs  Cs24  1  0.66947471  0.66459254  -0.00624665  1
  Cs  Cs25  1  0.66314691  0.66913064  0.33446478  1
  Cs  Cs26  1  0.66993100  0.67235062  0.67416417  1
  Sn  Sn27  1  0.83311530  0.49967441  0.49982650  1
  Sn  Sn28  1  0.83296553  0.16725961  0.50096012  1
  Sn  Sn29  1  0.50096698  0.83311838  0.16693269  1
  Sn  Sn30  1  0.50009730  0.16728771  0.49945722  1
  Sn  Sn31  1  0.49935945  0.16766785  0.16738272  1
  Sn  Sn32  1  0.16574744  0.16758124  0.83292643  1
  Sn  Sn33  1  0.16692255  0.49904757  0.83219308  1
  Sn  Sn34  1  0.50031430  0.49934603  0.49972028  1
  Sn  Sn35  1  0.16735867  0.16714299  0.16698757  1
  Sn  Sn36  1  0.83372471  0.16701445  0.83238696  1
  Sn  Sn37  1  0.16671838  0.49951216  0.50103232  1
  Sn  Sn38  1  0.83298334  0.83308240  0.16704881  1
  Sn  Sn39  1  0.16692114  0.16695084  0.50009090  1
  Sn  Sn40  1  0.50013325  0.49936059  0.16700748  1
  Pb  Pb41  1  0.49996279  0.83322882  0.49831720  1
  Pb  Pb42  1  0.83353392  0.83650707  0.83623811  1
  Pb  Pb43  1  0.16654411  0.83343970  0.83328256  1
  Pb  Pb44  1  0.83595262  0.49764691  0.83052922  1
  Pb  Pb45  1  0.83329157  0.83342936  0.49800769  1
  Pb  Pb46  1  0.83080532  0.50219660  0.16917245  1
  Pb  Pb47  1  0.83303107  0.16590627  0.16699232  1
  Pb  Pb48  1  0.16686585  0.83615461  0.16688657  1
  Pb  Pb49  1  0.49746545  0.49970162  0.83228566  1
  Pb  Pb50  1  0.49995726  0.16686378  0.83265559  1
  Pb  Pb51  1  0.49994900  0.83322538  0.83675336  1
  Pb  Pb52  1  0.16860506  0.49747002  0.16705099  1
  Pb  Pb53  1  0.16671956  0.83313953  0.49989675  1
  I  I54  1  0.17199083  0.00469142  0.16692037  1
  I  I55  1  0.16655693  0.00440661  0.50010786  1
  I  I56  1  0.16344471  0.00410231  0.83325727  1
  I  I57  1  0.17090652  0.32920286  0.16707485  1
  I  I58  1  0.16721623  0.33224804  0.50028865  1
  I  I59  1  0.16378518  0.33173397  0.83208192  1
  I  I60  1  0.16785049  0.66636262  0.16619196  1
  I  I61  1  0.16681379  0.66256369  0.50423514  1
  I  I62  1  0.16864520  0.66321453  0.82824261  1
  I  I63  1  0.50011421  0.00128149  0.17030886  1
  I  I64  1  0.49948525  0.00371933  0.49612544  1
  I  I65  1  0.49740954  0.00045503  0.83270890  1
  I  I66  1  0.49447361  0.33240177  0.17156049  1
  I  I67  1  0.49949350  0.33264193  0.49136308  1
  I  I68  1  0.50253511  0.33312014  0.84117459  1
  I  I69  1  0.50376148  0.66612288  0.17184204  1
  I  I70  1  0.49851520  0.66299640  0.49517524  1
  I  I71  1  0.49784141  0.66631369  0.83236786  1
  I  I72  1  0.82728169  -0.00173186  0.16812434  1
  I  I73  1  0.83402490  0.00383869  0.50225295  1
  I  I74  1  0.84037771  0.00443361  0.82579390  1
  I  I75  1  0.83289735  0.33339859  0.16457131  1
  I  I76  1  0.83344739  0.33209270  0.50208561  1
  I  I77  1  0.83463887  0.32964601  0.83467092  1
  I  I78  1  0.82829104  0.66994986  0.16899546  1
  I  I79  1  0.83376449  0.66337179  0.49680969  1
  I  I80  1  0.83457765  0.66650813  0.83263535  1
  I  I81  1  0.16662615  0.16932822  -0.00023146  1
  I  I82  1  0.16683665  0.16937136  0.33433791  1
  I  I83  1  0.16623203  0.17078233  0.66578324  1
  I  I84  1  0.16894517  0.49517993  -0.00210487  1
  I  I85  1  0.16502163  0.49601685  0.33672662  1
  I  I86  1  0.16904138  0.49033901  0.66513904  1
  I  I87  1  0.16790300  0.83353969  0.00025332  1
  I  I88  1  0.16610730  0.83317321  0.33307222  1
  I  I89  1  0.16636001  0.83787395  0.66665576  1
  I  I90  1  0.49672495  0.16527962  0.00320592  1
  I  I91  1  0.49709537  0.16636972  0.33337493  1
  I  I92  1  0.49765690  0.17310983  0.66287547  1
  I  I93  1  0.49803154  0.49981890  0.00297918  1
  I  I94  1  0.49736904  0.49936913  0.33409883  1
  I  I95  1  0.50100548  0.49224572  0.66254646  1
  I  I96  1  0.50338612  0.83546962  0.00532063  1
  I  I97  1  0.50358735  0.83470891  0.33002218  1
  I  I98  1  0.49928753  0.83396648  0.66657581  1
  I  I99  1  0.83731085  0.16306616  -0.00191937  1
  I  I100  1  0.83595818  0.16859483  0.33645188  1
  I  I101  1  0.83668675  0.17038366  0.66520227  1
  I  I102  1  0.83314684  0.49990159  -0.00015679  1
  I  I103  1  0.83910660  0.49186220  0.33730798  1
  I  I104  1  0.82671590  0.49873909  0.66230184  1
  I  I105  1  0.82729727  0.83528988  0.00383072  1
  I  I106  1  0.82828077  0.83743458  0.33044029  1
  I  I107  1  0.83402060  0.83181324  0.66675097  1
  I  I108  1  0.00242476  0.16382165  0.16885708  1
  I  I109  1  0.00046860  0.17152897  0.49929054  1
  I  I110  1  0.00113721  0.16963552  0.83133391  1
  I  I111  1  0.00012129  0.50142227  0.16735338  1
  I  I112  1  0.00049516  0.49283135  0.50381034  1
  I  I113  1  0.00388764  0.49708122  0.82977497  1
  I  I114  1  -0.00239120  0.83639397  0.16707815  1
  I  I115  1  -0.00009509  0.83391986  0.49538171  1
  I  I116  1  -0.00009228  0.83198682  0.83748866  1
  I  I117  1  0.33413535  0.16432312  0.16930993  1
  I  I118  1  0.33316812  0.17184294  0.49836768  1
  I  I119  1  0.33008695  0.17003675  0.83227222  1
  I  I120  1  0.33670234  0.50454211  0.17188861  1
  I  I121  1  0.33337102  0.49344081  0.49916393  1
  I  I122  1  0.32964433  0.49146727  0.82872207  1
  I  I123  1  0.33660008  0.83194196  0.16726395  1
  I  I124  1  0.33340211  0.83405266  0.49676982  1
  I  I125  1  0.33312799  0.83627786  0.83529207  1
  I  I126  1  0.66356175  0.16678181  0.16972893  1
  I  I127  1  0.66639148  0.17247458  0.49854079  1
  I  I128  1  0.66934662  0.16527845  0.83095787  1
  I  I129  1  0.66248098  0.49365931  0.17187055  1
  I  I130  1  0.66607097  0.49206776  0.49274076  1
  I  I131  1  0.66688222  0.49941098  0.83386299  1
  I  I132  1  0.66518257  0.83801899  0.16859724  1
  I  I133  1  0.66660407  0.83448647  0.49979487  1
  I  I134  1  0.66697279  0.83455265  0.83109031  1
