# generated using pymatgen
data_Cs27Sn14Pb13I81
_symmetry_space_group_name_H-M   'P 1'
_cell_length_a   18.97678733
_cell_length_b   18.97019032
_cell_length_c   18.98107077
_cell_angle_alpha   89.99960878
_cell_angle_beta   90.00135329
_cell_angle_gamma   89.99882983
_symmetry_Int_Tables_number   1
_chemical_formula_structural   Cs27Sn14Pb13I81
_chemical_formula_sum   'Cs27 Sn14 Pb13 I81'
_cell_volume   6833.05767649
_cell_formula_units_Z   1
loop_
 _symmetry_equiv_pos_site_id
 _symmetry_equiv_pos_as_xyz
  1  'x, y, z'
loop_
 _atom_site_type_symbol
 _atom_site_label
 _atom_site_symmetry_multiplicity
 _atom_site_fract_x
 _atom_site_fract_y
 _atom_site_fract_z
 _atom_site_occupancy
  Cs  Cs0  1  0.00454441  0.00263383  0.00432095  1
  Cs  Cs1  1  0.00084980  -0.00020077  0.33323994  1
  Cs  Cs2  1  -0.00027655  0.00178575  0.66400959  1
  Cs  Cs3  1  -0.00291119  0.33749988  -0.00143936  1
  Cs  Cs4  1  -0.00049122  0.33185987  0.33468938  1
  Cs  Cs5  1  -0.00062759  0.33274579  0.66774758  1
  Cs  Cs6  1  0.00048158  0.65580178  0.00231430  1
  Cs  Cs7  1  -0.00072814  0.66698694  0.33300599  1
  Cs  Cs8  1  -0.00221654  0.66367834  0.66528180  1
  Cs  Cs9  1  0.33203874  -0.00074436  -0.00010176  1
  Cs  Cs10  1  0.33225721  0.00038314  0.33258696  1
  Cs  Cs11  1  0.33193438  0.00035732  0.66790617  1
  Cs  Cs12  1  0.33556328  0.33402246  -0.00090622  1
  Cs  Cs13  1  0.34357966  0.33873510  0.33597447  1
  Cs  Cs14  1  0.33519323  0.33541452  0.66553334  1
  Cs  Cs15  1  0.33248772  0.66871888  -0.00131615  1
  Cs  Cs16  1  0.33345325  0.66456877  0.33482260  1
  Cs  Cs17  1  0.33310940  0.66491002  0.66683776  1
  Cs  Cs18  1  0.66653553  -0.00037086  -0.00226520  1
  Cs  Cs19  1  0.66729980  0.00075412  0.33309250  1
  Cs  Cs20  1  0.66947053  -0.00357295  0.66935633  1
  Cs  Cs21  1  0.66801364  0.33655750  -0.00013483  1
  Cs  Cs22  1  0.65997072  0.33431847  0.33399948  1
  Cs  Cs23  1  0.66560379  0.33202878  0.66587617  1
  Cs  Cs24  1  0.66763022  0.66569551  -0.00268669  1
  Cs  Cs25  1  0.66854213  0.66671932  0.33250666  1
  Cs  Cs26  1  0.66849327  0.67493686  0.66913199  1
  Sn  Sn27  1  0.16655163  0.16629754  0.49942300  1
  Sn  Sn28  1  0.16646082  0.16688257  0.16719875  1
  Sn  Sn29  1  0.49972471  0.83377063  0.16753402  1
  Sn  Sn30  1  0.16618290  0.83390990  0.83324653  1
  Sn  Sn31  1  0.83389912  0.16579280  0.16765897  1
  Sn  Sn32  1  0.16742857  0.83407189  0.50002103  1
  Sn  Sn33  1  0.49930062  0.16724962  0.83333815  1
  Sn  Sn34  1  0.16747947  0.16597720  0.83341458  1
  Sn  Sn35  1  0.83386706  0.16747018  0.49893739  1
  Sn  Sn36  1  0.83338954  0.49870703  0.49982882  1
  Sn  Sn37  1  0.16652864  0.83371989  0.16677267  1
  Sn  Sn38  1  0.49893884  0.83414279  0.49910510  1
  Sn  Sn39  1  0.83384143  0.83433564  0.16641286  1
  Sn  Sn40  1  0.49982874  0.49910592  0.83316149  1
  Pb  Pb41  1  0.16508851  0.49958575  0.49993377  1
  Pb  Pb42  1  0.83758932  0.83375281  0.83703187  1
  Pb  Pb43  1  0.49810237  0.83393742  0.83341889  1
  Pb  Pb44  1  0.83331945  0.49900295  0.16884356  1
  Pb  Pb45  1  0.49999515  0.50324503  0.16445881  1
  Pb  Pb46  1  0.50002382  0.16442012  0.50199174  1
  Pb  Pb47  1  0.50252227  0.50318839  0.50203646  1
  Pb  Pb48  1  0.49994616  0.16477767  0.16464155  1
  Pb  Pb49  1  0.83411696  0.16635291  0.83371102  1
  Pb  Pb50  1  0.83080488  0.49993501  0.83053494  1
  Pb  Pb51  1  0.16826551  0.49930081  0.83315258  1
  Pb  Pb52  1  0.16690800  0.49886341  0.16702628  1
  Pb  Pb53  1  0.83398238  0.83437494  0.49826260  1
  I  I54  1  0.16583162  -0.00054917  0.16617117  1
  I  I55  1  0.16425856  0.00003671  0.50036948  1
  I  I56  1  0.17339655  0.00068705  0.83381403  1
  I  I57  1  0.15995989  0.32864931  0.16498627  1
  I  I58  1  0.16370601  0.32938674  0.50097808  1
  I  I59  1  0.16807832  0.32936729  0.83324657  1
  I  I60  1  0.16581447  0.67073342  0.16576213  1
  I  I61  1  0.16888425  0.67030969  0.50018464  1
  I  I62  1  0.16863048  0.66984917  0.83403330  1
  I  I63  1  0.49929845  -0.00351242  0.16755322  1
  I  I64  1  0.50047849  -0.00349409  0.49860143  1
  I  I65  1  0.49741213  0.00230754  0.83359225  1
  I  I66  1  0.50006520  0.33307630  0.16675893  1
  I  I67  1  0.49786468  0.33312373  0.50019005  1
  I  I68  1  0.49353625  0.33200190  0.83274796  1
  I  I69  1  0.49950940  0.67180475  0.16820577  1
  I  I70  1  0.49517765  0.67104722  0.49856422  1
  I  I71  1  0.49918547  0.66538974  0.83328815  1
  I  I72  1  0.83498329  0.00034287  0.17314967  1
  I  I73  1  0.83505290  0.00295057  0.49825044  1
  I  I74  1  0.82488452  0.00000931  0.82685302  1
  I  I75  1  0.83956777  0.32941324  0.16715008  1
  I  I76  1  0.83913395  0.33106540  0.49535966  1
  I  I77  1  0.83736719  0.33297949  0.83796063  1
  I  I78  1  0.83416437  0.66970590  0.16789527  1
  I  I79  1  0.83227961  0.66556345  0.49939642  1
  I  I80  1  0.83185710  0.66706172  0.83203826  1
  I  I81  1  0.16693562  0.15939379  0.00038785  1
  I  I82  1  0.15959709  0.15856145  0.33338895  1
  I  I83  1  0.16616861  0.16021004  0.66622885  1
  I  I84  1  0.16649494  0.50197036  -0.00000171  1
  I  I85  1  0.16681742  0.50213778  0.33351348  1
  I  I86  1  0.16592933  0.50204841  0.66656954  1
  I  I87  1  0.16803291  0.83975251  0.00074290  1
  I  I88  1  0.16718982  0.83869871  0.33308479  1
  I  I89  1  0.17302283  0.83938333  0.66600143  1
  I  I90  1  0.49582831  0.16697136  -0.00320615  1
  I  I91  1  0.49818233  0.16711086  0.33335759  1
  I  I92  1  0.49579120  0.16712607  0.66976710  1
  I  I93  1  0.49991872  0.49726521  -0.00335202  1
  I  I94  1  0.50070757  0.49931519  0.33365954  1
  I  I95  1  0.49957799  0.49770776  0.66959086  1
  I  I96  1  0.49920112  0.83339631  0.00251460  1
  I  I97  1  0.49524701  0.83388600  0.33303171  1
  I  I98  1  0.49615838  0.83297044  0.66453996  1
  I  I99  1  0.83617207  0.16105916  0.00327439  1
  I  I100  1  0.84151607  0.16572964  0.33330634  1
  I  I101  1  0.83655325  0.17066493  0.66379655  1
  I  I102  1  0.83253384  0.50081757  0.00006689  1
  I  I103  1  0.83316081  0.49965432  0.33642145  1
  I  I104  1  0.83485156  0.49430650  0.66282606  1
  I  I105  1  0.82950905  0.84001978  0.00505680  1
  I  I106  1  0.83694054  0.83398333  0.33027145  1
  I  I107  1  0.83137453  0.83259427  0.66664380  1
  I  I108  1  0.00080021  0.15806679  0.16561348  1
  I  I109  1  0.00105658  0.16431448  0.50181805  1
  I  I110  1  0.00366437  0.16094156  0.83286179  1
  I  I111  1  -0.00005227  0.50618084  0.16534168  1
  I  I112  1  -0.00286241  0.50150204  0.50014103  1
  I  I113  1  -0.00008530  0.50097118  0.83354905  1
  I  I114  1  0.00104603  0.83790679  0.16731325  1
  I  I115  1  0.00322124  0.83398779  0.50010414  1
  I  I116  1  0.00538369  0.84124222  0.82914179  1
  I  I117  1  0.33001878  0.16138036  0.16800015  1
  I  I118  1  0.33009386  0.16300886  0.49784141  1
  I  I119  1  0.33172190  0.16593287  0.83356705  1
  I  I120  1  0.33354126  0.49981546  0.16743799  1
  I  I121  1  0.33375194  0.49856288  0.50095010  1
  I  I122  1  0.33600983  0.49932739  0.83210654  1
  I  I123  1  0.33202130  0.83702475  0.16637633  1
  I  I124  1  0.33177051  0.83828541  0.49588579  1
  I  I125  1  0.33010122  0.83493319  0.83755969  1
  I  I126  1  0.66941380  0.16178348  0.16983775  1
  I  I127  1  0.66936804  0.16870675  0.49676296  1
  I  I128  1  0.66421916  0.17075663  0.83327558  1
  I  I129  1  0.66669831  0.50077718  0.16607496  1
  I  I130  1  0.67005628  0.49385997  0.49989388  1
  I  I131  1  0.66296553  0.49457764  0.83408820  1
  I  I132  1  0.66679995  0.83682821  0.17231435  1
  I  I133  1  0.66485684  0.83243976  0.49644329  1
  I  I134  1  0.66673990  0.83244875  0.83263438  1
