# generated using pymatgen
data_Cs27Sn14Pb13I81
_symmetry_space_group_name_H-M   'P 1'
_cell_length_a   18.96643595
_cell_length_b   18.97745760
_cell_length_c   18.98333046
_cell_angle_alpha   89.99984651
_cell_angle_beta   89.99921531
_cell_angle_gamma   90.00148312
_symmetry_Int_Tables_number   1
_chemical_formula_structural   Cs27Sn14Pb13I81
_chemical_formula_sum   'Cs27 Sn14 Pb13 I81'
_cell_volume   6832.75999818
_cell_formula_units_Z   1
loop_
 _symmetry_equiv_pos_site_id
 _symmetry_equiv_pos_as_xyz
  1  'x, y, z'
loop_
 _atom_site_type_symbol
 _atom_site_label
 _atom_site_symmetry_multiplicity
 _atom_site_fract_x
 _atom_site_fract_y
 _atom_site_fract_z
 _atom_site_occupancy
  Cs  Cs0  1  0.00633152  -0.00321626  0.00829365  1
  Cs  Cs1  1  0.00041536  -0.00644895  0.32666011  1
  Cs  Cs2  1  0.00198566  -0.00568000  0.66621948  1
  Cs  Cs3  1  0.00498242  0.33060250  -0.00100535  1
  Cs  Cs4  1  0.00032504  0.33258592  0.33333348  1
  Cs  Cs5  1  -0.00116906  0.33468660  0.66786358  1
  Cs  Cs6  1  -0.00141395  0.67218407  -0.00951275  1
  Cs  Cs7  1  -0.00035869  0.67158863  0.33683602  1
  Cs  Cs8  1  -0.00945232  0.67364810  0.67199961  1
  Cs  Cs9  1  0.33036271  0.00109351  -0.00072529  1
  Cs  Cs10  1  0.33316058  -0.00144152  0.33628182  1
  Cs  Cs11  1  0.33315601  0.00067339  0.66497095  1
  Cs  Cs12  1  0.33200402  0.33458324  -0.00029820  1
  Cs  Cs13  1  0.33365418  0.33558748  0.33567942  1
  Cs  Cs14  1  0.33236757  0.33247671  0.66395294  1
  Cs  Cs15  1  0.33704942  0.66397901  0.00074387  1
  Cs  Cs16  1  0.33414965  0.66367235  0.33320302  1
  Cs  Cs17  1  0.33342009  0.66685739  0.66560778  1
  Cs  Cs18  1  0.66707411  0.00124406  -0.00021264  1
  Cs  Cs19  1  0.66675911  0.00297156  0.33190594  1
  Cs  Cs20  1  0.66471393  0.00559402  0.66755294  1
  Cs  Cs21  1  0.66609779  0.33296416  0.00115696  1
  Cs  Cs22  1  0.66677394  0.33304704  0.33367193  1
  Cs  Cs23  1  0.66808781  0.33005403  0.66549543  1
  Cs  Cs24  1  0.66337546  0.66705398  -0.00020478  1
  Cs  Cs25  1  0.66682196  0.66445814  0.33348536  1
  Cs  Cs26  1  0.67079420  0.66601812  0.66693739  1
  Sn  Sn27  1  0.50033726  0.16695479  0.83446596  1
  Sn  Sn28  1  0.16597912  0.50022047  0.16734720  1
  Sn  Sn29  1  0.83411452  0.50009206  0.16654645  1
  Sn  Sn30  1  0.16462622  0.16728943  0.49989175  1
  Sn  Sn31  1  0.49981386  0.16695999  0.16568459  1
  Sn  Sn32  1  0.83546145  0.16672378  0.50032083  1
  Sn  Sn33  1  0.50008578  0.49954691  0.83280943  1
  Sn  Sn34  1  0.16659856  0.49965476  0.49978823  1
  Sn  Sn35  1  0.50001385  0.83350887  0.16682307  1
  Sn  Sn36  1  0.50004327  0.49969851  0.16684511  1
  Sn  Sn37  1  0.83324469  0.16651514  0.83321537  1
  Sn  Sn38  1  0.49973257  0.50081872  0.50021793  1
  Sn  Sn39  1  0.50014600  0.83352385  0.83313206  1
  Sn  Sn40  1  0.50027261  0.83193772  0.50009308  1
  Pb  Pb41  1  0.83185246  0.16830798  0.16629493  1
  Pb  Pb42  1  0.83374900  0.49848891  0.49847319  1
  Pb  Pb43  1  0.83019342  0.83657074  0.49987790  1
  Pb  Pb44  1  0.83089493  0.49760306  0.83583409  1
  Pb  Pb45  1  0.83068811  0.83683848  0.83361933  1
  Pb  Pb46  1  0.16842763  0.50005886  0.83255202  1
  Pb  Pb47  1  0.16662456  0.16667873  0.83101116  1
  Pb  Pb48  1  0.16863043  0.83226472  0.50006333  1
  Pb  Pb49  1  0.83093304  0.83029658  0.16660539  1
  Pb  Pb50  1  0.16928742  0.82970677  0.16670548  1
  Pb  Pb51  1  0.16948272  0.16869524  0.16920514  1
  Pb  Pb52  1  0.16930525  0.83334012  0.83336902  1
  Pb  Pb53  1  0.49987288  0.16703663  0.50000970  1
  I  I54  1  0.16860637  -0.00008397  0.16762060  1
  I  I55  1  0.16658450  0.00252069  0.50226419  1
  I  I56  1  0.17093852  0.00032047  0.83057429  1
  I  I57  1  0.17171871  0.33679329  0.16804409  1
  I  I58  1  0.17176474  0.33430483  0.49658256  1
  I  I59  1  0.17148453  0.33340060  0.83543240  1
  I  I60  1  0.17094115  0.66166959  0.17469532  1
  I  I61  1  0.17275654  0.66282219  0.49393864  1
  I  I62  1  0.16882600  0.66638069  0.83197798  1
  I  I63  1  0.50137809  0.00021032  0.16535430  1
  I  I64  1  0.50041636  -0.00183387  0.49948072  1
  I  I65  1  0.50414415  0.00052991  0.83517918  1
  I  I66  1  0.50034960  0.33462073  0.16494146  1
  I  I67  1  0.49945174  0.33603282  0.49894257  1
  I  I68  1  0.50320920  0.33331529  0.83630796  1
  I  I69  1  0.49965121  0.66540396  0.16451020  1
  I  I70  1  0.49438260  0.66514917  0.49912569  1
  I  I71  1  0.49770248  0.66614246  0.83656257  1
  I  I72  1  0.82980874  0.00009087  0.16725151  1
  I  I73  1  0.83592811  0.00469905  0.50345613  1
  I  I74  1  0.82410940  0.00452125  0.82869570  1
  I  I75  1  0.82697067  0.33624000  0.16755691  1
  I  I76  1  0.82935686  0.33052665  0.50262509  1
  I  I77  1  0.82450563  0.33007454  0.82935889  1
  I  I78  1  0.82908142  0.66211421  0.16875679  1
  I  I79  1  0.83472103  0.66667699  0.49848663  1
  I  I80  1  0.83262271  0.66664992  0.83399748  1
  I  I81  1  0.16551623  0.16802224  0.00028405  1
  I  I82  1  0.16412552  0.16946319  0.33704167  1
  I  I83  1  0.17060001  0.17398644  0.66301766  1
  I  I84  1  0.17034703  0.49978125  0.00292221  1
  I  I85  1  0.17508681  0.49486520  0.33360492  1
  I  I86  1  0.17513301  0.49463977  0.66295593  1
  I  I87  1  0.16920290  0.83286328  0.00032540  1
  I  I88  1  0.17063474  0.83666203  0.33338460  1
  I  I89  1  0.17159644  0.83212756  0.66637597  1
  I  I90  1  0.50565068  0.16767213  -0.00044782  1
  I  I91  1  0.50029961  0.16742390  0.33121609  1
  I  I92  1  0.50066963  0.16673605  0.66890875  1
  I  I93  1  0.50017610  0.50166079  0.00086913  1
  I  I94  1  0.49952077  0.50152541  0.33275870  1
  I  I95  1  0.49504065  0.50144110  0.66612005  1
  I  I96  1  0.50035132  0.82991327  0.00015559  1
  I  I97  1  0.49963245  0.83081822  0.33314526  1
  I  I98  1  0.49924649  0.83170896  0.66671771  1
  I  I99  1  0.82626320  0.16927748  -0.00255264  1
  I  I100  1  0.83286210  0.16920621  0.33564128  1
  I  I101  1  0.82746715  0.16865160  0.66665526  1
  I  I102  1  0.83071446  0.49724055  0.00377071  1
  I  I103  1  0.82520305  0.49615788  0.33065827  1
  I  I104  1  0.83193855  0.49978943  0.66685223  1
  I  I105  1  0.83007752  0.83452871  0.00005070  1
  I  I106  1  0.82913234  0.83642624  0.33330589  1
  I  I107  1  0.83014440  0.82964890  0.66671963  1
  I  I108  1  0.00029173  0.16968261  0.16398293  1
  I  I109  1  0.00010106  0.17543040  0.50588955  1
  I  I110  1  -0.00299009  0.16991746  0.83028892  1
  I  I111  1  0.00062663  0.49605411  0.17387290  1
  I  I112  1  0.00305969  0.49510931  0.49300188  1
  I  I113  1  -0.00032360  0.49734407  0.83436368  1
  I  I114  1  0.00014876  0.83362478  0.16691877  1
  I  I115  1  -0.00013859  0.83096926  0.50058285  1
  I  I116  1  -0.00052546  0.83357579  0.83241239  1
  I  I117  1  0.33802545  0.16871271  0.16193914  1
  I  I118  1  0.33179862  0.16808372  0.49909167  1
  I  I119  1  0.33714471  0.16651322  0.83596238  1
  I  I120  1  0.33547871  0.50018827  0.16738995  1
  I  I121  1  0.33506132  0.49711625  0.49551012  1
  I  I122  1  0.33802593  0.49754992  0.83801241  1
  I  I123  1  0.33827460  0.83170200  0.16664818  1
  I  I124  1  0.33760026  0.83520507  0.49986848  1
  I  I125  1  0.33891123  0.83598873  0.83346067  1
  I  I126  1  0.66289631  0.16968304  0.16859305  1
  I  I127  1  0.66799673  0.16648863  0.50098756  1
  I  I128  1  0.66442916  0.16694589  0.82993323  1
  I  I129  1  0.66394795  0.49994671  0.16680968  1
  I  I130  1  0.66329800  0.50167511  0.49856273  1
  I  I131  1  0.66182375  0.50209132  0.83299453  1
  I  I132  1  0.66171013  0.83095539  0.16642514  1
  I  I133  1  0.66166642  0.82765300  0.49962624  1
  I  I134  1  0.66173618  0.83009367  0.83399946  1
