# generated using pymatgen
data_Cs27Sn13Pb14I81
_symmetry_space_group_name_H-M   'P 1'
_cell_length_a   18.97908424
_cell_length_b   18.97428443
_cell_length_c   18.97830740
_cell_angle_alpha   90.00222695
_cell_angle_beta   90.00070099
_cell_angle_gamma   90.00033744
_symmetry_Int_Tables_number   1
_chemical_formula_structural   Cs27Sn13Pb14I81
_chemical_formula_sum   'Cs27 Sn13 Pb14 I81'
_cell_volume   6834.36448060
_cell_formula_units_Z   1
loop_
 _symmetry_equiv_pos_site_id
 _symmetry_equiv_pos_as_xyz
  1  'x, y, z'
loop_
 _atom_site_type_symbol
 _atom_site_label
 _atom_site_symmetry_multiplicity
 _atom_site_fract_x
 _atom_site_fract_y
 _atom_site_fract_z
 _atom_site_occupancy
  Cs  Cs0  1  0.00152093  -0.00090198  -0.00087246  1
  Cs  Cs1  1  -0.00749981  -0.00290698  0.33336866  1
  Cs  Cs2  1  0.00120101  -0.00014841  0.66832880  1
  Cs  Cs3  1  0.00004354  0.33255957  -0.00221414  1
  Cs  Cs4  1  0.00164047  0.33389123  0.33987327  1
  Cs  Cs5  1  0.00163680  0.33280261  0.66616078  1
  Cs  Cs6  1  0.00185385  0.66887109  0.00273310  1
  Cs  Cs7  1  0.00188075  0.66885782  0.32856593  1
  Cs  Cs8  1  -0.00006289  0.66750897  0.66693186  1
  Cs  Cs9  1  0.33139857  0.00144516  -0.00035235  1
  Cs  Cs10  1  0.33645839  0.00316686  0.33527396  1
  Cs  Cs11  1  0.33327761  -0.00198863  0.66493801  1
  Cs  Cs12  1  0.33258316  0.33226984  -0.00200901  1
  Cs  Cs13  1  0.33355015  0.33158462  0.33732365  1
  Cs  Cs14  1  0.32869758  0.33461932  0.66653663  1
  Cs  Cs15  1  0.33478696  0.66495883  0.00166969  1
  Cs  Cs16  1  0.33192999  0.66585698  0.32829523  1
  Cs  Cs17  1  0.33561574  0.66769803  0.66895016  1
  Cs  Cs18  1  0.66693642  0.00355144  0.00107485  1
  Cs  Cs19  1  0.67014258  0.00427025  0.33804714  1
  Cs  Cs20  1  0.66450381  -0.00454421  0.66225223  1
  Cs  Cs21  1  0.66654159  0.33314415  0.00149308  1
  Cs  Cs22  1  0.66532428  0.33288511  0.33090382  1
  Cs  Cs23  1  0.66909639  0.33637219  0.66754251  1
  Cs  Cs24  1  0.66405876  0.66480963  0.00005173  1
  Cs  Cs25  1  0.66691493  0.66563553  0.33448859  1
  Cs  Cs26  1  0.66414706  0.66705460  0.66520305  1
  Sn  Sn27  1  0.83301851  0.49987598  0.16659321  1
  Sn  Sn28  1  0.50050750  0.83370089  0.16667571  1
  Sn  Sn29  1  0.50032101  0.50006305  0.49941907  1
  Sn  Sn30  1  0.83296638  0.16625698  0.83333268  1
  Sn  Sn31  1  0.50062865  0.50051945  0.16739595  1
  Sn  Sn32  1  0.16629445  0.83379325  0.83271618  1
  Sn  Sn33  1  0.16631714  0.16670516  0.16646531  1
  Sn  Sn34  1  0.16680435  0.16576816  0.83416822  1
  Sn  Sn35  1  0.83281184  0.50030469  0.49992031  1
  Sn  Sn36  1  0.50000457  0.16660908  0.83293205  1
  Sn  Sn37  1  0.83344788  0.50047405  0.83353439  1
  Sn  Sn38  1  0.16667124  0.83320544  0.50033144  1
  Sn  Sn39  1  0.83356652  0.83320924  0.83357664  1
  Pb  Pb40  1  0.16693928  0.49740530  0.16665632  1
  Pb  Pb41  1  0.16419832  0.50040712  0.83346446  1
  Pb  Pb42  1  0.16842292  0.83558327  0.16622296  1
  Pb  Pb43  1  0.83547484  0.16903781  0.16485665  1
  Pb  Pb44  1  0.50009204  0.16938882  0.50286057  1
  Pb  Pb45  1  0.49989330  0.83529786  0.83500609  1
  Pb  Pb46  1  0.16646324  0.16408422  0.50035354  1
  Pb  Pb47  1  0.83099045  0.83147053  0.16438478  1
  Pb  Pb48  1  0.83324095  0.16892827  0.50268162  1
  Pb  Pb49  1  0.16680907  0.50257897  0.50001563  1
  Pb  Pb50  1  0.83492614  0.83083202  0.50213638  1
  Pb  Pb51  1  0.50206093  0.49813172  0.83354589  1
  Pb  Pb52  1  0.49858254  0.16724380  0.16522218  1
  Pb  Pb53  1  0.49808304  0.83105804  0.49746627  1
  I  I54  1  0.16954434  0.00306978  0.16249629  1
  I  I55  1  0.16751158  -0.00347106  0.50324534  1
  I  I56  1  0.16163768  0.00040433  0.83368408  1
  I  I57  1  0.16788774  0.32986651  0.15805886  1
  I  I58  1  0.16675350  0.33341257  0.50076065  1
  I  I59  1  0.16627644  0.33015889  0.83721740  1
  I  I60  1  0.16575650  0.66676229  0.16595167  1
  I  I61  1  0.16618435  0.67004012  0.50734713  1
  I  I62  1  0.16224071  0.67001018  0.82965711  1
  I  I63  1  0.49584454  -0.00190729  0.16216888  1
  I  I64  1  0.49836704  -0.00020111  0.49878311  1
  I  I65  1  0.50368049  0.00320461  0.83703515  1
  I  I66  1  0.50348560  0.33659994  0.16871610  1
  I  I67  1  0.50335559  0.33750191  0.49312312  1
  I  I68  1  0.49884470  0.33016402  0.83518679  1
  I  I69  1  0.50211018  0.66515182  0.16816564  1
  I  I70  1  0.50440251  0.66302600  0.50075409  1
  I  I71  1  0.49982046  0.66652683  0.83246037  1
  I  I72  1  0.83239521  0.00004160  0.16461229  1
  I  I73  1  0.83466029  -0.00039711  0.50111578  1
  I  I74  1  0.83547249  0.00022060  0.83434628  1
  I  I75  1  0.82687702  0.33743380  0.16366147  1
  I  I76  1  0.83105979  0.33757739  0.50221923  1
  I  I77  1  0.83312458  0.33345121  0.83341584  1
  I  I78  1  0.83313149  0.66292880  0.16372439  1
  I  I79  1  0.82991512  0.66262550  0.50350356  1
  I  I80  1  0.83815848  0.66638467  0.83322261  1
  I  I81  1  0.16652167  0.16181175  -0.00244689  1
  I  I82  1  0.16903788  0.16749904  0.33085937  1
  I  I83  1  0.16572474  0.16563318  0.67048972  1
  I  I84  1  0.16698660  0.50363785  -0.00003127  1
  I  I85  1  0.16177738  0.50001537  0.33328863  1
  I  I86  1  0.16700697  0.49568908  0.66683085  1
  I  I87  1  0.16324100  0.83610388  -0.00316935  1
  I  I88  1  0.16929909  0.83265238  0.33528010  1
  I  I89  1  0.16326071  0.83835471  0.66877515  1
  I  I90  1  0.50159304  0.16927842  -0.00308284  1
  I  I91  1  0.49637339  0.16556920  0.33326191  1
  I  I92  1  0.49763356  0.16714478  0.67119182  1
  I  I93  1  0.50398262  0.50193423  0.00270219  1
  I  I94  1  0.50795509  0.50333207  0.33258616  1
  I  I95  1  0.50435495  0.49770899  0.66453937  1
  I  I96  1  0.49809168  0.82551377  0.00253045  1
  I  I97  1  0.49671167  0.83134479  0.32974419  1
  I  I98  1  0.50095439  0.83276009  0.66679298  1
  I  I99  1  0.83199512  0.16963576  -0.00401517  1
  I  I100  1  0.83562920  0.16808925  0.33323961  1
  I  I101  1  0.83714944  0.16967675  0.67162105  1
  I  I102  1  0.82952202  0.49908713  -0.00047885  1
  I  I103  1  0.82889586  0.50014058  0.33312772  1
  I  I104  1  0.82981649  0.49909273  0.66727480  1
  I  I105  1  0.84016850  0.83146725  -0.00407018  1
  I  I106  1  0.83587253  0.83116489  0.33327569  1
  I  I107  1  0.83418529  0.83196412  0.67078032  1
  I  I108  1  0.00320845  0.16687593  0.15937910  1
  I  I109  1  -0.00003178  0.17079664  0.50157105  1
  I  I110  1  0.00005092  0.16692431  0.83714336  1
  I  I111  1  -0.00316131  0.49844465  0.16596226  1
  I  I112  1  -0.00321621  0.50001349  0.50074309  1
  I  I113  1  -0.00441910  0.49546000  0.83296901  1
  I  I114  1  -0.00007382  0.83208334  0.16775828  1
  I  I115  1  0.00287726  0.83154107  0.50158404  1
  I  I116  1  0.00001743  0.83697826  0.83048015  1
  I  I117  1  0.33073813  0.16805821  0.15851482  1
  I  I118  1  0.33321971  0.17001376  0.50279070  1
  I  I119  1  0.33215409  0.16280749  0.83757267  1
  I  I120  1  0.33666519  0.50262622  0.17097100  1
  I  I121  1  0.33631107  0.50035679  0.49462020  1
  I  I122  1  0.33352142  0.49901194  0.83308992  1
  I  I123  1  0.33604041  0.82581454  0.16395644  1
  I  I124  1  0.33035460  0.83155704  0.50849065  1
  I  I125  1  0.33051427  0.83866359  0.83103554  1
  I  I126  1  0.66679094  0.16615092  0.16315488  1
  I  I127  1  0.66666590  0.16364389  0.50156893  1
  I  I128  1  0.66768085  0.16851939  0.83362477  1
  I  I129  1  0.66674558  0.50292888  0.16598723  1
  I  I130  1  0.66736301  0.50041864  0.50058995  1
  I  I131  1  0.67045717  0.49993584  0.83335301  1
  I  I132  1  0.66331327  0.83133290  0.16373758  1
  I  I133  1  0.66670700  0.83352878  0.50164795  1
  I  I134  1  0.66955053  0.83336781  0.83567940  1
