# generated using pymatgen
data_Cs27Sn13Pb14I81
_symmetry_space_group_name_H-M   'P 1'
_cell_length_a   18.98464687
_cell_length_b   18.98033626
_cell_length_c   18.96797415
_cell_angle_alpha   90.00268371
_cell_angle_beta   89.99901366
_cell_angle_gamma   89.99889838
_symmetry_Int_Tables_number   1
_chemical_formula_structural   Cs27Sn13Pb14I81
_chemical_formula_sum   'Cs27 Sn13 Pb14 I81'
_cell_volume   6834.82460223
_cell_formula_units_Z   1
loop_
 _symmetry_equiv_pos_site_id
 _symmetry_equiv_pos_as_xyz
  1  'x, y, z'
loop_
 _atom_site_type_symbol
 _atom_site_label
 _atom_site_symmetry_multiplicity
 _atom_site_fract_x
 _atom_site_fract_y
 _atom_site_fract_z
 _atom_site_occupancy
  Cs  Cs0  1  -0.00011713  -0.00104510  0.00007129  1
  Cs  Cs1  1  -0.00026675  0.00040985  0.33223422  1
  Cs  Cs2  1  0.00209817  0.00067510  0.67147412  1
  Cs  Cs3  1  -0.00104078  0.33473247  0.00193453  1
  Cs  Cs4  1  0.00055138  0.33301943  0.33385138  1
  Cs  Cs5  1  0.00180364  0.33270620  0.66191752  1
  Cs  Cs6  1  0.00131196  0.66611080  0.00124643  1
  Cs  Cs7  1  0.00121231  0.66729688  0.33187343  1
  Cs  Cs8  1  -0.00935381  0.66667019  0.66838070  1
  Cs  Cs9  1  0.33461351  0.00165957  -0.00526091  1
  Cs  Cs10  1  0.33335322  -0.00111831  0.33215499  1
  Cs  Cs11  1  0.33149621  0.00026879  0.67662358  1
  Cs  Cs12  1  0.33576971  0.33325519  -0.00044184  1
  Cs  Cs13  1  0.33177388  0.33319634  0.33464539  1
  Cs  Cs14  1  0.33152497  0.33345053  0.66502588  1
  Cs  Cs15  1  0.33075274  0.66629756  0.00156527  1
  Cs  Cs16  1  0.33312403  0.66738955  0.33286046  1
  Cs  Cs17  1  0.34360647  0.66708353  0.66588825  1
  Cs  Cs18  1  0.66505543  0.00342394  0.00054820  1
  Cs  Cs19  1  0.66647333  0.00168779  0.33386191  1
  Cs  Cs20  1  0.66640504  -0.00674235  0.66248476  1
  Cs  Cs21  1  0.66503715  0.33257256  -0.00088351  1
  Cs  Cs22  1  0.66715435  0.32907830  0.33232564  1
  Cs  Cs23  1  0.66653395  0.33984474  0.66786611  1
  Cs  Cs24  1  0.66724307  0.66409445  -0.00257559  1
  Cs  Cs25  1  0.66514345  0.66911525  0.33636823  1
  Cs  Cs26  1  0.66436385  0.66642120  0.66659041  1
  Sn  Sn27  1  0.83249673  0.16654287  0.50025745  1
  Sn  Sn28  1  0.16655366  0.83315398  0.49987351  1
  Sn  Sn29  1  0.83317791  0.16666659  0.83317195  1
  Sn  Sn30  1  0.16655730  0.50032459  0.83356511  1
  Sn  Sn31  1  0.16622271  0.16657776  0.16671245  1
  Sn  Sn32  1  0.16676491  0.49979859  0.16623144  1
  Sn  Sn33  1  0.50003851  0.50082210  0.16701666  1
  Sn  Sn34  1  0.83302119  0.83333604  0.16681850  1
  Sn  Sn35  1  0.83422173  0.16664095  0.16659662  1
  Sn  Sn36  1  0.50024091  0.16653911  0.50006633  1
  Sn  Sn37  1  0.16686034  0.83365152  0.16725020  1
  Sn  Sn38  1  0.83304468  0.50003302  0.16695113  1
  Sn  Sn39  1  0.49997377  0.83259934  0.16676265  1
  Pb  Pb40  1  0.49783549  0.83548870  0.49789165  1
  Pb  Pb41  1  0.50296132  0.16680900  0.82970675  1
  Pb  Pb42  1  0.83328624  0.83533618  0.83579080  1
  Pb  Pb43  1  0.49771394  0.49986967  0.83570794  1
  Pb  Pb44  1  0.83527484  0.83544226  0.49799568  1
  Pb  Pb45  1  0.16656894  0.16464407  0.49819440  1
  Pb  Pb46  1  0.50020709  0.83327274  0.83612704  1
  Pb  Pb47  1  0.16660486  0.50289400  0.50001273  1
  Pb  Pb48  1  0.50001167  0.49792743  0.49743118  1
  Pb  Pb49  1  0.16472135  0.16894049  0.83609208  1
  Pb  Pb50  1  0.83521548  0.49800854  0.83539434  1
  Pb  Pb51  1  0.83337137  0.49804259  0.49768461  1
  Pb  Pb52  1  0.49988210  0.16661590  0.16760701  1
  Pb  Pb53  1  0.16655670  0.83057657  0.83342481  1
  I  I54  1  0.16351929  -0.00026020  0.17169455  1
  I  I55  1  0.16587750  -0.00276016  0.49062586  1
  I  I56  1  0.16601894  0.00002091  0.83468095  1
  I  I57  1  0.16385760  0.33353595  0.16324036  1
  I  I58  1  0.16649321  0.33318781  0.49801913  1
  I  I59  1  0.16572566  0.33639673  0.84113322  1
  I  I60  1  0.16448479  0.66669506  0.16647042  1
  I  I61  1  0.16706966  0.67022241  0.49031458  1
  I  I62  1  0.16556555  0.66336804  0.84322870  1
  I  I63  1  0.49984050  -0.00243482  0.16925898  1
  I  I64  1  0.50529123  0.00311305  0.49440437  1
  I  I65  1  0.49817238  0.00030440  0.83746690  1
  I  I66  1  0.49943985  0.33576883  0.16835012  1
  I  I67  1  0.50328876  0.32996201  0.49578782  1
  I  I68  1  0.49962574  0.33324407  0.83749347  1
  I  I69  1  0.49900290  0.66668851  0.16688314  1
  I  I70  1  0.49784909  0.66699714  0.49980222  1
  I  I71  1  0.50025937  0.66643906  0.83143981  1
  I  I72  1  0.83641339  0.00077112  0.16703588  1
  I  I73  1  0.83021101  0.00379095  0.49526614  1
  I  I74  1  0.83539040  0.00374716  0.83706379  1
  I  I75  1  0.83639578  0.33256490  0.16710336  1
  I  I76  1  0.83200485  0.32926852  0.49585606  1
  I  I77  1  0.83459225  0.32991467  0.83730747  1
  I  I78  1  0.83677870  0.66665991  0.16643045  1
  I  I79  1  0.83537803  0.66698460  0.49763251  1
  I  I80  1  0.83534511  0.66641266  0.83600803  1
  I  I81  1  0.16219570  0.16194857  0.00482353  1
  I  I82  1  0.16127811  0.17089817  0.32933898  1
  I  I83  1  0.16560669  0.16653670  0.66670741  1
  I  I84  1  0.16612315  0.50134873  0.00362631  1
  I  I85  1  0.16625219  0.49809328  0.32910519  1
  I  I86  1  0.16572147  0.49905622  0.66939506  1
  I  I87  1  0.16616776  0.83489865  0.00426244  1
  I  I88  1  0.16617785  0.83210239  0.32981367  1
  I  I89  1  0.16646871  0.83484853  0.66396942  1
  I  I90  1  0.50019663  0.16638329  0.00008916  1
  I  I91  1  0.50609873  0.16682299  0.33493465  1
  I  I92  1  0.50295345  0.16593871  0.66199926  1
  I  I93  1  0.50214190  0.50161756  0.00485068  1
  I  I94  1  0.49656548  0.50332505  0.32855775  1
  I  I95  1  0.49747304  0.49832058  0.66664257  1
  I  I96  1  0.49651088  0.83186991  0.00545507  1
  I  I97  1  0.50142337  0.83027495  0.32905993  1
  I  I98  1  0.49720501  0.83528104  0.66612843  1
  I  I99  1  0.83874445  0.16652733  0.00233515  1
  I  I100  1  0.83324049  0.16692048  0.33150613  1
  I  I101  1  0.82922908  0.16685718  0.66613727  1
  I  I102  1  0.83223473  0.49752180  0.00483526  1
  I  I103  1  0.83749316  0.49741232  0.32819539  1
  I  I104  1  0.83682316  0.49716713  0.66686806  1
  I  I105  1  0.83737816  0.83545976  0.00532492  1
  I  I106  1  0.83250618  0.83572961  0.32866362  1
  I  I107  1  0.83669055  0.83602170  0.66641576  1
  I  I108  1  -0.00099030  0.16689681  0.16877340  1
  I  I109  1  -0.00288874  0.16589051  0.49916489  1
  I  I110  1  -0.00315068  0.16680775  0.83048590  1
  I  I111  1  0.00029519  0.50083844  0.16339013  1
  I  I112  1  0.00012689  0.49651572  0.49642578  1
  I  I113  1  0.00295050  0.49985358  0.84218432  1
  I  I114  1  0.00032319  0.83246069  0.16982177  1
  I  I115  1  0.00296782  0.83513731  0.49130874  1
  I  I116  1  0.00006537  0.83417471  0.83617754  1
  I  I117  1  0.33071223  0.16704376  0.16985973  1
  I  I118  1  0.33517519  0.16601142  0.49421100  1
  I  I119  1  0.33321626  0.16699794  0.83375785  1
  I  I120  1  0.33245691  0.50202179  0.16339065  1
  I  I121  1  0.33315114  0.49598544  0.49665071  1
  I  I122  1  0.32980935  0.49906039  0.84154845  1
  I  I123  1  0.33244262  0.83064634  0.17090655  1
  I  I124  1  0.33019712  0.83516707  0.49078182  1
  I  I125  1  0.33304130  0.83502946  0.83586135  1
  I  I126  1  0.66984119  0.16673913  0.16575928  1
  I  I127  1  0.66810937  0.16631116  0.49427301  1
  I  I128  1  0.67079078  0.16782539  0.84338501  1
  I  I129  1  0.66722555  0.50089063  0.16824259  1
  I  I130  1  0.66673245  0.50124261  0.49743004  1
  I  I131  1  0.66684888  0.49780986  0.83622725  1
  I  I132  1  0.66717507  0.83226965  0.16575946  1
  I  I133  1  0.66670375  0.83467132  0.49676980  1
  I  I134  1  0.66687093  0.83380617  0.83544773  1
