# generated using pymatgen
data_Cs27Sn14Pb13I81
_symmetry_space_group_name_H-M   'P 1'
_cell_length_a   18.97894644
_cell_length_b   18.98076749
_cell_length_c   18.97042987
_cell_angle_alpha   90.00076619
_cell_angle_beta   89.99980440
_cell_angle_gamma   89.99897402
_symmetry_Int_Tables_number   1
_chemical_formula_structural   Cs27Sn14Pb13I81
_chemical_formula_sum   'Cs27 Sn14 Pb13 I81'
_cell_volume   6833.81222357
_cell_formula_units_Z   1
loop_
 _symmetry_equiv_pos_site_id
 _symmetry_equiv_pos_as_xyz
  1  'x, y, z'
loop_
 _atom_site_type_symbol
 _atom_site_label
 _atom_site_symmetry_multiplicity
 _atom_site_fract_x
 _atom_site_fract_y
 _atom_site_fract_z
 _atom_site_occupancy
  Cs  Cs0  1  -0.00213489  0.00074208  0.00588493  1
  Cs  Cs1  1  -0.00139683  0.00027915  0.33123752  1
  Cs  Cs2  1  0.00595564  0.00080668  0.66779333  1
  Cs  Cs3  1  -0.00258643  0.34198127  -0.00830705  1
  Cs  Cs4  1  0.00176203  0.33115669  0.33367484  1
  Cs  Cs5  1  0.00649450  0.33357051  0.67481235  1
  Cs  Cs6  1  -0.00173552  0.65957670  -0.00137293  1
  Cs  Cs7  1  0.00003066  0.66780082  0.33395810  1
  Cs  Cs8  1  0.00672665  0.66710557  0.66716460  1
  Cs  Cs9  1  0.33497533  -0.00080807  -0.00124781  1
  Cs  Cs10  1  0.33364623  0.00138710  0.33178729  1
  Cs  Cs11  1  0.32741270  -0.00072800  0.67536934  1
  Cs  Cs12  1  0.33298704  0.33526280  0.00140289  1
  Cs  Cs13  1  0.33429463  0.33329330  0.33282133  1
  Cs  Cs14  1  0.32883127  0.33200049  0.66738006  1
  Cs  Cs15  1  0.33256505  0.66559802  -0.00101705  1
  Cs  Cs16  1  0.33449454  0.66464968  0.33306973  1
  Cs  Cs17  1  0.32941025  0.66832192  0.66917980  1
  Cs  Cs18  1  0.66616187  -0.00018732  -0.00026604  1
  Cs  Cs19  1  0.66737822  -0.00025860  0.33359079  1
  Cs  Cs20  1  0.66645842  -0.00049770  0.66580707  1
  Cs  Cs21  1  0.66903118  0.33633047  -0.00355859  1
  Cs  Cs22  1  0.66533664  0.33197794  0.33531647  1
  Cs  Cs23  1  0.66616583  0.33424883  0.66488358  1
  Cs  Cs24  1  0.66723944  0.66579873  0.00068881  1
  Cs  Cs25  1  0.66591773  0.66794099  0.33531134  1
  Cs  Cs26  1  0.66503673  0.66675316  0.66292194  1
  Sn  Sn27  1  0.50041838  0.16585793  0.49968222  1
  Sn  Sn28  1  0.50015026  0.83408109  0.49962806  1
  Sn  Sn29  1  0.16672971  0.83377527  0.16715809  1
  Sn  Sn30  1  0.50050553  0.16588285  0.16734847  1
  Sn  Sn31  1  0.50058604  0.50009400  0.83195202  1
  Sn  Sn32  1  0.16636619  0.16619537  0.16687717  1
  Sn  Sn33  1  0.50056852  0.50002002  0.50123518  1
  Sn  Sn34  1  0.50005476  0.83408847  0.16750244  1
  Sn  Sn35  1  0.83287865  0.16674896  0.49962414  1
  Sn  Sn36  1  0.83309970  0.16645717  0.16723460  1
  Sn  Sn37  1  0.83296274  0.83376445  0.83295066  1
  Sn  Sn38  1  0.83312305  0.83378152  0.16667712  1
  Sn  Sn39  1  0.83313651  0.49964884  0.49970221  1
  Sn  Sn40  1  0.83284553  0.83362517  0.50028223  1
  Pb  Pb41  1  0.16660388  0.16633973  0.83733120  1
  Pb  Pb42  1  0.16695302  0.49993885  0.49966282  1
  Pb  Pb43  1  0.83298274  0.16454195  0.83284307  1
  Pb  Pb44  1  0.16991553  0.50026811  0.83324557  1
  Pb  Pb45  1  0.16644799  0.49980071  0.16704325  1
  Pb  Pb46  1  0.83313071  0.49964375  0.16929525  1
  Pb  Pb47  1  0.50023314  0.49986203  0.16750239  1
  Pb  Pb48  1  0.50033958  0.16861520  0.83315941  1
  Pb  Pb49  1  0.16340501  0.83349395  0.83697625  1
  Pb  Pb50  1  0.50175863  0.83185396  0.83329485  1
  Pb  Pb51  1  0.16698672  0.83352483  0.49766014  1
  Pb  Pb52  1  0.83135511  0.50267275  0.82984677  1
  Pb  Pb53  1  0.16669354  0.16646649  0.49805410  1
  I  I54  1  0.16605487  -0.00023717  0.16770755  1
  I  I55  1  0.16650113  -0.00005392  0.50197152  1
  I  I56  1  0.16893306  -0.00038249  0.82917049  1
  I  I57  1  0.16852270  0.32957908  0.16839795  1
  I  I58  1  0.16685400  0.33314233  0.49571333  1
  I  I59  1  0.16533837  0.33345354  0.83578904  1
  I  I60  1  0.16680316  0.67026583  0.16697458  1
  I  I61  1  0.16615907  0.66689206  0.49630171  1
  I  I62  1  0.16599019  0.66699571  0.83644420  1
  I  I63  1  0.50017136  -0.00040499  0.17318386  1
  I  I64  1  0.50754573  -0.00021290  0.49314777  1
  I  I65  1  0.50009729  -0.00017338  0.83163610  1
  I  I66  1  0.49920317  0.32983159  0.16956844  1
  I  I67  1  0.50631846  0.33270846  0.49878748  1
  I  I68  1  0.50115192  0.33656301  0.82984491  1
  I  I69  1  0.50021526  0.67011965  0.16946207  1
  I  I70  1  0.50631759  0.66746734  0.49857898  1
  I  I71  1  0.50226158  0.66400928  0.82918321  1
  I  I72  1  0.83372458  -0.00076181  0.17052951  1
  I  I73  1  0.82707592  -0.00043561  0.49805485  1
  I  I74  1  0.83123972  -0.00341419  0.83051790  1
  I  I75  1  0.83264747  0.32959858  0.17127134  1
  I  I76  1  0.82558139  0.33237605  0.49296917  1
  I  I77  1  0.83333755  0.33368838  0.83529055  1
  I  I78  1  0.83331735  0.67032869  0.16706528  1
  I  I79  1  0.82687720  0.66787738  0.49897124  1
  I  I80  1  0.83195262  0.67031704  0.83740015  1
  I  I81  1  0.16785325  0.16095671  0.00573930  1
  I  I82  1  0.16651784  0.16173739  0.32974006  1
  I  I83  1  0.16670455  0.16850374  0.66673482  1
  I  I84  1  0.16817900  0.49965902  0.00004878  1
  I  I85  1  0.16989149  0.50075966  0.33331335  1
  I  I86  1  0.16369694  0.50022351  0.66654206  1
  I  I87  1  0.16966820  0.83852823  0.00511074  1
  I  I88  1  0.16210857  0.83766312  0.32952654  1
  I  I89  1  0.16687765  0.83150027  0.66686339  1
  I  I90  1  0.49985201  0.16286470  0.00385775  1
  I  I91  1  0.50069560  0.16826393  0.33320863  1
  I  I92  1  0.50662120  0.16432518  0.66270070  1
  I  I93  1  0.49827873  0.50071948  -0.00180364  1
  I  I94  1  0.50375086  0.50048749  0.33687456  1
  I  I95  1  0.50562312  0.50058008  0.66428683  1
  I  I96  1  0.50086307  0.83610217  0.00350855  1
  I  I97  1  0.50425933  0.83146713  0.33325256  1
  I  I98  1  0.50601346  0.83510091  0.66316381  1
  I  I99  1  0.83281328  0.16103304  0.00367570  1
  I  I100  1  0.83248614  0.16229505  0.33315608  1
  I  I101  1  0.82631672  0.16583773  0.66267507  1
  I  I102  1  0.83286702  0.50013818  -0.00035146  1
  I  I103  1  0.82533323  0.50477976  0.33721763  1
  I  I104  1  0.82993907  0.49885564  0.66187972  1
  I  I105  1  0.83310235  0.83859562  0.00200301  1
  I  I106  1  0.83290180  0.83347058  0.33330716  1
  I  I107  1  0.82616395  0.83283696  0.66474588  1
  I  I108  1  -0.00130653  0.15835633  0.17210021  1
  I  I109  1  -0.00368429  0.16580381  0.49532052  1
  I  I110  1  -0.00026432  0.16717962  0.83167848  1
  I  I111  1  -0.00035944  0.50081940  0.16847040  1
  I  I112  1  -0.00352496  0.50159806  0.49703510  1
  I  I113  1  -0.00030369  0.50040844  0.83339715  1
  I  I114  1  -0.00146404  0.83943826  0.16723998  1
  I  I115  1  -0.00380143  0.83253193  0.49926746  1
  I  I116  1  -0.00450802  0.83286884  0.83005817  1
  I  I117  1  0.33448056  0.16103779  0.17068716  1
  I  I118  1  0.33703697  0.16846814  0.49520534  1
  I  I119  1  0.33355740  0.16730063  0.83232168  1
  I  I120  1  0.33363814  0.50045211  0.16796559  1
  I  I121  1  0.33754116  0.50020577  0.50288435  1
  I  I122  1  0.33770229  0.50172862  0.82648186  1
  I  I123  1  0.33467977  0.83861006  0.17164548  1
  I  I124  1  0.33714192  0.83174617  0.49505652  1
  I  I125  1  0.33332623  0.83099670  0.83330663  1
  I  I126  1  0.66671103  0.16009216  0.17109680  1
  I  I127  1  0.66659418  0.16683915  0.49227820  1
  I  I128  1  0.66666607  0.16697833  0.83990229  1
  I  I129  1  0.66658742  0.50094598  0.16313910  1
  I  I130  1  0.66604103  0.50060334  0.50289343  1
  I  I131  1  0.66382137  0.49976380  0.83245158  1
  I  I132  1  0.66693052  0.83821757  0.16750339  1
  I  I133  1  0.66697950  0.83251183  0.49538603  1
  I  I134  1  0.66951993  0.83292770  0.83826008  1
