# generated using pymatgen
data_Cs27Sn14Pb13I81
_symmetry_space_group_name_H-M   'P 1'
_cell_length_a   18.98551956
_cell_length_b   18.96441658
_cell_length_c   18.97981480
_cell_angle_alpha   89.99795447
_cell_angle_beta   89.99990366
_cell_angle_gamma   89.99940068
_symmetry_Int_Tables_number   1
_chemical_formula_structural   Cs27Sn14Pb13I81
_chemical_formula_sum   'Cs27 Sn14 Pb13 I81'
_cell_volume   6833.66906341
_cell_formula_units_Z   1
loop_
 _symmetry_equiv_pos_site_id
 _symmetry_equiv_pos_as_xyz
  1  'x, y, z'
loop_
 _atom_site_type_symbol
 _atom_site_label
 _atom_site_symmetry_multiplicity
 _atom_site_fract_x
 _atom_site_fract_y
 _atom_site_fract_z
 _atom_site_occupancy
  Cs  Cs0  1  0.00017047  0.00033301  0.00150475  1
  Cs  Cs1  1  -0.00257592  0.00039766  0.33081021  1
  Cs  Cs2  1  0.00111409  -0.00016553  0.66692065  1
  Cs  Cs3  1  0.00092695  0.33545462  -0.00208138  1
  Cs  Cs4  1  0.00134208  0.33694612  0.33786610  1
  Cs  Cs5  1  -0.00378238  0.33427749  0.66670970  1
  Cs  Cs6  1  -0.00465765  0.66446095  0.00162510  1
  Cs  Cs7  1  0.00476990  0.66299264  0.33332873  1
  Cs  Cs8  1  0.00160228  0.66439270  0.66381186  1
  Cs  Cs9  1  0.33259022  0.00101152  -0.00024130  1
  Cs  Cs10  1  0.33305823  0.00143062  0.33150468  1
  Cs  Cs11  1  0.33127439  -0.00492891  0.66790097  1
  Cs  Cs12  1  0.33362326  0.33246005  -0.00153136  1
  Cs  Cs13  1  0.33347843  0.33581596  0.33336564  1
  Cs  Cs14  1  0.33339985  0.33109988  0.67130618  1
  Cs  Cs15  1  0.33423512  0.66528251  -0.00072135  1
  Cs  Cs16  1  0.33203832  0.65850570  0.34169244  1
  Cs  Cs17  1  0.33269463  0.67404035  0.66033878  1
  Cs  Cs18  1  0.66672505  -0.00020938  0.00163886  1
  Cs  Cs19  1  0.66956483  0.00128676  0.33032000  1
  Cs  Cs20  1  0.66692692  -0.00019802  0.66571115  1
  Cs  Cs21  1  0.66452398  0.33369008  -0.00207710  1
  Cs  Cs22  1  0.66539235  0.33502611  0.33793087  1
  Cs  Cs23  1  0.66942220  0.33304229  0.66764418  1
  Cs  Cs24  1  0.66967694  0.66673827  -0.00065107  1
  Cs  Cs25  1  0.66266352  0.66206442  0.33356656  1
  Cs  Cs26  1  0.66379428  0.66682963  0.66676198  1
  Sn  Sn27  1  0.83256666  0.16547405  0.83437738  1
  Sn  Sn28  1  0.16704620  0.83374285  0.16654948  1
  Sn  Sn29  1  0.16652464  0.16619106  0.16754760  1
  Sn  Sn30  1  0.83319633  0.83344730  0.49939340  1
  Sn  Sn31  1  0.83326450  0.83397382  0.16692589  1
  Sn  Sn32  1  0.50069834  0.16673393  0.83321495  1
  Sn  Sn33  1  0.16746255  0.16615350  0.49928430  1
  Sn  Sn34  1  0.50013088  0.16613523  0.16683681  1
  Sn  Sn35  1  0.83331232  0.16697348  0.16584475  1
  Sn  Sn36  1  0.49864449  0.49980734  0.83354092  1
  Sn  Sn37  1  0.49898088  0.16604435  0.50005908  1
  Sn  Sn38  1  0.16797785  0.50030320  0.83351530  1
  Sn  Sn39  1  0.83334117  0.83451267  0.83324474  1
  Sn  Sn40  1  0.49970175  0.83376324  0.16678450  1
  Pb  Pb41  1  0.83281470  0.49978210  0.83349178  1
  Pb  Pb42  1  0.83317570  0.49934254  0.16681658  1
  Pb  Pb43  1  0.83330317  0.16541726  0.49983113  1
  Pb  Pb44  1  0.16690326  0.49693782  0.50297020  1
  Pb  Pb45  1  0.49993440  0.49710666  0.50331453  1
  Pb  Pb46  1  0.16638705  0.16738760  0.83367403  1
  Pb  Pb47  1  0.83318150  0.50370470  0.49993816  1
  Pb  Pb48  1  0.50169858  0.83394324  0.83528420  1
  Pb  Pb49  1  0.16399803  0.83093679  0.83578260  1
  Pb  Pb50  1  0.16686828  0.49952277  0.16490081  1
  Pb  Pb51  1  0.49998131  0.49957461  0.16461326  1
  Pb  Pb52  1  0.50183247  0.83606699  0.49688218  1
  Pb  Pb53  1  0.16474435  0.83586684  0.49720534  1
  I  I54  1  0.16568043  0.00118459  0.16892399  1
  I  I55  1  0.17084567  0.00378058  0.50066038  1
  I  I56  1  0.16841410  -0.00010718  0.83141788  1
  I  I57  1  0.16697642  0.32935241  0.16895858  1
  I  I58  1  0.16861082  0.32895014  0.49159356  1
  I  I59  1  0.16578130  0.33514437  0.83537741  1
  I  I60  1  0.16378007  0.66979427  0.16326667  1
  I  I61  1  0.16410531  0.66686230  0.49904840  1
  I  I62  1  0.17173410  0.66334701  0.83592684  1
  I  I63  1  0.50094899  0.00153082  0.16401679  1
  I  I64  1  0.49634780  0.00418052  0.50621074  1
  I  I65  1  0.50274387  0.00357950  0.83262848  1
  I  I66  1  0.49994322  0.32911456  0.16800840  1
  I  I67  1  0.49828555  0.32860197  0.49290430  1
  I  I68  1  0.50224243  0.33103124  0.83571416  1
  I  I69  1  0.50254772  0.66980168  0.16360467  1
  I  I70  1  0.50243574  0.66700204  0.49980032  1
  I  I71  1  0.49911841  0.66466144  0.83703124  1
  I  I72  1  0.83316037  0.00019125  0.16535460  1
  I  I73  1  0.83307127  -0.00236933  0.49935784  1
  I  I74  1  0.82793196  0.00094276  0.83541026  1
  I  I75  1  0.83317767  0.32875913  0.16034465  1
  I  I76  1  0.83380574  0.33290637  0.50098310  1
  I  I77  1  0.83254520  0.32986881  0.83799295  1
  I  I78  1  0.83363453  0.67079184  0.16461410  1
  I  I79  1  0.83366475  0.67198388  0.50016966  1
  I  I80  1  0.83371134  0.66977273  0.83540928  1
  I  I81  1  0.16823726  0.16431092  0.00307659  1
  I  I82  1  0.16876493  0.16264376  0.33177374  1
  I  I83  1  0.16879956  0.17011693  0.66473140  1
  I  I84  1  0.16972936  0.49651047  -0.00275383  1
  I  I85  1  0.16544863  0.50193192  0.33352004  1
  I  I86  1  0.16951343  0.49820394  0.67059909  1
  I  I87  1  0.16468515  0.84132075  0.00385767  1
  I  I88  1  0.16370980  0.83524954  0.32900848  1
  I  I89  1  0.16414923  0.83331441  0.66654975  1
  I  I90  1  0.50078131  0.16725682  0.00040865  1
  I  I91  1  0.50049415  0.16087136  0.33209260  1
  I  I92  1  0.50118407  0.17270279  0.66746492  1
  I  I93  1  0.49727330  0.49279139  -0.00320661  1
  I  I94  1  0.50081469  0.50023006  0.33354016  1
  I  I95  1  0.49771551  0.49483137  0.67129638  1
  I  I96  1  0.50249560  0.83898653  0.00341148  1
  I  I97  1  0.50316188  0.83980273  0.32874714  1
  I  I98  1  0.50303854  0.83341025  0.66660051  1
  I  I99  1  0.83097282  0.15972341  0.00035245  1
  I  I100  1  0.83105781  0.16153126  0.33023945  1
  I  I101  1  0.83071422  0.16320072  0.66931432  1
  I  I102  1  0.83383792  0.50456539  -0.00015707  1
  I  I103  1  0.83392060  0.49779422  0.33333202  1
  I  I104  1  0.83415495  0.49811434  0.66707477  1
  I  I105  1  0.83326419  0.83681941  0.00098300  1
  I  I106  1  0.83335870  0.83974235  0.33140976  1
  I  I107  1  0.83272747  0.83839639  0.66748722  1
  I  I108  1  -0.00031275  0.16039541  0.16594625  1
  I  I109  1  0.00207353  0.16485903  0.49709841  1
  I  I110  1  -0.00285757  0.16494215  0.83604901  1
  I  I111  1  0.00009215  0.50011556  0.16235030  1
  I  I112  1  0.00025853  0.49628639  0.50349747  1
  I  I113  1  0.00183068  0.49942612  0.83418350  1
  I  I114  1  -0.00084749  0.83991479  0.16586328  1
  I  I115  1  -0.00316449  0.83716664  0.49902251  1
  I  I116  1  -0.00413881  0.83899280  0.83613694  1
  I  I117  1  0.33375191  0.16087501  0.16614643  1
  I  I118  1  0.33387185  0.16715245  0.49670188  1
  I  I119  1  0.33599038  0.17023637  0.83599738  1
  I  I120  1  0.33342758  0.50066367  0.16536957  1
  I  I121  1  0.33342159  0.50333342  0.49838338  1
  I  I122  1  0.33438673  0.49090300  0.83596653  1
  I  I123  1  0.33347414  0.84187065  0.16419710  1
  I  I124  1  0.33336128  0.83207837  0.49948684  1
  I  I125  1  0.33335346  0.83514564  0.83550485  1
  I  I126  1  0.66654666  0.16076821  0.16530224  1
  I  I127  1  0.66419424  0.16504980  0.49820149  1
  I  I128  1  0.66638560  0.16921008  0.83604504  1
  I  I129  1  0.66653390  0.50109769  0.16306399  1
  I  I130  1  0.66637484  0.49663536  0.50221376  1
  I  I131  1  0.66396301  0.49735855  0.83394457  1
  I  I132  1  0.66743087  0.83991383  0.16587229  1
  I  I133  1  0.66971933  0.83700157  0.49875811  1
  I  I134  1  0.66996529  0.83265091  0.83643383  1
