# generated using pymatgen
data_Cs27Sn14Pb13I81
_symmetry_space_group_name_H-M   'P 1'
_cell_length_a   18.97205445
_cell_length_b   18.98116443
_cell_length_c   18.97199345
_cell_angle_alpha   89.99930231
_cell_angle_beta   90.00183449
_cell_angle_gamma   89.99959005
_symmetry_Int_Tables_number   1
_chemical_formula_structural   Cs27Sn14Pb13I81
_chemical_formula_sum   'Cs27 Sn14 Pb13 I81'
_cell_volume   6832.03652239
_cell_formula_units_Z   1
loop_
 _symmetry_equiv_pos_site_id
 _symmetry_equiv_pos_as_xyz
  1  'x, y, z'
loop_
 _atom_site_type_symbol
 _atom_site_label
 _atom_site_symmetry_multiplicity
 _atom_site_fract_x
 _atom_site_fract_y
 _atom_site_fract_z
 _atom_site_occupancy
  Cs  Cs0  1  -0.00253596  -0.00547562  0.00024835  1
  Cs  Cs1  1  0.00181047  -0.00224420  0.33465716  1
  Cs  Cs2  1  0.00129039  -0.00006345  0.66470686  1
  Cs  Cs3  1  -0.00083511  0.33505288  -0.00285713  1
  Cs  Cs4  1  0.00115144  0.33092059  0.33152849  1
  Cs  Cs5  1  -0.00170172  0.33470257  0.66977215  1
  Cs  Cs6  1  0.00017395  0.66781224  0.00254533  1
  Cs  Cs7  1  0.00158130  0.67204730  0.32659772  1
  Cs  Cs8  1  0.00049286  0.66581380  0.66782259  1
  Cs  Cs9  1  0.34075320  0.00664533  -0.00266111  1
  Cs  Cs10  1  0.32847185  0.00437988  0.33586756  1
  Cs  Cs11  1  0.33283542  -0.00176179  0.66607189  1
  Cs  Cs12  1  0.33321263  0.33407871  0.00362187  1
  Cs  Cs13  1  0.33209067  0.33047615  0.32971533  1
  Cs  Cs14  1  0.33031506  0.33804613  0.66555872  1
  Cs  Cs15  1  0.33415145  0.66414137  -0.00276350  1
  Cs  Cs16  1  0.33427141  0.66573093  0.33352644  1
  Cs  Cs17  1  0.33316053  0.66574355  0.66867990  1
  Cs  Cs18  1  0.66313739  0.00206533  -0.00107960  1
  Cs  Cs19  1  0.66822121  -0.00006748  0.33393689  1
  Cs  Cs20  1  0.66644267  -0.00083022  0.66650005  1
  Cs  Cs21  1  0.66848325  0.32999674  0.00012810  1
  Cs  Cs22  1  0.66639625  0.33360706  0.33539809  1
  Cs  Cs23  1  0.67282777  0.33454065  0.66322980  1
  Cs  Cs24  1  0.66434901  0.66780837  0.00334833  1
  Cs  Cs25  1  0.66603655  0.66627925  0.33398010  1
  Cs  Cs26  1  0.66660328  0.66563900  0.66326875  1
  Sn  Sn27  1  0.83275681  0.16597890  0.49930613  1
  Sn  Sn28  1  0.16664953  0.16666208  0.83342967  1
  Sn  Sn29  1  0.50023345  0.49963387  0.83376331  1
  Sn  Sn30  1  0.83333576  0.16733456  0.16725239  1
  Sn  Sn31  1  0.83277547  0.83388319  0.50082534  1
  Sn  Sn32  1  0.49971168  0.83304865  0.16785257  1
  Sn  Sn33  1  0.83246853  0.49909572  0.16673803  1
  Sn  Sn34  1  0.16734984  0.49996024  0.83257704  1
  Sn  Sn35  1  0.83356699  0.83303625  0.83240038  1
  Sn  Sn36  1  0.50042226  0.16603236  0.50034425  1
  Sn  Sn37  1  0.50101698  0.50056964  0.16584594  1
  Sn  Sn38  1  0.50039371  0.83416330  0.49898600  1
  Sn  Sn39  1  0.16617036  0.83354843  0.83339614  1
  Sn  Sn40  1  0.16629985  0.50028719  0.50009040  1
  Pb  Pb41  1  0.16675239  0.83139028  0.50163628  1
  Pb  Pb42  1  0.83592974  0.50051720  0.49751082  1
  Pb  Pb43  1  0.83329033  0.50235847  0.83547040  1
  Pb  Pb44  1  0.50189878  0.16693775  0.16883854  1
  Pb  Pb45  1  0.83148653  0.83362646  0.16697349  1
  Pb  Pb46  1  0.50013702  0.83175330  0.83281073  1
  Pb  Pb47  1  0.49827738  0.16994936  0.83022606  1
  Pb  Pb48  1  0.49855362  0.50006216  0.49956113  1
  Pb  Pb49  1  0.17066213  0.83365958  0.16341181  1
  Pb  Pb50  1  0.16699756  0.50010730  0.16616974  1
  Pb  Pb51  1  0.16350160  0.16632894  0.16380926  1
  Pb  Pb52  1  0.16608907  0.16861093  0.50178086  1
  Pb  Pb53  1  0.83500046  0.16432117  0.83294503  1
  I  I54  1  0.16564747  -0.00009004  0.16628948  1
  I  I55  1  0.16733270  -0.00007896  0.50252982  1
  I  I56  1  0.16105594  -0.00076545  0.83350476  1
  I  I57  1  0.17081961  0.33339244  0.16516791  1
  I  I58  1  0.16766939  0.33631995  0.50657504  1
  I  I59  1  0.17082536  0.33456653  0.82917724  1
  I  I60  1  0.16061286  0.66674062  0.16541375  1
  I  I61  1  0.16754074  0.66375773  0.50675210  1
  I  I62  1  0.16730513  0.66609816  0.82907921  1
  I  I63  1  0.50179133  -0.00238369  0.16715413  1
  I  I64  1  0.50336706  -0.00108264  0.49506975  1
  I  I65  1  0.49831985  0.00008683  0.83657392  1
  I  I66  1  0.50131468  0.33617323  0.16394727  1
  I  I67  1  0.50314287  0.33120811  0.50106627  1
  I  I68  1  0.49417204  0.33770030  0.83875097  1
  I  I69  1  0.50626860  0.66589217  0.16827252  1
  I  I70  1  0.50337192  0.66922557  0.49951208  1
  I  I71  1  0.49416324  0.66394688  0.83300595  1
  I  I72  1  0.83246792  0.00213581  0.16712174  1
  I  I73  1  0.83005113  -0.00016830  0.49818894  1
  I  I74  1  0.83834886  -0.00356454  0.83451779  1
  I  I75  1  0.82777976  0.33352897  0.17125546  1
  I  I76  1  0.82961057  0.33082864  0.49786553  1
  I  I77  1  0.83460934  0.33343674  0.83171751  1
  I  I78  1  0.83152177  0.66477656  0.16599894  1
  I  I79  1  0.82944347  0.66964950  0.50310185  1
  I  I80  1  0.83838528  0.67009548  0.82880580  1
  I  I81  1  0.16677347  0.17026132  -0.00429451  1
  I  I82  1  0.16878391  0.17009462  0.33361090  1
  I  I83  1  0.16491554  0.16577910  0.66972034  1
  I  I84  1  0.16798643  0.50049830  -0.00336217  1
  I  I85  1  0.16710914  0.49964437  0.33544373  1
  I  I86  1  0.17257703  0.50029741  0.66860487  1
  I  I87  1  0.15926239  0.82876028  -0.00479759  1
  I  I88  1  0.16362239  0.83033904  0.33340021  1
  I  I89  1  0.16760981  0.83380271  0.66993392  1
  I  I90  1  0.50040089  0.16397517  -0.00011194  1
  I  I91  1  0.50070660  0.16799695  0.33674336  1
  I  I92  1  0.50647186  0.16065622  0.66262383  1
  I  I93  1  0.49728324  0.50632158  0.00051097  1
  I  I94  1  0.50220262  0.50154088  0.33073136  1
  I  I95  1  0.49535362  0.50094915  0.66867334  1
  I  I96  1  0.50004146  0.82961909  0.00181666  1
  I  I97  1  0.50709928  0.82973857  0.33422501  1
  I  I98  1  0.50080254  0.83532747  0.66390175  1
  I  I99  1  0.83562186  0.16957128  0.00222076  1
  I  I100  1  0.82955697  0.16518840  0.33435506  1
  I  I101  1  0.83084455  0.16448850  0.66363244  1
  I  I102  1  0.83395205  0.49595201  0.00334850  1
  I  I103  1  0.82780141  0.50093952  0.32991813  1
  I  I104  1  0.83145031  0.49791673  0.66660237  1
  I  I105  1  0.83696747  0.83236758  -0.00198372  1
  I  I106  1  0.83059614  0.83374293  0.33607419  1
  I  I107  1  0.83135516  0.83830206  0.66559414  1
  I  I108  1  -0.00451637  0.17288629  0.17386817  1
  I  I109  1  -0.00321710  0.16281092  0.49693651  1
  I  I110  1  0.00295907  0.17259168  0.83154384  1
  I  I111  1  -0.00259954  0.49618709  0.16705399  1
  I  I112  1  0.00324449  0.49915942  0.50726269  1
  I  I113  1  0.00279470  0.49865666  0.83072713  1
  I  I114  1  -0.00015117  0.83229225  0.16811960  1
  I  I115  1  -0.00284739  0.83667213  0.50223192  1
  I  I116  1  0.00004090  0.83142391  0.82797349  1
  I  I117  1  0.33361269  0.16729740  0.16766992  1
  I  I118  1  0.33567291  0.16326189  0.50174407  1
  I  I119  1  0.33022866  0.16097689  0.83152457  1
  I  I120  1  0.33641282  0.50463556  0.16528960  1
  I  I121  1  0.33079904  0.50028925  0.50146793  1
  I  I122  1  0.33252896  0.50290359  0.83476096  1
  I  I123  1  0.33844572  0.82536608  0.17214302  1
  I  I124  1  0.33631699  0.83600563  0.49767887  1
  I  I125  1  0.33093723  0.83311438  0.83362195  1
  I  I126  1  0.66981324  0.16796387  0.16697175  1
  I  I127  1  0.66742751  0.16372917  0.49704105  1
  I  I128  1  0.66676148  0.16622619  0.83516581  1
  I  I129  1  0.66573729  0.50080523  0.16140393  1
  I  I130  1  0.66684523  0.49974978  0.50269951  1
  I  I131  1  0.66423721  0.50300719  0.83568409  1
  I  I132  1  0.66377568  0.83089247  0.16512341  1
  I  I133  1  0.66685530  0.83613485  0.50286453  1
  I  I134  1  0.66888240  0.83152007  0.83257514  1
