# generated using pymatgen
data_Cs27Sn13Pb14I81
_symmetry_space_group_name_H-M   'P 1'
_cell_length_a   19.00128055
_cell_length_b   18.99234014
_cell_length_c   18.98053533
_cell_angle_alpha   89.99842856
_cell_angle_beta   89.99919189
_cell_angle_gamma   90.00004999
_symmetry_Int_Tables_number   1
_chemical_formula_structural   Cs27Sn13Pb14I81
_chemical_formula_sum   'Cs27 Sn13 Pb14 I81'
_cell_volume   6849.67249010
_cell_formula_units_Z   1
loop_
 _symmetry_equiv_pos_site_id
 _symmetry_equiv_pos_as_xyz
  1  'x, y, z'
loop_
 _atom_site_type_symbol
 _atom_site_label
 _atom_site_symmetry_multiplicity
 _atom_site_fract_x
 _atom_site_fract_y
 _atom_site_fract_z
 _atom_site_occupancy
  Cs  Cs0  1  -0.00813859  0.00729319  0.00393448  1
  Cs  Cs1  1  -0.00145006  -0.00274159  0.33212920  1
  Cs  Cs2  1  0.00153958  0.00067626  0.66819947  1
  Cs  Cs3  1  0.00085311  0.32721085  -0.00239092  1
  Cs  Cs4  1  0.00157205  0.34097362  0.33331308  1
  Cs  Cs5  1  0.00007045  0.33385477  0.66755219  1
  Cs  Cs6  1  -0.00012531  0.66724147  0.00106558  1
  Cs  Cs7  1  0.00345055  0.66229381  0.33232494  1
  Cs  Cs8  1  0.00160126  0.66558020  0.66549419  1
  Cs  Cs9  1  0.33294509  0.00193286  0.01226774  1
  Cs  Cs10  1  0.33512643  -0.00059427  0.33355001  1
  Cs  Cs11  1  0.33129654  0.00141435  0.66444037  1
  Cs  Cs12  1  0.33056101  0.33088691  -0.00046966  1
  Cs  Cs13  1  0.33347146  0.33474735  0.33134194  1
  Cs  Cs14  1  0.33588724  0.33031420  0.66780860  1
  Cs  Cs15  1  0.33492854  0.66887909  -0.00281564  1
  Cs  Cs16  1  0.32969996  0.66597752  0.33216762  1
  Cs  Cs17  1  0.33307983  0.66893174  0.67008870  1
  Cs  Cs18  1  0.67486054  -0.00655116  0.00842352  1
  Cs  Cs19  1  0.66566705  0.00118721  0.33250742  1
  Cs  Cs20  1  0.66769363  -0.00032190  0.66557827  1
  Cs  Cs21  1  0.66803787  0.33586389  0.00275057  1
  Cs  Cs22  1  0.66649477  0.33453429  0.33359059  1
  Cs  Cs23  1  0.66338268  0.33401515  0.66534288  1
  Cs  Cs24  1  0.66613526  0.66905614  -0.00365026  1
  Cs  Cs25  1  0.66793505  0.66345221  0.33445176  1
  Cs  Cs26  1  0.66545962  0.66693665  0.66975961  1
  Sn  Sn27  1  0.50058069  0.16542303  0.83343523  1
  Sn  Sn28  1  0.16595983  0.50056762  0.83289949  1
  Sn  Sn29  1  0.16656276  0.16615586  0.50019247  1
  Sn  Sn30  1  0.83348818  0.16618020  0.50035111  1
  Sn  Sn31  1  0.16664385  0.83368292  0.83312959  1
  Sn  Sn32  1  0.49970115  0.50028252  0.49952285  1
  Sn  Sn33  1  0.49996679  0.16651694  0.50090298  1
  Sn  Sn34  1  0.16661198  0.83412256  0.50077500  1
  Sn  Sn35  1  0.83262010  0.50011418  0.16523039  1
  Sn  Sn36  1  0.83349885  0.83385603  0.50047335  1
  Sn  Sn37  1  0.49995901  0.83322415  0.50040757  1
  Sn  Sn38  1  0.83411558  0.49992890  0.83395294  1
  Sn  Sn39  1  0.50044490  0.50013851  0.16709592  1
  Pb  Pb40  1  0.83343624  0.83047303  0.16950455  1
  Pb  Pb41  1  0.16638059  0.83335153  0.16642211  1
  Pb  Pb42  1  0.49982521  0.49867162  0.83353480  1
  Pb  Pb43  1  0.16649009  0.16672225  0.17027176  1
  Pb  Pb44  1  0.49784698  0.83685843  0.83167370  1
  Pb  Pb45  1  0.16843135  0.16570936  0.83173709  1
  Pb  Pb46  1  0.16696089  0.50012597  0.16320315  1
  Pb  Pb47  1  0.50025449  0.16874729  0.16695974  1
  Pb  Pb48  1  0.50006194  0.83042869  0.16926024  1
  Pb  Pb49  1  0.83066751  0.16854506  0.83108004  1
  Pb  Pb50  1  0.83147685  0.50011688  0.50043785  1
  Pb  Pb51  1  0.83325647  0.16935135  0.16989542  1
  Pb  Pb52  1  0.16954794  0.50013143  0.50209131  1
  Pb  Pb53  1  0.83561080  0.83155050  0.83104575  1
  I  I54  1  0.16752692  0.00000147  0.16205385  1
  I  I55  1  0.17119671  -0.00060065  0.50598470  1
  I  I56  1  0.16990438  -0.00291997  0.82678427  1
  I  I57  1  0.16735331  0.33378265  0.16769826  1
  I  I58  1  0.16667271  0.33089482  0.50150279  1
  I  I59  1  0.16476928  0.33546699  0.83198319  1
  I  I60  1  0.16652052  0.66639142  0.17385098  1
  I  I61  1  0.16620563  0.66947491  0.50150733  1
  I  I62  1  0.16413950  0.66658032  0.82577016  1
  I  I63  1  0.49845853  -0.00003020  0.16705387  1
  I  I64  1  0.49953154  0.00034678  0.50550241  1
  I  I65  1  0.49769388  0.00417849  0.82289504  1
  I  I66  1  0.50384041  0.33668524  0.17414656  1
  I  I67  1  0.50078885  0.33287370  0.50021539  1
  I  I68  1  0.49781116  0.33133822  0.82455205  1
  I  I69  1  0.50385971  0.66241933  0.17185790  1
  I  I70  1  0.50071787  0.66671561  0.49505890  1
  I  I71  1  0.50089912  0.66686827  0.83191544  1
  I  I72  1  0.83407185  -0.00004426  0.16521610  1
  I  I73  1  0.82889751  0.00002291  0.50099226  1
  I  I74  1  0.83419947  0.00005206  0.83354404  1
  I  I75  1  0.82835660  0.33718695  0.16598270  1
  I  I76  1  0.83239898  0.33106338  0.49979184  1
  I  I77  1  0.83968142  0.33673253  0.83397051  1
  I  I78  1  0.82858219  0.66263899  0.16577324  1
  I  I79  1  0.83332194  0.66906790  0.49963820  1
  I  I80  1  0.83264013  0.66324631  0.83361771  1
  I  I81  1  0.17047940  0.16744623  -0.00037155  1
  I  I82  1  0.17094263  0.16122457  0.33918004  1
  I  I83  1  0.16619525  0.16595939  0.66301804  1
  I  I84  1  0.16890468  0.50614848  -0.00454285  1
  I  I85  1  0.16432480  0.49958357  0.33353330  1
  I  I86  1  0.16151448  0.50114166  0.66951319  1
  I  I87  1  0.16892443  0.82547103  -0.00351276  1
  I  I88  1  0.16750248  0.83756771  0.33757561  1
  I  I89  1  0.16713102  0.83204983  0.66473371  1
  I  I90  1  0.49676008  0.17214888  -0.00272103  1
  I  I91  1  0.49975928  0.16491551  0.33750440  1
  I  I92  1  0.49952526  0.17109583  0.66349313  1
  I  I93  1  0.50105386  0.49632502  0.00227868  1
  I  I94  1  0.50602243  0.49808545  0.33477740  1
  I  I95  1  0.50066744  0.50050758  0.66384795  1
  I  I96  1  0.49724258  0.83306826  -0.00018586  1
  I  I97  1  0.49701212  0.83932104  0.33856913  1
  I  I98  1  0.50191663  0.82699067  0.66239132  1
  I  I99  1  0.83170068  0.16631972  -0.00007016  1
  I  I100  1  0.82951216  0.16452595  0.33837633  1
  I  I101  1  0.83450142  0.16630192  0.66257945  1
  I  I102  1  0.82993430  0.49999308  -0.00016725  1
  I  I103  1  0.82963063  0.49957603  0.33189699  1
  I  I104  1  0.83571659  0.49982367  0.66875202  1
  I  I105  1  0.83485064  0.83395261  -0.00012136  1
  I  I106  1  0.83516816  0.83549402  0.33825717  1
  I  I107  1  0.83067153  0.83379556  0.66250322  1
  I  I108  1  -0.00024235  0.17009555  0.16670336  1
  I  I109  1  0.00008460  0.15996638  0.49969994  1
  I  I110  1  -0.00004750  0.16729054  0.83097680  1
  I  I111  1  -0.00279222  0.50031939  0.16737688  1
  I  I112  1  0.00013181  0.49932062  0.49739824  1
  I  I113  1  -0.00011792  0.50307514  0.83684844  1
  I  I114  1  -0.00016981  0.82898621  0.17167517  1
  I  I115  1  0.00048862  0.84025918  0.50360115  1
  I  I116  1  0.00348546  0.83085903  0.82450797  1
  I  I117  1  0.33359360  0.17017920  0.16799939  1
  I  I118  1  0.33401818  0.16488431  0.50395543  1
  I  I119  1  0.33602636  0.17184570  0.82401871  1
  I  I120  1  0.33617070  0.49930706  0.17227709  1
  I  I121  1  0.33746698  0.49906160  0.49587913  1
  I  I122  1  0.33126780  0.50234569  0.83112214  1
  I  I123  1  0.33337967  0.83048545  0.16925704  1
  I  I124  1  0.33326940  0.83551161  0.50352702  1
  I  I125  1  0.33011376  0.82337121  0.82445196  1
  I  I126  1  0.66669422  0.16690602  0.16976316  1
  I  I127  1  0.66583562  0.16508556  0.50344654  1
  I  I128  1  0.66320630  0.17134186  0.82346097  1
  I  I129  1  0.66641650  0.49887019  0.16648455  1
  I  I130  1  0.66357195  0.49931873  0.50103209  1
  I  I131  1  0.66855444  0.49722849  0.83307049  1
  I  I132  1  0.66668332  0.83444910  0.16827398  1
  I  I133  1  0.66627070  0.83551948  0.49857148  1
  I  I134  1  0.66659806  0.83082763  0.83043030  1
