# generated using pymatgen
data_Cs27Sn13Pb14I81
_symmetry_space_group_name_H-M   'P 1'
_cell_length_a   18.97497466
_cell_length_b   18.97893712
_cell_length_c   18.97573016
_cell_angle_alpha   90.00251206
_cell_angle_beta   89.99943213
_cell_angle_gamma   89.99854602
_symmetry_Int_Tables_number   1
_chemical_formula_structural   Cs27Sn13Pb14I81
_chemical_formula_sum   'Cs27 Sn13 Pb14 I81'
_cell_volume   6833.63198412
_cell_formula_units_Z   1
loop_
 _symmetry_equiv_pos_site_id
 _symmetry_equiv_pos_as_xyz
  1  'x, y, z'
loop_
 _atom_site_type_symbol
 _atom_site_label
 _atom_site_symmetry_multiplicity
 _atom_site_fract_x
 _atom_site_fract_y
 _atom_site_fract_z
 _atom_site_occupancy
  Cs  Cs0  1  -0.00098545  -0.00126595  -0.00164211  1
  Cs  Cs1  1  -0.00029873  0.00379088  0.33562199  1
  Cs  Cs2  1  0.00351841  0.00280719  0.66702091  1
  Cs  Cs3  1  0.00060048  0.33283797  0.00022129  1
  Cs  Cs4  1  -0.00038107  0.33259649  0.33272442  1
  Cs  Cs5  1  0.00076549  0.32948295  0.66745054  1
  Cs  Cs6  1  -0.00059311  0.67517270  -0.00172864  1
  Cs  Cs7  1  0.00570178  0.66395934  0.33045917  1
  Cs  Cs8  1  0.00056488  0.67062558  0.67082910  1
  Cs  Cs9  1  0.33584704  0.00253662  0.00271187  1
  Cs  Cs10  1  0.33674733  -0.00301897  0.33267128  1
  Cs  Cs11  1  0.33363878  -0.00326530  0.66536529  1
  Cs  Cs12  1  0.33248930  0.33076781  -0.00250869  1
  Cs  Cs13  1  0.33146954  0.33743202  0.33295668  1
  Cs  Cs14  1  0.33350945  0.33341664  0.66955808  1
  Cs  Cs15  1  0.32859816  0.66771203  0.00326468  1
  Cs  Cs16  1  0.32821449  0.66358279  0.33172340  1
  Cs  Cs17  1  0.33464197  0.67001837  0.66506672  1
  Cs  Cs18  1  0.66564932  0.00061114  0.00527190  1
  Cs  Cs19  1  0.66509917  -0.00186859  0.33369531  1
  Cs  Cs20  1  0.66438226  -0.00105352  0.66264447  1
  Cs  Cs21  1  0.66583792  0.33364050  -0.00160817  1
  Cs  Cs22  1  0.66851097  0.33484846  0.33365458  1
  Cs  Cs23  1  0.66604350  0.33618130  0.66741679  1
  Cs  Cs24  1  0.67178342  0.66618556  -0.00139378  1
  Cs  Cs25  1  0.66644539  0.66521145  0.33568050  1
  Cs  Cs26  1  0.66587956  0.66557499  0.66614380  1
  Sn  Sn27  1  0.50059956  0.49983447  0.49935428  1
  Sn  Sn28  1  0.16603457  0.16744754  0.83427181  1
  Sn  Sn29  1  0.50084610  0.49985469  0.16688428  1
  Sn  Sn30  1  0.16642812  0.49974646  0.83320607  1
  Sn  Sn31  1  0.16602147  0.16695779  0.16614617  1
  Sn  Sn32  1  0.50048684  0.83322100  0.83354428  1
  Sn  Sn33  1  0.83321654  0.16692819  0.83390650  1
  Sn  Sn34  1  0.50090132  0.83272704  0.50059283  1
  Sn  Sn35  1  0.83385372  0.16745421  0.16581137  1
  Sn  Sn36  1  0.83309972  0.83210611  0.49977344  1
  Sn  Sn37  1  0.83312612  0.50094363  0.49960318  1
  Sn  Sn38  1  0.49984061  0.16728138  0.49997330  1
  Sn  Sn39  1  0.83269102  0.49938856  0.16713509  1
  Pb  Pb40  1  0.16645137  0.83319919  0.49979113  1
  Pb  Pb41  1  0.83523823  0.49842893  0.83327219  1
  Pb  Pb42  1  0.50039359  0.16894107  0.16888984  1
  Pb  Pb43  1  0.16605580  0.49994323  0.50243716  1
  Pb  Pb44  1  0.49828407  0.50198304  0.83344684  1
  Pb  Pb45  1  0.16582885  0.49826793  0.16441529  1
  Pb  Pb46  1  0.50028725  0.82999189  0.16731307  1
  Pb  Pb47  1  0.83330380  0.83320787  0.16938212  1
  Pb  Pb48  1  0.16961193  0.16681807  0.49991171  1
  Pb  Pb49  1  0.83162867  0.16708746  0.49974797  1
  Pb  Pb50  1  0.16898700  0.83437829  0.83336207  1
  Pb  Pb51  1  0.16642498  0.83708475  0.16668802  1
  Pb  Pb52  1  0.83105618  0.83644159  0.83087548  1
  Pb  Pb53  1  0.50005598  0.16489975  0.83152177  1
  I  I54  1  0.16181241  0.00534104  0.16025388  1
  I  I55  1  0.16666703  0.00026361  0.50159304  1
  I  I56  1  0.16346851  0.00371747  0.83673826  1
  I  I57  1  0.16577018  0.33035551  0.16443818  1
  I  I58  1  0.16789595  0.33329844  0.49987776  1
  I  I59  1  0.16514039  0.33185214  0.83599685  1
  I  I60  1  0.16735175  0.66622545  0.16513577  1
  I  I61  1  0.17092835  0.66637065  0.50232111  1
  I  I62  1  0.16842372  0.66453670  0.83198246  1
  I  I63  1  0.49872659  0.00016174  0.16828437  1
  I  I64  1  0.50318816  -0.00075476  0.50468401  1
  I  I65  1  0.49864807  -0.00277199  0.82594135  1
  I  I66  1  0.50113975  0.33669159  0.17232686  1
  I  I67  1  0.50386970  0.33472065  0.49624922  1
  I  I68  1  0.50009658  0.33332307  0.83098811  1
  I  I69  1  0.50522704  0.66208481  0.17136432  1
  I  I70  1  0.50464190  0.66624489  0.50110169  1
  I  I71  1  0.49840698  0.66946887  0.82651752  1
  I  I72  1  0.83784148  0.00336084  0.16413012  1
  I  I73  1  0.82791855  -0.00175001  0.50057719  1
  I  I74  1  0.83954879  0.00428492  0.83724904  1
  I  I75  1  0.83321689  0.33344327  0.16983168  1
  I  I76  1  0.82822437  0.33607908  0.49906249  1
  I  I77  1  0.83402791  0.33030882  0.83176319  1
  I  I78  1  0.82804859  0.66315307  0.16873369  1
  I  I79  1  0.82414706  0.66549807  0.49581285  1
  I  I80  1  0.83524906  0.66674960  0.83551561  1
  I  I81  1  0.16379379  0.17120569  -0.00057070  1
  I  I82  1  0.16184358  0.16693024  0.33039652  1
  I  I83  1  0.16262750  0.16948276  0.66985460  1
  I  I84  1  0.16876637  0.49674195  -0.00303712  1
  I  I85  1  0.16783163  0.49855778  0.33306159  1
  I  I86  1  0.16755547  0.49257810  0.67004955  1
  I  I87  1  0.16937286  0.82960311  -0.00026157  1
  I  I88  1  0.17010218  0.83407582  0.33332739  1
  I  I89  1  0.16568562  0.83586075  0.66674183  1
  I  I90  1  0.49976102  0.16585260  0.00018075  1
  I  I91  1  0.50061106  0.16155327  0.33681403  1
  I  I92  1  0.50098670  0.17063927  0.66344948  1
  I  I93  1  0.50337861  0.50042279  0.00266122  1
  I  I94  1  0.50302515  0.50088924  0.33460985  1
  I  I95  1  0.50326496  0.49879749  0.66336986  1
  I  I96  1  0.49763631  0.83369720  -0.00221455  1
  I  I97  1  0.50417098  0.83657797  0.33705875  1
  I  I98  1  0.50273821  0.83207535  0.66471278  1
  I  I99  1  0.83630132  0.17208713  0.00075782  1
  I  I100  1  0.83687080  0.16782651  0.33066435  1
  I  I101  1  0.83687443  0.16637427  0.66869039  1
  I  I102  1  0.82895981  0.49606793  0.00291159  1
  I  I103  1  0.82899786  0.49735328  0.33343405  1
  I  I104  1  0.82880643  0.50159525  0.66369450  1
  I  I105  1  0.83206648  0.83108133  -0.00013414  1
  I  I106  1  0.82451195  0.83528255  0.33731681  1
  I  I107  1  0.83023153  0.82807835  0.66294978  1
  I  I108  1  -0.00107316  0.17250898  0.16401376  1
  I  I109  1  -0.00019029  0.16608023  0.50050017  1
  I  I110  1  0.00017277  0.17037731  0.83558595  1
  I  I111  1  -0.00329684  0.49688451  0.17196172  1
  I  I112  1  -0.00373038  0.50373059  0.49562512  1
  I  I113  1  0.00296841  0.49722040  0.83266617  1
  I  I114  1  -0.00032906  0.82751268  0.16838815  1
  I  I115  1  -0.00359789  0.82922838  0.49912906  1
  I  I116  1  -0.00020939  0.83196675  0.83152478  1
  I  I117  1  0.33118550  0.16799377  0.16273878  1
  I  I118  1  0.33768923  0.16615066  0.50057056  1
  I  I119  1  0.33063472  0.16902472  0.83640965  1
  I  I120  1  0.33555170  0.49972726  0.17098952  1
  I  I121  1  0.33671916  0.50086994  0.49631905  1
  I  I122  1  0.33059639  0.49315956  0.83341843  1
  I  I123  1  0.33365909  0.83292379  0.16870110  1
  I  I124  1  0.33715448  0.83369069  0.50429790  1
  I  I125  1  0.33669101  0.83438270  0.82477526  1
  I  I126  1  0.66969920  0.16871996  0.16319513  1
  I  I127  1  0.66374192  0.16619071  0.50057404  1
  I  I128  1  0.66918259  0.16560296  0.83649331  1
  I  I129  1  0.66745921  0.49404815  0.17068225  1
  I  I130  1  0.66607842  0.50036850  0.49690199  1
  I  I131  1  0.66679811  0.49876978  0.83321238  1
  I  I132  1  0.66666446  0.83981282  0.16401959  1
  I  I133  1  0.66552451  0.83306592  0.50402762  1
  I  I134  1  0.66342409  0.83335816  0.82978988  1
