# generated using pymatgen
data_Cs27Sn14Pb13I81
_symmetry_space_group_name_H-M   'P 1'
_cell_length_a   18.96205291
_cell_length_b   18.98309947
_cell_length_c   18.98309949
_cell_angle_alpha   90.00055471
_cell_angle_beta   89.99918507
_cell_angle_gamma   90.00081476
_symmetry_Int_Tables_number   1
_chemical_formula_structural   Cs27Sn14Pb13I81
_chemical_formula_sum   'Cs27 Sn14 Pb13 I81'
_cell_volume   6833.12870954
_cell_formula_units_Z   1
loop_
 _symmetry_equiv_pos_site_id
 _symmetry_equiv_pos_as_xyz
  1  'x, y, z'
loop_
 _atom_site_type_symbol
 _atom_site_label
 _atom_site_symmetry_multiplicity
 _atom_site_fract_x
 _atom_site_fract_y
 _atom_site_fract_z
 _atom_site_occupancy
  Cs  Cs0  1  0.00024967  0.00062633  -0.00340875  1
  Cs  Cs1  1  0.00026674  0.00066364  0.33358088  1
  Cs  Cs2  1  -0.00109254  -0.00291383  0.66958038  1
  Cs  Cs3  1  -0.00086857  0.33099411  -0.00046973  1
  Cs  Cs4  1  0.00096442  0.33290522  0.33376158  1
  Cs  Cs5  1  0.00026680  0.33308581  0.66600303  1
  Cs  Cs6  1  0.00045406  0.66760392  -0.00093728  1
  Cs  Cs7  1  -0.00086846  0.66713636  0.33567244  1
  Cs  Cs8  1  0.00024969  0.67007536  0.66604021  1
  Cs  Cs9  1  0.33166128  -0.00354124  0.00342886  1
  Cs  Cs10  1  0.33371984  -0.00132833  0.33390167  1
  Cs  Cs11  1  0.33941433  0.00263280  0.66403360  1
  Cs  Cs12  1  0.33457724  0.33740492  -0.00340415  1
  Cs  Cs13  1  0.32667128  0.33135696  0.33530938  1
  Cs  Cs14  1  0.33371996  0.33276490  0.66799522  1
  Cs  Cs15  1  0.33219370  0.66559473  0.00107186  1
  Cs  Cs16  1  0.33457721  0.67007089  0.32926167  1
  Cs  Cs17  1  0.33166134  0.66323777  0.67020801  1
  Cs  Cs18  1  0.66678196  0.00014700  -0.00106268  1
  Cs  Cs19  1  0.66622374  0.00052960  0.33366919  1
  Cs  Cs20  1  0.66073236  -0.00098841  0.66765509  1
  Cs  Cs21  1  0.66790398  0.33315012  0.00353185  1
  Cs  Cs22  1  0.66878632  0.33637558  0.33029116  1
  Cs  Cs23  1  0.66622364  0.33299748  0.66613707  1
  Cs  Cs24  1  0.66639459  0.66738575  -0.00071925  1
  Cs  Cs25  1  0.66790390  0.66313503  0.33351661  1
  Cs  Cs26  1  0.66678171  0.66772937  0.66651953  1
  Sn  Sn27  1  0.83299484  0.16646487  0.16678671  1
  Sn  Sn28  1  0.16616310  0.16574062  0.83328693  1
  Sn  Sn29  1  0.16650388  0.83447612  0.83219052  1
  Sn  Sn30  1  0.83362079  0.16743699  0.83308622  1
  Sn  Sn31  1  0.83299485  0.49987996  0.50020179  1
  Sn  Sn32  1  0.83326344  0.16651839  0.50014829  1
  Sn  Sn33  1  0.50064298  0.16764099  0.16675374  1
  Sn  Sn34  1  0.83345382  0.49919545  0.83321516  1
  Sn  Sn35  1  0.83352200  0.50012824  0.16653846  1
  Sn  Sn36  1  0.16616305  0.83337972  0.50092604  1
  Sn  Sn37  1  0.83345380  0.83345149  0.16747125  1
  Sn  Sn38  1  0.50096009  0.49862626  0.16804045  1
  Sn  Sn39  1  0.83362080  0.83358043  0.49922969  1
  Sn  Sn40  1  0.50064297  0.49991293  0.49902564  1
  Pb  Pb41  1  0.83401251  0.83358945  0.83307723  1
  Pb  Pb42  1  0.50039162  0.83070796  0.49991387  1
  Pb  Pb43  1  0.16437923  0.16432096  0.50234577  1
  Pb  Pb44  1  0.50296955  0.83306860  0.16683923  1
  Pb  Pb45  1  0.16393472  0.83345243  0.16695295  1
  Pb  Pb46  1  0.50252412  0.16928408  0.49738260  1
  Pb  Pb47  1  0.16669372  0.49980191  0.16686471  1
  Pb  Pb48  1  0.50039163  0.16675277  0.83595870  1
  Pb  Pb49  1  0.50296963  0.49982742  0.83359812  1
  Pb  Pb50  1  0.16659341  0.16677858  0.16442848  1
  Pb  Pb51  1  0.16659353  0.50223818  0.49988804  1
  Pb  Pb52  1  0.16393471  0.49971375  0.83321424  1
  Pb  Pb53  1  0.49608176  0.83337531  0.83329140  1
  I  I54  1  0.16694094  0.00003627  0.16782911  1
  I  I55  1  0.15974650  -0.00355600  0.50077714  1
  I  I56  1  0.15748397  0.00033577  0.83087322  1
  I  I57  1  0.16137121  0.33315670  0.16452609  1
  I  I58  1  0.16586381  0.33319078  0.50125953  1
  I  I59  1  0.16353432  0.33032805  0.83561807  1
  I  I60  1  0.16642758  0.66685790  0.16322146  1
  I  I61  1  0.15872725  0.67004955  0.50696610  1
  I  I62  1  0.16476651  0.66946489  0.82941030  1
  I  I63  1  0.50496361  0.00284605  0.16426341  1
  I  I64  1  0.50051424  0.00016949  0.49919527  1
  I  I65  1  0.50656467  0.00034336  0.83510891  1
  I  I66  1  0.51064570  0.33407239  0.16923126  1
  I  I67  1  0.50671013  0.33708287  0.49931430  1
  I  I68  1  0.49372318  0.33335693  0.83075303  1
  I  I69  1  0.50422591  0.66313301  0.17040693  1
  I  I70  1  0.50719289  0.66294114  0.49290177  1
  I  I71  1  0.50110335  0.66628308  0.83596309  1
  I  I72  1  0.83041637  0.00078349  0.16856605  1
  I  I73  1  0.83908974  -0.00002246  0.49665021  1
  I  I74  1  0.83600736  0.00285322  0.83475550  1
  I  I75  1  0.82988141  0.33337895  0.16762151  1
  I  I76  1  0.82896484  0.33357455  0.49860040  1
  I  I77  1  0.83885239  0.33262169  0.83375871  1
  I  I78  1  0.83077117  0.66585998  0.16859602  1
  I  I79  1  0.83383124  0.66633423  0.49743059  1
  I  I80  1  0.83434023  0.66423721  0.83406014  1
  I  I81  1  0.15872758  0.15970083  -0.00338291  1
  I  I82  1  0.16586444  0.16540690  0.33347587  1
  I  I83  1  0.15974566  0.16588959  0.67022269  1
  I  I84  1  0.16642807  0.50344523  -0.00019120  1
  I  I85  1  0.16137068  0.50214062  0.33351001  1
  I  I86  1  0.16694091  0.49883731  0.66663038  1
  I  I87  1  0.16476647  0.83725613  -0.00279817  1
  I  I88  1  0.16353426  0.83104856  0.33633860  1
  I  I89  1  0.15748386  0.83579366  0.66633097  1
  I  I90  1  0.50719258  0.17376527  0.00372555  1
  I  I91  1  0.50670997  0.16735259  0.32958377  1
  I  I92  1  0.50051456  0.16747080  0.66649718  1
  I  I93  1  0.50422540  0.49625969  0.00353369  1
  I  I94  1  0.51064636  0.49743545  0.33259431  1
  I  I95  1  0.50496351  0.50240332  0.66382067  1
  I  I96  1  0.50110361  0.83070317  0.00038359  1
  I  I97  1  0.49372305  0.83591319  0.33330978  1
  I  I98  1  0.50656442  0.83155849  0.66632327  1
  I  I99  1  0.83383122  0.16923644  0.00033244  1
  I  I100  1  0.82896454  0.16806616  0.33309208  1
  I  I101  1  0.83908998  0.17001609  0.66668914  1
  I  I102  1  0.83077121  0.49807070  0.00080663  1
  I  I103  1  0.82988122  0.49904530  0.33328772  1
  I  I104  1  0.83041642  0.49810045  0.66588320  1
  I  I105  1  0.83434000  0.83260629  0.00242946  1
  I  I106  1  0.83885244  0.83290784  0.33404495  1
  I  I107  1  0.83600755  0.83191172  0.66381344  1
  I  I108  1  -0.00408629  0.16762409  0.16825461  1
  I  I109  1  -0.00460598  0.17245760  0.49420848  1
  I  I110  1  -0.00213896  0.16664825  0.83589868  1
  I  I111  1  -0.00459129  0.49913371  0.16753281  1
  I  I112  1  -0.00408628  0.49841225  0.49904260  1
  I  I113  1  -0.00456562  0.49887358  0.83359775  1
  I  I114  1  -0.00456559  0.83306913  0.16779297  1
  I  I115  1  -0.00213893  0.83076844  0.50001837  1
  I  I116  1  0.00184293  0.83422603  0.83244086  1
  I  I117  1  0.33643840  0.17238712  0.16444008  1
  I  I118  1  0.33345009  0.16673858  0.49992870  1
  I  I119  1  0.33043488  0.16102190  0.83532495  1
  I  I120  1  0.33721374  0.49530758  0.17135978  1
  I  I121  1  0.33643843  0.50222664  0.49427912  1
  I  I122  1  0.33336448  0.50104506  0.83385341  1
  I  I123  1  0.33336446  0.83281303  0.16562150  1
  I  I124  1  0.33043487  0.83134108  0.50564480  1
  I  I125  1  0.32775137  0.83968015  0.82698661  1
  I  I126  1  0.66930201  0.16763439  0.16452824  1
  I  I127  1  0.67144325  0.16060754  0.50605919  1
  I  I128  1  0.67055037  0.17129923  0.83196245  1
  I  I129  1  0.66878509  0.49934299  0.16732320  1
  I  I130  1  0.66930206  0.50213833  0.49903258  1
  I  I131  1  0.67139804  0.49397787  0.83362680  1
  I  I132  1  0.67139805  0.83304014  0.17268909  1
  I  I133  1  0.67055036  0.83470417  0.49536759  1
  I  I134  1  0.66697481  0.83325049  0.83341585  1
