# generated using pymatgen
data_Cs27Sn14Pb13I81
_symmetry_space_group_name_H-M   'P 1'
_cell_length_a   18.98122494
_cell_length_b   18.97118835
_cell_length_c   18.97532423
_cell_angle_alpha   90.00034875
_cell_angle_beta   89.99692257
_cell_angle_gamma   89.99970732
_symmetry_Int_Tables_number   1
_chemical_formula_structural   Cs27Sn14Pb13I81
_chemical_formula_sum   'Cs27 Sn14 Pb13 I81'
_cell_volume   6832.94580739
_cell_formula_units_Z   1
loop_
 _symmetry_equiv_pos_site_id
 _symmetry_equiv_pos_as_xyz
  1  'x, y, z'
loop_
 _atom_site_type_symbol
 _atom_site_label
 _atom_site_symmetry_multiplicity
 _atom_site_fract_x
 _atom_site_fract_y
 _atom_site_fract_z
 _atom_site_occupancy
  Cs  Cs0  1  -0.00308832  0.00214595  0.00038318  1
  Cs  Cs1  1  -0.00396531  -0.00433151  0.33182355  1
  Cs  Cs2  1  0.00176078  0.00047504  0.66682425  1
  Cs  Cs3  1  0.00300559  0.33271134  0.00023468  1
  Cs  Cs4  1  0.00465734  0.33254582  0.33048021  1
  Cs  Cs5  1  -0.00141150  0.33238440  0.66809061  1
  Cs  Cs6  1  0.00185010  0.66440819  0.00042420  1
  Cs  Cs7  1  -0.00106672  0.67110860  0.33594317  1
  Cs  Cs8  1  -0.00250659  0.66898324  0.66251259  1
  Cs  Cs9  1  0.33595851  -0.00655424  -0.00061095  1
  Cs  Cs10  1  0.33824071  0.00310186  0.33310009  1
  Cs  Cs11  1  0.33087189  -0.00110725  0.66744331  1
  Cs  Cs12  1  0.32915196  0.33533329  -0.00055630  1
  Cs  Cs13  1  0.33278424  0.33374633  0.33358384  1
  Cs  Cs14  1  0.33404923  0.33266013  0.66585949  1
  Cs  Cs15  1  0.33413625  0.66781289  -0.00027104  1
  Cs  Cs16  1  0.33173828  0.66333586  0.33577638  1
  Cs  Cs17  1  0.33315040  0.66922359  0.66603034  1
  Cs  Cs18  1  0.66793870  -0.00468472  0.00571788  1
  Cs  Cs19  1  0.66515647  -0.00004904  0.32343164  1
  Cs  Cs20  1  0.66652729  0.00550065  0.66918348  1
  Cs  Cs21  1  0.66830133  0.33584027  -0.00351934  1
  Cs  Cs22  1  0.66314647  0.33195264  0.33400483  1
  Cs  Cs23  1  0.66747579  0.33341438  0.66755952  1
  Cs  Cs24  1  0.66516829  0.66663623  0.00075378  1
  Cs  Cs25  1  0.66924835  0.66787457  0.33397591  1
  Cs  Cs26  1  0.66838658  0.66338772  0.66480366  1
  Sn  Sn27  1  0.16739127  0.49969848  0.83187607  1
  Sn  Sn28  1  0.83337321  0.16563315  0.83274080  1
  Sn  Sn29  1  0.16703158  0.16727370  0.83257343  1
  Sn  Sn30  1  0.49964014  0.16715935  0.83354921  1
  Sn  Sn31  1  0.83329207  0.83382811  0.83273670  1
  Sn  Sn32  1  0.50026847  0.83296851  0.50043598  1
  Sn  Sn33  1  0.49940607  0.50087359  0.50028067  1
  Sn  Sn34  1  0.16707583  0.49931998  0.50132681  1
  Sn  Sn35  1  0.83411162  0.16686159  0.50014117  1
  Sn  Sn36  1  0.50087324  0.49979864  0.16665783  1
  Sn  Sn37  1  0.49906565  0.49931936  0.83315630  1
  Sn  Sn38  1  0.16559119  0.16739723  0.50068549  1
  Sn  Sn39  1  0.83278809  0.49949569  0.16692493  1
  Sn  Sn40  1  0.16688683  0.83351163  0.16667183  1
  Pb  Pb41  1  0.49978656  0.16716394  0.50172180  1
  Pb  Pb42  1  0.83371498  0.49942348  0.83439448  1
  Pb  Pb43  1  0.83365983  0.49772259  0.49793177  1
  Pb  Pb44  1  0.16707689  0.50123668  0.16693393  1
  Pb  Pb45  1  0.83503086  0.83082032  0.16446965  1
  Pb  Pb46  1  0.16821097  0.83389957  0.49842105  1
  Pb  Pb47  1  0.83062362  0.83644632  0.50187811  1
  Pb  Pb48  1  0.16675682  0.16404664  0.16661636  1
  Pb  Pb49  1  0.49824098  0.83052999  0.16911685  1
  Pb  Pb50  1  0.83334828  0.16889910  0.16649836  1
  Pb  Pb51  1  0.16485655  0.83322507  0.83449111  1
  Pb  Pb52  1  0.50200656  0.83278731  0.83158355  1
  Pb  Pb53  1  0.49972619  0.16943887  0.16292732  1
  I  I54  1  0.16567775  -0.00321864  0.16613493  1
  I  I55  1  0.16504213  0.00330638  0.50425886  1
  I  I56  1  0.16905182  0.00339002  0.83003085  1
  I  I57  1  0.16650202  0.33342525  0.16636990  1
  I  I58  1  0.16919224  0.33385326  0.50289287  1
  I  I59  1  0.16539921  0.33337609  0.83110818  1
  I  I60  1  0.16651204  0.66851733  0.16571269  1
  I  I61  1  0.16978185  0.66361357  0.50263296  1
  I  I62  1  0.17015028  0.66337938  0.83165149  1
  I  I63  1  0.49888173  -0.00023322  0.16793371  1
  I  I64  1  0.49912156  -0.00146726  0.50311637  1
  I  I65  1  0.49706322  0.00275515  0.82918594  1
  I  I66  1  0.50200924  0.33770463  0.17329365  1
  I  I67  1  0.49899731  0.33646985  0.49825237  1
  I  I68  1  0.50198682  0.33425791  0.83120774  1
  I  I69  1  0.50283686  0.66247009  0.16038858  1
  I  I70  1  0.49410163  0.66401647  0.50207300  1
  I  I71  1  0.49680887  0.66300443  0.83533747  1
  I  I72  1  0.83481345  -0.00002559  0.16793274  1
  I  I73  1  0.83922291  0.00427496  0.50239377  1
  I  I74  1  0.83386051  0.00206755  0.82979972  1
  I  I75  1  0.83030540  0.33660593  0.16341083  1
  I  I76  1  0.83213490  0.33010336  0.50839305  1
  I  I77  1  0.83281088  0.33035855  0.83102889  1
  I  I78  1  0.82955484  0.66322639  0.16457858  1
  I  I79  1  0.83558114  0.66659758  0.50045915  1
  I  I80  1  0.83315485  0.66808016  0.83713106  1
  I  I81  1  0.16538930  0.17181344  -0.00382142  1
  I  I82  1  0.16236561  0.17118944  0.33687628  1
  I  I83  1  0.16580525  0.17045910  0.66746246  1
  I  I84  1  0.16868550  0.49687005  -0.00279008  1
  I  I85  1  0.16995909  0.49666645  0.33625539  1
  I  I86  1  0.17428206  0.49669842  0.66687619  1
  I  I87  1  0.16642659  0.83116623  0.00207362  1
  I  I88  1  0.16695040  0.83047552  0.33096510  1
  I  I89  1  0.16659441  0.83274520  0.66657081  1
  I  I90  1  0.50000973  0.17093624  -0.00545087  1
  I  I91  1  0.50028626  0.16646079  0.33347431  1
  I  I92  1  0.50113110  0.17245711  0.66987643  1
  I  I93  1  0.49989127  0.49461717  -0.00117481  1
  I  I94  1  0.49934540  0.50502328  0.33430754  1
  I  I95  1  0.49548164  0.49977340  0.66692071  1
  I  I96  1  0.50022655  0.83344438  -0.00006236  1
  I  I97  1  0.49938097  0.82945705  0.33692092  1
  I  I98  1  0.49855018  0.82669942  0.66402996  1
  I  I99  1  0.83409333  0.16434751  -0.00367137  1
  I  I100  1  0.83865583  0.16962708  0.33628154  1
  I  I101  1  0.83402896  0.16438097  0.66802256  1
  I  I102  1  0.82979466  0.49905318  0.00214456  1
  I  I103  1  0.82967458  0.49862809  0.33037779  1
  I  I104  1  0.83081675  0.50192241  0.66658355  1
  I  I105  1  0.83261415  0.84092206  -0.00325475  1
  I  I106  1  0.83353250  0.83415854  0.33344492  1
  I  I107  1  0.83510226  0.83268439  0.66969473  1
  I  I108  1  0.00006913  0.17061562  0.16208927  1
  I  I109  1  0.00106409  0.17230322  0.50849866  1
  I  I110  1  0.00042675  0.16725542  0.82969319  1
  I  I111  1  -0.00144815  0.50151531  0.16483735  1
  I  I112  1  0.00313716  0.49783616  0.50337680  1
  I  I113  1  0.00291839  0.49739549  0.83196894  1
  I  I114  1  0.00243458  0.82960931  0.16779765  1
  I  I115  1  -0.00013340  0.83042977  0.49875632  1
  I  I116  1  -0.00283304  0.83670200  0.83431043  1
  I  I117  1  0.33328756  0.16847154  0.16881552  1
  I  I118  1  0.33065908  0.16748595  0.50383453  1
  I  I119  1  0.33272308  0.17234722  0.82918607  1
  I  I120  1  0.33600835  0.50176834  0.16625483  1
  I  I121  1  0.33345729  0.49785819  0.49802141  1
  I  I122  1  0.33367997  0.49291286  0.83532767  1
  I  I123  1  0.33092063  0.83134900  0.16401575  1
  I  I124  1  0.33599014  0.83249477  0.50058390  1
  I  I125  1  0.33341264  0.83581441  0.83448146  1
  I  I126  1  0.66650877  0.16446403  0.16856860  1
  I  I127  1  0.66854811  0.16753297  0.50578937  1
  I  I128  1  0.66679809  0.16843038  0.82832240  1
  I  I129  1  0.66530836  0.50004665  0.16504753  1
  I  I130  1  0.66370104  0.50180939  0.50261390  1
  I  I131  1  0.66387811  0.49709167  0.83165952  1
  I  I132  1  0.66652873  0.83400533  0.16685963  1
  I  I133  1  0.66316868  0.82558139  0.50082834  1
  I  I134  1  0.66965559  0.83765197  0.83309337  1
