# generated using pymatgen
data_Cs27Sn13Pb14I81
_symmetry_space_group_name_H-M   'P 1'
_cell_length_a   18.97588048
_cell_length_b   18.97115262
_cell_length_c   18.98030622
_cell_angle_alpha   89.99906523
_cell_angle_beta   90.00040550
_cell_angle_gamma   90.00101553
_symmetry_Int_Tables_number   1
_chemical_formula_structural   Cs27Sn13Pb14I81
_chemical_formula_sum   'Cs27 Sn13 Pb14 I81'
_cell_volume   6832.80251873
_cell_formula_units_Z   1
loop_
 _symmetry_equiv_pos_site_id
 _symmetry_equiv_pos_as_xyz
  1  'x, y, z'
loop_
 _atom_site_type_symbol
 _atom_site_label
 _atom_site_symmetry_multiplicity
 _atom_site_fract_x
 _atom_site_fract_y
 _atom_site_fract_z
 _atom_site_occupancy
  Cs  Cs0  1  -0.00015103  0.00082390  -0.00109545  1
  Cs  Cs1  1  0.00211509  0.00256380  0.33655302  1
  Cs  Cs2  1  -0.00077204  0.00077586  0.66549871  1
  Cs  Cs3  1  0.00134410  0.33267101  0.00036935  1
  Cs  Cs4  1  -0.00096216  0.33579405  0.33132194  1
  Cs  Cs5  1  -0.00189992  0.32968225  0.66876533  1
  Cs  Cs6  1  -0.00145625  0.66557686  -0.00009308  1
  Cs  Cs7  1  0.00361022  0.65613222  0.33332865  1
  Cs  Cs8  1  0.00133976  0.66803666  0.66610176  1
  Cs  Cs9  1  0.33268160  0.00116397  0.00148243  1
  Cs  Cs10  1  0.33411468  -0.00072370  0.33208423  1
  Cs  Cs11  1  0.33177580  -0.00118803  0.66714759  1
  Cs  Cs12  1  0.33526539  0.33334555  -0.00414655  1
  Cs  Cs13  1  0.33556113  0.33565757  0.33409321  1
  Cs  Cs14  1  0.34498996  0.33326493  0.67173645  1
  Cs  Cs15  1  0.33323437  0.66626861  -0.00031676  1
  Cs  Cs16  1  0.32676206  0.66603652  0.33373605  1
  Cs  Cs17  1  0.33371419  0.66788996  0.66548442  1
  Cs  Cs18  1  0.66755355  -0.00513905  0.00597361  1
  Cs  Cs19  1  0.66387762  0.00054533  0.33223837  1
  Cs  Cs20  1  0.67001567  -0.00236885  0.66372338  1
  Cs  Cs21  1  0.66298030  0.33345762  -0.00227072  1
  Cs  Cs22  1  0.66633532  0.33341858  0.33739410  1
  Cs  Cs23  1  0.66120312  0.33662541  0.66587885  1
  Cs  Cs24  1  0.66761536  0.67095459  0.00194527  1
  Cs  Cs25  1  0.66961174  0.66557284  0.32916519  1
  Cs  Cs26  1  0.66530756  0.66656420  0.66769241  1
  Sn  Sn27  1  0.16719094  0.83272990  0.83414831  1
  Sn  Sn28  1  0.83324376  0.16732244  0.83336535  1
  Sn  Sn29  1  0.16602322  0.83383181  0.16596209  1
  Sn  Sn30  1  0.50000777  0.50006104  0.16671954  1
  Sn  Sn31  1  0.83301571  0.83344004  0.49944551  1
  Sn  Sn32  1  0.16598578  0.16601489  0.16751893  1
  Sn  Sn33  1  0.83405405  0.49935918  0.83317565  1
  Sn  Sn34  1  0.49922225  0.83368012  0.83291917  1
  Sn  Sn35  1  0.16600028  0.50056018  0.83299247  1
  Sn  Sn36  1  0.83412192  0.16600885  0.49984061  1
  Sn  Sn37  1  0.16645222  0.16708390  0.49954769  1
  Sn  Sn38  1  0.50085695  0.83348494  0.50032975  1
  Sn  Sn39  1  0.83390878  0.16648503  0.16680148  1
  Pb  Pb40  1  0.16542239  0.16644875  0.83332699  1
  Pb  Pb41  1  0.83148898  0.49716749  0.16408272  1
  Pb  Pb42  1  0.83384505  0.83347416  0.83202509  1
  Pb  Pb43  1  0.49768916  0.83177114  0.16707243  1
  Pb  Pb44  1  0.50029190  0.50258142  0.83468786  1
  Pb  Pb45  1  0.16629269  0.83467693  0.50007830  1
  Pb  Pb46  1  0.16674889  0.49587551  0.50348455  1
  Pb  Pb47  1  0.83352686  0.49953758  0.50242854  1
  Pb  Pb48  1  0.83642661  0.83511234  0.16994866  1
  Pb  Pb49  1  0.50365927  0.16318634  0.83347187  1
  Pb  Pb50  1  0.16795300  0.49909614  0.16449362  1
  Pb  Pb51  1  0.49955265  0.16859647  0.16672213  1
  Pb  Pb52  1  0.50001936  0.50343544  0.49743347  1
  Pb  Pb53  1  0.50008014  0.16451007  0.50007840  1
  I  I54  1  0.16446774  0.00043528  0.16387847  1
  I  I55  1  0.16434563  0.00270131  0.50100703  1
  I  I56  1  0.16881465  -0.00260536  0.83410859  1
  I  I57  1  0.16325358  0.32993171  0.16920114  1
  I  I58  1  0.15844902  0.32811445  0.49339766  1
  I  I59  1  0.16327238  0.33530024  0.83379233  1
  I  I60  1  0.16982992  0.66891176  0.16473574  1
  I  I61  1  0.16646828  0.66662670  0.49732827  1
  I  I62  1  0.16447898  0.66777229  0.83877230  1
  I  I63  1  0.50121238  -0.00022823  0.16610448  1
  I  I64  1  0.50160184  -0.00345811  0.50305799  1
  I  I65  1  0.49345988  -0.00451758  0.83077049  1
  I  I66  1  0.49841826  0.33612473  0.16437547  1
  I  I67  1  0.50016400  0.33340810  0.49956958  1
  I  I68  1  0.49733101  0.33347491  0.83457721  1
  I  I69  1  0.49853641  0.66435061  0.16539308  1
  I  I70  1  0.50513720  0.67135584  0.50525494  1
  I  I71  1  0.50046209  0.67024928  0.83027716  1
  I  I72  1  0.83362441  0.00351906  0.16042986  1
  I  I73  1  0.83342885  0.00114119  0.50363840  1
  I  I74  1  0.83379203  0.00268277  0.83378902  1
  I  I75  1  0.84003855  0.32894001  0.17144135  1
  I  I76  1  0.83819621  0.32954820  0.49798436  1
  I  I77  1  0.83999953  0.33272921  0.83250858  1
  I  I78  1  0.83332073  0.66665011  0.16652873  1
  I  I79  1  0.82897510  0.66950884  0.50312494  1
  I  I80  1  0.83411495  0.66471028  0.83116265  1
  I  I81  1  0.16210889  0.16534806  0.00241634  1
  I  I82  1  0.15866967  0.15968041  0.33262639  1
  I  I83  1  0.16079870  0.16515838  0.66454576  1
  I  I84  1  0.16372924  0.49988534  -0.00330075  1
  I  I85  1  0.16849462  0.50331782  0.33323369  1
  I  I86  1  0.16317082  0.50690072  0.67128466  1
  I  I87  1  0.17212386  0.83588437  -0.00087125  1
  I  I88  1  0.16763037  0.83681594  0.33117632  1
  I  I89  1  0.16763594  0.83155855  0.66925075  1
  I  I90  1  0.49969636  0.16518638  -0.00002559  1
  I  I91  1  0.50357450  0.16490023  0.33336170  1
  I  I92  1  0.49802160  0.16947918  0.66685384  1
  I  I93  1  0.49958025  0.50167441  0.00204166  1
  I  I94  1  0.49932603  0.50011565  0.33002562  1
  I  I95  1  0.49981374  0.49896321  0.66689362  1
  I  I96  1  0.49816353  0.83152085  -0.00232022  1
  I  I97  1  0.50298195  0.83302222  0.33594646  1
  I  I98  1  0.49788995  0.83327739  0.66706742  1
  I  I99  1  0.83795376  0.17110031  0.00002795  1
  I  I100  1  0.83747677  0.16109820  0.33370977  1
  I  I101  1  0.83849975  0.16539806  0.66617729  1
  I  I102  1  0.83689895  0.49608651  -0.00376515  1
  I  I103  1  0.83168546  0.50015314  0.33314279  1
  I  I104  1  0.83615314  0.49471635  0.67047377  1
  I  I105  1  0.83051886  0.83461569  0.00021635  1
  I  I106  1  0.82718628  0.83952200  0.33758422  1
  I  I107  1  0.83420390  0.83931400  0.66419310  1
  I  I108  1  0.00016628  0.16308232  0.16706730  1
  I  I109  1  -0.00120156  0.15973139  0.50029997  1
  I  I110  1  -0.00283318  0.16538194  0.83278672  1
  I  I111  1  0.00002763  0.50176010  0.16667607  1
  I  I112  1  0.00017614  0.50623969  0.49756465  1
  I  I113  1  0.00016413  0.50223074  0.83444570  1
  I  I114  1  0.00411941  0.83456499  0.15978570  1
  I  I115  1  -0.00237214  0.83784781  0.50193864  1
  I  I116  1  0.00270189  0.83279446  0.83525532  1
  I  I117  1  0.32965362  0.16339496  0.17115440  1
  I  I118  1  0.33034390  0.16468975  0.49474899  1
  I  I119  1  0.33331636  0.16961194  0.83332452  1
  I  I120  1  0.33542214  0.49941209  0.16368809  1
  I  I121  1  0.33323098  0.49987240  0.50179374  1
  I  I122  1  0.33092473  0.50183982  0.83533283  1
  I  I123  1  0.32983725  0.83917192  0.16671124  1
  I  I124  1  0.33511206  0.83488428  0.50153483  1
  I  I125  1  0.33225696  0.82787616  0.83097002  1
  I  I126  1  0.66990315  0.16816259  0.16706213  1
  I  I127  1  0.67021539  0.16432929  0.49943805  1
  I  I128  1  0.67186569  0.17288936  0.83231717  1
  I  I129  1  0.66408576  0.50062858  0.16405893  1
  I  I130  1  0.66679290  0.49578117  0.50239996  1
  I  I131  1  0.66924589  0.49615005  0.83434773  1
  I  I132  1  0.66689773  0.83363456  0.16424578  1
  I  I133  1  0.66703676  0.83942896  0.50652674  1
  I  I134  1  0.66488191  0.83360295  0.83045548  1
