# generated using pymatgen
data_Cs27Sn14Pb13I81
_symmetry_space_group_name_H-M   'P 1'
_cell_length_a   18.98441020
_cell_length_b   18.96659598
_cell_length_c   18.97651890
_cell_angle_alpha   89.99680418
_cell_angle_beta   90.00062443
_cell_angle_gamma   90.00019668
_symmetry_Int_Tables_number   1
_chemical_formula_structural   Cs27Sn14Pb13I81
_chemical_formula_sum   'Cs27 Sn14 Pb13 I81'
_cell_volume   6832.86828319
_cell_formula_units_Z   1
loop_
 _symmetry_equiv_pos_site_id
 _symmetry_equiv_pos_as_xyz
  1  'x, y, z'
loop_
 _atom_site_type_symbol
 _atom_site_label
 _atom_site_symmetry_multiplicity
 _atom_site_fract_x
 _atom_site_fract_y
 _atom_site_fract_z
 _atom_site_occupancy
  Cs  Cs0  1  -0.00559095  -0.00001358  -0.00194809  1
  Cs  Cs1  1  -0.00078284  0.00105136  0.33367996  1
  Cs  Cs2  1  -0.00014733  0.00231853  0.66801948  1
  Cs  Cs3  1  0.00023934  0.33523775  0.00235053  1
  Cs  Cs4  1  -0.00149248  0.33411574  0.33179240  1
  Cs  Cs5  1  0.00166794  0.33111460  0.66753318  1
  Cs  Cs6  1  0.00107117  0.66595159  0.00009407  1
  Cs  Cs7  1  0.00161266  0.66567229  0.33356835  1
  Cs  Cs8  1  0.00168914  0.66614255  0.66555953  1
  Cs  Cs9  1  0.33805279  -0.00018425  0.00327374  1
  Cs  Cs10  1  0.33765563  0.00081253  0.33285731  1
  Cs  Cs11  1  0.33110216  0.00028629  0.66437967  1
  Cs  Cs12  1  0.33475897  0.33480430  -0.00048482  1
  Cs  Cs13  1  0.33316407  0.32938324  0.33263587  1
  Cs  Cs14  1  0.33851839  0.32535430  0.66742148  1
  Cs  Cs15  1  0.33108922  0.66547215  -0.00165706  1
  Cs  Cs16  1  0.32911111  0.66870407  0.33218939  1
  Cs  Cs17  1  0.33363003  0.66789099  0.66887068  1
  Cs  Cs18  1  0.66948869  0.00053864  -0.00000262  1
  Cs  Cs19  1  0.66591747  0.00065798  0.33082468  1
  Cs  Cs20  1  0.67030431  -0.00290127  0.66983587  1
  Cs  Cs21  1  0.66490070  0.33271268  -0.00020940  1
  Cs  Cs22  1  0.66902079  0.33394843  0.33462886  1
  Cs  Cs23  1  0.65745249  0.33629124  0.66679264  1
  Cs  Cs24  1  0.66879880  0.66754055  -0.00024062  1
  Cs  Cs25  1  0.66768577  0.66563332  0.33624666  1
  Cs  Cs26  1  0.66298411  0.66616407  0.66407266  1
  Sn  Sn27  1  0.83394663  0.49995722  0.83353115  1
  Sn  Sn28  1  0.49958860  0.83310973  0.50055546  1
  Sn  Sn29  1  0.16667331  0.49920509  0.16677403  1
  Sn  Sn30  1  0.16688658  0.49986906  0.50052548  1
  Sn  Sn31  1  0.83453719  0.16761079  0.16749465  1
  Sn  Sn32  1  0.83383824  0.83410898  0.49971227  1
  Sn  Sn33  1  0.16573834  0.16717196  0.16645431  1
  Sn  Sn34  1  0.83335076  0.49945215  0.16587777  1
  Sn  Sn35  1  0.16724214  0.83293962  0.83268974  1
  Sn  Sn36  1  0.16602578  0.50024018  0.83275199  1
  Sn  Sn37  1  0.49902265  0.83304564  0.83295189  1
  Sn  Sn38  1  0.16665671  0.83282806  0.50070677  1
  Sn  Sn39  1  0.83349932  0.16629463  0.49975761  1
  Sn  Sn40  1  0.49994758  0.50046171  0.16706178  1
  Pb  Pb41  1  0.16664457  0.16639890  0.83618504  1
  Pb  Pb42  1  0.49948276  0.50179845  0.83504139  1
  Pb  Pb43  1  0.83342351  0.16991388  0.83325599  1
  Pb  Pb44  1  0.49650390  0.50204498  0.49784321  1
  Pb  Pb45  1  0.49990268  0.16301087  0.83335224  1
  Pb  Pb46  1  0.83508644  0.49975145  0.50032425  1
  Pb  Pb47  1  0.16649321  0.83372267  0.16626316  1
  Pb  Pb48  1  0.50058483  0.16925808  0.16673023  1
  Pb  Pb49  1  0.50318521  0.16371879  0.49997341  1
  Pb  Pb50  1  0.16497189  0.16632766  0.49806255  1
  Pb  Pb51  1  0.50006929  0.83098956  0.16641378  1
  Pb  Pb52  1  0.83393517  0.83085172  0.83091125  1
  Pb  Pb53  1  0.83343459  0.83312276  0.16898912  1
  I  I54  1  0.16124049  0.00291955  0.16750996  1
  I  I55  1  0.16797642  -0.00337110  0.50311434  1
  I  I56  1  0.17088539  -0.00351554  0.82861733  1
  I  I57  1  0.16571093  0.33548308  0.16735073  1
  I  I58  1  0.16307173  0.33619149  0.50099478  1
  I  I59  1  0.16145408  0.33693119  0.83141103  1
  I  I60  1  0.16551986  0.66331211  0.16718972  1
  I  I61  1  0.16388659  0.66706055  0.49736589  1
  I  I62  1  0.16658977  0.66594185  0.83515832  1
  I  I63  1  0.49967659  -0.00003525  0.16634805  1
  I  I64  1  0.49287552  -0.00464332  0.50222533  1
  I  I65  1  0.49389119  -0.00538292  0.83007681  1
  I  I66  1  0.49896388  0.33732498  0.16584586  1
  I  I67  1  0.50048875  0.33354223  0.49872837  1
  I  I68  1  0.50035221  0.33378511  0.83484657  1
  I  I69  1  0.49891706  0.66301482  0.16710150  1
  I  I70  1  0.50618168  0.67017838  0.50291874  1
  I  I71  1  0.49843180  0.66966957  0.82930039  1
  I  I72  1  0.83826750  0.00309830  0.16898964  1
  I  I73  1  0.83507293  -0.00069029  0.49416858  1
  I  I74  1  0.83240962  -0.00021303  0.83625413  1
  I  I75  1  0.83475485  0.33441065  0.16958922  1
  I  I76  1  0.83717764  0.33123406  0.49708134  1
  I  I77  1  0.84098173  0.33787328  0.83362029  1
  I  I78  1  0.83524993  0.66299416  0.16433289  1
  I  I79  1  0.83215151  0.66907989  0.49985980  1
  I  I80  1  0.83547858  0.66310711  0.83968612  1
  I  I81  1  0.15979221  0.17109928  0.00422942  1
  I  I82  1  0.16414429  0.17163760  0.33010252  1
  I  I83  1  0.16520715  0.16958246  0.66659249  1
  I  I84  1  0.16582027  0.50094970  0.00025831  1
  I  I85  1  0.16591893  0.50175657  0.33281898  1
  I  I86  1  0.15944126  0.50708571  0.66711798  1
  I  I87  1  0.17201626  0.82926849  -0.00316770  1
  I  I88  1  0.16685088  0.82935137  0.33641160  1
  I  I89  1  0.16707734  0.82512625  0.66597685  1
  I  I90  1  0.50203137  0.16334353  0.00040783  1
  I  I91  1  0.49757255  0.16330466  0.33325815  1
  I  I92  1  0.50132280  0.17233122  0.66638026  1
  I  I93  1  0.49609723  0.50275215  0.00295335  1
  I  I94  1  0.50194021  0.50250844  0.32996882  1
  I  I95  1  0.50233398  0.49942205  0.66656892  1
  I  I96  1  0.49362455  0.83133827  -0.00302402  1
  I  I97  1  0.49880415  0.83198358  0.33647766  1
  I  I98  1  0.49959369  0.83141068  0.66601633  1
  I  I99  1  0.83727647  0.16882994  0.00335428  1
  I  I100  1  0.83737944  0.16847045  0.33230089  1
  I  I101  1  0.83401491  0.16176261  0.66383084  1
  I  I102  1  0.83773939  0.49612787  0.00145123  1
  I  I103  1  0.83466074  0.49968089  0.33064417  1
  I  I104  1  0.83887978  0.50174454  0.66893571  1
  I  I105  1  0.83258791  0.83571060  -0.00026176  1
  I  I106  1  0.83401047  0.83156244  0.33731668  1
  I  I107  1  0.83365066  0.83753572  0.66285585  1
  I  I108  1  -0.00068329  0.17540415  0.17072013  1
  I  I109  1  -0.00282795  0.16097661  0.49713858  1
  I  I110  1  -0.00002129  0.16078005  0.83157447  1
  I  I111  1  0.00040673  0.49614970  0.16609324  1
  I  I112  1  0.00305230  0.50626494  0.49542593  1
  I  I113  1  0.00146460  0.50593110  0.83858356  1
  I  I114  1  0.00004811  0.82923478  0.16693042  1
  I  I115  1  0.00091559  0.83257708  0.50271844  1
  I  I116  1  0.00300688  0.83069424  0.82979451  1
  I  I117  1  0.33053652  0.17057567  0.16616948  1
  I  I118  1  0.33321812  0.16652772  0.49776801  1
  I  I119  1  0.33299337  0.17226231  0.83585178  1
  I  I120  1  0.33151358  0.49760389  0.16663047  1
  I  I121  1  0.32833015  0.50586502  0.49992363  1
  I  I122  1  0.32995007  0.50318800  0.83548038  1
  I  I123  1  0.33310259  0.83367285  0.17123907  1
  I  I124  1  0.33229074  0.82704886  0.50356929  1
  I  I125  1  0.33202797  0.82640707  0.82539193  1
  I  I126  1  0.67032595  0.17055049  0.17075113  1
  I  I127  1  0.67122975  0.16346996  0.49223261  1
  I  I128  1  0.66699767  0.16699067  0.83579206  1
  I  I129  1  0.66814677  0.49737010  0.16200225  1
  I  I130  1  0.66661111  0.50127568  0.49907383  1
  I  I131  1  0.66899223  0.50095548  0.83854770  1
  I  I132  1  0.66680837  0.83220233  0.16674290  1
  I  I133  1  0.66675682  0.83765021  0.50301821  1
  I  I134  1  0.66478541  0.83148843  0.82909972  1
