# generated using pymatgen
data_Cs27Sn13Pb14I81
_symmetry_space_group_name_H-M   'P 1'
_cell_length_a   18.97440009
_cell_length_b   18.98748553
_cell_length_c   18.96790576
_cell_angle_alpha   89.99927863
_cell_angle_beta   90.00093866
_cell_angle_gamma   90.00091652
_symmetry_Int_Tables_number   1
_chemical_formula_structural   Cs27Sn13Pb14I81
_chemical_formula_sum   'Cs27 Sn13 Pb14 I81'
_cell_volume   6833.68400630
_cell_formula_units_Z   1
loop_
 _symmetry_equiv_pos_site_id
 _symmetry_equiv_pos_as_xyz
  1  'x, y, z'
loop_
 _atom_site_type_symbol
 _atom_site_label
 _atom_site_symmetry_multiplicity
 _atom_site_fract_x
 _atom_site_fract_y
 _atom_site_fract_z
 _atom_site_occupancy
  Cs  Cs0  1  0.00438424  0.00359329  -0.00491351  1
  Cs  Cs1  1  -0.00832426  -0.00137130  0.33574459  1
  Cs  Cs2  1  0.00126757  -0.00009711  0.66813753  1
  Cs  Cs3  1  0.00318432  0.33462216  0.00510876  1
  Cs  Cs4  1  -0.00450099  0.33433292  0.32543701  1
  Cs  Cs5  1  -0.00018859  0.33226105  0.66693649  1
  Cs  Cs6  1  0.00097828  0.66427935  -0.00081361  1
  Cs  Cs7  1  -0.00285406  0.66582654  0.33073512  1
  Cs  Cs8  1  0.00128821  0.66817133  0.66760530  1
  Cs  Cs9  1  0.33307905  0.00177263  0.00144531  1
  Cs  Cs10  1  0.33555327  -0.00197605  0.33563857  1
  Cs  Cs11  1  0.33225947  -0.00038673  0.66542742  1
  Cs  Cs12  1  0.33166928  0.33311227  0.00515009  1
  Cs  Cs13  1  0.33216608  0.33313192  0.33266344  1
  Cs  Cs14  1  0.33667982  0.33351698  0.66484369  1
  Cs  Cs15  1  0.33407616  0.66648811  0.00148485  1
  Cs  Cs16  1  0.33229848  0.66792027  0.33418756  1
  Cs  Cs17  1  0.33429645  0.66674418  0.66542780  1
  Cs  Cs18  1  0.66416189  -0.00118571  0.00319667  1
  Cs  Cs19  1  0.67032955  -0.00097879  0.32593245  1
  Cs  Cs20  1  0.66629909  0.00103917  0.66745833  1
  Cs  Cs21  1  0.66483281  0.33159929  -0.00305843  1
  Cs  Cs22  1  0.67584271  0.33395402  0.33312158  1
  Cs  Cs23  1  0.66466171  0.33454942  0.66729436  1
  Cs  Cs24  1  0.66479658  0.66879271  -0.00097031  1
  Cs  Cs25  1  0.67459042  0.66671672  0.33144370  1
  Cs  Cs26  1  0.66472582  0.66403032  0.66721064  1
  Sn  Sn27  1  0.16682366  0.83375960  0.16775087  1
  Sn  Sn28  1  0.50031056  0.16563757  0.83256007  1
  Sn  Sn29  1  0.50046032  0.83417563  0.83254747  1
  Sn  Sn30  1  0.83262380  0.16661437  0.83285678  1
  Sn  Sn31  1  0.16699408  0.16666393  0.50001300  1
  Sn  Sn32  1  0.16663347  0.49980459  0.50053689  1
  Sn  Sn33  1  0.49962289  0.16575529  0.50042227  1
  Sn  Sn34  1  0.50015059  0.50008165  0.16724998  1
  Sn  Sn35  1  0.83235726  0.83349391  0.83286159  1
  Sn  Sn36  1  0.16643903  0.49990988  0.83255876  1
  Sn  Sn37  1  0.83429158  0.49985719  0.83291208  1
  Sn  Sn38  1  0.16715311  0.83340542  0.49891797  1
  Sn  Sn39  1  0.49988502  0.83401522  0.50057819  1
  Pb  Pb40  1  0.83648240  0.83337995  0.16313033  1
  Pb  Pb41  1  0.83333201  0.16645372  0.16308987  1
  Pb  Pb42  1  0.16747355  0.16922246  0.83153477  1
  Pb  Pb43  1  0.16693363  0.16360105  0.17051879  1
  Pb  Pb44  1  0.49995239  0.16869438  0.16750564  1
  Pb  Pb45  1  0.83052324  0.50019121  0.16347253  1
  Pb  Pb46  1  0.83284025  0.83333130  0.50230387  1
  Pb  Pb47  1  0.16738697  0.83178253  0.83269584  1
  Pb  Pb48  1  0.49848304  0.50001457  0.49763333  1
  Pb  Pb49  1  0.83275143  0.16653351  0.50205829  1
  Pb  Pb50  1  0.16794575  0.50165332  0.16717733  1
  Pb  Pb51  1  0.49868132  0.83192481  0.16711403  1
  Pb  Pb52  1  0.83639053  0.50003445  0.50236507  1
  Pb  Pb53  1  0.49965357  0.49983859  0.83436844  1
  I  I54  1  0.16897802  -0.00414292  0.16740010  1
  I  I55  1  0.17146534  -0.00051870  0.49651223  1
  I  I56  1  0.16329060  0.00010389  0.83357200  1
  I  I57  1  0.16754353  0.33330002  0.16619065  1
  I  I58  1  0.17159435  0.33327168  0.50761579  1
  I  I59  1  0.16367677  0.33700609  0.82876822  1
  I  I60  1  0.16873461  0.66926890  0.17113350  1
  I  I61  1  0.17102998  0.66730759  0.50121753  1
  I  I62  1  0.16361158  0.66396467  0.82893483  1
  I  I63  1  0.49857359  -0.00009489  0.16531524  1
  I  I64  1  0.49031260  -0.00038551  0.50581467  1
  I  I65  1  0.50683985  -0.00031590  0.83041140  1
  I  I66  1  0.49734121  0.33619664  0.16363307  1
  I  I67  1  0.49488664  0.33037356  0.50516488  1
  I  I68  1  0.50289533  0.33068691  0.83011908  1
  I  I69  1  0.49733940  0.66450812  0.16396639  1
  I  I70  1  0.49451815  0.66973093  0.50497128  1
  I  I71  1  0.50218355  0.66925698  0.83063523  1
  I  I72  1  0.83266890  -0.00032297  0.16576788  1
  I  I73  1  0.83959054  -0.00009664  0.50386564  1
  I  I74  1  0.82930328  -0.00006990  0.83259659  1
  I  I75  1  0.83401572  0.33355492  0.16540029  1
  I  I76  1  0.83209628  0.33327623  0.50370051  1
  I  I77  1  0.83232066  0.33314032  0.83213638  1
  I  I78  1  0.83292323  0.66676961  0.16404704  1
  I  I79  1  0.83239136  0.66674349  0.50392115  1
  I  I80  1  0.83353594  0.66682295  0.83302001  1
  I  I81  1  0.16611918  0.16702217  -0.00011373  1
  I  I82  1  0.17448068  0.17301637  0.33869966  1
  I  I83  1  0.16766279  0.16139316  0.66344690  1
  I  I84  1  0.16392795  0.50242589  -0.00257175  1
  I  I85  1  0.17110083  0.49898797  0.33657518  1
  I  I86  1  0.16395104  0.50314715  0.66633737  1
  I  I87  1  0.16614894  0.82901281  0.00122796  1
  I  I88  1  0.17396733  0.83095450  0.33565031  1
  I  I89  1  0.16744168  0.83407961  0.66366075  1
  I  I90  1  0.50488535  0.16377751  -0.00332469  1
  I  I91  1  0.49322462  0.16280507  0.33729989  1
  I  I92  1  0.49968108  0.16389249  0.66713005  1
  I  I93  1  0.49787317  0.50110104  0.00168542  1
  I  I94  1  0.49465184  0.50094638  0.33059641  1
  I  I95  1  0.50098949  0.50028638  0.66655303  1
  I  I96  1  0.50206868  0.83529797  -0.00308687  1
  I  I97  1  0.49523430  0.83647040  0.33678347  1
  I  I98  1  0.49718902  0.83559417  0.66693938  1
  I  I99  1  0.82742975  0.16662086  -0.00559418  1
  I  I100  1  0.83315895  0.16755698  0.33354743  1
  I  I101  1  0.83249409  0.16663691  0.67058320  1
  I  I102  1  0.84102702  0.49999679  -0.00482499  1
  I  I103  1  0.83354111  0.49985475  0.33313354  1
  I  I104  1  0.83283482  0.50032921  0.67091864  1
  I  I105  1  0.82799119  0.83266872  -0.00508543  1
  I  I106  1  0.83102375  0.83276938  0.33331063  1
  I  I107  1  0.83525758  0.83313695  0.67072685  1
  I  I108  1  0.00033807  0.16786882  0.16590892  1
  I  I109  1  0.00304125  0.16558810  0.50227420  1
  I  I110  1  -0.00223634  0.16383690  0.83169586  1
  I  I111  1  -0.00009383  0.50102176  0.16738283  1
  I  I112  1  0.00499093  0.50105142  0.50143176  1
  I  I113  1  -0.00003386  0.50138639  0.82930508  1
  I  I114  1  0.00415083  0.83084281  0.17343823  1
  I  I115  1  0.00337437  0.83340507  0.49799820  1
  I  I116  1  -0.00200411  0.83464425  0.83382693  1
  I  I117  1  0.33333514  0.16818344  0.15937162  1
  I  I118  1  0.33364491  0.16584297  0.50694949  1
  I  I119  1  0.33649776  0.16280322  0.83112081  1
  I  I120  1  0.33533120  0.50096563  0.16202049  1
  I  I121  1  0.33008099  0.50091529  0.50714787  1
  I  I122  1  0.33094712  0.50136961  0.83092814  1
  I  I123  1  0.33080530  0.83096935  0.16554291  1
  I  I124  1  0.33308449  0.83369362  0.50306617  1
  I  I125  1  0.33628110  0.83579213  0.83232909  1
  I  I126  1  0.66646650  0.16716446  0.17092315  1
  I  I127  1  0.66292331  0.16218256  0.50292874  1
  I  I128  1  0.66590061  0.16890497  0.82759379  1
  I  I129  1  0.66317548  0.50136909  0.16588221  1
  I  I130  1  0.66654662  0.50001227  0.49984515  1
  I  I131  1  0.66888085  0.50024533  0.83664878  1
  I  I132  1  0.66675189  0.83157829  0.16834367  1
  I  I133  1  0.66296732  0.83792512  0.50306760  1
  I  I134  1  0.66570608  0.83103044  0.82838286  1
