# generated using pymatgen
data_Cs27Sn13Pb14I81
_symmetry_space_group_name_H-M   'P 1'
_cell_length_a   18.96874066
_cell_length_b   18.97933515
_cell_length_c   18.98443471
_cell_angle_alpha   89.99968324
_cell_angle_beta   89.99962713
_cell_angle_gamma   90.00018480
_symmetry_Int_Tables_number   1
_chemical_formula_structural   Cs27Sn13Pb14I81
_chemical_formula_sum   'Cs27 Sn13 Pb14 I81'
_cell_volume   6834.66391717
_cell_formula_units_Z   1
loop_
 _symmetry_equiv_pos_site_id
 _symmetry_equiv_pos_as_xyz
  1  'x, y, z'
loop_
 _atom_site_type_symbol
 _atom_site_label
 _atom_site_symmetry_multiplicity
 _atom_site_fract_x
 _atom_site_fract_y
 _atom_site_fract_z
 _atom_site_occupancy
  Cs  Cs0  1  0.00508359  -0.00330437  0.00021750  1
  Cs  Cs1  1  -0.00067295  -0.00065430  0.33756083  1
  Cs  Cs2  1  -0.00262836  0.00155200  0.66164766  1
  Cs  Cs3  1  -0.00237418  0.33390352  -0.00050408  1
  Cs  Cs4  1  -0.00263263  0.33206418  0.33841919  1
  Cs  Cs5  1  -0.00163766  0.33180853  0.66277658  1
  Cs  Cs6  1  0.00125349  0.66784260  0.00053775  1
  Cs  Cs7  1  -0.00359703  0.66695950  0.33500397  1
  Cs  Cs8  1  -0.00524093  0.66504518  0.66338274  1
  Cs  Cs9  1  0.33095500  0.00039913  -0.00316322  1
  Cs  Cs10  1  0.33362216  -0.00041987  0.33289169  1
  Cs  Cs11  1  0.33465514  -0.00106077  0.66861085  1
  Cs  Cs12  1  0.33309827  0.33348270  0.00039111  1
  Cs  Cs13  1  0.33299638  0.33399640  0.33416509  1
  Cs  Cs14  1  0.33072930  0.33576884  0.66487639  1
  Cs  Cs15  1  0.33163272  0.66704873  -0.00007144  1
  Cs  Cs16  1  0.33484045  0.66602988  0.33242569  1
  Cs  Cs17  1  0.33460908  0.66570984  0.66782833  1
  Cs  Cs18  1  0.66550644  0.00604384  -0.00169121  1
  Cs  Cs19  1  0.66723192  -0.00105044  0.33265139  1
  Cs  Cs20  1  0.66771956  0.00047543  0.66918776  1
  Cs  Cs21  1  0.67393995  0.32660593  0.00034853  1
  Cs  Cs22  1  0.66749057  0.33109691  0.32630825  1
  Cs  Cs23  1  0.67109578  0.33263279  0.67247061  1
  Cs  Cs24  1  0.66798872  0.66619057  0.00122381  1
  Cs  Cs25  1  0.66489200  0.66815225  0.33309145  1
  Cs  Cs26  1  0.66646918  0.66770974  0.66571221  1
  Sn  Sn27  1  0.49985796  0.16679655  0.50002901  1
  Sn  Sn28  1  0.49877651  0.83358507  0.49938721  1
  Sn  Sn29  1  0.83311149  0.83316927  0.83456772  1
  Sn  Sn30  1  0.49928247  0.50047205  0.16595832  1
  Sn  Sn31  1  0.16707710  0.16783164  0.16635026  1
  Sn  Sn32  1  0.16721600  0.49903105  0.16621355  1
  Sn  Sn33  1  0.16704662  0.16759313  0.83380877  1
  Sn  Sn34  1  0.16787973  0.83289068  0.49998161  1
  Sn  Sn35  1  0.16722956  0.49917067  0.83399597  1
  Sn  Sn36  1  0.50048560  0.83303074  0.16665819  1
  Sn  Sn37  1  0.83214566  0.83321925  0.16535968  1
  Sn  Sn38  1  0.49960739  0.49996544  0.83407013  1
  Sn  Sn39  1  0.49976495  0.49955747  0.49982735  1
  Pb  Pb40  1  0.83358092  0.50181813  0.16659893  1
  Pb  Pb41  1  0.50147968  0.83152322  0.83379287  1
  Pb  Pb42  1  0.82970290  0.16678962  0.49982772  1
  Pb  Pb43  1  0.49779424  0.16966644  0.83123001  1
  Pb  Pb44  1  0.83671611  0.16406005  0.83353334  1
  Pb  Pb45  1  0.83217935  0.83325971  0.49960896  1
  Pb  Pb46  1  0.16480668  0.83255810  0.83075121  1
  Pb  Pb47  1  0.83390601  0.50171382  0.83359485  1
  Pb  Pb48  1  0.49801766  0.16670090  0.16792924  1
  Pb  Pb49  1  0.83682413  0.16359102  0.16662796  1
  Pb  Pb50  1  0.16819201  0.50188597  0.49976971  1
  Pb  Pb51  1  0.82946807  0.49981315  0.49975112  1
  Pb  Pb52  1  0.16718815  0.83276343  0.16828590  1
  Pb  Pb53  1  0.16847540  0.16483709  0.49999534  1
  I  I54  1  0.16653423  0.00173827  0.16398561  1
  I  I55  1  0.17237559  -0.00302379  0.49932890  1
  I  I56  1  0.16470567  0.00202651  0.83674908  1
  I  I57  1  0.17390537  0.33454375  0.16341518  1
  I  I58  1  0.16872858  0.33349102  0.50008012  1
  I  I59  1  0.17191054  0.33434276  0.83663491  1
  I  I60  1  0.16851445  0.66386506  0.16309204  1
  I  I61  1  0.17251146  0.66968334  0.49957315  1
  I  I62  1  0.17002120  0.66345093  0.83723065  1
  I  I63  1  0.50215705  -0.00289618  0.17279508  1
  I  I64  1  0.49589255  -0.00140355  0.49477471  1
  I  I65  1  0.49968073  0.00012613  0.83207470  1
  I  I66  1  0.49672687  0.33656553  0.16912231  1
  I  I67  1  0.49877823  0.33441259  0.49966023  1
  I  I68  1  0.49875267  0.33796760  0.83366757  1
  I  I69  1  0.49823613  0.66627176  0.17158350  1
  I  I70  1  0.49610315  0.66689798  0.49889902  1
  I  I71  1  0.49389238  0.66333801  0.82914876  1
  I  I72  1  0.82727415  -0.00443580  0.16383181  1
  I  I73  1  0.83292474  -0.00043882  0.50029589  1
  I  I74  1  0.83286706  -0.00372917  0.83640442  1
  I  I75  1  0.82989896  0.33318969  0.16690111  1
  I  I76  1  0.83562289  0.33327358  0.50117448  1
  I  I77  1  0.83074392  0.33326149  0.83242709  1
  I  I78  1  0.83385314  0.67002552  0.16418267  1
  I  I79  1  0.83364158  0.66705390  0.50068953  1
  I  I80  1  0.83529036  0.66954044  0.83618623  1
  I  I81  1  0.16809924  0.16865162  0.00014396  1
  I  I82  1  0.16863930  0.16933034  0.33083190  1
  I  I83  1  0.16840838  0.16967308  0.66915682  1
  I  I84  1  0.17505686  0.49786375  0.00023162  1
  I  I85  1  0.17131041  0.49783353  0.33030294  1
  I  I86  1  0.17132605  0.49790289  0.66938376  1
  I  I87  1  0.16785842  0.83424552  0.00000038  1
  I  I88  1  0.16706899  0.83383164  0.33596669  1
  I  I89  1  0.17211940  0.83368464  0.66326612  1
  I  I90  1  0.50021134  0.16533075  -0.00013017  1
  I  I91  1  0.49618688  0.16959571  0.33593465  1
  I  I92  1  0.49697991  0.16373153  0.66327851  1
  I  I93  1  0.49462927  0.50721484  0.00093098  1
  I  I94  1  0.49577771  0.50221957  0.33281461  1
  I  I95  1  0.49544894  0.50117496  0.66660784  1
  I  I96  1  0.50170578  0.82808867  0.00307600  1
  I  I97  1  0.50150825  0.82870781  0.33338065  1
  I  I98  1  0.49798445  0.83195413  0.66382196  1
  I  I99  1  0.82887805  0.16693794  0.00006699  1
  I  I100  1  0.83673237  0.16389571  0.33309557  1
  I  I101  1  0.83543927  0.16302617  0.66683192  1
  I  I102  1  0.82823331  0.50134703  0.00009022  1
  I  I103  1  0.83544398  0.50390730  0.33307097  1
  I  I104  1  0.83358483  0.50442761  0.66682245  1
  I  I105  1  0.82928348  0.83157894  0.00099910  1
  I  I106  1  0.83205420  0.83277083  0.33061652  1
  I  I107  1  0.83433456  0.83273172  0.66861600  1
  I  I108  1  0.00487343  0.17136448  0.16355707  1
  I  I109  1  0.00043079  0.16266970  0.50012760  1
  I  I110  1  0.00462879  0.17322664  0.83607236  1
  I  I111  1  0.00365146  0.49883130  0.16069668  1
  I  I112  1  0.00031599  0.50370802  0.50044340  1
  I  I113  1  0.00377711  0.49841998  0.83878728  1
  I  I114  1  -0.00174620  0.83379444  0.16521335  1
  I  I115  1  0.00209135  0.83403765  0.49967418  1
  I  I116  1  -0.00274067  0.83200497  0.83856297  1
  I  I117  1  0.33011427  0.16502491  0.16400374  1
  I  I118  1  0.33640383  0.16781361  0.49951286  1
  I  I119  1  0.32992067  0.16555993  0.83697366  1
  I  I120  1  0.33423721  0.50302007  0.16655582  1
  I  I121  1  0.33686930  0.49971308  0.49984788  1
  I  I122  1  0.33338755  0.49837321  0.83337649  1
  I  I123  1  0.33620446  0.83155839  0.17067881  1
  I  I124  1  0.33551753  0.83308212  0.49477888  1
  I  I125  1  0.33322454  0.83468468  0.83450573  1
  I  I126  1  0.66649959  0.16867223  0.16901174  1
  I  I127  1  0.66142185  0.16321311  0.49928245  1
  I  I128  1  0.66655086  0.16752010  0.83087410  1
  I  I129  1  0.66291537  0.50330535  0.16828299  1
  I  I130  1  0.66053806  0.50553823  0.50014940  1
  I  I131  1  0.66341311  0.50334465  0.83141916  1
  I  I132  1  0.66486650  0.82709869  0.16992858  1
  I  I133  1  0.66272794  0.83198127  0.49869372  1
  I  I134  1  0.66921966  0.83032004  0.83206697  1
