# generated using pymatgen
data_Cs27Sn14Pb13I81
_symmetry_space_group_name_H-M   'P 1'
_cell_length_a   18.96961491
_cell_length_b   18.97431454
_cell_length_c   18.98350918
_cell_angle_alpha   90.00009604
_cell_angle_beta   90.00113338
_cell_angle_gamma   90.00150908
_symmetry_Int_Tables_number   1
_chemical_formula_structural   Cs27Sn14Pb13I81
_chemical_formula_sum   'Cs27 Sn14 Pb13 I81'
_cell_volume   6832.83772819
_cell_formula_units_Z   1
loop_
 _symmetry_equiv_pos_site_id
 _symmetry_equiv_pos_as_xyz
  1  'x, y, z'
loop_
 _atom_site_type_symbol
 _atom_site_label
 _atom_site_symmetry_multiplicity
 _atom_site_fract_x
 _atom_site_fract_y
 _atom_site_fract_z
 _atom_site_occupancy
  Cs  Cs0  1  0.00075391  0.00179708  0.00077841  1
  Cs  Cs1  1  -0.00244120  0.00092212  0.33287086  1
  Cs  Cs2  1  -0.00087126  -0.00050441  0.66693670  1
  Cs  Cs3  1  -0.00140114  0.33320584  0.00131385  1
  Cs  Cs4  1  0.00074990  0.33401082  0.33249427  1
  Cs  Cs5  1  0.00137908  0.33591685  0.66713633  1
  Cs  Cs6  1  -0.00185344  0.66541938  0.00137568  1
  Cs  Cs7  1  0.00267536  0.66480280  0.33435273  1
  Cs  Cs8  1  0.00304359  0.66394761  0.66144211  1
  Cs  Cs9  1  0.33000909  0.00004979  -0.00521962  1
  Cs  Cs10  1  0.33461644  0.00158923  0.33071101  1
  Cs  Cs11  1  0.33350409  0.00359159  0.67555262  1
  Cs  Cs12  1  0.33852569  0.33224489  -0.00103922  1
  Cs  Cs13  1  0.33243728  0.33353484  0.33230692  1
  Cs  Cs14  1  0.33144295  0.32905402  0.66861893  1
  Cs  Cs15  1  0.33412133  0.66882489  0.00133352  1
  Cs  Cs16  1  0.33183416  0.66620353  0.33610959  1
  Cs  Cs17  1  0.33163401  0.66737436  0.66057069  1
  Cs  Cs18  1  0.66916832  -0.00357484  0.00167612  1
  Cs  Cs19  1  0.66786453  0.00092686  0.33612286  1
  Cs  Cs20  1  0.66768448  -0.00116112  0.66167039  1
  Cs  Cs21  1  0.66350748  0.33717234  -0.00044657  1
  Cs  Cs22  1  0.66504057  0.33065492  0.33296225  1
  Cs  Cs23  1  0.66500098  0.33354941  0.66782839  1
  Cs  Cs24  1  0.66689855  0.66629834  -0.00129667  1
  Cs  Cs25  1  0.66587269  0.66754740  0.33306618  1
  Cs  Cs26  1  0.66637030  0.66734310  0.66899704  1
  Sn  Sn27  1  0.50084399  0.83295402  0.83337719  1
  Sn  Sn28  1  0.83374846  0.16692885  0.16579333  1
  Sn  Sn29  1  0.83303136  0.83405559  0.83391117  1
  Sn  Sn30  1  0.83270561  0.83320499  0.16627165  1
  Sn  Sn31  1  0.16603152  0.16768885  0.16740081  1
  Sn  Sn32  1  0.50005355  0.83289753  0.49993179  1
  Sn  Sn33  1  0.50111251  0.50023434  0.49975607  1
  Sn  Sn34  1  0.16673231  0.50038072  0.83491247  1
  Sn  Sn35  1  0.83358896  0.49988886  0.16760916  1
  Sn  Sn36  1  0.83320968  0.16611118  0.83410736  1
  Sn  Sn37  1  0.16626405  0.49913544  0.16537546  1
  Sn  Sn38  1  0.50069348  0.83337770  0.16671456  1
  Sn  Sn39  1  0.83208599  0.49995669  0.49898399  1
  Sn  Sn40  1  0.16640423  0.16619533  0.49905952  1
  Pb  Pb41  1  0.50357015  0.16418424  0.83363883  1
  Pb  Pb42  1  0.16593726  0.83348689  0.16674366  1
  Pb  Pb43  1  0.83435215  0.50048369  0.83369845  1
  Pb  Pb44  1  0.16697866  0.49845055  0.49914884  1
  Pb  Pb45  1  0.16554147  0.83090140  0.83345887  1
  Pb  Pb46  1  0.83194796  0.83123830  0.49989725  1
  Pb  Pb47  1  0.50026231  0.16398338  0.16643483  1
  Pb  Pb48  1  0.83486001  0.16908881  0.49985271  1
  Pb  Pb49  1  0.16956297  0.83670692  0.49992517  1
  Pb  Pb50  1  0.49735999  0.50243365  0.83078076  1
  Pb  Pb51  1  0.49994136  0.50207578  0.16830136  1
  Pb  Pb52  1  0.49758214  0.16671580  0.49991577  1
  Pb  Pb53  1  0.16425994  0.16860307  0.83444411  1
  I  I54  1  0.16385955  0.00300379  0.17115355  1
  I  I55  1  0.16571801  0.00432058  0.49324971  1
  I  I56  1  0.16929961  0.00007811  0.83281896  1
  I  I57  1  0.15801828  0.33363303  0.16752749  1
  I  I58  1  0.16778481  0.33094613  0.49846749  1
  I  I59  1  0.16364712  0.33633438  0.83319832  1
  I  I60  1  0.16329707  0.66370544  0.16335990  1
  I  I61  1  0.16560531  0.66646041  0.50031157  1
  I  I62  1  0.16423459  0.66312724  0.83864598  1
  I  I63  1  0.50377652  -0.00438537  0.16982687  1
  I  I64  1  0.49881060  -0.00332849  0.49994476  1
  I  I65  1  0.49829081  -0.00431562  0.83067045  1
  I  I66  1  0.50199452  0.33346762  0.16986026  1
  I  I67  1  0.50270190  0.33628065  0.49890654  1
  I  I68  1  0.50011226  0.33358772  0.83050687  1
  I  I69  1  0.50410394  0.67020540  0.16472347  1
  I  I70  1  0.50317835  0.66708078  0.49986737  1
  I  I71  1  0.50780854  0.67043939  0.83606728  1
  I  I72  1  0.83375843  -0.00003774  0.16201096  1
  I  I73  1  0.83293042  0.00002158  0.49823394  1
  I  I74  1  0.83083407  -0.00077834  0.84084559  1
  I  I75  1  0.83934341  0.33345289  0.16689543  1
  I  I76  1  0.82828668  0.33706279  0.49668238  1
  I  I77  1  0.83772140  0.33135463  0.83571298  1
  I  I78  1  0.83343977  0.66661844  0.16612048  1
  I  I79  1  0.83363753  0.66322043  0.49672820  1
  I  I80  1  0.82994468  0.66953555  0.83686305  1
  I  I81  1  0.16376494  0.16822308  0.00330644  1
  I  I82  1  0.16167219  0.17265509  0.33143492  1
  I  I83  1  0.16665390  0.16920235  0.66526466  1
  I  I84  1  0.15981436  0.49552523  0.00197203  1
  I  I85  1  0.16494470  0.49802150  0.33034751  1
  I  I86  1  0.16580656  0.49913342  0.66792802  1
  I  I87  1  0.17303940  0.83662670  0.00018086  1
  I  I88  1  0.16707199  0.82822333  0.33320019  1
  I  I89  1  0.16586428  0.83184916  0.66671252  1
  I  I90  1  0.49351040  0.16644579  0.00007227  1
  I  I91  1  0.50365966  0.16259796  0.33318951  1
  I  I92  1  0.49840677  0.16474579  0.66672746  1
  I  I93  1  0.50156780  0.50163821  0.00001534  1
  I  I94  1  0.49899429  0.50711380  0.33610389  1
  I  I95  1  0.50470410  0.50578139  0.66297438  1
  I  I96  1  0.50459477  0.83404971  0.00013533  1
  I  I97  1  0.50347333  0.82965144  0.33311068  1
  I  I98  1  0.50393988  0.82896680  0.66682121  1
  I  I99  1  0.83985081  0.16664857  0.00164600  1
  I  I100  1  0.83553332  0.16382641  0.33000181  1
  I  I101  1  0.83501802  0.16259015  0.66903969  1
  I  I102  1  0.83668034  0.50036334  0.00318211  1
  I  I103  1  0.83618313  0.50072538  0.33167743  1
  I  I104  1  0.83253754  0.50023772  0.66464347  1
  I  I105  1  0.82554626  0.83173891  0.00100521  1
  I  I106  1  0.82945600  0.83602142  0.33010949  1
  I  I107  1  0.82939449  0.83682477  0.66937357  1
  I  I108  1  -0.00094990  0.16519501  0.16703491  1
  I  I109  1  0.00258353  0.17019418  0.49806365  1
  I  I110  1  -0.00340987  0.15964290  0.83474954  1
  I  I111  1  -0.00109986  0.50199633  0.16904997  1
  I  I112  1  -0.00213829  0.49860138  0.49936797  1
  I  I113  1  0.00218013  0.50166505  0.83186226  1
  I  I114  1  -0.00372819  0.83324305  0.16093068  1
  I  I115  1  -0.00017105  0.83103081  0.50055239  1
  I  I116  1  -0.00381039  0.83656071  0.84001795  1
  I  I117  1  0.33021852  0.17044673  0.17186338  1
  I  I118  1  0.32972275  0.16915191  0.49345517  1
  I  I119  1  0.33317030  0.16584053  0.83242021  1
  I  I120  1  0.33047998  0.49690499  0.16504378  1
  I  I121  1  0.33561418  0.50434916  0.50038569  1
  I  I122  1  0.32965521  0.50029143  0.83845975  1
  I  I123  1  0.33612231  0.83263494  0.16682010  1
  I  I124  1  0.33794893  0.82461893  0.49890659  1
  I  I125  1  0.33617329  0.83093358  0.83348165  1
  I  I126  1  0.67051175  0.16955416  0.16288095  1
  I  I127  1  0.66677672  0.16592283  0.49989639  1
  I  I128  1  0.67150238  0.16790619  0.83936382  1
  I  I129  1  0.66992644  0.49771879  0.16891282  1
  I  I130  1  0.66718141  0.50333865  0.49482541  1
  I  I131  1  0.66661004  0.49804857  0.83443933  1
  I  I132  1  0.66794085  0.83296538  0.16597184  1
  I  I133  1  0.66367833  0.83220809  0.49971065  1
  I  I134  1  0.66725926  0.83641268  0.83448672  1
