# generated using pymatgen
data_Cs27Sn13Pb14I81
_symmetry_space_group_name_H-M   'P 1'
_cell_length_a   18.98072607
_cell_length_b   18.96964370
_cell_length_c   18.98072612
_cell_angle_alpha   89.99890735
_cell_angle_beta   90.00302021
_cell_angle_gamma   89.99890747
_symmetry_Int_Tables_number   1
_chemical_formula_structural   Cs27Sn13Pb14I81
_chemical_formula_sum   'Cs27 Sn13 Pb14 I81'
_cell_volume   6834.15488341
_cell_formula_units_Z   1
loop_
 _symmetry_equiv_pos_site_id
 _symmetry_equiv_pos_as_xyz
  1  'x, y, z'
loop_
 _atom_site_type_symbol
 _atom_site_label
 _atom_site_symmetry_multiplicity
 _atom_site_fract_x
 _atom_site_fract_y
 _atom_site_fract_z
 _atom_site_occupancy
  Cs  Cs0  1  -0.00367602  0.00210361  -0.00191659  1
  Cs  Cs1  1  -0.00091547  -0.00028966  0.33510670  1
  Cs  Cs2  1  -0.00045759  0.00056312  0.66620926  1
  Cs  Cs3  1  -0.00038707  0.33412055  0.00045707  1
  Cs  Cs4  1  -0.00249147  0.33486184  0.33309781  1
  Cs  Cs5  1  -0.00098521  0.33071851  0.66568143  1
  Cs  Cs6  1  0.00549233  0.66314429  0.00050628  1
  Cs  Cs7  1  0.00157891  0.66591158  0.32925318  1
  Cs  Cs8  1  0.00474218  0.67480116  0.67140903  1
  Cs  Cs9  1  0.33915742  -0.00065011  0.00582392  1
  Cs  Cs10  1  0.33490325  -0.00190031  0.33280900  1
  Cs  Cs11  1  0.33141679  0.00210344  0.66299053  1
  Cs  Cs12  1  0.33266704  0.33260680  -0.00066645  1
  Cs  Cs13  1  0.33485890  0.33226199  0.33473924  1
  Cs  Cs14  1  0.33379052  0.33412054  0.66627951  1
  Cs  Cs15  1  0.32960198  0.66883453  -0.00373137  1
  Cs  Cs16  1  0.33007278  0.67002037  0.33235480  1
  Cs  Cs17  1  0.33383963  0.66314460  0.67215899  1
  Cs  Cs18  1  0.66614240  -0.00190031  0.00157001  1
  Cs  Cs19  1  0.66641487  0.00050313  0.33308149  1
  Cs  Cs20  1  0.66844010  -0.00028972  0.66575109  1
  Cs  Cs21  1  0.66807245  0.33226188  0.00152546  1
  Cs  Cs22  1  0.66814932  0.33855648  0.33481600  1
  Cs  Cs23  1  0.66643120  0.33486198  0.66417519  1
  Cs  Cs24  1  0.66568818  0.67002074  -0.00326011  1
  Cs  Cs25  1  0.66815610  0.66162581  0.33482271  1
  Cs  Cs26  1  0.66258628  0.66591185  0.66824552  1
  Sn  Sn27  1  0.16635827  0.49925716  0.49995707  1
  Sn  Sn28  1  0.16584567  0.16669018  0.16699957  1
  Sn  Sn29  1  0.16691454  0.16669733  0.83358119  1
  Sn  Sn30  1  0.83335448  0.83383238  0.16759494  1
  Sn  Sn31  1  0.50033298  0.16669019  0.83251231  1
  Sn  Sn32  1  0.83244029  0.83338978  0.49910696  1
  Sn  Sn33  1  0.49967130  0.16621173  0.50055061  1
  Sn  Sn34  1  0.83329036  0.49925714  0.83302500  1
  Sn  Sn35  1  0.49972898  0.50015131  0.16639566  1
  Sn  Sn36  1  0.50092828  0.83383234  0.50002106  1
  Sn  Sn37  1  0.16730293  0.16774680  0.49960360  1
  Sn  Sn38  1  0.83293688  0.16774683  0.83396963  1
  Sn  Sn39  1  0.83388393  0.16621173  0.16633796  1
  Pb  Pb40  1  0.16693374  0.83367260  0.50000940  1
  Pb  Pb41  1  0.49812071  0.50002863  0.49880437  1
  Pb  Pb42  1  0.50232023  0.83056195  0.16898697  1
  Pb  Pb43  1  0.16700286  0.83665272  0.83366952  1
  Pb  Pb44  1  0.16468196  0.49747072  0.83134853  1
  Pb  Pb45  1  0.16880447  0.49749310  0.16837439  1
  Pb  Pb46  1  0.83322347  0.16567471  0.49989014  1
  Pb  Pb47  1  0.83213772  0.50002859  0.16478734  1
  Pb  Pb48  1  0.50056922  0.16768343  0.16723594  1
  Pb  Pb49  1  0.83593433  0.50339048  0.50260100  1
  Pb  Pb50  1  0.49989145  0.83604419  0.83083104  1
  Pb  Pb51  1  0.16416434  0.83604421  0.16655811  1
  Pb  Pb52  1  0.83334272  0.83367257  0.83360047  1
  Pb  Pb53  1  0.50170781  0.49749316  0.83547116  1
  I  I54  1  0.16720452  0.00488478  0.16958564  1
  I  I55  1  0.16758249  0.00371044  0.50096867  1
  I  I56  1  0.16167233  0.00576163  0.82833875  1
  I  I57  1  0.16012985  0.32890203  0.16479601  1
  I  I58  1  0.17220389  0.33055564  0.50051309  1
  I  I59  1  0.16820469  0.32882159  0.83487168  1
  I  I60  1  0.16592198  0.66646659  0.16999240  1
  I  I61  1  0.16564467  0.66428205  0.49934385  1
  I  I62  1  0.16361255  0.66617784  0.83027923  1
  I  I63  1  0.49848544  0.00013613  0.16515178  1
  I  I64  1  0.49790120  0.00157331  0.50309893  1
  I  I65  1  0.50291900  0.00488483  0.83387147  1
  I  I66  1  0.50226825  0.33487506  0.16893495  1
  I  I67  1  0.49723872  0.33017010  0.50249949  1
  I  I68  1  0.49812936  0.32890207  0.82679666  1
  I  I69  1  0.50285992  0.66333968  0.16952664  1
  I  I70  1  0.50339381  0.66926196  0.49631928  1
  I  I71  1  0.50332567  0.66646659  0.83258851  1
  I  I72  1  0.83643209  0.00157328  0.16456770  1
  I  I73  1  0.83411097  -0.00222424  0.50077779  1
  I  I74  1  0.83430176  0.00371040  0.83424916  1
  I  I75  1  0.83583288  0.33017009  0.16390535  1
  I  I76  1  0.83107390  0.33338608  0.49774043  1
  I  I77  1  0.83384674  0.33055562  0.83887079  1
  I  I78  1  0.82965259  0.66926192  0.17006064  1
  I  I79  1  0.82819686  0.67099088  0.49486343  1
  I  I80  1  0.83267722  0.66428209  0.83231091  1
  I  I81  1  0.16526887  0.16555532  -0.00022764  1
  I  I82  1  0.16676562  0.16985628  0.33391575  1
  I  I83  1  0.16696895  0.16989966  0.66638424  1
  I  I84  1  0.16634741  0.49907973  -0.00014086  1
  I  I85  1  0.16635111  0.49317314  0.33627788  1
  I  I86  1  0.16761572  0.49402818  0.66348248  1
  I  I87  1  0.16429345  0.83289471  0.00024488  1
  I  I88  1  0.16760416  0.83633066  0.33348880  1
  I  I89  1  0.16267249  0.83573514  0.66630858  1
  I  I90  1  0.49789535  0.16991150  -0.00227954  1
  I  I91  1  0.49631260  0.16423992  0.33620769  1
  I  I92  1  0.49741609  0.16360661  0.66626273  1
  I  I93  1  0.50139169  0.49640113  0.00288651  1
  I  I94  1  0.50167164  0.49574042  0.33132296  1
  I  I95  1  0.49997452  0.50152264  0.66672220  1
  I  I96  1  0.50204232  0.83445295  0.00019266  1
  I  I97  1  0.50114355  0.84176555  0.33686867  1
  I  I98  1  0.50734328  0.83436908  0.66252374  1
  I  I99  1  0.83607220  0.16476354  -0.00011783  1
  I  I100  1  0.83617830  0.16372770  0.33085939  1
  I  I101  1  0.83544622  0.16792167  0.66921419  1
  I  I102  1  0.83275963  0.49808412  -0.00289718  1
  I  I103  1  0.83288094  0.49764325  0.33343042  1
  I  I104  1  0.83254482  0.49151798  0.66990412  1
  I  I105  1  0.83357257  0.83658775  0.00274104  1
  I  I106  1  0.83012793  0.84052519  0.33327640  1
  I  I107  1  0.83054609  0.83439963  0.66400340  1
  I  I108  1  -0.00040394  0.16360659  0.16408300  1
  I  I109  1  0.00254751  0.16792163  0.50211303  1
  I  I110  1  -0.00028247  0.16989930  0.83363533  1
  I  I111  1  0.00005553  0.50152276  0.16664129  1
  I  I112  1  0.00323746  0.49151839  0.49921051  1
  I  I113  1  -0.00318417  0.49402848  0.83428319  1
  I  I114  1  -0.00414293  0.83436894  0.17401035  1
  I  I115  1  -0.00266328  0.83439958  0.49721255  1
  I  I116  1  -0.00035807  0.83573545  0.82933878  1
  I  I117  1  0.33105376  0.16991133  0.16456208  1
  I  I118  1  0.33321547  0.16476362  0.50273869  1
  I  I119  1  0.33310568  0.16555546  0.83193584  1
  I  I120  1  0.33621981  0.49640111  0.16805865  1
  I  I121  1  0.33043612  0.49808374  0.49942663  1
  I  I122  1  0.33319243  0.49907954  0.83301370  1
  I  I123  1  0.33352599  0.83445325  0.16870891  1
  I  I124  1  0.33607434  0.83658797  0.50023912  1
  I  I125  1  0.33357820  0.83289466  0.83096052  1
  I  I126  1  0.66954102  0.16424007  0.16297918  1
  I  I127  1  0.66419274  0.16372781  0.50284499  1
  I  I128  1  0.66724911  0.16985647  0.83343239  1
  I  I129  1  0.66465632  0.49574047  0.16833800  1
  I  I130  1  0.66676374  0.49764334  0.49954810  1
  I  I131  1  0.66961123  0.49317284  0.83301712  1
  I  I132  1  0.67020194  0.84176526  0.16780992  1
  I  I133  1  0.66660970  0.84052500  0.49679501  1
  I  I134  1  0.66682219  0.83633046  0.83427059  1
