# generated using pymatgen
data_Cs27Sn14Pb13I81
_symmetry_space_group_name_H-M   'P 1'
_cell_length_a   18.97057129
_cell_length_b   18.97057126
_cell_length_c   18.98532641
_cell_angle_alpha   90.00081149
_cell_angle_beta   89.99918860
_cell_angle_gamma   89.99786709
_symmetry_Int_Tables_number   1
_chemical_formula_structural   Cs27Sn14Pb13I81
_chemical_formula_sum   'Cs27 Sn14 Pb13 I81'
_cell_volume   6832.48814147
_cell_formula_units_Z   1
loop_
 _symmetry_equiv_pos_site_id
 _symmetry_equiv_pos_as_xyz
  1  'x, y, z'
loop_
 _atom_site_type_symbol
 _atom_site_label
 _atom_site_symmetry_multiplicity
 _atom_site_fract_x
 _atom_site_fract_y
 _atom_site_fract_z
 _atom_site_occupancy
  Cs  Cs0  1  -0.00027745  0.00092105  0.00480854  1
  Cs  Cs1  1  0.00241460  -0.00181881  0.32923724  1
  Cs  Cs2  1  -0.00308639  -0.00066785  0.66510801  1
  Cs  Cs3  1  0.00034009  0.33261007  -0.00276704  1
  Cs  Cs4  1  0.00466024  0.33251941  0.33462378  1
  Cs  Cs5  1  -0.00565162  0.33496046  0.66785528  1
  Cs  Cs6  1  -0.00110578  0.66556063  0.00000007  1
  Cs  Cs7  1  -0.00083490  0.66974823  0.32962378  1
  Cs  Cs8  1  0.00308182  0.66583178  0.67037621  1
  Cs  Cs9  1  0.33610461  0.00277127  -0.00000007  1
  Cs  Cs10  1  0.33227312  0.00142272  0.33276173  1
  Cs  Cs11  1  0.33475604  -0.00106025  0.66723826  1
  Cs  Cs12  1  0.33238209  0.33058373  0.00218870  1
  Cs  Cs13  1  0.33215410  0.33351392  0.33362607  1
  Cs  Cs14  1  0.33320730  0.33284804  0.66506061  1
  Cs  Cs15  1  0.33425438  0.66638927  -0.00480852  1
  Cs  Cs16  1  0.33266547  0.66358040  0.33489200  1
  Cs  Cs17  1  0.33151458  0.66908134  0.67076262  1
  Cs  Cs18  1  0.66391710  -0.00095127  -0.00218865  1
  Cs  Cs19  1  0.66618147  -0.00012608  0.33493927  1
  Cs  Cs20  1  0.66684728  -0.00117933  0.66637401  1
  Cs  Cs21  1  0.66809998  0.33476683  0.00000005  1
  Cs  Cs22  1  0.66743918  0.34193352  0.34078276  1
  Cs  Cs23  1  0.67526691  0.33410574  0.65921719  1
  Cs  Cs24  1  0.66594331  0.66700679  0.00276696  1
  Cs  Cs25  1  0.66829384  0.66101505  0.33214474  1
  Cs  Cs26  1  0.66585280  0.67132682  0.66537624  1
  Sn  Sn27  1  0.83227647  0.16702317  0.16696237  1
  Sn  Sn28  1  0.83274533  0.83356175  0.50042093  1
  Sn  Sn29  1  0.50049332  0.83351550  0.49962183  1
  Sn  Sn30  1  0.16705294  0.16631893  0.83313640  1
  Sn  Sn31  1  0.49965228  0.83371963  0.16686362  1
  Sn  Sn32  1  0.16699429  0.49944334  0.16690403  1
  Sn  Sn33  1  0.50035646  0.49894315  0.83303757  1
  Sn  Sn34  1  0.16682129  0.16743209  0.16650363  1
  Sn  Sn35  1  0.83277666  0.83366091  0.83309601  1
  Sn  Sn36  1  0.16689510  0.49941196  0.49957907  1
  Sn  Sn37  1  0.49987670  0.16752793  0.83338787  1
  Sn  Sn38  1  0.16684886  0.16715997  0.50037812  1
  Sn  Sn39  1  0.50086123  0.16654334  0.16661216  1
  Sn  Sn40  1  0.50076541  0.83348791  0.83349638  1
  Pb  Pb41  1  0.83625639  0.49692603  0.16659426  1
  Pb  Pb42  1  0.83025941  0.50292312  0.83340579  1
  Pb  Pb43  1  0.83649982  0.50316649  0.49999997  1
  Pb  Pb44  1  0.16944324  0.83330197  0.16639344  1
  Pb  Pb45  1  0.49780295  0.50274725  0.50256976  1
  Pb  Pb46  1  0.83262849  0.16472844  0.83496962  1
  Pb  Pb47  1  0.83061013  0.83504976  0.16657099  1
  Pb  Pb48  1  0.16663528  0.83610989  0.83360655  1
  Pb  Pb49  1  0.16838311  0.49727678  0.83342898  1
  Pb  Pb50  1  0.49849459  0.16516130  0.49999998  1
  Pb  Pb51  1  0.16656475  0.83323144  0.50000002  1
  Pb  Pb52  1  0.49806181  0.49929520  0.16503042  1
  Pb  Pb53  1  0.83608060  0.16446956  0.49743023  1
  I  I54  1  0.16511155  0.00371353  0.16771785  1
  I  I55  1  0.16721741  0.00289414  0.49835025  1
  I  I56  1  0.17299756  0.00427974  0.83429412  1
  I  I57  1  0.16914554  0.33120752  0.16758652  1
  I  I58  1  0.16842050  0.33212307  0.49785375  1
  I  I59  1  0.17265438  0.32918890  0.83478569  1
  I  I60  1  0.16869431  0.66386796  0.17284332  1
  I  I61  1  0.16738142  0.66407033  0.49464461  1
  I  I62  1  0.16804873  0.66654764  0.83247284  1
  I  I63  1  0.49724290  0.00093569  0.16199622  1
  I  I64  1  0.50015767  -0.00313714  0.50415676  1
  I  I65  1  0.49916171  -0.00003942  0.83466000  1
  I  I66  1  0.49961291  0.32965212  0.16067580  1
  I  I67  1  0.49990250  0.33344125  0.50003522  1
  I  I68  1  0.49224999  0.33176516  0.84057384  1
  I  I69  1  0.49821873  0.66925793  0.16498721  1
  I  I70  1  0.50106696  0.67105152  0.49926606  1
  I  I71  1  0.50331012  0.66816195  0.83347124  1
  I  I72  1  0.84013914  0.00288958  0.16657691  1
  I  I73  1  0.83093174  -0.00326875  0.50428754  1
  I  I74  1  0.82734916  -0.00311611  0.82995531  1
  I  I75  1  0.82796973  0.32875435  0.16516019  1
  I  I76  1  0.83214182  0.33324322  0.49891159  1
  I  I77  1  0.83304058  0.33307044  0.83490625  1
  I  I78  1  0.83433079  0.66685872  0.16659534  1
  I  I79  1  0.82994924  0.67107596  0.50315760  1
  I  I80  1  0.82925524  0.67126539  0.83029001  1
  I  I81  1  0.16805298  0.16949162  0.00082748  1
  I  I82  1  0.16696509  0.16987241  0.33241981  1
  I  I83  1  0.17289687  0.16868018  0.66693556  1
  I  I84  1  0.16853651  0.49557174  0.00245452  1
  I  I85  1  0.16826214  0.49152304  0.33300194  1
  I  I86  1  0.16867174  0.49683032  0.66435157  1
  I  I87  1  0.16540217  0.83206892  -0.00000001  1
  I  I88  1  0.16695300  0.83786598  0.33329878  1
  I  I89  1  0.17119924  0.83361948  0.66670122  1
  I  I90  1  0.49404685  0.16071342  -0.00000002  1
  I  I91  1  0.49752656  0.16028875  0.33025820  1
  I  I92  1  0.49362193  0.16419323  0.66974178  1
  I  I93  1  0.49647346  0.50524844  -0.00278507  1
  I  I94  1  0.49993018  0.50119905  0.33348298  1
  I  I95  1  0.49601627  0.49967850  0.67035066  1
  I  I96  1  0.50282504  0.83471972  -0.00082746  1
  I  I97  1  0.50201343  0.83956357  0.33306448  1
  I  I98  1  0.50320575  0.83363154  0.66758016  1
  I  I99  1  0.83858178  0.16314003  0.00278508  1
  I  I100  1  0.83301160  0.16268291  0.32964940  1
  I  I101  1  0.83453255  0.16659684  0.66651710  1
  I  I102  1  0.83674543  0.50341204  -0.00000004  1
  I  I103  1  0.82981420  0.50316861  0.33331325  1
  I  I104  1  0.83650211  0.49648111  0.66668678  1
  I  I105  1  0.82890502  0.83520340  -0.00245451  1
  I  I106  1  0.83016367  0.83533859  0.33564839  1
  I  I107  1  0.82485639  0.83492866  0.66699801  1
  I  I108  1  0.00149530  0.16997661  0.16652896  1
  I  I109  1  0.00438482  0.16773334  0.50073366  1
  I  I110  1  0.00259130  0.16488544  0.83501282  1
  I  I111  1  0.00459877  0.49592228  0.16971009  1
  I  I112  1  0.00440929  0.49661660  0.49684209  1
  I  I113  1  0.00019202  0.50099749  0.83340482  1
  I  I114  1  -0.00011901  0.83471540  0.16752720  1
  I  I115  1  -0.00259643  0.83404792  0.50535538  1
  I  I116  1  -0.00279865  0.83536086  0.82715661  1
  I  I117  1  0.33329390  0.16582843  0.16533989  1
  I  I118  1  0.33019626  0.16682436  0.49584326  1
  I  I119  1  0.33426898  0.16390949  0.83800388  1
  I  I120  1  0.33021715  0.49401558  0.17004451  1
  I  I121  1  0.33006456  0.49759854  0.49571259  1
  I  I122  1  0.33622301  0.50680604  0.83342315  1
  I  I123  1  0.33761307  0.83966417  0.16570582  1
  I  I124  1  0.33622747  0.83388396  0.50164990  1
  I  I125  1  0.33704685  0.83177823  0.83228214  1
  I  I126  1  0.66509846  0.15891683  0.15942621  1
  I  I127  1  0.66677457  0.16656970  0.49996493  1
  I  I128  1  0.66298549  0.16627954  0.83932397  1
  I  I129  1  0.66640379  0.49970718  0.16509364  1
  I  I130  1  0.66657652  0.49880780  0.50108856  1
  I  I131  1  0.66208765  0.49463621  0.83483985  1
  I  I132  1  0.66252220  0.83932093  0.16521437  1
  I  I133  1  0.66545637  0.83508741  0.50214631  1
  I  I134  1  0.66454086  0.83581251  0.83241348  1
