# generated using pymatgen
data_Cs27Sn14Pb13I81
_symmetry_space_group_name_H-M   'P 1'
_cell_length_a   18.97075520
_cell_length_b   18.98015592
_cell_length_c   18.97429320
_cell_angle_alpha   90.00116262
_cell_angle_beta   90.00134085
_cell_angle_gamma   90.00095474
_symmetry_Int_Tables_number   1
_chemical_formula_structural   Cs27Sn14Pb13I81
_chemical_formula_sum   'Cs27 Sn14 Pb13 I81'
_cell_volume   6832.03374367
_cell_formula_units_Z   1
loop_
 _symmetry_equiv_pos_site_id
 _symmetry_equiv_pos_as_xyz
  1  'x, y, z'
loop_
 _atom_site_type_symbol
 _atom_site_label
 _atom_site_symmetry_multiplicity
 _atom_site_fract_x
 _atom_site_fract_y
 _atom_site_fract_z
 _atom_site_occupancy
  Cs  Cs0  1  -0.00221852  0.00109442  -0.00227102  1
  Cs  Cs1  1  0.00208977  0.00382661  0.33376597  1
  Cs  Cs2  1  0.00011998  -0.00188932  0.66926532  1
  Cs  Cs3  1  0.00220102  0.33131925  -0.00286013  1
  Cs  Cs4  1  -0.00142290  0.33327430  0.33354494  1
  Cs  Cs5  1  -0.00137841  0.33296452  0.66795720  1
  Cs  Cs6  1  -0.00187311  0.66897392  -0.00220316  1
  Cs  Cs7  1  0.00129264  0.66443809  0.33172269  1
  Cs  Cs8  1  0.00312942  0.66847435  0.67025005  1
  Cs  Cs9  1  0.33568567  0.00584115  0.00596448  1
  Cs  Cs10  1  0.33269151  0.00100330  0.33243792  1
  Cs  Cs11  1  0.33409612  -0.00280529  0.66468693  1
  Cs  Cs12  1  0.33680185  0.33139243  -0.00061463  1
  Cs  Cs13  1  0.33073445  0.33139949  0.33318607  1
  Cs  Cs14  1  0.33394641  0.33451287  0.66745042  1
  Cs  Cs15  1  0.33427265  0.66361313  0.00169875  1
  Cs  Cs16  1  0.33180964  0.66747125  0.33604780  1
  Cs  Cs17  1  0.33263880  0.66758169  0.66466166  1
  Cs  Cs18  1  0.66727645  -0.00239340  0.00270341  1
  Cs  Cs19  1  0.66590118  -0.00282658  0.33597832  1
  Cs  Cs20  1  0.66533716  -0.00069906  0.66480342  1
  Cs  Cs21  1  0.65960575  0.33450441  -0.00276119  1
  Cs  Cs22  1  0.67484276  0.33844983  0.33663636  1
  Cs  Cs23  1  0.66806884  0.33210776  0.66697792  1
  Cs  Cs24  1  0.66743396  0.66770122  0.01053470  1
  Cs  Cs25  1  0.66920050  0.66662446  0.32666768  1
  Cs  Cs26  1  0.66358951  0.66952942  0.66586560  1
  Sn  Sn27  1  0.83337344  0.49974716  0.83310098  1
  Sn  Sn28  1  0.49931745  0.16709376  0.50013423  1
  Sn  Sn29  1  0.49962604  0.49988615  0.50014597  1
  Sn  Sn30  1  0.16653756  0.50071187  0.16636366  1
  Sn  Sn31  1  0.83304567  0.16698645  0.16548618  1
  Sn  Sn32  1  0.83355403  0.16736670  0.83429051  1
  Sn  Sn33  1  0.83322094  0.83293776  0.50031881  1
  Sn  Sn34  1  0.16656090  0.83277728  0.16636274  1
  Sn  Sn35  1  0.16617889  0.49925293  0.83336771  1
  Sn  Sn36  1  0.49981135  0.83317728  0.83342040  1
  Sn  Sn37  1  0.16720892  0.49908472  0.50022694  1
  Sn  Sn38  1  0.16738589  0.16753011  0.50129518  1
  Sn  Sn39  1  0.50097818  0.83300040  0.50063019  1
  Sn  Sn40  1  0.16641479  0.16722625  0.83220202  1
  Pb  Pb41  1  0.49989441  0.50204983  0.83145033  1
  Pb  Pb42  1  0.16900399  0.83374326  0.83567469  1
  Pb  Pb43  1  0.83383153  0.16524309  0.50094504  1
  Pb  Pb44  1  0.49750157  0.49960114  0.16993450  1
  Pb  Pb45  1  0.16705033  0.83339968  0.49874663  1
  Pb  Pb46  1  0.49994410  0.16480172  0.83138705  1
  Pb  Pb47  1  0.50342762  0.16704247  0.17022798  1
  Pb  Pb48  1  0.83403363  0.50237332  0.50222577  1
  Pb  Pb49  1  0.16547996  0.16743100  0.16645739  1
  Pb  Pb50  1  0.83584738  0.83532283  0.16908681  1
  Pb  Pb51  1  0.83589085  0.49779555  0.16358736  1
  Pb  Pb52  1  0.49778196  0.83335938  0.16732467  1
  Pb  Pb53  1  0.83120049  0.83329460  0.83198351  1
  I  I54  1  0.16555448  -0.00126827  0.16841002  1
  I  I55  1  0.16852648  0.00272062  0.50188882  1
  I  I56  1  0.16300233  0.00315171  0.82936909  1
  I  I57  1  0.16481878  0.33614428  0.16815635  1
  I  I58  1  0.17376639  0.33363318  0.49846012  1
  I  I59  1  0.16310140  0.33357161  0.83377306  1
  I  I60  1  0.16693583  0.66535264  0.16865791  1
  I  I61  1  0.16909842  0.66381347  0.50200816  1
  I  I62  1  0.16370639  0.66358201  0.83005392  1
  I  I63  1  0.49559834  0.00014341  0.16903631  1
  I  I64  1  0.50002918  -0.00013039  0.50397854  1
  I  I65  1  0.49940778  -0.00275813  0.82540463  1
  I  I66  1  0.49642387  0.33326687  0.16549115  1
  I  I67  1  0.49406913  0.33338079  0.49955470  1
  I  I68  1  0.50050367  0.33336177  0.83174486  1
  I  I69  1  0.50207424  0.66654678  0.16815028  1
  I  I70  1  0.49812814  0.66670722  0.50498733  1
  I  I71  1  0.49864721  0.66954157  0.82494070  1
  I  I72  1  0.83735150  0.00292887  0.16040763  1
  I  I73  1  0.82958356  -0.00240887  0.50124150  1
  I  I74  1  0.83783469  0.00293876  0.83493805  1
  I  I75  1  0.83671664  0.33018343  0.16953082  1
  I  I76  1  0.83029331  0.33346354  0.49798903  1
  I  I77  1  0.83813750  0.33265513  0.83513984  1
  I  I78  1  0.83262750  0.66640752  0.16632327  1
  I  I79  1  0.82956903  0.66979720  0.50193973  1
  I  I80  1  0.83880691  0.66414677  0.82911730  1
  I  I81  1  0.16396972  0.16851777  -0.00285754  1
  I  I82  1  0.16846645  0.16833764  0.33605216  1
  I  I83  1  0.16438117  0.17333230  0.66650969  1
  I  I84  1  0.16110693  0.50049838  -0.00103823  1
  I  I85  1  0.17211819  0.50041801  0.33449896  1
  I  I86  1  0.16698060  0.49548350  0.66649400  1
  I  I87  1  0.16791914  0.82956734  0.00302190  1
  I  I88  1  0.16760378  0.83015133  0.33109544  1
  I  I89  1  0.16532085  0.83169751  0.66672615  1
  I  I90  1  0.49701984  0.16331483  -0.00014210  1
  I  I91  1  0.49301880  0.16272735  0.33849564  1
  I  I92  1  0.50053690  0.16781225  0.66305282  1
  I  I93  1  0.49964561  0.50306170  -0.00015812  1
  I  I94  1  0.49565136  0.50302172  0.33845487  1
  I  I95  1  0.49379344  0.49895564  0.66315668  1
  I  I96  1  0.49813785  0.83374332  -0.00230410  1
  I  I97  1  0.50266112  0.83366523  0.33714798  1
  I  I98  1  0.50252457  0.83366039  0.66453637  1
  I  I99  1  0.84166575  0.16856680  -0.00174446  1
  I  I100  1  0.83411008  0.16320089  0.33224641  1
  I  I101  1  0.83484335  0.16919490  0.66950695  1
  I  I102  1  0.83863148  0.50042316  -0.00432071  1
  I  I103  1  0.83348428  0.49917252  0.33340297  1
  I  I104  1  0.83932216  0.49285819  0.66979112  1
  I  I105  1  0.83165468  0.83217713  -0.00004135  1
  I  I106  1  0.82622840  0.83505495  0.33686936  1
  I  I107  1  0.83258103  0.83619319  0.66403912  1
  I  I108  1  -0.00212549  0.16599389  0.16850937  1
  I  I109  1  0.00298703  0.16955833  0.49983489  1
  I  I110  1  0.00079274  0.16966315  0.83074079  1
  I  I111  1  0.00399797  0.50325046  0.17372231  1
  I  I112  1  0.00355408  0.49626789  0.49799726  1
  I  I113  1  0.00163522  0.49677250  0.83053631  1
  I  I114  1  0.00335083  0.82912578  0.16863572  1
  I  I115  1  -0.00160232  0.83470867  0.49790535  1
  I  I116  1  0.00016333  0.83344982  0.83198259  1
  I  I117  1  0.33320758  0.16576796  0.16498839  1
  I  I118  1  0.33228162  0.16483821  0.50488203  1
  I  I119  1  0.33026901  0.17032994  0.83130668  1
  I  I120  1  0.32892084  0.50247888  0.16142206  1
  I  I121  1  0.33220747  0.50203316  0.50198184  1
  I  I122  1  0.32985619  0.49661825  0.83477703  1
  I  I123  1  0.33001232  0.83080944  0.16943641  1
  I  I124  1  0.33601996  0.83336438  0.50215879  1
  I  I125  1  0.33629028  0.83272673  0.82410794  1
  I  I126  1  0.67099838  0.16485870  0.16036617  1
  I  I127  1  0.66426605  0.16754410  0.49948009  1
  I  I128  1  0.66948245  0.16996894  0.83507238  1
  I  I129  1  0.66705294  0.49941441  0.16706833  1
  I  I130  1  0.66423797  0.49714586  0.50306605  1
  I  I131  1  0.66910280  0.49555222  0.82945908  1
  I  I132  1  0.66678385  0.83485427  0.16590239  1
  I  I133  1  0.66509362  0.83536276  0.50414845  1
  I  I134  1  0.66349807  0.83413892  0.82885144  1
