# generated using pymatgen
data_Cs27Sn13Pb14I81
_symmetry_space_group_name_H-M   'P 1'
_cell_length_a   18.97611478
_cell_length_b   18.97598450
_cell_length_c   18.98202733
_cell_angle_alpha   90.00101725
_cell_angle_beta   90.00027956
_cell_angle_gamma   90.00057259
_symmetry_Int_Tables_number   1
_chemical_formula_structural   Cs27Sn13Pb14I81
_chemical_formula_sum   'Cs27 Sn13 Pb14 I81'
_cell_volume   6835.24695316
_cell_formula_units_Z   1
loop_
 _symmetry_equiv_pos_site_id
 _symmetry_equiv_pos_as_xyz
  1  'x, y, z'
loop_
 _atom_site_type_symbol
 _atom_site_label
 _atom_site_symmetry_multiplicity
 _atom_site_fract_x
 _atom_site_fract_y
 _atom_site_fract_z
 _atom_site_occupancy
  Cs  Cs0  1  0.00202399  0.00111814  0.00842867  1
  Cs  Cs1  1  -0.00039269  -0.00120860  0.33089740  1
  Cs  Cs2  1  -0.00018738  0.00172309  0.66027732  1
  Cs  Cs3  1  -0.00239192  0.33023461  0.00183489  1
  Cs  Cs4  1  -0.00440426  0.32909769  0.33141787  1
  Cs  Cs5  1  0.00326373  0.33378413  0.66734610  1
  Cs  Cs6  1  -0.00742351  0.66857530  -0.00033023  1
  Cs  Cs7  1  0.00156466  0.67181017  0.33074202  1
  Cs  Cs8  1  -0.00215224  0.66625259  0.66865736  1
  Cs  Cs9  1  0.33366281  -0.00065553  -0.00066426  1
  Cs  Cs10  1  0.32787088  -0.00365512  0.33985904  1
  Cs  Cs11  1  0.33171951  0.00062999  0.66346896  1
  Cs  Cs12  1  0.33461554  0.33319131  -0.00115153  1
  Cs  Cs13  1  0.33486093  0.33716006  0.33326937  1
  Cs  Cs14  1  0.33225797  0.33454477  0.66793286  1
  Cs  Cs15  1  0.33497842  0.66664955  -0.00070924  1
  Cs  Cs16  1  0.33281266  0.66516436  0.33309159  1
  Cs  Cs17  1  0.33388167  0.66472291  0.66782183  1
  Cs  Cs18  1  0.66491818  -0.00005804  -0.00173650  1
  Cs  Cs19  1  0.67137146  0.00261469  0.34336208  1
  Cs  Cs20  1  0.66853039  -0.00039540  0.66195752  1
  Cs  Cs21  1  0.66608321  0.33312934  -0.00041463  1
  Cs  Cs22  1  0.66813399  0.33189424  0.33273300  1
  Cs  Cs23  1  0.66610331  0.33348038  0.66773114  1
  Cs  Cs24  1  0.66853598  0.66725320  -0.00153798  1
  Cs  Cs25  1  0.66658872  0.66682460  0.33266745  1
  Cs  Cs26  1  0.66868402  0.66799734  0.66867748  1
  Sn  Sn27  1  0.16723863  0.49995857  0.16594724  1
  Sn  Sn28  1  0.83350836  0.50015533  0.50006426  1
  Sn  Sn29  1  0.50000646  0.83391297  0.16634419  1
  Sn  Sn30  1  0.49920440  0.83332787  0.83397763  1
  Sn  Sn31  1  0.16720443  0.50102242  0.83416703  1
  Sn  Sn32  1  0.49963540  0.16589898  0.16638703  1
  Sn  Sn33  1  0.16733454  0.83253177  0.83342967  1
  Sn  Sn34  1  0.16616188  0.50000949  0.49981700  1
  Sn  Sn35  1  0.49947829  0.50009524  0.16629415  1
  Sn  Sn36  1  0.83280345  0.16652565  0.83348017  1
  Sn  Sn37  1  0.50087504  0.16652939  0.83392548  1
  Sn  Sn38  1  0.50039989  0.49999356  0.50015954  1
  Sn  Sn39  1  0.49960177  0.50011489  0.83349440  1
  Pb  Pb40  1  0.16970830  0.16877089  0.16664033  1
  Pb  Pb41  1  0.83358120  0.49845487  0.83192931  1
  Pb  Pb42  1  0.83333814  0.16894290  0.50236868  1
  Pb  Pb43  1  0.83358176  0.83631160  0.83337354  1
  Pb  Pb44  1  0.83313914  0.50010154  0.16899897  1
  Pb  Pb45  1  0.49966822  0.16899747  0.50010286  1
  Pb  Pb46  1  0.49999024  0.83073567  0.50027851  1
  Pb  Pb47  1  0.16675963  0.16903185  0.49967017  1
  Pb  Pb48  1  0.83350092  0.83080964  0.50008645  1
  Pb  Pb49  1  0.16678543  0.83076222  0.50261292  1
  Pb  Pb50  1  0.83047626  0.16663991  0.16456473  1
  Pb  Pb51  1  0.83005859  0.83347916  0.16650585  1
  Pb  Pb52  1  0.16718944  0.16640410  0.83336102  1
  Pb  Pb53  1  0.16903489  0.83097473  0.16428611  1
  I  I54  1  0.16783409  -0.00041361  0.16392260  1
  I  I55  1  0.16675872  -0.00055535  0.50259146  1
  I  I56  1  0.17144637  -0.00299178  0.83365148  1
  I  I57  1  0.17286597  0.33796965  0.16377573  1
  I  I58  1  0.16892588  0.33876450  0.50503224  1
  I  I59  1  0.17037672  0.33696134  0.83175407  1
  I  I60  1  0.17355010  0.66238650  0.16987584  1
  I  I61  1  0.16891335  0.66173491  0.49809737  1
  I  I62  1  0.17518965  0.66478141  0.83207927  1
  I  I63  1  0.50151555  -0.00002285  0.15526652  1
  I  I64  1  0.50143464  -0.00008686  0.49996828  1
  I  I65  1  0.49970816  -0.00016805  0.84122797  1
  I  I66  1  0.49678364  0.33465543  0.16380347  1
  I  I67  1  0.49889636  0.33803934  0.50082730  1
  I  I68  1  0.50007708  0.33458309  0.83489728  1
  I  I69  1  0.49642312  0.66535173  0.16446082  1
  I  I70  1  0.49894570  0.66181125  0.50042071  1
  I  I71  1  0.49586213  0.66556226  0.83488687  1
  I  I72  1  0.83355823  0.00015511  0.16586326  1
  I  I73  1  0.83189502  0.00033527  0.50147975  1
  I  I74  1  0.82657991  0.00380920  0.83315720  1
  I  I75  1  0.83116163  0.33356821  0.16659170  1
  I  I76  1  0.83237334  0.33729895  0.50042407  1
  I  I77  1  0.82743715  0.33088830  0.83217189  1
  I  I78  1  0.83034300  0.66633649  0.16615309  1
  I  I79  1  0.83168610  0.66202066  0.50282570  1
  I  I80  1  0.83090371  0.66666892  0.83140407  1
  I  I81  1  0.16391649  0.17097619  -0.00025383  1
  I  I82  1  0.16894931  0.16921193  0.33304320  1
  I  I83  1  0.16921036  0.16987579  0.66709702  1
  I  I84  1  0.17577606  0.50245842  -0.00079058  1
  I  I85  1  0.17195007  0.49809931  0.33325950  1
  I  I86  1  0.17007634  0.50273824  0.66735337  1
  I  I87  1  0.16964808  0.82715658  -0.00375846  1
  I  I88  1  0.16845756  0.83116029  0.33304306  1
  I  I89  1  0.17434450  0.82762923  0.67093089  1
  I  I90  1  0.50343254  0.17221097  -0.00111330  1
  I  I91  1  0.49895437  0.16915715  0.33016127  1
  I  I92  1  0.50313576  0.16763140  0.67026919  1
  I  I93  1  0.49418112  0.49930687  -0.00039179  1
  I  I94  1  0.49728328  0.49978457  0.33275366  1
  I  I95  1  0.49764139  0.49940113  0.66763721  1
  I  I96  1  0.49684767  0.82876370  -0.00116566  1
  I  I97  1  0.50084935  0.83141417  0.33028323  1
  I  I98  1  0.49713522  0.83289552  0.67040307  1
  I  I99  1  0.83093265  0.17005319  -0.00344078  1
  I  I100  1  0.83133453  0.16871482  0.33339175  1
  I  I101  1  0.82488189  0.16755215  0.67021606  1
  I  I102  1  0.83305852  0.49889524  -0.00001353  1
  I  I103  1  0.83134255  0.49907824  0.33694841  1
  I  I104  1  0.83206812  0.49815387  0.66401581  1
  I  I105  1  0.83460653  0.83056105  -0.00041850  1
  I  I106  1  0.83140164  0.83246563  0.33329018  1
  I  I107  1  0.83001340  0.83300799  0.66710427  1
  I  I108  1  0.00008114  0.16974800  0.16473587  1
  I  I109  1  -0.00012826  0.17154077  0.50459648  1
  I  I110  1  -0.00215388  0.16991022  0.83065066  1
  I  I111  1  0.00331086  0.50013914  0.16560950  1
  I  I112  1  0.00106138  0.49944723  0.50268695  1
  I  I113  1  0.00334651  0.50255310  0.83229467  1
  I  I114  1  0.00056401  0.83051092  0.16474258  1
  I  I115  1  0.00031209  0.82945269  0.50343514  1
  I  I116  1  0.00319553  0.82653857  0.83180000  1
  I  I117  1  0.33808972  0.16729829  0.15743288  1
  I  I118  1  0.33368091  0.16958819  0.50355170  1
  I  I119  1  0.33705924  0.16862154  0.83719186  1
  I  I120  1  0.33506947  0.49945227  0.17012749  1
  I  I121  1  0.33377970  0.49968475  0.50036651  1
  I  I122  1  0.33467691  0.49835314  0.82972781  1
  I  I123  1  0.33749203  0.83370863  0.16382034  1
  I  I124  1  0.33352597  0.83132953  0.49877452  1
  I  I125  1  0.33505516  0.83255916  0.83677384  1
  I  I126  1  0.66186438  0.17212444  0.16402598  1
  I  I127  1  0.66632121  0.17112104  0.49858031  1
  I  I128  1  0.66393147  0.16894946  0.83704728  1
  I  I129  1  0.66248711  0.49980107  0.16612966  1
  I  I130  1  0.66526470  0.49949494  0.50064428  1
  I  I131  1  0.66314159  0.50189597  0.83331938  1
  I  I132  1  0.66111018  0.82758193  0.15854201  1
  I  I133  1  0.66628132  0.82924806  0.50191316  1
  I  I134  1  0.66293025  0.82917685  0.83711764  1
