# generated using pymatgen
data_Cs27Sn14Pb13I81
_symmetry_space_group_name_H-M   'P 1'
_cell_length_a   18.97005324
_cell_length_b   18.98372943
_cell_length_c   18.97313716
_cell_angle_alpha   89.99998083
_cell_angle_beta   89.99963084
_cell_angle_gamma   90.00129930
_symmetry_Int_Tables_number   1
_chemical_formula_structural   Cs27Sn14Pb13I81
_chemical_formula_sum   'Cs27 Sn14 Pb13 I81'
_cell_volume   6832.65089267
_cell_formula_units_Z   1
loop_
 _symmetry_equiv_pos_site_id
 _symmetry_equiv_pos_as_xyz
  1  'x, y, z'
loop_
 _atom_site_type_symbol
 _atom_site_label
 _atom_site_symmetry_multiplicity
 _atom_site_fract_x
 _atom_site_fract_y
 _atom_site_fract_z
 _atom_site_occupancy
  Cs  Cs0  1  0.00350195  0.00012948  0.00181461  1
  Cs  Cs1  1  0.00033238  0.00071058  0.33716462  1
  Cs  Cs2  1  -0.00884960  -0.00085657  0.65759910  1
  Cs  Cs3  1  0.00149127  0.33465446  -0.00022043  1
  Cs  Cs4  1  0.00038090  0.33350655  0.33358290  1
  Cs  Cs5  1  -0.00361197  0.33157952  0.66609184  1
  Cs  Cs6  1  0.00237807  0.66521375  0.00158873  1
  Cs  Cs7  1  -0.00196543  0.66646502  0.33276399  1
  Cs  Cs8  1  0.00052828  0.66944257  0.66290085  1
  Cs  Cs9  1  0.33267035  0.00041395  0.00005239  1
  Cs  Cs10  1  0.33541061  0.00140845  0.33302167  1
  Cs  Cs11  1  0.33518518  -0.00031535  0.66781126  1
  Cs  Cs12  1  0.33137915  0.33128422  0.00011051  1
  Cs  Cs13  1  0.33396990  0.33322457  0.33749314  1
  Cs  Cs14  1  0.33327344  0.33441254  0.66466591  1
  Cs  Cs15  1  0.33100401  0.66803415  -0.00063214  1
  Cs  Cs16  1  0.33449436  0.66496710  0.33587775  1
  Cs  Cs17  1  0.33270668  0.66411170  0.66572183  1
  Cs  Cs18  1  0.66535501  -0.00026926  0.00135449  1
  Cs  Cs19  1  0.66464242  -0.00004293  0.33231798  1
  Cs  Cs20  1  0.67038681  -0.00050228  0.66598851  1
  Cs  Cs21  1  0.66790443  0.33466424  0.00040153  1
  Cs  Cs22  1  0.66520511  0.33549971  0.33093182  1
  Cs  Cs23  1  0.66996826  0.33319680  0.66978021  1
  Cs  Cs24  1  0.66545905  0.66608490  -0.00348493  1
  Cs  Cs25  1  0.66710192  0.66498501  0.33096494  1
  Cs  Cs26  1  0.66693526  0.66700869  0.67858501  1
  Sn  Sn27  1  0.50015553  0.16601659  0.49992972  1
  Sn  Sn28  1  0.83276537  0.50032938  0.49938209  1
  Sn  Sn29  1  0.16685428  0.83268414  0.16649557  1
  Sn  Sn30  1  0.83288505  0.16661073  0.16648335  1
  Sn  Sn31  1  0.50017302  0.83349339  0.49946919  1
  Sn  Sn32  1  0.49978501  0.83382862  0.16729041  1
  Sn  Sn33  1  0.49951421  0.16658917  0.83349208  1
  Sn  Sn34  1  0.16649851  0.83385957  0.83354330  1
  Sn  Sn35  1  0.83337264  0.83336866  0.16654697  1
  Sn  Sn36  1  0.16655543  0.49997832  0.83398841  1
  Sn  Sn37  1  0.83416734  0.50010014  0.16726761  1
  Sn  Sn38  1  0.50051808  0.16615796  0.16661953  1
  Sn  Sn39  1  0.16629684  0.50060913  0.16632898  1
  Sn  Sn40  1  0.16683071  0.16614990  0.83308509  1
  Pb  Pb41  1  0.83603135  0.50010344  0.83407538  1
  Pb  Pb42  1  0.49804021  0.83529945  0.83373475  1
  Pb  Pb43  1  0.83014313  0.83116503  0.49747258  1
  Pb  Pb44  1  0.83648533  0.83354628  0.83609473  1
  Pb  Pb45  1  0.83346549  0.16637150  0.83580626  1
  Pb  Pb46  1  0.16893012  0.16652714  0.50337176  1
  Pb  Pb47  1  0.50279615  0.50047393  0.50009596  1
  Pb  Pb48  1  0.49949564  0.50027550  0.16652214  1
  Pb  Pb49  1  0.16448706  0.50005441  0.49951772  1
  Pb  Pb50  1  0.16891887  0.83339543  0.49931844  1
  Pb  Pb51  1  0.83055790  0.16844183  0.49701931  1
  Pb  Pb52  1  0.16695658  0.16663720  0.16569670  1
  Pb  Pb53  1  0.49707238  0.49713381  0.83349452  1
  I  I54  1  0.16507680  -0.00277243  0.16203967  1
  I  I55  1  0.16353879  -0.00005246  0.49874382  1
  I  I56  1  0.17267246  -0.00011941  0.84051728  1
  I  I57  1  0.16326105  0.33566990  0.16202048  1
  I  I58  1  0.16975450  0.33334087  0.49878416  1
  I  I59  1  0.17102595  0.33336165  0.83853951  1
  I  I60  1  0.16394087  0.66708750  0.15881985  1
  I  I61  1  0.17033737  0.66671696  0.50499103  1
  I  I62  1  0.16561163  0.66683505  0.83923040  1
  I  I63  1  0.50244659  0.00012654  0.16685276  1
  I  I64  1  0.49905827  0.00054662  0.49783625  1
  I  I65  1  0.49294791  0.00330605  0.83499104  1
  I  I66  1  0.50282846  0.33007898  0.16696946  1
  I  I67  1  0.50032292  0.33018172  0.49871216  1
  I  I68  1  0.49490711  0.32873711  0.83415361  1
  I  I69  1  0.50156708  0.67006577  0.17170521  1
  I  I70  1  0.49955686  0.66982409  0.49252833  1
  I  I71  1  0.49933491  0.66694746  0.83277409  1
  I  I72  1  0.83245464  -0.00033233  0.16402287  1
  I  I73  1  0.83498281  -0.00011179  0.49974850  1
  I  I74  1  0.83638057  0.00002206  0.83453102  1
  I  I75  1  0.83300380  0.33357908  0.16978444  1
  I  I76  1  0.83234230  0.33607690  0.49347646  1
  I  I77  1  0.83492753  0.33325115  0.83596195  1
  I  I78  1  0.83454117  0.66670454  0.17100998  1
  I  I79  1  0.83310102  0.66369191  0.49257008  1
  I  I80  1  0.83254303  0.66671481  0.83449515  1
  I  I81  1  0.17227624  0.16691203  -0.00238885  1
  I  I82  1  0.16731485  0.16741764  0.33324054  1
  I  I83  1  0.17253466  0.16811790  0.67189372  1
  I  I84  1  0.16120600  0.50057010  0.00100799  1
  I  I85  1  0.16492062  0.50516413  0.32976140  1
  I  I86  1  0.16689177  0.50011352  0.66981495  1
  I  I87  1  0.16883783  0.83238771  0.00143196  1
  I  I88  1  0.16487977  0.82795814  0.32931408  1
  I  I89  1  0.17022570  0.83191142  0.66963607  1
  I  I90  1  0.49952529  0.16303854  0.00095387  1
  I  I91  1  0.50497184  0.16265318  0.33227874  1
  I  I92  1  0.49286887  0.16367496  0.66672170  1
  I  I93  1  0.50536746  0.49986258  0.00022303  1
  I  I94  1  0.49480882  0.49501942  0.33310479  1
  I  I95  1  0.50051791  0.50075606  0.66672110  1
  I  I96  1  0.50153895  0.83729159  0.00348431  1
  I  I97  1  0.49803644  0.84152943  0.33132585  1
  I  I98  1  0.49751193  0.83726549  0.66445918  1
  I  I99  1  0.82744882  0.16957933  0.00422653  1
  I  I100  1  0.82915770  0.16438915  0.32876391  1
  I  I101  1  0.83327578  0.16997641  0.66642027  1
  I  I102  1  0.83530138  0.49974039  0.00386401  1
  I  I103  1  0.83898676  0.49971491  0.33057883  1
  I  I104  1  0.83324341  0.49841804  0.66437777  1
  I  I105  1  0.82669317  0.83012488  0.00491144  1
  I  I106  1  0.83906358  0.83568411  0.32887330  1
  I  I107  1  0.83348161  0.83110921  0.66639442  1
  I  I108  1  -0.00229634  0.16529766  0.16359330  1
  I  I109  1  -0.00053426  0.16804337  0.50050978  1
  I  I110  1  0.00326756  0.16839934  0.83765735  1
  I  I111  1  -0.00000504  0.50245377  0.16615748  1
  I  I112  1  -0.00322932  0.49992680  0.49697548  1
  I  I113  1  0.00414035  0.49666105  0.83638492  1
  I  I114  1  0.00024469  0.83236909  0.16058361  1
  I  I115  1  -0.00038205  0.83189194  0.50065600  1
  I  I116  1  0.00489828  0.83508730  0.83940151  1
  I  I117  1  0.33636587  0.16365054  0.16754429  1
  I  I118  1  0.33738887  0.16460369  0.49271170  1
  I  I119  1  0.33349599  0.16707865  0.83683183  1
  I  I120  1  0.33005073  0.50280574  0.16139370  1
  I  I121  1  0.33351289  0.49926768  0.50000944  1
  I  I122  1  0.32896073  0.50262235  0.84030023  1
  I  I123  1  0.33332403  0.83395360  0.16589429  1
  I  I124  1  0.33684092  0.83709160  0.49352944  1
  I  I125  1  0.33000266  0.83158168  0.84008617  1
  I  I126  1  0.66567558  0.16435716  0.16486307  1
  I  I127  1  0.66254473  0.16261497  0.50519966  1
  I  I128  1  0.66345116  0.16617279  0.83199878  1
  I  I129  1  0.66955426  0.50105977  0.17137301  1
  I  I130  1  0.67023804  0.49895896  0.48967333  1
  I  I131  1  0.66686704  0.49829405  0.83322557  1
  I  I132  1  0.66634227  0.83442358  0.17217172  1
  I  I133  1  0.66243039  0.83853453  0.49416274  1
  I  I134  1  0.66650636  0.83472758  0.83351651  1
