# generated using pymatgen
data_Cs27Sn13Pb14I81
_symmetry_space_group_name_H-M   'P 1'
_cell_length_a   18.98229120
_cell_length_b   18.97835304
_cell_length_c   18.96969701
_cell_angle_alpha   90.00155189
_cell_angle_beta   89.99909791
_cell_angle_gamma   89.99980593
_symmetry_Int_Tables_number   1
_chemical_formula_structural   Cs27Sn13Pb14I81
_chemical_formula_sum   'Cs27 Sn13 Pb14 I81'
_cell_volume   6833.88311910
_cell_formula_units_Z   1
loop_
 _symmetry_equiv_pos_site_id
 _symmetry_equiv_pos_as_xyz
  1  'x, y, z'
loop_
 _atom_site_type_symbol
 _atom_site_label
 _atom_site_symmetry_multiplicity
 _atom_site_fract_x
 _atom_site_fract_y
 _atom_site_fract_z
 _atom_site_occupancy
  Cs  Cs0  1  -0.00291743  -0.00046873  -0.00086855  1
  Cs  Cs1  1  0.00321003  -0.00126197  0.33615840  1
  Cs  Cs2  1  0.00341799  0.00387943  0.66524953  1
  Cs  Cs3  1  0.00303314  0.33145424  0.00210439  1
  Cs  Cs4  1  -0.00242253  0.33336808  0.33434067  1
  Cs  Cs5  1  0.00586705  0.33618948  0.65997604  1
  Cs  Cs6  1  -0.00715478  0.66993404  0.00043955  1
  Cs  Cs7  1  0.00579831  0.66739292  0.33302308  1
  Cs  Cs8  1  -0.00238857  0.65979516  0.66603464  1
  Cs  Cs9  1  0.33460577  0.00025960  -0.00077443  1
  Cs  Cs10  1  0.33560983  -0.00467892  0.33223541  1
  Cs  Cs11  1  0.33303473  -0.00034575  0.66787852  1
  Cs  Cs12  1  0.33094677  0.33363294  0.00001343  1
  Cs  Cs13  1  0.33538810  0.33504868  0.32962788  1
  Cs  Cs14  1  0.32921106  0.33320595  0.67155481  1
  Cs  Cs15  1  0.33352521  0.66595506  -0.00109400  1
  Cs  Cs16  1  0.33206242  0.66839204  0.33366017  1
  Cs  Cs17  1  0.33437396  0.66738888  0.66690884  1
  Cs  Cs18  1  0.66748798  0.00039682  0.00049374  1
  Cs  Cs19  1  0.66348081  0.00016031  0.33451878  1
  Cs  Cs20  1  0.66584568  -0.00068703  0.66612677  1
  Cs  Cs21  1  0.66655577  0.33217910  0.00102671  1
  Cs  Cs22  1  0.66768586  0.33257693  0.33307026  1
  Cs  Cs23  1  0.66718681  0.33385138  0.66497356  1
  Cs  Cs24  1  0.67185223  0.66800116  -0.00359393  1
  Cs  Cs25  1  0.66489954  0.66724471  0.33401606  1
  Cs  Cs26  1  0.66642527  0.66800741  0.66870960  1
  Sn  Sn27  1  0.83289931  0.83340773  0.49996671  1
  Sn  Sn28  1  0.83294645  0.16713751  0.83319532  1
  Sn  Sn29  1  0.49931850  0.83426248  0.83273843  1
  Sn  Sn30  1  0.50092169  0.16609760  0.83259773  1
  Sn  Sn31  1  0.83317400  0.49937079  0.16675740  1
  Sn  Sn32  1  0.50003911  0.49986125  0.49956284  1
  Sn  Sn33  1  0.16698437  0.83317181  0.83329737  1
  Sn  Sn34  1  0.49992992  0.16687351  0.50090964  1
  Sn  Sn35  1  0.50032714  0.50017663  0.16694090  1
  Sn  Sn36  1  0.83406801  0.16708409  0.16623841  1
  Sn  Sn37  1  0.16587423  0.16671479  0.16683279  1
  Sn  Sn38  1  0.16651622  0.49948895  0.16641400  1
  Sn  Sn39  1  0.50090915  0.83336238  0.50092616  1
  Pb  Pb40  1  0.83323539  0.83404656  0.16920339  1
  Pb  Pb41  1  0.83112397  0.50202098  0.49763096  1
  Pb  Pb42  1  0.83341234  0.49655530  0.83521665  1
  Pb  Pb43  1  0.16667765  0.83354079  0.16428057  1
  Pb  Pb44  1  0.16946624  0.49988621  0.49761474  1
  Pb  Pb45  1  0.83158215  0.16529540  0.49973112  1
  Pb  Pb46  1  0.16999041  0.16669258  0.49695435  1
  Pb  Pb47  1  0.83307429  0.83560818  0.83097175  1
  Pb  Pb48  1  0.16670691  0.16532326  0.83521194  1
  Pb  Pb49  1  0.50018017  0.83048277  0.16606836  1
  Pb  Pb50  1  0.50016300  0.49977838  0.83317082  1
  Pb  Pb51  1  0.16705908  0.83322615  0.50263212  1
  Pb  Pb52  1  0.50022846  0.16827667  0.16626800  1
  Pb  Pb53  1  0.16646241  0.50260651  0.83595079  1
  I  I54  1  0.16211996  0.00299634  0.16560201  1
  I  I55  1  0.16856565  -0.00004261  0.49591775  1
  I  I56  1  0.16964888  -0.00248812  0.83620357  1
  I  I57  1  0.16706497  0.33359382  0.16555485  1
  I  I58  1  0.16752461  0.33322177  0.50325403  1
  I  I59  1  0.16822920  0.33314506  0.83373140  1
  I  I60  1  0.16689565  0.66350258  0.16616123  1
  I  I61  1  0.16872243  0.66668702  0.49696316  1
  I  I62  1  0.17495268  0.67050407  0.83432787  1
  I  I63  1  0.49948890  0.00016134  0.16946579  1
  I  I64  1  0.50379506  -0.00031955  0.50391333  1
  I  I65  1  0.49962653  0.00017304  0.82654144  1
  I  I66  1  0.50002611  0.33628580  0.17061139  1
  I  I67  1  0.49990824  0.33319572  0.49841505  1
  I  I68  1  0.50390321  0.33010425  0.83103084  1
  I  I69  1  0.49911903  0.66222067  0.17095581  1
  I  I70  1  0.50351060  0.66724062  0.49894405  1
  I  I71  1  0.49596755  0.66957272  0.83096929  1
  I  I72  1  0.83758080  0.00360017  0.16337790  1
  I  I73  1  0.82582852  -0.00254426  0.49796822  1
  I  I74  1  0.83088715  0.00326163  0.84090401  1
  I  I75  1  0.83320066  0.33302167  0.16340219  1
  I  I76  1  0.83069695  0.33331628  0.50084144  1
  I  I77  1  0.82533040  0.32850981  0.83504640  1
  I  I78  1  0.83362508  0.66374548  0.16840632  1
  I  I79  1  0.82677752  0.66986241  0.49964541  1
  I  I80  1  0.83268364  0.66691352  0.83492567  1
  I  I81  1  0.16824335  0.17046559  0.00326700  1
  I  I82  1  0.16123011  0.17022633  0.32885412  1
  I  I83  1  0.16428384  0.16491050  0.66679883  1
  I  I84  1  0.17147108  0.49551079  0.00450921  1
  I  I85  1  0.16492418  0.49745757  0.32908692  1
  I  I86  1  0.16830645  0.50066290  0.66665950  1
  I  I87  1  0.17404086  0.83332566  -0.00329034  1
  I  I88  1  0.16753943  0.83305343  0.33333672  1
  I  I89  1  0.17012540  0.83615198  0.67022154  1
  I  I90  1  0.50076906  0.16310909  -0.00262304  1
  I  I91  1  0.49985794  0.16415770  0.33566742  1
  I  I92  1  0.50581462  0.16699530  0.66708897  1
  I  I93  1  0.49934592  0.49921692  0.00308015  1
  I  I94  1  0.49985045  0.49950588  0.33328447  1
  I  I95  1  0.50077644  0.50084678  0.66358675  1
  I  I96  1  0.49620652  0.83742764  -0.00337280  1
  I  I97  1  0.50348934  0.83636451  0.33648361  1
  I  I98  1  0.49997551  0.83211332  0.66626409  1
  I  I99  1  0.83024276  0.16901416  0.00069738  1
  I  I100  1  0.83510186  0.16994057  0.33020332  1
  I  I101  1  0.82918493  0.16218833  0.66912100  1
  I  I102  1  0.82950818  0.50105694  0.00425373  1
  I  I103  1  0.83431147  0.49306823  0.32923172  1
  I  I104  1  0.83122170  0.50032381  0.66627416  1
  I  I105  1  0.83264164  0.83134185  -0.00018738  1
  I  I106  1  0.82522877  0.83492501  0.33676828  1
  I  I107  1  0.82944936  0.83521420  0.66349270  1
  I  I108  1  -0.00093643  0.17435093  0.16067501  1
  I  I109  1  -0.00006047  0.16363553  0.50211080  1
  I  I110  1  -0.00250802  0.16353136  0.83809822  1
  I  I111  1  -0.00020895  0.49539406  0.16459966  1
  I  I112  1  -0.00014910  0.50273667  0.49906877  1
  I  I113  1  -0.00011409  0.50239796  0.83485255  1
  I  I114  1  -0.00009984  0.82906418  0.16661910  1
  I  I115  1  -0.00247588  0.83451036  0.49927457  1
  I  I116  1  0.00187247  0.83469585  0.83450709  1
  I  I117  1  0.33161224  0.17141052  0.16686338  1
  I  I118  1  0.33841914  0.16362070  0.50467149  1
  I  I119  1  0.33645137  0.16437923  0.83104701  1
  I  I120  1  0.33354787  0.49619131  0.17057815  1
  I  I121  1  0.33800578  0.50322956  0.49382979  1
  I  I122  1  0.33362466  0.49626908  0.83664311  1
  I  I123  1  0.33355441  0.83379645  0.17037513  1
  I  I124  1  0.33716587  0.83323725  0.50115445  1
  I  I125  1  0.33561396  0.83861314  0.82910896  1
  I  I126  1  0.66902263  0.17103794  0.16571982  1
  I  I127  1  0.66308959  0.16780098  0.49824078  1
  I  I128  1  0.66551274  0.16096351  0.83671750  1
  I  I129  1  0.66662069  0.49568927  0.17092763  1
  I  I130  1  0.66275218  0.49823462  0.49337980  1
  I  I131  1  0.66653117  0.50457416  0.83730982  1
  I  I132  1  0.66660247  0.83318223  0.16305767  1
  I  I133  1  0.66422060  0.83314709  0.50461751  1
  I  I134  1  0.66362018  0.83506858  0.83102067  1
