# generated using pymatgen
data_Cs27Sn13Pb14I81
_symmetry_space_group_name_H-M   'P 1'
_cell_length_a   19.00530304
_cell_length_b   18.97912679
_cell_length_c   18.99216340
_cell_angle_alpha   89.99864109
_cell_angle_beta   89.99938657
_cell_angle_gamma   90.00058637
_symmetry_Int_Tables_number   1
_chemical_formula_structural   Cs27Sn13Pb14I81
_chemical_formula_sum   'Cs27 Sn13 Pb14 I81'
_cell_volume   6850.55036988
_cell_formula_units_Z   1
loop_
 _symmetry_equiv_pos_site_id
 _symmetry_equiv_pos_as_xyz
  1  'x, y, z'
loop_
 _atom_site_type_symbol
 _atom_site_label
 _atom_site_symmetry_multiplicity
 _atom_site_fract_x
 _atom_site_fract_y
 _atom_site_fract_z
 _atom_site_occupancy
  Cs  Cs0  1  0.00154314  0.00380895  0.00488595  1
  Cs  Cs1  1  0.00001257  -0.00109458  0.33050683  1
  Cs  Cs2  1  -0.00041277  -0.00195167  0.66599169  1
  Cs  Cs3  1  0.00293746  0.33363698  0.00310388  1
  Cs  Cs4  1  -0.00097424  0.33419564  0.33314613  1
  Cs  Cs5  1  0.00012180  0.33223212  0.66366244  1
  Cs  Cs6  1  0.00511831  0.66493637  -0.00767457  1
  Cs  Cs7  1  -0.00159565  0.66540103  0.33396587  1
  Cs  Cs8  1  -0.00220083  0.67540282  0.67316715  1
  Cs  Cs9  1  0.33348038  -0.00501560  0.00346605  1
  Cs  Cs10  1  0.33413804  -0.00790128  0.33157624  1
  Cs  Cs11  1  0.33197120  0.00233029  0.66531776  1
  Cs  Cs12  1  0.33239556  0.33543457  0.00008624  1
  Cs  Cs13  1  0.33542646  0.33480558  0.33730482  1
  Cs  Cs14  1  0.33436938  0.33124462  0.66372547  1
  Cs  Cs15  1  0.32510382  0.67338603  -0.00636887  1
  Cs  Cs16  1  0.33343460  0.67174546  0.33132198  1
  Cs  Cs17  1  0.33262313  0.67424194  0.67438767  1
  Cs  Cs18  1  0.66591405  0.00108588  0.00294744  1
  Cs  Cs19  1  0.66675855  -0.00205379  0.33195569  1
  Cs  Cs20  1  0.66825894  -0.00039981  0.66585236  1
  Cs  Cs21  1  0.66597226  0.33346282  0.00100747  1
  Cs  Cs22  1  0.66647106  0.33517586  0.33464310  1
  Cs  Cs23  1  0.66559435  0.33297691  0.66499651  1
  Cs  Cs24  1  0.66675011  0.66735467  -0.00433609  1
  Cs  Cs25  1  0.66786834  0.66401693  0.33262715  1
  Cs  Cs26  1  0.66919196  0.67266037  0.67539596  1
  Sn  Sn27  1  0.83337190  0.16749944  0.83260656  1
  Sn  Sn28  1  0.50003765  0.50010305  0.49977348  1
  Sn  Sn29  1  0.16669841  0.16739577  0.83264124  1
  Sn  Sn30  1  0.16688290  0.49979082  0.50017062  1
  Sn  Sn31  1  0.16663187  0.16734380  0.50028914  1
  Sn  Sn32  1  0.50028114  0.49940693  0.16694770  1
  Sn  Sn33  1  0.49989350  0.16731812  0.83326755  1
  Sn  Sn34  1  0.83257936  0.50087432  0.16699385  1
  Sn  Sn35  1  0.83307545  0.49949770  0.49994767  1
  Sn  Sn36  1  0.50012052  0.16689932  0.49953183  1
  Sn  Sn37  1  0.83323098  0.83143752  0.16680075  1
  Sn  Sn38  1  0.49993669  0.16789261  0.16730179  1
  Sn  Sn39  1  0.83318915  0.16736784  0.50044717  1
  Pb  Pb40  1  0.83150650  0.16785881  0.16725942  1
  Pb  Pb41  1  0.50024228  0.83671726  0.83337518  1
  Pb  Pb42  1  0.49993277  0.49814472  0.83313609  1
  Pb  Pb43  1  0.83333405  0.49744151  0.83316034  1
  Pb  Pb44  1  0.16336470  0.83291132  0.16693865  1
  Pb  Pb45  1  0.50032664  0.83210711  0.49996225  1
  Pb  Pb46  1  0.16725890  0.49978109  0.16896541  1
  Pb  Pb47  1  0.83327134  0.83693433  0.83654593  1
  Pb  Pb48  1  0.16650670  0.83311023  0.49993275  1
  Pb  Pb49  1  0.50177986  0.83173515  0.16679768  1
  Pb  Pb50  1  0.16641746  0.83721114  0.83305226  1
  Pb  Pb51  1  0.83314123  0.83298184  0.49829862  1
  Pb  Pb52  1  0.16668423  0.49726958  0.82980251  1
  Pb  Pb53  1  0.17016983  0.16701929  0.16772010  1
  I  I54  1  0.16607200  0.00039410  0.16798489  1
  I  I55  1  0.16682116  0.00418557  0.50473480  1
  I  I56  1  0.16716763  0.00544756  0.82528937  1
  I  I57  1  0.15998345  0.33314414  0.16296477  1
  I  I58  1  0.16670629  0.33208961  0.50355981  1
  I  I59  1  0.16694074  0.32891343  0.83233805  1
  I  I60  1  0.17242529  0.66629537  0.16972609  1
  I  I61  1  0.16658138  0.66291586  0.49614708  1
  I  I62  1  0.16681691  0.66674122  0.83265265  1
  I  I63  1  0.50133187  0.00287676  0.16638650  1
  I  I64  1  0.49963445  0.00435379  0.50013421  1
  I  I65  1  0.50019931  0.00598891  0.83307982  1
  I  I66  1  0.50682427  0.33300067  0.16787741  1
  I  I67  1  0.50026994  0.33194636  0.49929598  1
  I  I68  1  0.50063035  0.32908504  0.83290465  1
  I  I69  1  0.50299588  0.66246106  0.17552972  1
  I  I70  1  0.50006436  0.66212350  0.49201887  1
  I  I71  1  0.50019845  0.66650281  0.83283841  1
  I  I72  1  0.83161159  -0.00100927  0.16556019  1
  I  I73  1  0.83338665  0.00371873  0.50258151  1
  I  I74  1  0.83246216  0.00516269  0.82764706  1
  I  I75  1  0.83108165  0.33624881  0.16834439  1
  I  I76  1  0.83316910  0.33261338  0.49759381  1
  I  I77  1  0.83231094  0.32907539  0.83396629  1
  I  I78  1  0.82666233  0.66454010  0.17529188  1
  I  I79  1  0.83317816  0.66280120  0.49642360  1
  I  I80  1  0.83347418  0.66671238  0.83005392  1
  I  I81  1  0.16489925  0.16455390  -0.00268084  1
  I  I82  1  0.16423455  0.17064747  0.33728281  1
  I  I83  1  0.17074383  0.17054797  0.66556901  1
  I  I84  1  0.16595445  0.49942463  -0.00020123  1
  I  I85  1  0.16567462  0.49060968  0.33720278  1
  I  I86  1  0.16697409  0.49601542  0.66154962  1
  I  I87  1  0.16706337  0.83518321  -0.00014393  1
  I  I88  1  0.16767000  0.83853847  0.33348688  1
  I  I89  1  0.16515346  0.83075838  0.66660248  1
  I  I90  1  0.50188523  0.17007416  0.00018969  1
  I  I91  1  0.50126239  0.17040618  0.33431169  1
  I  I92  1  0.50000502  0.17004592  0.66569130  1
  I  I93  1  0.50769178  0.49336756  0.00331649  1
  I  I94  1  0.50185740  0.49037018  0.33404381  1
  I  I95  1  0.50094215  0.49396457  0.66280725  1
  I  I96  1  0.50153992  0.83530815  0.00018244  1
  I  I97  1  0.49984389  0.84151797  0.33325575  1
  I  I98  1  0.50087185  0.83247130  0.66669905  1
  I  I99  1  0.83285969  0.16523294  -0.00211983  1
  I  I100  1  0.83412314  0.16690020  0.33656321  1
  I  I101  1  0.82927990  0.17154787  0.66521334  1
  I  I102  1  0.82708330  0.50199227  0.00321805  1
  I  I103  1  0.83282186  0.49718023  0.33437281  1
  I  I104  1  0.83200424  0.49578195  0.66292161  1
  I  I105  1  0.83135640  0.82803129  0.00398181  1
  I  I106  1  0.83219123  0.83591720  0.33057277  1
  I  I107  1  0.83409362  0.83135917  0.66704355  1
  I  I108  1  0.00000891  0.16521441  0.16546498  1
  I  I109  1  -0.00037855  0.17238315  0.50724986  1
  I  I110  1  -0.00013304  0.16640210  0.82576118  1
  I  I111  1  -0.00310708  0.50316744  0.17117753  1
  I  I112  1  -0.00090228  0.49136893  0.49469506  1
  I  I113  1  -0.00008747  0.49615755  0.83541986  1
  I  I114  1  -0.00457659  0.83021077  0.16842286  1
  I  I115  1  -0.00017027  0.83513899  0.49764482  1
  I  I116  1  -0.00028736  0.83510930  0.83425616  1
  I  I117  1  0.33828507  0.17256239  0.16630617  1
  I  I118  1  0.33386749  0.17265395  0.50366832  1
  I  I119  1  0.33370206  0.16741189  0.82902541  1
  I  I120  1  0.33709008  0.49234904  0.17149884  1
  I  I121  1  0.33423549  0.49011132  0.49502739  1
  I  I122  1  0.33336163  0.49678033  0.83495763  1
  I  I123  1  0.33345435  0.83492229  0.16618443  1
  I  I124  1  0.33338781  0.83511607  0.49895980  1
  I  I125  1  0.33322842  0.83381264  0.83468434  1
  I  I126  1  0.66361079  0.16678052  0.16618614  1
  I  I127  1  0.66647854  0.17133573  0.50264766  1
  I  I128  1  0.66643691  0.16675759  0.83032578  1
  I  I129  1  0.66667799  0.49846160  0.17530885  1
  I  I130  1  0.66673426  0.49107918  0.49367932  1
  I  I131  1  0.66667251  0.49634658  0.82929898  1
  I  I132  1  0.66936926  0.83420346  0.16775907  1
  I  I133  1  0.66677496  0.83715043  0.49951137  1
  I  I134  1  0.66704709  0.83576518  0.83269122  1
