# generated using pymatgen
data_Cs27Sn14Pb13I81
_symmetry_space_group_name_H-M   'P 1'
_cell_length_a   18.97864642
_cell_length_b   18.97144492
_cell_length_c   18.97648058
_cell_angle_alpha   89.99976671
_cell_angle_beta   89.99866679
_cell_angle_gamma   90.00044871
_symmetry_Int_Tables_number   1
_chemical_formula_structural   Cs27Sn14Pb13I81
_chemical_formula_sum   'Cs27 Sn14 Pb13 I81'
_cell_volume   6832.52633188
_cell_formula_units_Z   1
loop_
 _symmetry_equiv_pos_site_id
 _symmetry_equiv_pos_as_xyz
  1  'x, y, z'
loop_
 _atom_site_type_symbol
 _atom_site_label
 _atom_site_symmetry_multiplicity
 _atom_site_fract_x
 _atom_site_fract_y
 _atom_site_fract_z
 _atom_site_occupancy
  Cs  Cs0  1  -0.00237300  0.00148268  -0.00025000  1
  Cs  Cs1  1  -0.00014450  -0.00042492  0.33535335  1
  Cs  Cs2  1  0.00072170  -0.01140418  0.66371728  1
  Cs  Cs3  1  -0.00034235  0.33354555  0.00086090  1
  Cs  Cs4  1  -0.00010437  0.33488076  0.33353284  1
  Cs  Cs5  1  0.00067360  0.33377222  0.66470626  1
  Cs  Cs6  1  0.00202210  0.66420980  0.00218358  1
  Cs  Cs7  1  -0.00135835  0.66273985  0.33068995  1
  Cs  Cs8  1  -0.00192754  0.67480303  0.66761227  1
  Cs  Cs9  1  0.33444576  0.00103451  0.00104565  1
  Cs  Cs10  1  0.33361926  0.00108749  0.33419055  1
  Cs  Cs11  1  0.32750902  -0.00016871  0.66690452  1
  Cs  Cs12  1  0.33164306  0.33233243  0.00086473  1
  Cs  Cs13  1  0.33206690  0.33258719  0.33359388  1
  Cs  Cs14  1  0.33473123  0.33196496  0.66684268  1
  Cs  Cs15  1  0.33210801  0.66965687  0.00153582  1
  Cs  Cs16  1  0.33787652  0.66485949  0.33106011  1
  Cs  Cs17  1  0.34105675  0.67213619  0.66884600  1
  Cs  Cs18  1  0.66672203  0.00387319  -0.00068064  1
  Cs  Cs19  1  0.66657008  -0.00079396  0.33282266  1
  Cs  Cs20  1  0.67204643  -0.00422963  0.66562027  1
  Cs  Cs21  1  0.66918240  0.33078685  -0.00239754  1
  Cs  Cs22  1  0.66765908  0.33285772  0.33402049  1
  Cs  Cs23  1  0.66479785  0.33537866  0.66753210  1
  Cs  Cs24  1  0.66374639  0.66726987  -0.00485452  1
  Cs  Cs25  1  0.66637085  0.66814815  0.33429799  1
  Cs  Cs26  1  0.66060387  0.67201668  0.67305080  1
  Sn  Sn27  1  0.49927128  0.16708591  0.83326185  1
  Sn  Sn28  1  0.50103788  0.16708442  0.50005820  1
  Sn  Sn29  1  0.83394520  0.83228789  0.16670497  1
  Sn  Sn30  1  0.83284022  0.50066508  0.16719688  1
  Sn  Sn31  1  0.16649542  0.49940151  0.83276336  1
  Sn  Sn32  1  0.16631535  0.50001551  0.50058320  1
  Sn  Sn33  1  0.49940199  0.16790318  0.16673916  1
  Sn  Sn34  1  0.16571792  0.83362527  0.16697512  1
  Sn  Sn35  1  0.16677728  0.16770989  0.83390724  1
  Sn  Sn36  1  0.50035682  0.49879676  0.16659357  1
  Sn  Sn37  1  0.83360758  0.49943209  0.49981457  1
  Sn  Sn38  1  0.16714716  0.16654973  0.16613206  1
  Sn  Sn39  1  0.83294790  0.16770273  0.50000949  1
  Sn  Sn40  1  0.16670287  0.49969851  0.16681825  1
  Pb  Pb41  1  0.50016415  0.83365014  0.16667459  1
  Pb  Pb42  1  0.49963479  0.83708499  0.83369350  1
  Pb  Pb43  1  0.83359065  0.16710566  0.16818031  1
  Pb  Pb44  1  0.16667501  0.83351636  0.83597871  1
  Pb  Pb45  1  0.16683166  0.82912503  0.49684615  1
  Pb  Pb46  1  0.49985076  0.83670858  0.49974240  1
  Pb  Pb47  1  0.16642805  0.16812643  0.50023548  1
  Pb  Pb48  1  0.83442326  0.16691099  0.82982329  1
  Pb  Pb49  1  0.50034543  0.49843358  0.49830817  1
  Pb  Pb50  1  0.83327642  0.83201381  0.49761181  1
  Pb  Pb51  1  0.49733961  0.49785758  0.83612200  1
  Pb  Pb52  1  0.83571342  0.49986400  0.83289045  1
  Pb  Pb53  1  0.83348251  0.83315572  0.83706159  1
  I  I54  1  0.16715382  0.00129635  0.16182350  1
  I  I55  1  0.16691232  0.00000425  0.49991826  1
  I  I56  1  0.17161413  0.00364627  0.83785045  1
  I  I57  1  0.16730598  0.33402879  0.16623927  1
  I  I58  1  0.16561871  0.33614748  0.49373200  1
  I  I59  1  0.16991058  0.33297050  0.83964853  1
  I  I60  1  0.16612634  0.66485728  0.16680775  1
  I  I61  1  0.15868569  0.66101700  0.50004428  1
  I  I62  1  0.16431720  0.66349492  0.83532713  1
  I  I63  1  0.49691419  0.00383924  0.16644738  1
  I  I64  1  0.50532787  0.00566826  0.49525774  1
  I  I65  1  0.49276597  0.00551185  0.83780884  1
  I  I66  1  0.49621010  0.33245689  0.16728852  1
  I  I67  1  0.50077163  0.32999463  0.50019570  1
  I  I68  1  0.49796792  0.32965860  0.83199544  1
  I  I69  1  0.49666179  0.66351424  0.16787587  1
  I  I70  1  0.49978428  0.66626232  0.49710061  1
  I  I71  1  0.49940638  0.66636156  0.83458921  1
  I  I72  1  0.83676591  -0.00165539  0.16843322  1
  I  I73  1  0.82830895  0.00244150  0.49877217  1
  I  I74  1  0.83453399  0.00037074  0.83356251  1
  I  I75  1  0.83613322  0.33627741  0.16885133  1
  I  I76  1  0.83391326  0.33421439  0.49251979  1
  I  I77  1  0.83219179  0.33323586  0.83950327  1
  I  I78  1  0.83788521  0.66483810  0.17247264  1
  I  I79  1  0.84043862  0.66274413  0.49572363  1
  I  I80  1  0.83520705  0.66635498  0.82895412  1
  I  I81  1  0.17405646  0.17096800  0.00150107  1
  I  I82  1  0.16960042  0.16766351  0.33027424  1
  I  I83  1  0.17066970  0.17285903  0.66917292  1
  I  I84  1  0.16680905  0.49941809  0.00188901  1
  I  I85  1  0.16555702  0.49915460  0.33159072  1
  I  I86  1  0.16122647  0.49109368  0.66658950  1
  I  I87  1  0.16319844  0.82870526  0.00423378  1
  I  I88  1  0.16293945  0.83658730  0.32861759  1
  I  I89  1  0.16681064  0.83490390  0.66662099  1
  I  I90  1  0.49475553  0.16980428  0.00112626  1
  I  I91  1  0.49905172  0.17030640  0.33216256  1
  I  I92  1  0.49869454  0.16699256  0.66671183  1
  I  I93  1  0.50101250  0.49495496  0.00459852  1
  I  I94  1  0.49481363  0.49411812  0.32976679  1
  I  I95  1  0.49962566  0.49796696  0.66682964  1
  I  I96  1  0.50056468  0.83457404  0.00059906  1
  I  I97  1  0.49915497  0.83613722  0.33268327  1
  I  I98  1  0.50050023  0.83164280  0.66679208  1
  I  I99  1  0.83079159  0.16569691  0.00013283  1
  I  I100  1  0.82996822  0.16819096  0.33588264  1
  I  I101  1  0.82911695  0.17409629  0.66200516  1
  I  I102  1  0.83454801  0.50374107  0.00357348  1
  I  I103  1  0.83882073  0.49896670  0.33201882  1
  I  I104  1  0.83867674  0.49316138  0.66306117  1
  I  I105  1  0.83825762  0.82803045  0.00520214  1
  I  I106  1  0.83809412  0.83217752  0.32973459  1
  I  I107  1  0.83308114  0.83445715  0.66644378  1
  I  I108  1  0.00311825  0.16896099  0.16364575  1
  I  I109  1  -0.00216738  0.16972519  0.49763940  1
  I  I110  1  0.00382577  0.17096167  0.84003277  1
  I  I111  1  0.00115506  0.50034317  0.16702190  1
  I  I112  1  -0.00005198  0.49216744  0.49303702  1
  I  I113  1  0.00407729  0.49251274  0.83995047  1
  I  I114  1  0.00083924  0.83004905  0.16679683  1
  I  I115  1  0.00007926  0.84112565  0.50168093  1
  I  I116  1  0.00038133  0.83723396  0.83122886  1
  I  I117  1  0.33293373  0.16937987  0.16836774  1
  I  I118  1  0.33549592  0.16854879  0.49862649  1
  I  I119  1  0.33273328  0.17111069  0.83332257  1
  I  I120  1  0.33191823  0.49951529  0.16730337  1
  I  I121  1  0.33062082  0.49752130  0.49688041  1
  I  I122  1  0.32912363  0.49732970  0.83338689  1
  I  I123  1  0.33036041  0.83063376  0.16596560  1
  I  I124  1  0.33306683  0.83355953  0.49684597  1
  I  I125  1  0.33297413  0.83044805  0.83647921  1
  I  I126  1  0.66395215  0.16900691  0.16457073  1
  I  I127  1  0.66636152  0.17257471  0.49795785  1
  I  I128  1  0.66387394  0.16593106  0.83822667  1
  I  I129  1  0.66712208  0.49970148  0.17261716  1
  I  I130  1  0.66957718  0.49622668  0.49213916  1
  I  I131  1  0.66632891  0.49862351  0.83441985  1
  I  I132  1  0.66952741  0.83033113  0.16827242  1
  I  I133  1  0.66679728  0.83025409  0.49617128  1
  I  I134  1  0.66650324  0.83438824  0.83542670  1
