# generated using pymatgen
data_Cs27Sn14Pb13I81
_symmetry_space_group_name_H-M   'P 1'
_cell_length_a   18.96470681
_cell_length_b   18.96073115
_cell_length_c   18.95627043
_cell_angle_alpha   90.00002566
_cell_angle_beta   90.00056964
_cell_angle_gamma   89.99930618
_symmetry_Int_Tables_number   1
_chemical_formula_structural   Cs27Sn14Pb13I81
_chemical_formula_sum   'Cs27 Sn14 Pb13 I81'
_cell_volume   6816.38494778
_cell_formula_units_Z   1
loop_
 _symmetry_equiv_pos_site_id
 _symmetry_equiv_pos_as_xyz
  1  'x, y, z'
loop_
 _atom_site_type_symbol
 _atom_site_label
 _atom_site_symmetry_multiplicity
 _atom_site_fract_x
 _atom_site_fract_y
 _atom_site_fract_z
 _atom_site_occupancy
  Cs  Cs0  1  -0.00130846  -0.00078048  -0.00000168  1
  Cs  Cs1  1  -0.00070662  -0.00071215  0.33309302  1
  Cs  Cs2  1  0.00169540  0.00419590  0.66703624  1
  Cs  Cs3  1  0.00103457  0.33457622  0.00020084  1
  Cs  Cs4  1  -0.00237643  0.33382280  0.33128276  1
  Cs  Cs5  1  0.00081212  0.33260119  0.66761460  1
  Cs  Cs6  1  0.00184026  0.66595287  0.00099717  1
  Cs  Cs7  1  -0.00037688  0.66790947  0.33183755  1
  Cs  Cs8  1  0.00055777  0.66520792  0.66723419  1
  Cs  Cs9  1  0.33564150  0.00176666  0.00021849  1
  Cs  Cs10  1  0.33393974  0.00105869  0.33865796  1
  Cs  Cs11  1  0.33617582  0.00489927  0.65855367  1
  Cs  Cs12  1  0.33386219  0.33519390  0.00042693  1
  Cs  Cs13  1  0.33601704  0.33071029  0.33303498  1
  Cs  Cs14  1  0.33157535  0.32776851  0.66487983  1
  Cs  Cs15  1  0.33109257  0.66417643  0.00085879  1
  Cs  Cs16  1  0.33161091  0.66825403  0.33329456  1
  Cs  Cs17  1  0.33354662  0.66880895  0.66544111  1
  Cs  Cs18  1  0.66560995  -0.00010549  -0.00327067  1
  Cs  Cs19  1  0.67012007  0.00152368  0.33025575  1
  Cs  Cs20  1  0.66318379  -0.00285723  0.67791605  1
  Cs  Cs21  1  0.66552627  0.33340879  0.00060736  1
  Cs  Cs22  1  0.66729745  0.33279257  0.33519783  1
  Cs  Cs23  1  0.66593468  0.33750109  0.66266571  1
  Cs  Cs24  1  0.66642681  0.66714545  -0.00039529  1
  Cs  Cs25  1  0.66850737  0.66614814  0.33424727  1
  Cs  Cs26  1  0.66286110  0.66537287  0.66602651  1
  Sn  Sn27  1  0.49968047  0.50019809  0.83409588  1
  Sn  Sn28  1  0.16693901  0.83452185  0.16591348  1
  Sn  Sn29  1  0.16678371  0.83319120  0.83366397  1
  Sn  Sn30  1  0.50108076  0.50104390  0.16611878  1
  Sn  Sn31  1  0.83327665  0.16508630  0.49972828  1
  Sn  Sn32  1  0.83325440  0.50020438  0.83414946  1
  Sn  Sn33  1  0.50002058  0.83247727  0.16675178  1
  Sn  Sn34  1  0.16692669  0.50079552  0.83211498  1
  Sn  Sn35  1  0.83344825  0.83449842  0.49999432  1
  Sn  Sn36  1  0.16658378  0.50022562  0.50084544  1
  Sn  Sn37  1  0.16597584  0.16538112  0.16635115  1
  Sn  Sn38  1  0.83322231  0.83342868  0.16709419  1
  Sn  Sn39  1  0.83423893  0.16650859  0.16697175  1
  Sn  Sn40  1  0.83244003  0.50006073  0.16583752  1
  Pb  Pb41  1  0.16473874  0.83209491  0.49994648  1
  Pb  Pb42  1  0.49989622  0.16955416  0.83338781  1
  Pb  Pb43  1  0.49705763  0.50013108  0.49948415  1
  Pb  Pb44  1  0.50382233  0.16640071  0.49987035  1
  Pb  Pb45  1  0.16678341  0.50009070  0.16639644  1
  Pb  Pb46  1  0.50324462  0.83331138  0.49736678  1
  Pb  Pb47  1  0.49681682  0.83132143  0.83553219  1
  Pb  Pb48  1  0.16444450  0.16895201  0.49720261  1
  Pb  Pb49  1  0.83517966  0.83117774  0.83352091  1
  Pb  Pb50  1  0.50047769  0.16655565  0.16663869  1
  Pb  Pb51  1  0.16669412  0.16633867  0.83565079  1
  Pb  Pb52  1  0.83477825  0.50023634  0.49969790  1
  Pb  Pb53  1  0.83328226  0.16933233  0.83360611  1
  I  I54  1  0.16287064  -0.00141990  0.16168807  1
  I  I55  1  0.16689846  0.00013223  0.50229616  1
  I  I56  1  0.16387606  -0.00319084  0.83762384  1
  I  I57  1  0.16279732  0.33168753  0.16732305  1
  I  I58  1  0.16391849  0.33676323  0.50442460  1
  I  I59  1  0.16629615  0.33689371  0.83180226  1
  I  I60  1  0.16392566  0.66908056  0.16600859  1
  I  I61  1  0.16287466  0.66407557  0.49871362  1
  I  I62  1  0.16564072  0.66542760  0.83690099  1
  I  I63  1  0.50199570  -0.00319722  0.16745543  1
  I  I64  1  0.49485965  -0.00025553  0.49775127  1
  I  I65  1  0.49959272  -0.00054053  0.83515279  1
  I  I66  1  0.50190829  0.33664491  0.16276535  1
  I  I67  1  0.50180882  0.33368754  0.49771040  1
  I  I68  1  0.49801549  0.33860686  0.84153749  1
  I  I69  1  0.50282765  0.66610500  0.16309315  1
  I  I70  1  0.50328829  0.66652462  0.50037792  1
  I  I71  1  0.50245445  0.66285829  0.83632708  1
  I  I72  1  0.83471248  -0.00062914  0.17179022  1
  I  I73  1  0.83525974  -0.00024377  0.48897060  1
  I  I74  1  0.83576402  -0.00025812  0.83508643  1
  I  I75  1  0.83458196  0.33383043  0.16700367  1
  I  I76  1  0.83561353  0.33142155  0.49593867  1
  I  I77  1  0.83623512  0.33790114  0.83757692  1
  I  I78  1  0.83381753  0.66681231  0.16719869  1
  I  I79  1  0.83560199  0.66888139  0.49500679  1
  I  I80  1  0.83296939  0.66279242  0.83757156  1
  I  I81  1  0.15960205  0.16829015  0.00396016  1
  I  I82  1  0.16443702  0.16324447  0.32911542  1
  I  I83  1  0.16498709  0.16622678  0.66640017  1
  I  I84  1  0.16605485  0.50079372  -0.00226651  1
  I  I85  1  0.16472706  0.50010338  0.33458867  1
  I  I86  1  0.16483172  0.50537029  0.66853907  1
  I  I87  1  0.16372828  0.82958426  0.00167341  1
  I  I88  1  0.16725130  0.83385355  0.32983073  1
  I  I89  1  0.16318340  0.82756253  0.66922805  1
  I  I90  1  0.50223971  0.16575776  0.00058700  1
  I  I91  1  0.49697712  0.17089497  0.33270965  1
  I  I92  1  0.50064573  0.16871171  0.66658728  1
  I  I93  1  0.49899478  0.50344040  0.00086495  1
  I  I94  1  0.50380312  0.50264684  0.32963767  1
  I  I95  1  0.50394138  0.49944317  0.66984239  1
  I  I96  1  0.50558377  0.83129734  0.00407153  1
  I  I97  1  0.49478468  0.82618500  0.32853904  1
  I  I98  1  0.50060743  0.83128980  0.66695263  1
  I  I99  1  0.83670832  0.16491519  0.00378521  1
  I  I100  1  0.83730099  0.16868739  0.33126180  1
  I  I101  1  0.83368312  0.16433319  0.66382510  1
  I  I102  1  0.83527626  0.50020032  0.00140849  1
  I  I103  1  0.83162403  0.50000937  0.33000026  1
  I  I104  1  0.83230120  0.50000063  0.66921467  1
  I  I105  1  0.83232950  0.83490670  0.00358322  1
  I  I106  1  0.83542168  0.83099969  0.33083105  1
  I  I107  1  0.83700715  0.83538708  0.66438721  1
  I  I108  1  -0.00121539  0.16553417  0.16950435  1
  I  I109  1  -0.00346393  0.16414479  0.49669643  1
  I  I110  1  -0.00006724  0.17107500  0.83282568  1
  I  I111  1  -0.00255687  0.50153630  0.16469634  1
  I  I112  1  0.00240074  0.50033114  0.50292049  1
  I  I113  1  0.00020949  0.50295854  0.83438487  1
  I  I114  1  -0.00053095  0.83260986  0.16686416  1
  I  I115  1  -0.00322631  0.83437696  0.49265821  1
  I  I116  1  0.00302446  0.82571341  0.84000850  1
  I  I117  1  0.33062512  0.16572978  0.16499535  1
  I  I118  1  0.33304483  0.16912055  0.49857132  1
  I  I119  1  0.33298082  0.16976970  0.83685836  1
  I  I120  1  0.33547683  0.50243358  0.16423623  1
  I  I121  1  0.32926917  0.50104806  0.50190962  1
  I  I122  1  0.33291182  0.50399601  0.83565751  1
  I  I123  1  0.33262004  0.83120449  0.16119747  1
  I  I124  1  0.33316932  0.83042914  0.49869870  1
  I  I125  1  0.32893468  0.82589393  0.83984473  1
  I  I126  1  0.67031274  0.16611343  0.17048570  1
  I  I127  1  0.67188017  0.16689098  0.49035503  1
  I  I128  1  0.66697466  0.16686636  0.83571337  1
  I  I129  1  0.66777989  0.50220751  0.16035882  1
  I  I130  1  0.66688643  0.49928311  0.50240301  1
  I  I131  1  0.66705687  0.49886613  0.83881729  1
  I  I132  1  0.66776468  0.83189803  0.17152276  1
  I  I133  1  0.67152644  0.83425625  0.49436392  1
  I  I134  1  0.66658517  0.83172617  0.83335409  1
