# generated using pymatgen
data_Cs27Sn14Pb13I81
_symmetry_space_group_name_H-M   'P 1'
_cell_length_a   18.97092950
_cell_length_b   18.98908336
_cell_length_c   18.97068609
_cell_angle_alpha   89.99999993
_cell_angle_beta   89.99973832
_cell_angle_gamma   89.99999999
_symmetry_Int_Tables_number   1
_chemical_formula_structural   Cs27Sn14Pb13I81
_chemical_formula_sum   'Cs27 Sn14 Pb13 I81'
_cell_volume   6834.01061343
_cell_formula_units_Z   1
loop_
 _symmetry_equiv_pos_site_id
 _symmetry_equiv_pos_as_xyz
  1  'x, y, z'
loop_
 _atom_site_type_symbol
 _atom_site_label
 _atom_site_symmetry_multiplicity
 _atom_site_fract_x
 _atom_site_fract_y
 _atom_site_fract_z
 _atom_site_occupancy
  Cs  Cs0  1  0.00126916  0.00010057  0.00063032  1
  Cs  Cs1  1  -0.00041459  0.00327043  0.33216077  1
  Cs  Cs2  1  0.00031621  -0.00235076  0.66689107  1
  Cs  Cs3  1  -0.00400999  0.33333332  0.00537855  1
  Cs  Cs4  1  0.00805647  0.33333336  0.32546355  1
  Cs  Cs5  1  -0.00347629  0.33333337  0.66953706  1
  Cs  Cs6  1  0.00126929  0.66656612  0.00063035  1
  Cs  Cs7  1  -0.00041449  0.66339630  0.33216071  1
  Cs  Cs8  1  0.00031602  0.66901751  0.66689094  1
  Cs  Cs9  1  0.33595046  -0.00025478  -0.00128908  1
  Cs  Cs10  1  0.33242279  0.00300147  0.33847941  1
  Cs  Cs11  1  0.32916577  0.00088206  0.66449567  1
  Cs  Cs12  1  0.33485803  0.33333333  -0.00152839  1
  Cs  Cs13  1  0.32429219  0.33333332  0.33946654  1
  Cs  Cs14  1  0.33344634  0.33333336  0.66577739  1
  Cs  Cs15  1  0.33595042  0.66692138  -0.00128906  1
  Cs  Cs16  1  0.33242278  0.66366527  0.33847927  1
  Cs  Cs17  1  0.32916582  0.66578451  0.66449573  1
  Cs  Cs18  1  0.66457924  -0.00043880  0.00015040  1
  Cs  Cs19  1  0.66681394  -0.00260274  0.33393192  1
  Cs  Cs20  1  0.66784306  0.00057630  0.66556645  1
  Cs  Cs21  1  0.66741342  0.33333328  -0.00128735  1
  Cs  Cs22  1  0.66619277  0.33333340  0.33496095  1
  Cs  Cs23  1  0.66797832  0.33333335  0.66726404  1
  Cs  Cs24  1  0.66457927  0.66710549  0.00015029  1
  Cs  Cs25  1  0.66681391  0.66926927  0.33393184  1
  Cs  Cs26  1  0.66784303  0.66609039  0.66556649  1
  Sn  Sn27  1  0.49932516  0.16649052  0.83388848  1
  Sn  Sn28  1  0.50061840  0.83333334  0.83335134  1
  Sn  Sn29  1  0.49944735  0.83333334  0.16630860  1
  Sn  Sn30  1  0.49995241  0.49986634  0.16646512  1
  Sn  Sn31  1  0.49995243  0.16680032  0.16646511  1
  Sn  Sn32  1  0.83335465  0.49972646  0.49964294  1
  Sn  Sn33  1  0.83245417  0.83333334  0.83370787  1
  Sn  Sn34  1  0.16764874  0.83333334  0.16672273  1
  Sn  Sn35  1  0.49932518  0.50017611  0.83388853  1
  Sn  Sn36  1  0.83343559  0.83333334  0.16631365  1
  Sn  Sn37  1  0.16713721  0.16785985  0.83392655  1
  Sn  Sn38  1  0.16713717  0.49880684  0.83392658  1
  Sn  Sn39  1  0.83335463  0.16694024  0.49964295  1
  Sn  Sn40  1  0.83296440  0.83333333  0.49989028  1
  Pb  Pb41  1  0.16952251  0.16465507  0.16412949  1
  Pb  Pb42  1  0.83296681  0.50227221  0.83229427  1
  Pb  Pb43  1  0.50142970  0.83333333  0.50023681  1
  Pb  Pb44  1  0.16732409  0.83333335  0.83484447  1
  Pb  Pb45  1  0.50156394  0.49993145  0.50033570  1
  Pb  Pb46  1  0.16952251  0.50201158  0.16412951  1
  Pb  Pb47  1  0.50156396  0.16673521  0.50033570  1
  Pb  Pb48  1  0.16376241  0.49995723  0.50290454  1
  Pb  Pb49  1  0.83091735  0.16463806  0.16859155  1
  Pb  Pb50  1  0.16372525  0.83333334  0.49663985  1
  Pb  Pb51  1  0.16376240  0.16670945  0.50290450  1
  Pb  Pb52  1  0.83091733  0.50202860  0.16859153  1
  Pb  Pb53  1  0.83296676  0.16439446  0.83229420  1
  I  I54  1  0.16668504  -0.00320302  0.16345661  1
  I  I55  1  0.16450834  -0.00005851  0.50314735  1
  I  I56  1  0.16929883  0.00194827  0.83473450  1
  I  I57  1  0.16696677  0.33333337  0.16817000  1
  I  I58  1  0.16330455  0.33333335  0.49682223  1
  I  I59  1  0.17548453  0.33333332  0.83181957  1
  I  I60  1  0.16668482  0.66986967  0.16345597  1
  I  I61  1  0.16450833  0.66672520  0.50314743  1
  I  I62  1  0.16929887  0.66471837  0.83473487  1
  I  I63  1  0.50149760  -0.00111460  0.16017932  1
  I  I64  1  0.50436083  -0.00005906  0.49983856  1
  I  I65  1  0.50101175  -0.00034980  0.83917486  1
  I  I66  1  0.50240383  0.33333334  0.15902894  1
  I  I67  1  0.50677195  0.33333330  0.49979564  1
  I  I68  1  0.49593360  0.33333331  0.83891794  1
  I  I69  1  0.50149761  0.66778130  0.16017963  1
  I  I70  1  0.50436077  0.66672574  0.49983879  1
  I  I71  1  0.50101177  0.66701647  0.83917447  1
  I  I72  1  0.83066432  -0.00407285  0.16843923  1
  I  I73  1  0.83201441  -0.00129144  0.50016276  1
  I  I74  1  0.82995938  -0.00385287  0.83137904  1
  I  I75  1  0.83184768  0.33333333  0.16930384  1
  I  I76  1  0.83018306  0.33333334  0.50417698  1
  I  I77  1  0.83116357  0.33333330  0.82841296  1
  I  I78  1  0.83066448  0.67073953  0.16843949  1
  I  I79  1  0.83201446  0.66795809  0.50016284  1
  I  I80  1  0.82995929  0.67051955  0.83137878  1
  I  I81  1  0.16674440  0.16940147  -0.00377251  1
  I  I82  1  0.16731367  0.16498089  0.33301643  1
  I  I83  1  0.17472133  0.16787278  0.67087121  1
  I  I84  1  0.16674475  0.49726497  -0.00377252  1
  I  I85  1  0.16731335  0.50168593  0.33301645  1
  I  I86  1  0.17472142  0.49879394  0.67087122  1
  I  I87  1  0.16157224  0.83333360  0.00256332  1
  I  I88  1  0.16964018  0.83333299  0.32863241  1
  I  I89  1  0.16559091  0.83333327  0.66682990  1
  I  I90  1  0.49766791  0.16503646  -0.00096146  1
  I  I91  1  0.50407970  0.16399750  0.33022109  1
  I  I92  1  0.49812564  0.16639762  0.67055419  1
  I  I93  1  0.49766771  0.50163050  -0.00096143  1
  I  I94  1  0.50407994  0.50266907  0.33022110  1
  I  I95  1  0.49812571  0.50026879  0.67055421  1
  I  I96  1  0.50544756  0.83333319  0.00001406  1
  I  I97  1  0.50162951  0.83333346  0.32958417  1
  I  I98  1  0.50525314  0.83333359  0.67040154  1
  I  I99  1  0.83515280  0.16482586  0.00005857  1
  I  I100  1  0.83009394  0.16294227  0.33658235  1
  I  I101  1  0.83124058  0.16265404  0.66421885  1
  I  I102  1  0.83515268  0.50184091  0.00005856  1
  I  I103  1  0.83009413  0.50372430  0.33658235  1
  I  I104  1  0.83124044  0.50401252  0.66421885  1
  I  I105  1  0.83139582  0.83333317  0.00018308  1
  I  I106  1  0.83209940  0.83333340  0.33297113  1
  I  I107  1  0.82819269  0.83333343  0.66693735  1
  I  I108  1  0.00015065  0.16406319  0.16658936  1
  I  I109  1  -0.00428768  0.16345666  0.50194706  1
  I  I110  1  0.00224331  0.16889300  0.82933675  1
  I  I111  1  0.00015067  0.50260339  0.16658905  1
  I  I112  1  -0.00428772  0.50320998  0.50194726  1
  I  I113  1  0.00224332  0.49777367  0.82933686  1
  I  I114  1  -0.00099582  0.83333346  0.16667112  1
  I  I115  1  -0.00498526  0.83333330  0.50342235  1
  I  I116  1  -0.00243772  0.83333327  0.83342397  1
  I  I117  1  0.33770008  0.16315695  0.16505739  1
  I  I118  1  0.33313960  0.16666407  0.49792833  1
  I  I119  1  0.33504836  0.16424701  0.83717085  1
  I  I120  1  0.33770004  0.50350983  0.16505774  1
  I  I121  1  0.33313961  0.50000255  0.49792812  1
  I  I122  1  0.33504836  0.50241968  0.83717067  1
  I  I123  1  0.33525404  0.83333320  0.15819831  1
  I  I124  1  0.33305585  0.83333338  0.50059395  1
  I  I125  1  0.33668698  0.83333334  0.83942331  1
  I  I126  1  0.66277001  0.16421779  0.15961882  1
  I  I127  1  0.66970441  0.16445392  0.50260953  1
  I  I128  1  0.66327612  0.16858213  0.83555012  1
  I  I129  1  0.66277004  0.50244895  0.15961883  1
  I  I130  1  0.66970443  0.50221284  0.50260937  1
  I  I131  1  0.66327613  0.49808448  0.83555027  1
  I  I132  1  0.66602245  0.83333328  0.16685077  1
  I  I133  1  0.67024875  0.83333329  0.49627819  1
  I  I134  1  0.66580316  0.83333332  0.83691590  1
