# generated using pymatgen
data_Cs27Sn14Pb13I81
_symmetry_space_group_name_H-M   'P 1'
_cell_length_a   18.97849722
_cell_length_b   18.97363306
_cell_length_c   18.97520084
_cell_angle_alpha   90.00036454
_cell_angle_beta   90.00029015
_cell_angle_gamma   89.99988509
_symmetry_Int_Tables_number   1
_chemical_formula_structural   Cs27Sn14Pb13I81
_chemical_formula_sum   'Cs27 Sn14 Pb13 I81'
_cell_volume   6832.79984803
_cell_formula_units_Z   1
loop_
 _symmetry_equiv_pos_site_id
 _symmetry_equiv_pos_as_xyz
  1  'x, y, z'
loop_
 _atom_site_type_symbol
 _atom_site_label
 _atom_site_symmetry_multiplicity
 _atom_site_fract_x
 _atom_site_fract_y
 _atom_site_fract_z
 _atom_site_occupancy
  Cs  Cs0  1  -0.00011998  -0.00071517  0.00141156  1
  Cs  Cs1  1  -0.00048612  0.00127707  0.33296063  1
  Cs  Cs2  1  0.00094630  -0.00004837  0.66550603  1
  Cs  Cs3  1  -0.00058991  0.32923997  -0.00147402  1
  Cs  Cs4  1  0.00075014  0.33645697  0.34611162  1
  Cs  Cs5  1  -0.00074195  0.33500324  0.65855887  1
  Cs  Cs6  1  -0.00787699  0.66914635  0.00424154  1
  Cs  Cs7  1  0.00120359  0.66188785  0.32567745  1
  Cs  Cs8  1  -0.00229298  0.66595229  0.66904435  1
  Cs  Cs9  1  0.33236953  0.00170222  -0.00113976  1
  Cs  Cs10  1  0.33540543  -0.00112252  0.33367826  1
  Cs  Cs11  1  0.33384490  -0.00311912  0.66814059  1
  Cs  Cs12  1  0.33481052  0.33242169  -0.00216454  1
  Cs  Cs13  1  0.33202581  0.33654316  0.33318881  1
  Cs  Cs14  1  0.33323587  0.33426972  0.66950140  1
  Cs  Cs15  1  0.33230536  0.66543126  -0.00036627  1
  Cs  Cs16  1  0.33338935  0.66499022  0.33014394  1
  Cs  Cs17  1  0.33452514  0.66933703  0.66690035  1
  Cs  Cs18  1  0.66795877  0.00309297  0.00005134  1
  Cs  Cs19  1  0.66400361  0.00020800  0.33526751  1
  Cs  Cs20  1  0.66390997  -0.00195359  0.66501569  1
  Cs  Cs21  1  0.66532211  0.33106727  0.00150919  1
  Cs  Cs22  1  0.66728105  0.33437486  0.33236063  1
  Cs  Cs23  1  0.66676395  0.33423255  0.66672049  1
  Cs  Cs24  1  0.67445724  0.66459732  0.00091145  1
  Cs  Cs25  1  0.66377118  0.66474456  0.33141889  1
  Cs  Cs26  1  0.66718735  0.66818456  0.66718043  1
  Sn  Sn27  1  0.16695402  0.50036866  0.83363204  1
  Sn  Sn28  1  0.16701677  0.83275432  0.83303484  1
  Sn  Sn29  1  0.49962636  0.16589249  0.16775157  1
  Sn  Sn30  1  0.83463718  0.16640847  0.83330805  1
  Sn  Sn31  1  0.49942513  0.50133628  0.83272677  1
  Sn  Sn32  1  0.83373967  0.16660911  0.16655568  1
  Sn  Sn33  1  0.16543409  0.16676213  0.83370079  1
  Sn  Sn34  1  0.49960740  0.83221127  0.83492208  1
  Sn  Sn35  1  0.83492632  0.83321491  0.49981826  1
  Sn  Sn36  1  0.49947760  0.16784466  0.49915677  1
  Sn  Sn37  1  0.16524226  0.83334114  0.50019496  1
  Sn  Sn38  1  0.49960979  0.49896213  0.50109657  1
  Sn  Sn39  1  0.16660141  0.16682311  0.16654885  1
  Sn  Sn40  1  0.49982719  0.83404321  0.16480599  1
  Pb  Pb41  1  0.16909605  0.16496296  0.50043076  1
  Pb  Pb42  1  0.83346921  0.83563020  0.83214549  1
  Pb  Pb43  1  0.83103456  0.16522875  0.50003546  1
  Pb  Pb44  1  0.16897065  0.50317415  0.50246131  1
  Pb  Pb45  1  0.16846359  0.83518959  0.16609892  1
  Pb  Pb46  1  0.16659545  0.49670751  0.16354930  1
  Pb  Pb47  1  0.83365190  0.49637027  0.16670362  1
  Pb  Pb48  1  0.83067309  0.50324504  0.50017465  1
  Pb  Pb49  1  0.49994093  0.49981825  0.16573119  1
  Pb  Pb50  1  0.49942812  0.83290954  0.50005556  1
  Pb  Pb51  1  0.49964187  0.16656546  0.83353279  1
  Pb  Pb52  1  0.83340739  0.49712470  0.83332463  1
  Pb  Pb53  1  0.83064548  0.83566831  0.16915141  1
  I  I54  1  0.16640408  0.00347922  0.16037780  1
  I  I55  1  0.16755920  -0.00274187  0.50653951  1
  I  I56  1  0.16833041  -0.00003656  0.83323731  1
  I  I57  1  0.17128167  0.32818768  0.16118729  1
  I  I58  1  0.16662908  0.33342856  0.49999995  1
  I  I59  1  0.16912965  0.33267570  0.83944996  1
  I  I60  1  0.17015654  0.66678120  0.16766304  1
  I  I61  1  0.16669987  0.67104407  0.50573955  1
  I  I62  1  0.17455163  0.66750157  0.82631105  1
  I  I63  1  0.49977207  0.00131967  0.16739806  1
  I  I64  1  0.50047827  0.00168668  0.49904957  1
  I  I65  1  0.49713129  -0.00223968  0.83286373  1
  I  I66  1  0.50073484  0.32980051  0.16715123  1
  I  I67  1  0.50032386  0.33281506  0.50069740  1
  I  I68  1  0.49723726  0.33516307  0.83203956  1
  I  I69  1  0.49889937  0.66945479  0.16798862  1
  I  I70  1  0.50024351  0.66464265  0.50163232  1
  I  I71  1  0.49194985  0.66726140  0.83141097  1
  I  I72  1  0.83424809  0.00373392  0.16228148  1
  I  I73  1  0.83284896  -0.00239949  0.50085458  1
  I  I74  1  0.83569244  0.00351333  0.83683299  1
  I  I75  1  0.82764234  0.32785983  0.16167111  1
  I  I76  1  0.83314486  0.33325832  0.49939983  1
  I  I77  1  0.83495479  0.32894772  0.83743741  1
  I  I78  1  0.83081522  0.66709370  0.16790812  1
  I  I79  1  0.83404896  0.67097125  0.50292280  1
  I  I80  1  0.83434890  0.66683746  0.83116624  1
  I  I81  1  0.16898182  0.16464886  -0.00109169  1
  I  I82  1  0.16572491  0.16298224  0.33085962  1
  I  I83  1  0.16417957  0.16773810  0.67012482  1
  I  I84  1  0.17595248  0.50439188  -0.00477410  1
  I  I85  1  0.16808819  0.50006637  0.33354619  1
  I  I86  1  0.16948659  0.49331167  0.67056940  1
  I  I87  1  0.17071262  0.83298851  -0.00351237  1
  I  I88  1  0.16646342  0.83725670  0.33551869  1
  I  I89  1  0.17046268  0.83690259  0.66846870  1
  I  I90  1  0.50028706  0.16562309  0.00233545  1
  I  I91  1  0.50064538  0.16436925  0.33214646  1
  I  I92  1  0.50034862  0.16604619  0.66499114  1
  I  I93  1  0.49520795  0.49977818  -0.00345546  1
  I  I94  1  0.50160896  0.49977999  0.33558992  1
  I  I95  1  0.49631069  0.49954310  0.66771767  1
  I  I96  1  0.49391225  0.83543349  -0.00114106  1
  I  I97  1  0.50049391  0.83584853  0.33149671  1
  I  I98  1  0.49887103  0.83401390  0.66915255  1
  I  I99  1  0.83073387  0.16555353  0.00011533  1
  I  I100  1  0.83388465  0.16396843  0.33057979  1
  I  I101  1  0.83638575  0.16530078  0.66913495  1
  I  I102  1  0.82996265  0.50347855  -0.00032660  1
  I  I103  1  0.83068858  0.49808119  0.33364927  1
  I  I104  1  0.83353603  0.49562562  0.66677894  1
  I  I105  1  0.83433063  0.83288713  0.00024997  1
  I  I106  1  0.83635217  0.83713334  0.33673649  1
  I  I107  1  0.83045290  0.83771558  0.66442352  1
  I  I108  1  0.00033594  0.16592053  0.15880205  1
  I  I109  1  0.00023071  0.16641644  0.49753254  1
  I  I110  1  0.00144275  0.16531914  0.84172220  1
  I  I111  1  0.00028564  0.50161482  0.16449427  1
  I  I112  1  0.00030760  0.49795368  0.50134556  1
  I  I113  1  0.00341976  0.50243055  0.83439943  1
  I  I114  1  -0.00003793  0.83511723  0.16507505  1
  I  I115  1  0.00109818  0.83686394  0.50750429  1
  I  I116  1  0.00320268  0.83194363  0.83014601  1
  I  I117  1  0.33381860  0.16254237  0.16527812  1
  I  I118  1  0.33706321  0.16641609  0.49686209  1
  I  I119  1  0.33077218  0.16625867  0.83581958  1
  I  I120  1  0.33349755  0.49724633  0.16941792  1
  I  I121  1  0.33689687  0.49778357  0.50170047  1
  I  I122  1  0.33382668  0.49781194  0.82951562  1
  I  I123  1  0.33654043  0.84039597  0.16813878  1
  I  I124  1  0.33140046  0.83465163  0.50258474  1
  I  I125  1  0.33319660  0.83621494  0.83025740  1
  I  I126  1  0.66592505  0.16251959  0.16563005  1
  I  I127  1  0.66300422  0.16606941  0.49750799  1
  I  I128  1  0.66807216  0.16605925  0.83588535  1
  I  I129  1  0.66626584  0.49851080  0.16495484  1
  I  I130  1  0.66247053  0.49783750  0.50665479  1
  I  I131  1  0.66328593  0.50335835  0.82955662  1
  I  I132  1  0.66253674  0.83951961  0.16307390  1
  I  I133  1  0.66770251  0.83494058  0.50009557  1
  I  I134  1  0.66361398  0.83140792  0.83394428  1
