# generated using pymatgen
data_Cs27Sn13Pb14I81
_symmetry_space_group_name_H-M   'P 1'
_cell_length_a   19.05468770
_cell_length_b   19.09288769
_cell_length_c   19.08249028
_cell_angle_alpha   90.00156066
_cell_angle_beta   89.99819045
_cell_angle_gamma   90.00275372
_symmetry_Int_Tables_number   1
_chemical_formula_structural   Cs27Sn13Pb14I81
_chemical_formula_sum   'Cs27 Sn13 Pb14 I81'
_cell_volume   6942.38192587
_cell_formula_units_Z   1
loop_
 _symmetry_equiv_pos_site_id
 _symmetry_equiv_pos_as_xyz
  1  'x, y, z'
loop_
 _atom_site_type_symbol
 _atom_site_label
 _atom_site_symmetry_multiplicity
 _atom_site_fract_x
 _atom_site_fract_y
 _atom_site_fract_z
 _atom_site_occupancy
  Cs  Cs0  1  -0.00462874  -0.00208838  -0.00077549  1
  Cs  Cs1  1  0.00688217  -0.00324238  0.33908379  1
  Cs  Cs2  1  0.00165211  -0.00376004  0.66478872  1
  Cs  Cs3  1  -0.00847595  0.33841813  -0.00122745  1
  Cs  Cs4  1  -0.00124594  0.33434274  0.33269664  1
  Cs  Cs5  1  -0.00786863  0.33618714  0.66839832  1
  Cs  Cs6  1  -0.01053613  0.66556843  -0.00157848  1
  Cs  Cs7  1  0.00299883  0.66834058  0.33455780  1
  Cs  Cs8  1  -0.00117121  0.67000758  0.66824808  1
  Cs  Cs9  1  0.33314392  0.00174007  -0.00458300  1
  Cs  Cs10  1  0.33475476  0.00065446  0.33086536  1
  Cs  Cs11  1  0.33309552  -0.00034387  0.67158170  1
  Cs  Cs12  1  0.33391534  0.33713326  -0.00324181  1
  Cs  Cs13  1  0.33175099  0.33534060  0.32963005  1
  Cs  Cs14  1  0.33413978  0.33395192  0.67413471  1
  Cs  Cs15  1  0.33332337  0.66072831  -0.00349695  1
  Cs  Cs16  1  0.33408169  0.66506086  0.33209118  1
  Cs  Cs17  1  0.33594385  0.66560683  0.67086354  1
  Cs  Cs18  1  0.67840565  -0.00072624  0.00910173  1
  Cs  Cs19  1  0.64973720  0.01016162  0.32032430  1
  Cs  Cs20  1  0.67077930  0.00483338  0.66873829  1
  Cs  Cs21  1  0.67263673  0.33151207  0.00436888  1
  Cs  Cs22  1  0.68083495  0.32352789  0.34619039  1
  Cs  Cs23  1  0.67705375  0.33099539  0.64949424  1
  Cs  Cs24  1  0.67652429  0.66888302  0.00384330  1
  Cs  Cs25  1  0.66488370  0.66593620  0.33473667  1
  Cs  Cs26  1  0.66289533  0.66433100  0.65989023  1
  Sn  Sn27  1  0.49950343  0.16684143  0.83385357  1
  Sn  Sn28  1  0.16773071  0.49988118  0.49960138  1
  Sn  Sn29  1  0.83266177  0.83406994  0.49922658  1
  Sn  Sn30  1  0.16732557  0.50019764  0.16692828  1
  Sn  Sn31  1  0.16766980  0.83300383  0.16562516  1
  Sn  Sn32  1  0.49968222  0.83371904  0.83379380  1
  Sn  Sn33  1  0.50025429  0.49934437  0.83461896  1
  Sn  Sn34  1  0.16774577  0.83400318  0.83404997  1
  Sn  Sn35  1  0.16723075  0.16683384  0.16568999  1
  Sn  Sn36  1  0.49935272  0.49967954  0.16588402  1
  Sn  Sn37  1  0.16686365  0.16591829  0.83362952  1
  Sn  Sn38  1  0.16749548  0.83304513  0.50015693  1
  Sn  Sn39  1  0.16780745  0.16721055  0.50068698  1
  Pb  Pb40  1  0.16701190  0.49997025  0.83367791  1
  Pb  Pb41  1  0.83309004  0.83328467  0.83095770  1
  Pb  Pb42  1  0.83698614  0.16279026  0.49968864  1
  Pb  Pb43  1  0.49632193  0.16665143  0.50255493  1
  Pb  Pb44  1  0.83704247  0.16622992  0.16711480  1
  Pb  Pb45  1  0.82843830  0.49998929  0.83310794  1
  Pb  Pb46  1  0.83716458  0.50305347  0.49968325  1
  Pb  Pb47  1  0.49929711  0.83366446  0.50186228  1
  Pb  Pb48  1  0.49726471  0.49968502  0.49928160  1
  Pb  Pb49  1  0.49678867  0.16968847  0.16359532  1
  Pb  Pb50  1  0.83370760  0.16671337  0.83325107  1
  Pb  Pb51  1  0.83284781  0.50017719  0.16725903  1
  Pb  Pb52  1  0.49685109  0.83092049  0.16359929  1
  Pb  Pb53  1  0.83613341  0.83352381  0.17040712  1
  I  I54  1  0.16362813  -0.00028580  0.17133529  1
  I  I55  1  0.15991204  -0.00041176  0.49775738  1
  I  I56  1  0.17577963  -0.00032942  0.83218298  1
  I  I57  1  0.17253442  0.33368956  0.17183601  1
  I  I58  1  0.17184125  0.33324442  0.49602804  1
  I  I59  1  0.17197472  0.33055443  0.83199155  1
  I  I60  1  0.17178526  0.66659896  0.17251961  1
  I  I61  1  0.16100841  0.66720139  0.49643659  1
  I  I62  1  0.17135256  0.66947508  0.83109240  1
  I  I63  1  0.50236754  0.00026350  0.16903386  1
  I  I64  1  0.49885166  -0.00003174  0.50049885  1
  I  I65  1  0.49047988  -0.00000646  0.82780669  1
  I  I66  1  0.48771599  0.33680440  0.15697533  1
  I  I67  1  0.49839596  0.33349647  0.50544507  1
  I  I68  1  0.48831591  0.33302614  0.83923487  1
  I  I69  1  0.49015332  0.66353314  0.15979726  1
  I  I70  1  0.49774232  0.66655258  0.50572249  1
  I  I71  1  0.49107426  0.66699244  0.83581864  1
  I  I72  1  0.83213832  -0.00026660  0.16392471  1
  I  I73  1  0.84662297  -0.00380875  0.50424687  1
  I  I74  1  0.82658328  -0.00030097  0.83267002  1
  I  I75  1  0.83610279  0.33344024  0.16605421  1
  I  I76  1  0.83054848  0.33301315  0.50069688  1
  I  I77  1  0.83926873  0.33335048  0.83263812  1
  I  I78  1  0.83674605  0.66683540  0.16496205  1
  I  I79  1  0.84373770  0.67008119  0.50221372  1
  I  I80  1  0.83821421  0.66690510  0.83338752  1
  I  I81  1  0.17335210  0.16219908  -0.00055853  1
  I  I82  1  0.16284516  0.16260412  0.33340246  1
  I  I83  1  0.17224519  0.16185363  0.66716790  1
  I  I84  1  0.16943743  0.49993916  0.00280097  1
  I  I85  1  0.17403234  0.50077053  0.33258510  1
  I  I86  1  0.16813070  0.50090380  0.66448537  1
  I  I87  1  0.17534046  0.83742296  -0.00038254  1
  I  I88  1  0.15791729  0.83579570  0.33352420  1
  I  I89  1  0.16552630  0.83651384  0.66699118  1
  I  I90  1  0.48900562  0.16283696  -0.00374822  1
  I  I91  1  0.50232478  0.16783536  0.33297322  1
  I  I92  1  0.49107322  0.16959244  0.67088179  1
  I  I93  1  0.48646289  0.50045964  -0.00039164  1
  I  I94  1  0.49424878  0.50399804  0.32985156  1
  I  I95  1  0.49745038  0.50225651  0.66968093  1
  I  I96  1  0.49035235  0.83719650  -0.00403701  1
  I  I97  1  0.50219141  0.82949832  0.33302652  1
  I  I98  1  0.49042803  0.82858733  0.67030623  1
  I  I99  1  0.83594032  0.16592028  0.00002790  1
  I  I100  1  0.83226398  0.16934636  0.33365052  1
  I  I101  1  0.83380665  0.16856352  0.66634032  1
  I  I102  1  0.84409217  0.50148961  0.00018469  1
  I  I103  1  0.82395032  0.49988707  0.33358399  1
  I  I104  1  0.83409623  0.49841902  0.66629741  1
  I  I105  1  0.83281042  0.83281863  0.00038204  1
  I  I106  1  0.84730981  0.83062291  0.33729337  1
  I  I107  1  0.84619985  0.83292654  0.66408904  1
  I  I108  1  0.00590045  0.17167710  0.16205937  1
  I  I109  1  0.00510419  0.17205755  0.50411366  1
  I  I110  1  0.00405437  0.15850565  0.83305890  1
  I  I111  1  0.00363993  0.49875498  0.17366718  1
  I  I112  1  0.00500107  0.49379907  0.49100378  1
  I  I113  1  -0.00050695  0.49932181  0.83307184  1
  I  I114  1  0.00514406  0.82933499  0.15649024  1
  I  I115  1  0.00441142  0.83344563  0.50303242  1
  I  I116  1  0.00366450  0.84049931  0.83669801  1
  I  I117  1  0.32885357  0.16168661  0.17265468  1
  I  I118  1  0.32821224  0.15990106  0.49505812  1
  I  I119  1  0.33147767  0.16504272  0.83198890  1
  I  I120  1  0.33112838  0.50047434  0.16697581  1
  I  I121  1  0.32944281  0.50614922  0.49816583  1
  I  I122  1  0.33474915  0.50077685  0.83305673  1
  I  I123  1  0.32864809  0.83759493  0.17740228  1
  I  I124  1  0.32881498  0.83366866  0.49673900  1
  I  I125  1  0.33149815  0.83425175  0.82922600  1
  I  I126  1  0.66635427  0.16791560  0.16428047  1
  I  I127  1  0.66701828  0.16718466  0.50276012  1
  I  I128  1  0.66343436  0.16568961  0.83359578  1
  I  I129  1  0.66331710  0.50314305  0.15344065  1
  I  I130  1  0.66700531  0.50259671  0.50183046  1
  I  I131  1  0.66078200  0.50302732  0.84507249  1
  I  I132  1  0.66651026  0.83022937  0.16660034  1
  I  I133  1  0.66939646  0.82816470  0.50766250  1
  I  I134  1  0.66345793  0.83204173  0.82906792  1
