# generated using pymatgen
data_Cs27Sn13Pb14I81
_symmetry_space_group_name_H-M   'P 1'
_cell_length_a   18.97729975
_cell_length_b   18.97734816
_cell_length_c   18.97840869
_cell_angle_alpha   90.00077110
_cell_angle_beta   90.00103811
_cell_angle_gamma   89.99936397
_symmetry_Int_Tables_number   1
_chemical_formula_structural   Cs27Sn13Pb14I81
_chemical_formula_sum   'Cs27 Sn13 Pb14 I81'
_cell_volume   6834.86179355
_cell_formula_units_Z   1
loop_
 _symmetry_equiv_pos_site_id
 _symmetry_equiv_pos_as_xyz
  1  'x, y, z'
loop_
 _atom_site_type_symbol
 _atom_site_label
 _atom_site_symmetry_multiplicity
 _atom_site_fract_x
 _atom_site_fract_y
 _atom_site_fract_z
 _atom_site_occupancy
  Cs  Cs0  1  0.00360346  0.00304427  -0.00077711  1
  Cs  Cs1  1  0.00026040  0.00021516  0.33453921  1
  Cs  Cs2  1  -0.00112601  -0.00077600  0.66522684  1
  Cs  Cs3  1  -0.00150258  0.33267008  -0.00176285  1
  Cs  Cs4  1  -0.00125484  0.33300966  0.33336364  1
  Cs  Cs5  1  0.00144256  0.33407018  0.66659376  1
  Cs  Cs6  1  -0.00618851  0.66501851  0.00276135  1
  Cs  Cs7  1  0.00109366  0.66669302  0.33136468  1
  Cs  Cs8  1  0.00210022  0.66750750  0.66930674  1
  Cs  Cs9  1  0.33760463  0.00476513  0.00079278  1
  Cs  Cs10  1  0.33296629  -0.00033172  0.33266084  1
  Cs  Cs11  1  0.33305307  -0.00090069  0.66533499  1
  Cs  Cs12  1  0.33407565  0.32668382  -0.00524986  1
  Cs  Cs13  1  0.33441430  0.33612777  0.33346444  1
  Cs  Cs14  1  0.33215789  0.33652403  0.66983231  1
  Cs  Cs15  1  0.33521935  0.66843627  0.00082606  1
  Cs  Cs16  1  0.33217482  0.66520439  0.33425297  1
  Cs  Cs17  1  0.33140493  0.66443175  0.66665902  1
  Cs  Cs18  1  0.65795527  -0.00581674  0.00037404  1
  Cs  Cs19  1  0.66643744  -0.00117384  0.33402644  1
  Cs  Cs20  1  0.66912200  -0.00046173  0.66503237  1
  Cs  Cs21  1  0.66841087  0.33590191  -0.00351434  1
  Cs  Cs22  1  0.66671461  0.33365323  0.33468110  1
  Cs  Cs23  1  0.66593180  0.33196593  0.66445356  1
  Cs  Cs24  1  0.67173587  0.67094807  -0.00555451  1
  Cs  Cs25  1  0.66709795  0.66526890  0.33151945  1
  Cs  Cs26  1  0.66743439  0.66877468  0.67220212  1
  Sn  Sn27  1  0.83287752  0.16623846  0.16667578  1
  Sn  Sn28  1  0.83272387  0.49972121  0.49986427  1
  Sn  Sn29  1  0.16685456  0.16632584  0.49966948  1
  Sn  Sn30  1  0.16677557  0.83279665  0.16650510  1
  Sn  Sn31  1  0.83300557  0.16625054  0.83332699  1
  Sn  Sn32  1  0.49970494  0.16685775  0.49960383  1
  Sn  Sn33  1  0.83342305  0.16752587  0.49975686  1
  Sn  Sn34  1  0.16768336  0.50008224  0.16671103  1
  Sn  Sn35  1  0.16680079  0.83331356  0.83364168  1
  Sn  Sn36  1  0.49943060  0.49994851  0.16699357  1
  Sn  Sn37  1  0.50102467  0.50032102  0.49948009  1
  Sn  Sn38  1  0.49931036  0.83283241  0.49965885  1
  Sn  Sn39  1  0.16737366  0.83391281  0.49989289  1
  Pb  Pb40  1  0.16548573  0.16693056  0.16861833  1
  Pb  Pb41  1  0.49790689  0.83102183  0.16895484  1
  Pb  Pb42  1  0.16667064  0.50019256  0.49884248  1
  Pb  Pb43  1  0.49991403  0.50007700  0.83345252  1
  Pb  Pb44  1  0.83552652  0.83605026  0.16678272  1
  Pb  Pb45  1  0.50244233  0.16659517  0.83064870  1
  Pb  Pb46  1  0.50232624  0.16910665  0.16876418  1
  Pb  Pb47  1  0.83348711  0.49789062  0.83014148  1
  Pb  Pb48  1  0.83341800  0.83297823  0.49986270  1
  Pb  Pb49  1  0.16506916  0.16481535  0.83051472  1
  Pb  Pb50  1  0.16667846  0.50242034  0.83722243  1
  Pb  Pb51  1  0.49746691  0.83339927  0.83064438  1
  Pb  Pb52  1  0.83299586  0.49834711  0.16847659  1
  Pb  Pb53  1  0.83564635  0.83606005  0.83341331  1
  I  I54  1  0.16299394  -0.00269984  0.16708409  1
  I  I55  1  0.16826966  -0.00036592  0.49808070  1
  I  I56  1  0.16489659  -0.00316064  0.83666113  1
  I  I57  1  0.16812079  0.33584674  0.17152898  1
  I  I58  1  0.16695963  0.33084237  0.49735336  1
  I  I59  1  0.16551407  0.33314864  0.83267889  1
  I  I60  1  0.16967024  0.66717142  0.17087492  1
  I  I61  1  0.16921000  0.66961208  0.50108726  1
  I  I62  1  0.16673289  0.67044445  0.82410772  1
  I  I63  1  0.49990086  0.00006297  0.16823597  1
  I  I64  1  0.49964162  0.00040131  0.50137253  1
  I  I65  1  0.50057359  0.00002572  0.83211244  1
  I  I66  1  0.49297317  0.33683951  0.17492733  1
  I  I67  1  0.50173767  0.33327549  0.49616247  1
  I  I68  1  0.49899733  0.33320697  0.83064941  1
  I  I69  1  0.49852630  0.66317595  0.17501922  1
  I  I70  1  0.49874574  0.66630369  0.49599341  1
  I  I71  1  0.50022686  0.66682802  0.82960875  1
  I  I72  1  0.83582359  0.00426144  0.17265940  1
  I  I73  1  0.83189270  0.00341226  0.50047561  1
  I  I74  1  0.83479557  0.00397999  0.82674222  1
  I  I75  1  0.83660111  0.33032436  0.16750973  1
  I  I76  1  0.83114407  0.33175017  0.49982796  1
  I  I77  1  0.83505638  0.32970076  0.83423925  1
  I  I78  1  0.83329550  0.66646394  0.16953877  1
  I  I79  1  0.83081350  0.66371046  0.49810857  1
  I  I80  1  0.83396016  0.66679081  0.83171152  1
  I  I81  1  0.16305334  0.16576078  0.00006902  1
  I  I82  1  0.16366899  0.16134859  0.33716583  1
  I  I83  1  0.16460166  0.16228735  0.66189221  1
  I  I84  1  0.17139669  0.50377121  0.00531750  1
  I  I85  1  0.16700968  0.50503230  0.33118593  1
  I  I86  1  0.16617407  0.50021807  0.66651311  1
  I  I87  1  0.16308986  0.82766094  0.00073781  1
  I  I88  1  0.16991742  0.83372683  0.33435108  1
  I  I89  1  0.16968214  0.83898458  0.66493078  1
  I  I90  1  0.50135489  0.16816448  0.00023105  1
  I  I91  1  0.50218689  0.16470265  0.33761874  1
  I  I92  1  0.50141562  0.16906544  0.66147315  1
  I  I93  1  0.49475535  0.49920627  0.00352666  1
  I  I94  1  0.49960603  0.49958824  0.33521299  1
  I  I95  1  0.50395060  0.49918539  0.66241325  1
  I  I96  1  0.49895743  0.83211054  0.00026470  1
  I  I97  1  0.49422446  0.83614354  0.33743776  1
  I  I98  1  0.49515599  0.83171956  0.66179505  1
  I  I99  1  0.83738358  0.16667928  0.00022587  1
  I  I100  1  0.83417932  0.17055753  0.33537458  1
  I  I101  1  0.83343842  0.17006049  0.66455067  1
  I  I102  1  0.83377886  0.49731708  0.00013540  1
  I  I103  1  0.83240963  0.49292756  0.33662793  1
  I  I104  1  0.82834170  0.49454764  0.66176015  1
  I  I105  1  0.83530785  0.83408718  0.00011903  1
  I  I106  1  0.83687235  0.83677768  0.33369715  1
  I  I107  1  0.83581852  0.83516990  0.66621385  1
  I  I108  1  -0.00254532  0.16805971  0.17131834  1
  I  I109  1  -0.00061004  0.16628770  0.49983185  1
  I  I110  1  -0.00297179  0.16561034  0.82966259  1
  I  I111  1  0.00236117  0.50344775  0.16917866  1
  I  I112  1  -0.00205649  0.49540898  0.49807738  1
  I  I113  1  0.00008595  0.50004709  0.83203542  1
  I  I114  1  0.00431371  0.82685349  0.17134928  1
  I  I115  1  0.00348811  0.83704173  0.49991086  1
  I  I116  1  0.00373588  0.83414540  0.82807230  1
  I  I117  1  0.33349009  0.16513156  0.16892684  1
  I  I118  1  0.33336482  0.16539745  0.49884940  1
  I  I119  1  0.33331823  0.16585965  0.83215589  1
  I  I120  1  0.33328221  0.50421540  0.17562071  1
  I  I121  1  0.33603617  0.49761597  0.49753857  1
  I  I122  1  0.33314352  0.49921175  0.82683806  1
  I  I123  1  0.32945452  0.83325527  0.16644923  1
  I  I124  1  0.33245929  0.83682860  0.49988503  1
  I  I125  1  0.32942023  0.83454880  0.83433976  1
  I  I126  1  0.67031728  0.16913106  0.17074449  1
  I  I127  1  0.66704942  0.16755865  0.50032419  1
  I  I128  1  0.67057183  0.16757864  0.82999194  1
  I  I129  1  0.66395957  0.49619917  0.17206292  1
  I  I130  1  0.66582176  0.49563928  0.49425827  1
  I  I131  1  0.66681960  0.50038503  0.83692240  1
  I  I132  1  0.66632560  0.83302265  0.16882597  1
  I  I133  1  0.66367252  0.83619161  0.49944291  1
  I  I134  1  0.66652508  0.83370761  0.83166400  1
