# generated using pymatgen
data_Cs27Sn14Pb13I81
_symmetry_space_group_name_H-M   'P 1'
_cell_length_a   18.96810498
_cell_length_b   18.98298518
_cell_length_c   18.97317493
_cell_angle_alpha   90.00046329
_cell_angle_beta   89.99948882
_cell_angle_gamma   90.00008016
_symmetry_Int_Tables_number   1
_chemical_formula_structural   Cs27Sn14Pb13I81
_chemical_formula_sum   'Cs27 Sn14 Pb13 I81'
_cell_volume   6831.69492174
_cell_formula_units_Z   1
loop_
 _symmetry_equiv_pos_site_id
 _symmetry_equiv_pos_as_xyz
  1  'x, y, z'
loop_
 _atom_site_type_symbol
 _atom_site_label
 _atom_site_symmetry_multiplicity
 _atom_site_fract_x
 _atom_site_fract_y
 _atom_site_fract_z
 _atom_site_occupancy
  Cs  Cs0  1  -0.00099071  0.00006016  0.00783772  1
  Cs  Cs1  1  0.00673805  0.00139612  0.32718613  1
  Cs  Cs2  1  -0.00137146  -0.00099610  0.66683343  1
  Cs  Cs3  1  0.00035630  0.32890293  0.00391109  1
  Cs  Cs4  1  0.00064138  0.33482240  0.32554243  1
  Cs  Cs5  1  -0.00158393  0.33446512  0.66740922  1
  Cs  Cs6  1  0.00318628  0.67005953  0.00521826  1
  Cs  Cs7  1  -0.00415869  0.66442481  0.32200816  1
  Cs  Cs8  1  -0.00090622  0.66628788  0.66697547  1
  Cs  Cs9  1  0.33527952  -0.00106770  -0.00185601  1
  Cs  Cs10  1  0.32802876  0.00312833  0.34502567  1
  Cs  Cs11  1  0.32992763  -0.00094122  0.65989725  1
  Cs  Cs12  1  0.33581981  0.33483280  -0.00150167  1
  Cs  Cs13  1  0.33138362  0.33069882  0.33400731  1
  Cs  Cs14  1  0.33313804  0.33443058  0.66745764  1
  Cs  Cs15  1  0.33522740  0.66555687  -0.00191934  1
  Cs  Cs16  1  0.33350928  0.66714041  0.33461902  1
  Cs  Cs17  1  0.33200323  0.66622398  0.66811680  1
  Cs  Cs18  1  0.66728752  0.00096579  -0.00070552  1
  Cs  Cs19  1  0.66546955  -0.00239770  0.33675036  1
  Cs  Cs20  1  0.66827990  -0.00043837  0.66532295  1
  Cs  Cs21  1  0.66344727  0.32931240  -0.00277877  1
  Cs  Cs22  1  0.66763583  0.33652939  0.33585654  1
  Cs  Cs23  1  0.66847782  0.33382736  0.66759440  1
  Cs  Cs24  1  0.66299423  0.66863366  -0.00181477  1
  Cs  Cs25  1  0.66900352  0.66637363  0.33411139  1
  Cs  Cs26  1  0.66776522  0.66675193  0.66654231  1
  Sn  Sn27  1  0.83276711  0.83259284  0.83268975  1
  Sn  Sn28  1  0.50062453  0.83363364  0.83340440  1
  Sn  Sn29  1  0.49901244  0.16623008  0.83333941  1
  Sn  Sn30  1  0.83360783  0.16584742  0.49993394  1
  Sn  Sn31  1  0.16637790  0.49913649  0.83268292  1
  Sn  Sn32  1  0.50010698  0.50003393  0.83313953  1
  Sn  Sn33  1  0.83367434  0.50077698  0.83342639  1
  Sn  Sn34  1  0.16683038  0.50034586  0.50068107  1
  Sn  Sn35  1  0.50005346  0.49992356  0.16676242  1
  Sn  Sn36  1  0.49988859  0.83390643  0.16640126  1
  Sn  Sn37  1  0.16730957  0.16711793  0.83301119  1
  Sn  Sn38  1  0.83375743  0.83426531  0.50051098  1
  Sn  Sn39  1  0.50013052  0.16614990  0.16652610  1
  Sn  Sn40  1  0.49918394  0.50001359  0.50040333  1
  Pb  Pb41  1  0.50127691  0.16902998  0.50062448  1
  Pb  Pb42  1  0.17001540  0.16676561  0.16372583  1
  Pb  Pb43  1  0.83032843  0.16663217  0.16984905  1
  Pb  Pb44  1  0.83399204  0.50039382  0.50148209  1
  Pb  Pb45  1  0.83037449  0.49982523  0.16252598  1
  Pb  Pb46  1  0.50133708  0.83086331  0.50050375  1
  Pb  Pb47  1  0.83091263  0.83347996  0.16610184  1
  Pb  Pb48  1  0.16377570  0.16929923  0.50243899  1
  Pb  Pb49  1  0.16939523  0.49998751  0.16595510  1
  Pb  Pb50  1  0.16289304  0.82996305  0.50011939  1
  Pb  Pb51  1  0.17079932  0.83343611  0.16667527  1
  Pb  Pb52  1  0.16655601  0.83336637  0.83328570  1
  Pb  Pb53  1  0.83343804  0.16615322  0.83247078  1
  I  I54  1  0.16755328  0.00028628  0.16437284  1
  I  I55  1  0.16802105  0.00007657  0.50092430  1
  I  I56  1  0.17105454  0.00284800  0.83404131  1
  I  I57  1  0.16823189  0.33345810  0.16888556  1
  I  I58  1  0.17007773  0.33701879  0.50339556  1
  I  I59  1  0.17069419  0.33466730  0.82959473  1
  I  I60  1  0.16795420  0.66636620  0.16498397  1
  I  I61  1  0.17156635  0.66220729  0.50895470  1
  I  I62  1  0.16983991  0.66329760  0.82976196  1
  I  I63  1  0.50184713  -0.00006957  0.15645236  1
  I  I64  1  0.50073668  -0.00006266  0.49944633  1
  I  I65  1  0.50134442  -0.00007302  0.84097646  1
  I  I66  1  0.50035887  0.33374805  0.16220195  1
  I  I67  1  0.50033531  0.33707812  0.50122076  1
  I  I68  1  0.50028713  0.33436961  0.83557842  1
  I  I69  1  0.50034849  0.66627935  0.16248997  1
  I  I70  1  0.49965192  0.66279878  0.50113243  1
  I  I71  1  0.50069051  0.66566700  0.83552054  1
  I  I72  1  0.82989124  -0.00001622  0.16140708  1
  I  I73  1  0.82951875  -0.00077279  0.50808014  1
  I  I74  1  0.82861728  -0.00271589  0.83036185  1
  I  I75  1  0.83034996  0.33340244  0.16790838  1
  I  I76  1  0.83109741  0.33208327  0.50317913  1
  I  I77  1  0.82951196  0.33576144  0.83047810  1
  I  I78  1  0.83122363  0.66656608  0.17259133  1
  I  I79  1  0.83149065  0.66882816  0.50374730  1
  I  I80  1  0.82825688  0.66657845  0.82659851  1
  I  I81  1  0.16631341  0.17442467  -0.00439338  1
  I  I82  1  0.16678262  0.16763397  0.33347167  1
  I  I83  1  0.17504490  0.16908116  0.67030735  1
  I  I84  1  0.16757201  0.49697707  -0.00382553  1
  I  I85  1  0.17123907  0.50100166  0.33601561  1
  I  I86  1  0.17269888  0.49678129  0.66834721  1
  I  I87  1  0.16127564  0.83098577  -0.00044097  1
  I  I88  1  0.16697223  0.83179830  0.33360579  1
  I  I89  1  0.17245578  0.83477069  0.66682862  1
  I  I90  1  0.49757736  0.17141798  -0.00154855  1
  I  I91  1  0.50420861  0.16771340  0.33096607  1
  I  I92  1  0.49839424  0.16748544  0.67013273  1
  I  I93  1  0.50058357  0.50023548  -0.00155576  1
  I  I94  1  0.49612641  0.50000412  0.33341862  1
  I  I95  1  0.50004367  0.49975494  0.66834054  1
  I  I96  1  0.50536285  0.82891454  -0.00170011  1
  I  I97  1  0.50233339  0.83169243  0.33094919  1
  I  I98  1  0.50239155  0.83277281  0.67001934  1
  I  I99  1  0.83522845  0.16712437  -0.00008625  1
  I  I100  1  0.83085183  0.16223444  0.33766220  1
  I  I101  1  0.82957457  0.16643908  0.66490242  1
  I  I102  1  0.83415161  0.50559939  -0.00563493  1
  I  I103  1  0.83267119  0.50024108  0.33318458  1
  I  I104  1  0.82741184  0.50061122  0.66974833  1
  I  I105  1  0.83080848  0.82839802  -0.00355096  1
  I  I106  1  0.83081048  0.83609771  0.33595349  1
  I  I107  1  0.82608388  0.83269055  0.66811854  1
  I  I108  1  0.00021251  0.16652331  0.16567598  1
  I  I109  1  -0.00365856  0.16463114  0.50502450  1
  I  I110  1  0.00226856  0.17158130  0.82876088  1
  I  I111  1  -0.00000326  0.50028736  0.16836197  1
  I  I112  1  0.00248039  0.49968557  0.50811627  1
  I  I113  1  0.00033101  0.49949903  0.82525705  1
  I  I114  1  -0.00013464  0.83298988  0.16625136  1
  I  I115  1  -0.00483929  0.83550159  0.51004207  1
  I  I116  1  -0.00322791  0.82943414  0.82756059  1
  I  I117  1  0.33823422  0.16848546  0.16578793  1
  I  I118  1  0.33322778  0.16607579  0.49779931  1
  I  I119  1  0.33505020  0.17117022  0.83720583  1
  I  I120  1  0.33793105  0.50027348  0.16126550  1
  I  I121  1  0.33455802  0.49948809  0.50525769  1
  I  I122  1  0.33498998  0.49962956  0.83338111  1
  I  I123  1  0.33907666  0.83060024  0.15763778  1
  I  I124  1  0.33327415  0.83408307  0.49947518  1
  I  I125  1  0.33685932  0.83017487  0.83868125  1
  I  I126  1  0.66209630  0.16775075  0.15731238  1
  I  I127  1  0.66891113  0.16629577  0.50299596  1
  I  I128  1  0.66350143  0.16983550  0.83579987  1
  I  I129  1  0.66180728  0.50051525  0.16878605  1
  I  I130  1  0.66417170  0.49971395  0.50086662  1
  I  I131  1  0.66505639  0.50002246  0.83289815  1
  I  I132  1  0.66258177  0.83175812  0.16429514  1
  I  I133  1  0.66923792  0.83362353  0.50226736  1
  I  I134  1  0.66547753  0.82965885  0.83339595  1
