# generated using pymatgen
data_Cs27Sn13Pb14I81
_symmetry_space_group_name_H-M   'P 1'
_cell_length_a   19.10347691
_cell_length_b   19.06369093
_cell_length_c   19.09717406
_cell_angle_alpha   89.99819816
_cell_angle_beta   90.00203880
_cell_angle_gamma   90.00095072
_symmetry_Int_Tables_number   1
_chemical_formula_structural   Cs27Sn13Pb14I81
_chemical_formula_sum   'Cs27 Sn13 Pb14 I81'
_cell_volume   6954.86192007
_cell_formula_units_Z   1
loop_
 _symmetry_equiv_pos_site_id
 _symmetry_equiv_pos_as_xyz
  1  'x, y, z'
loop_
 _atom_site_type_symbol
 _atom_site_label
 _atom_site_symmetry_multiplicity
 _atom_site_fract_x
 _atom_site_fract_y
 _atom_site_fract_z
 _atom_site_occupancy
  Cs  Cs0  1  0.00212978  0.00304734  -0.01199368  1
  Cs  Cs1  1  -0.00120455  -0.00561786  0.33534842  1
  Cs  Cs2  1  -0.00049743  0.00054887  0.67334126  1
  Cs  Cs3  1  -0.00167038  0.34147671  0.00169268  1
  Cs  Cs4  1  -0.00343881  0.33255988  0.33403053  1
  Cs  Cs5  1  -0.00358596  0.33419948  0.66570739  1
  Cs  Cs6  1  -0.00061500  0.64681101  0.00793654  1
  Cs  Cs7  1  0.00992165  0.68246442  0.32252238  1
  Cs  Cs8  1  0.00528547  0.66693038  0.66589910  1
  Cs  Cs9  1  0.33206954  -0.00043030  -0.00353762  1
  Cs  Cs10  1  0.33046970  -0.00214861  0.32986771  1
  Cs  Cs11  1  0.32825282  0.00289809  0.67492382  1
  Cs  Cs12  1  0.33440890  0.33166815  0.00548915  1
  Cs  Cs13  1  0.33824974  0.33177762  0.33244621  1
  Cs  Cs14  1  0.33338018  0.33935725  0.66218724  1
  Cs  Cs15  1  0.33741621  0.67037258  0.00044866  1
  Cs  Cs16  1  0.31836232  0.67639329  0.34663278  1
  Cs  Cs17  1  0.34785401  0.64862505  0.65406988  1
  Cs  Cs18  1  0.66532939  -0.00010429  -0.00419400  1
  Cs  Cs19  1  0.66933629  -0.00524345  0.33422334  1
  Cs  Cs20  1  0.67156501  0.00017605  0.67004377  1
  Cs  Cs21  1  0.66782492  0.33379682  0.00576561  1
  Cs  Cs22  1  0.66528743  0.33155815  0.33362074  1
  Cs  Cs23  1  0.67012503  0.33323203  0.66194898  1
  Cs  Cs24  1  0.66416846  0.66333388  0.00183395  1
  Cs  Cs25  1  0.67002387  0.68978515  0.33344127  1
  Cs  Cs26  1  0.64878785  0.66366025  0.66530716  1
  Sn  Sn27  1  0.83374006  0.16613403  0.16654339  1
  Sn  Sn28  1  0.16577909  0.16669880  0.16660418  1
  Sn  Sn29  1  0.83483587  0.83239660  0.83335311  1
  Sn  Sn30  1  0.83356522  0.16724639  0.49963068  1
  Sn  Sn31  1  0.16547277  0.83289586  0.83353239  1
  Sn  Sn32  1  0.16652545  0.16821480  0.83337645  1
  Sn  Sn33  1  0.16641171  0.16681077  0.50000061  1
  Sn  Sn34  1  0.50001036  0.16598769  0.50014573  1
  Sn  Sn35  1  0.50013895  0.49992733  0.16808342  1
  Sn  Sn36  1  0.83339862  0.50087227  0.49918900  1
  Sn  Sn37  1  0.83327188  0.16725258  0.83387608  1
  Sn  Sn38  1  0.50014083  0.16724679  0.83300825  1
  Sn  Sn39  1  0.50035776  0.16655491  0.16688562  1
  Pb  Pb40  1  0.50007988  0.49633256  0.83612286  1
  Pb  Pb41  1  0.16334119  0.49683298  0.49951065  1
  Pb  Pb42  1  0.83074373  0.49767669  0.17020164  1
  Pb  Pb43  1  0.16653206  0.83686973  0.50392967  1
  Pb  Pb44  1  0.49953514  0.83730488  0.50049113  1
  Pb  Pb45  1  0.83372987  0.83664194  0.16264086  1
  Pb  Pb46  1  0.50304506  0.49688144  0.49592570  1
  Pb  Pb47  1  0.83304047  0.50077393  0.83077845  1
  Pb  Pb48  1  0.49955804  0.83570420  0.83325497  1
  Pb  Pb49  1  0.83384451  0.83319601  0.50329831  1
  Pb  Pb50  1  0.16704632  0.50054494  0.83321430  1
  Pb  Pb51  1  0.16961952  0.49704176  0.16721598  1
  Pb  Pb52  1  0.49952771  0.83361045  0.16643093  1
  Pb  Pb53  1  0.16651499  0.83680693  0.16273682  1
  I  I54  1  0.17280163  0.00503779  0.17334724  1
  I  I55  1  0.16267245  0.00493169  0.49321433  1
  I  I56  1  0.16675058  0.00412797  0.83327256  1
  I  I57  1  0.16228833  0.32817312  0.16011700  1
  I  I58  1  0.17249977  0.32825070  0.50613638  1
  I  I59  1  0.16608202  0.32863221  0.83339872  1
  I  I60  1  0.16901508  0.66704715  0.16466061  1
  I  I61  1  0.16584979  0.66693798  0.50150738  1
  I  I62  1  0.15349669  0.67017645  0.83603047  1
  I  I63  1  0.49959588  0.00467691  0.16677917  1
  I  I64  1  0.50638357  0.00577413  0.49415047  1
  I  I65  1  0.50018430  0.00455436  0.83800161  1
  I  I66  1  0.49939079  0.32844625  0.16474180  1
  I  I67  1  0.49486670  0.32887210  0.50575290  1
  I  I68  1  0.49989266  0.32783340  0.82826804  1
  I  I69  1  0.50480656  0.66348621  0.16193840  1
  I  I70  1  0.50303456  0.66618248  0.49946108  1
  I  I71  1  0.50055740  0.66642863  0.83625799  1
  I  I72  1  0.82768237  0.00509159  0.17840035  1
  I  I73  1  0.83204516  0.00384247  0.49473285  1
  I  I74  1  0.83262302  0.00406150  0.83090300  1
  I  I75  1  0.83765353  0.32882276  0.15636267  1
  I  I76  1  0.83313022  0.32845070  0.50447659  1
  I  I77  1  0.83395445  0.32925637  0.83701714  1
  I  I78  1  0.82849963  0.66682771  0.16714767  1
  I  I79  1  0.82924402  0.66392844  0.50394849  1
  I  I80  1  0.84407893  0.66994160  0.83044214  1
  I  I81  1  0.16867747  0.16039090  -0.00045511  1
  I  I82  1  0.16794199  0.17136792  0.33331843  1
  I  I83  1  0.16726497  0.16027855  0.66710212  1
  I  I84  1  0.16354324  0.49635422  0.00013515  1
  I  I85  1  0.16758374  0.49796194  0.33340198  1
  I  I86  1  0.16875881  0.49684756  0.66645645  1
  I  I87  1  0.16363679  0.84696366  -0.00427720  1
  I  I88  1  0.16918242  0.83050996  0.33337451  1
  I  I89  1  0.15848264  0.84721444  0.67089509  1
  I  I90  1  0.50022820  0.17071266  -0.00000777  1
  I  I91  1  0.49956459  0.17355705  0.33308110  1
  I  I92  1  0.50060204  0.16243977  0.66680616  1
  I  I93  1  0.50153576  0.48965444  0.00344208  1
  I  I94  1  0.50061267  0.48222210  0.32972592  1
  I  I95  1  0.49919778  0.50399883  0.66583261  1
  I  I96  1  0.50034686  0.83631180  -0.00023790  1
  I  I97  1  0.50299706  0.83687488  0.33323901  1
  I  I98  1  0.50208739  0.83304488  0.66696859  1
  I  I99  1  0.83150336  0.15874621  -0.00032823  1
  I  I100  1  0.83272684  0.17563910  0.33354611  1
  I  I101  1  0.83205793  0.16630582  0.66688458  1
  I  I102  1  0.83323566  0.50178316  0.00049046  1
  I  I103  1  0.83206354  0.48344328  0.33709327  1
  I  I104  1  0.83309349  0.48600205  0.66388313  1
  I  I105  1  0.83611922  0.84533577  -0.00441386  1
  I  I106  1  0.83009444  0.83202376  0.33327243  1
  I  I107  1  0.83901809  0.84780981  0.67022290  1
  I  I108  1  -0.00025231  0.16406580  0.16697983  1
  I  I109  1  -0.00039452  0.17234900  0.50018547  1
  I  I110  1  -0.00021882  0.16136962  0.83239993  1
  I  I111  1  -0.00014179  0.50057014  0.16485219  1
  I  I112  1  -0.00385548  0.48631239  0.50296621  1
  I  I113  1  -0.00023842  0.49117152  0.83513179  1
  I  I114  1  0.00008555  0.83317162  0.17510006  1
  I  I115  1  0.00000334  0.83506964  0.49469488  1
  I  I116  1  -0.00015563  0.85313657  0.83159819  1
  I  I117  1  0.33358970  0.17192115  0.16595361  1
  I  I118  1  0.33340927  0.16358666  0.50058400  1
  I  I119  1  0.33295321  0.16064236  0.83411426  1
  I  I120  1  0.33704337  0.48595445  0.16427735  1
  I  I121  1  0.33357831  0.50251953  0.50181710  1
  I  I122  1  0.33352816  0.50142137  0.83081625  1
  I  I123  1  0.33307048  0.83720568  0.16198631  1
  I  I124  1  0.33292613  0.83221715  0.50105524  1
  I  I125  1  0.33026515  0.84440079  0.83706937  1
  I  I126  1  0.66663104  0.17230697  0.16504868  1
  I  I127  1  0.66712289  0.17242751  0.50125515  1
  I  I128  1  0.66722828  0.16143701  0.83341925  1
  I  I129  1  0.66381532  0.48552946  0.16357838  1
  I  I130  1  0.66975527  0.48674726  0.50389301  1
  I  I131  1  0.66673191  0.50254758  0.83263411  1
  I  I132  1  0.66682429  0.83609059  0.16501011  1
  I  I133  1  0.66711540  0.83506483  0.50194349  1
  I  I134  1  0.66929933  0.84159096  0.83273227  1
