# generated using pymatgen
data_Cs27Sn14Pb13I81
_symmetry_space_group_name_H-M   'P 1'
_cell_length_a   18.97580062
_cell_length_b   18.97959481
_cell_length_c   18.97311132
_cell_angle_alpha   89.99733976
_cell_angle_beta   89.99940939
_cell_angle_gamma   90.00097605
_symmetry_Int_Tables_number   1
_chemical_formula_structural   Cs27Sn14Pb13I81
_chemical_formula_sum   'Cs27 Sn14 Pb13 I81'
_cell_volume   6833.22308590
_cell_formula_units_Z   1
loop_
 _symmetry_equiv_pos_site_id
 _symmetry_equiv_pos_as_xyz
  1  'x, y, z'
loop_
 _atom_site_type_symbol
 _atom_site_label
 _atom_site_symmetry_multiplicity
 _atom_site_fract_x
 _atom_site_fract_y
 _atom_site_fract_z
 _atom_site_occupancy
  Cs  Cs0  1  0.00036991  -0.00046815  -0.00150346  1
  Cs  Cs1  1  -0.00014573  -0.00092636  0.33381265  1
  Cs  Cs2  1  -0.00069193  -0.00209305  0.66794200  1
  Cs  Cs3  1  -0.00108036  0.33209343  0.00054227  1
  Cs  Cs4  1  -0.00082542  0.33288806  0.33406415  1
  Cs  Cs5  1  0.00023759  0.33672885  0.66297827  1
  Cs  Cs6  1  0.00034515  0.66776253  -0.00076687  1
  Cs  Cs7  1  -0.00205783  0.66823898  0.33445463  1
  Cs  Cs8  1  -0.00025555  0.66781585  0.66751326  1
  Cs  Cs9  1  0.32881959  -0.00127601  0.00023947  1
  Cs  Cs10  1  0.33288816  0.00232818  0.33620817  1
  Cs  Cs11  1  0.33828429  0.00110918  0.66274144  1
  Cs  Cs12  1  0.33257528  0.33616328  0.00277952  1
  Cs  Cs13  1  0.33224108  0.32991406  0.33289263  1
  Cs  Cs14  1  0.33933792  0.34034086  0.65915340  1
  Cs  Cs15  1  0.33258468  0.66472583  -0.00240490  1
  Cs  Cs16  1  0.33631680  0.66922360  0.33218526  1
  Cs  Cs17  1  0.34065072  0.65982081  0.67030124  1
  Cs  Cs18  1  0.66569809  0.00010453  -0.00179505  1
  Cs  Cs19  1  0.66781895  -0.00375314  0.33212802  1
  Cs  Cs20  1  0.66270051  0.00318944  0.67026281  1
  Cs  Cs21  1  0.66863539  0.33071595  0.00000457  1
  Cs  Cs22  1  0.66926841  0.33582692  0.33182725  1
  Cs  Cs23  1  0.66156924  0.33151797  0.66785429  1
  Cs  Cs24  1  0.66734376  0.66976201  0.00185680  1
  Cs  Cs25  1  0.66656973  0.66842848  0.33398371  1
  Cs  Cs26  1  0.66290714  0.66481181  0.66358961  1
  Sn  Sn27  1  0.50036883  0.49921653  0.16632520  1
  Sn  Sn28  1  0.50013757  0.16703547  0.16641750  1
  Sn  Sn29  1  0.83388065  0.83244806  0.83228621  1
  Sn  Sn30  1  0.83416928  0.83455691  0.50141553  1
  Sn  Sn31  1  0.83336635  0.16701297  0.16734431  1
  Sn  Sn32  1  0.16616440  0.83416531  0.83252346  1
  Sn  Sn33  1  0.16618891  0.83308978  0.50070934  1
  Sn  Sn34  1  0.83379030  0.16571908  0.49951506  1
  Sn  Sn35  1  0.16631340  0.83342869  0.16682008  1
  Sn  Sn36  1  0.16670793  0.16674452  0.83312554  1
  Sn  Sn37  1  0.83345754  0.49949299  0.16572033  1
  Sn  Sn38  1  0.16644715  0.16662209  0.16592740  1
  Sn  Sn39  1  0.83370141  0.50074992  0.83409270  1
  Sn  Sn40  1  0.16629512  0.49990138  0.16675356  1
  Pb  Pb41  1  0.50329453  0.16653290  0.49710477  1
  Pb  Pb42  1  0.49975119  0.83347668  0.83349475  1
  Pb  Pb43  1  0.83338751  0.50023318  0.50006178  1
  Pb  Pb44  1  0.16485814  0.16498646  0.50034839  1
  Pb  Pb45  1  0.49667086  0.83366644  0.16647819  1
  Pb  Pb46  1  0.50013206  0.49984107  0.49670236  1
  Pb  Pb47  1  0.49589009  0.16678224  0.83599926  1
  Pb  Pb48  1  0.16489772  0.49972535  0.83497965  1
  Pb  Pb49  1  0.83511341  0.16664352  0.83327968  1
  Pb  Pb50  1  0.83506428  0.83353227  0.16639394  1
  Pb  Pb51  1  0.50033314  0.83349735  0.50002636  1
  Pb  Pb52  1  0.50337116  0.49984401  0.83628446  1
  Pb  Pb53  1  0.16653090  0.50313768  0.49724872  1
  I  I54  1  0.16608497  0.00036210  0.16583808  1
  I  I55  1  0.16354646  -0.00328495  0.49391477  1
  I  I56  1  0.15978777  -0.00113423  0.84108360  1
  I  I57  1  0.16648238  0.33267126  0.16157075  1
  I  I58  1  0.16498773  0.33325702  0.49987023  1
  I  I59  1  0.16355420  0.33071279  0.84153619  1
  I  I60  1  0.16586914  0.66677965  0.16704788  1
  I  I61  1  0.15796639  0.67154821  0.49959858  1
  I  I62  1  0.16370951  0.66972937  0.83539425  1
  I  I63  1  0.50122054  0.00330429  0.16721645  1
  I  I64  1  0.49829817  0.00012115  0.49557330  1
  I  I65  1  0.50559853  0.00025444  0.83706079  1
  I  I66  1  0.49579806  0.33320081  0.16647452  1
  I  I67  1  0.50102190  0.33301778  0.50226665  1
  I  I68  1  0.50113015  0.33328596  0.83202133  1
  I  I69  1  0.50096048  0.66362229  0.16686983  1
  I  I70  1  0.50192505  0.66674836  0.49636923  1
  I  I71  1  0.49545181  0.66652581  0.83681017  1
  I  I72  1  0.83359530  0.00277153  0.16761386  1
  I  I73  1  0.83807458  -0.00058795  0.49774413  1
  I  I74  1  0.83654649  -0.00261698  0.83328326  1
  I  I75  1  0.83719699  0.33306969  0.16677740  1
  I  I76  1  0.83348553  0.33071245  0.49703622  1
  I  I77  1  0.83524924  0.33533559  0.83636539  1
  I  I78  1  0.83358484  0.66423199  0.16622822  1
  I  I79  1  0.83786182  0.66987157  0.49964432  1
  I  I80  1  0.83984521  0.66760302  0.83487388  1
  I  I81  1  0.16420451  0.16149814  0.00227920  1
  I  I82  1  0.16840563  0.16634542  0.32974842  1
  I  I83  1  0.16173264  0.16038576  0.66945762  1
  I  I84  1  0.16804338  0.50413092  0.00398285  1
  I  I85  1  0.16315742  0.49787210  0.32805553  1
  I  I86  1  0.16390053  0.49882019  0.66681194  1
  I  I87  1  0.16278123  0.83440918  0.00015855  1
  I  I88  1  0.16241603  0.83267913  0.33275165  1
  I  I89  1  0.15974301  0.84002585  0.66754216  1
  I  I90  1  0.50660086  0.17042603  0.00449013  1
  I  I91  1  0.49314329  0.17086902  0.32871815  1
  I  I92  1  0.50042796  0.16558833  0.66661923  1
  I  I93  1  0.49634015  0.49599535  0.00445062  1
  I  I94  1  0.50314791  0.49666123  0.32813914  1
  I  I95  1  0.50056915  0.50106705  0.66696980  1
  I  I96  1  0.50186613  0.83342340  0.00032431  1
  I  I97  1  0.50069559  0.83176053  0.33296814  1
  I  I98  1  0.49578370  0.83315721  0.66669815  1
  I  I99  1  0.83224965  0.16786011  0.00317821  1
  I  I100  1  0.83547435  0.16683404  0.33129403  1
  I  I101  1  0.83736564  0.16563353  0.66449750  1
  I  I102  1  0.83392143  0.50012317  0.00181597  1
  I  I103  1  0.83312894  0.49919748  0.32972220  1
  I  I104  1  0.83601080  0.50105591  0.66951209  1
  I  I105  1  0.83791037  0.83225763  -0.00236262  1
  I  I106  1  0.83774214  0.83407648  0.33521009  1
  I  I107  1  0.84250613  0.83310191  0.66690488  1
  I  I108  1  0.00019384  0.16919233  0.16686101  1
  I  I109  1  -0.00306883  0.16510131  0.49218754  1
  I  I110  1  0.00278880  0.16430263  0.84175985  1
  I  I111  1  -0.00029913  0.49729247  0.16319889  1
  I  I112  1  -0.00019822  0.49761667  0.49568812  1
  I  I113  1  -0.00301820  0.50174592  0.84090611  1
  I  I114  1  0.00337626  0.83345823  0.16653756  1
  I  I115  1  -0.00028634  0.83700930  0.49943217  1
  I  I116  1  0.00042875  0.83305535  0.83373433  1
  I  I117  1  0.33208516  0.16907782  0.16168848  1
  I  I118  1  0.33323054  0.16436354  0.49900402  1
  I  I119  1  0.32785880  0.15843856  0.84005273  1
  I  I120  1  0.33253495  0.49774990  0.16801498  1
  I  I121  1  0.33312332  0.50186624  0.49962996  1
  I  I122  1  0.33325171  0.50145225  0.83512720  1
  I  I123  1  0.32804722  0.83307386  0.16651824  1
  I  I124  1  0.32982546  0.83369700  0.49777474  1
  I  I125  1  0.32918889  0.83764680  0.83492003  1
  I  I126  1  0.66776161  0.17408406  0.17158784  1
  I  I127  1  0.67153916  0.16024002  0.49570223  1
  I  I128  1  0.66680990  0.16607794  0.83390392  1
  I  I129  1  0.66773164  0.49246541  0.16318298  1
  I  I130  1  0.66717147  0.50307773  0.49756945  1
  I  I131  1  0.67154196  0.50585136  0.83884999  1
  I  I132  1  0.66679119  0.83304697  0.16733114  1
  I  I133  1  0.67065010  0.83615127  0.50325058  1
  I  I134  1  0.67044880  0.82942022  0.82934099  1
