# generated using pymatgen
data_Cs27Sn13Pb14I81
_symmetry_space_group_name_H-M   'P 1'
_cell_length_a   18.99822203
_cell_length_b   18.98802327
_cell_length_c   18.98802322
_cell_angle_alpha   89.99925921
_cell_angle_beta   89.99897125
_cell_angle_gamma   90.00102877
_symmetry_Int_Tables_number   1
_chemical_formula_structural   Cs27Sn13Pb14I81
_chemical_formula_sum   'Cs27 Sn13 Pb14 I81'
_cell_volume   6849.71446825
_cell_formula_units_Z   1
loop_
 _symmetry_equiv_pos_site_id
 _symmetry_equiv_pos_as_xyz
  1  'x, y, z'
loop_
 _atom_site_type_symbol
 _atom_site_label
 _atom_site_symmetry_multiplicity
 _atom_site_fract_x
 _atom_site_fract_y
 _atom_site_fract_z
 _atom_site_occupancy
  Cs  Cs0  1  -0.00208963  0.00134235  0.00066654  1
  Cs  Cs1  1  0.00190156  -0.00092075  0.34181352  1
  Cs  Cs2  1  0.00023163  -0.00029723  0.65812561  1
  Cs  Cs3  1  0.00261742  0.33415061  -0.00041137  1
  Cs  Cs4  1  0.00603270  0.33213677  0.33631859  1
  Cs  Cs5  1  -0.00107308  0.33531953  0.66619538  1
  Cs  Cs6  1  -0.00010397  0.66467393  0.00164330  1
  Cs  Cs7  1  -0.00658571  0.66838004  0.33159760  1
  Cs  Cs8  1  0.00436694  0.66270597  0.66771027  1
  Cs  Cs9  1  0.33440648  -0.00047126  0.00198629  1
  Cs  Cs10  1  0.32896667  0.00104389  0.32937273  1
  Cs  Cs11  1  0.33310162  -0.00854123  0.66636954  1
  Cs  Cs12  1  0.33071604  0.33292204  0.00081737  1
  Cs  Cs13  1  0.33343746  0.33497638  0.33134063  1
  Cs  Cs14  1  0.33542273  0.33399985  0.66800884  1
  Cs  Cs15  1  0.32730074  0.66965219  -0.00119631  1
  Cs  Cs16  1  0.33991944  0.66493127  0.33504665  1
  Cs  Cs17  1  0.33143172  0.67514695  0.66574607  1
  Cs  Cs18  1  0.66496133  0.00159268  -0.00073557  1
  Cs  Cs19  1  0.66980284  -0.00101871  0.33176891  1
  Cs  Cs20  1  0.66666678  0.00043679  0.66710344  1
  Cs  Cs21  1  0.66666677  0.33000438  -0.00332916  1
  Cs  Cs22  1  0.66263726  0.33579558  0.33337648  1
  Cs  Cs23  1  0.66837214  0.33259781  0.66825947  1
  Cs  Cs24  1  0.67069617  0.66670970  0.00246204  1
  Cs  Cs25  1  0.66666652  0.66569937  0.33236624  1
  Cs  Cs26  1  0.66353053  0.66510215  0.66564785  1
  Sn  Sn27  1  0.16636689  0.49995759  0.50012278  1
  Sn  Sn28  1  0.50025074  0.49986791  0.83371750  1
  Sn  Sn29  1  0.16696643  0.83345619  0.16662424  1
  Sn  Sn30  1  0.16666667  0.16628692  0.83295359  1
  Sn  Sn31  1  0.83341214  0.83345550  0.83303908  1
  Sn  Sn32  1  0.83243496  0.49999414  0.83273970  1
  Sn  Sn33  1  0.83308248  0.16705087  0.16653454  1
  Sn  Sn34  1  0.49992121  0.16637246  0.50012224  1
  Sn  Sn35  1  0.83379973  0.49958545  0.50064553  1
  Sn  Sn36  1  0.83378476  0.16642431  0.83376581  1
  Sn  Sn37  1  0.50089843  0.16607301  0.16666080  1
  Sn  Sn38  1  0.49954859  0.16709913  0.83309092  1
  Sn  Sn39  1  0.49953369  0.83397888  0.16625212  1
  Pb  Pb40  1  0.83306248  0.83029837  0.50305027  1
  Pb  Pb41  1  0.16381505  0.83609841  0.83500421  1
  Pb  Pb42  1  0.50009819  0.49960882  0.16339528  1
  Pb  Pb43  1  0.16951825  0.16833752  0.50276515  1
  Pb  Pb44  1  0.16683584  0.49834522  0.83205770  1
  Pb  Pb45  1  0.83311147  0.83599492  0.16494590  1
  Pb  Pb46  1  0.50022183  0.49827916  0.50266167  1
  Pb  Pb47  1  0.83149835  0.16869936  0.50000313  1
  Pb  Pb48  1  0.50183496  0.83333644  0.83536603  1
  Pb  Pb49  1  0.16666667  0.83060754  0.49727423  1
  Pb  Pb50  1  0.16649750  0.16539094  0.16501183  1
  Pb  Pb51  1  0.16666673  0.50263870  0.16930543  1
  Pb  Pb52  1  0.50027081  0.83638363  0.49696512  1
  Pb  Pb53  1  0.83323514  0.49672864  0.16627552  1
  I  I54  1  0.16899913  -0.00226075  0.16462598  1
  I  I55  1  0.16751846  0.00003109  0.50037149  1
  I  I56  1  0.16920583  0.00402922  0.83414592  1
  I  I57  1  0.16682295  0.33314044  0.16652646  1
  I  I58  1  0.16147959  0.33585413  0.50019062  1
  I  I59  1  0.16339745  0.33028901  0.83437838  1
  I  I60  1  0.17318647  0.67054264  0.16446670  1
  I  I61  1  0.16309018  0.66288986  0.50298837  1
  I  I62  1  0.16694199  0.66679917  0.83325723  1
  I  I63  1  0.49997428  0.00190585  0.16372735  1
  I  I64  1  0.50057645  0.00445591  0.50804754  1
  I  I65  1  0.50146601  0.00361772  0.83230069  1
  I  I66  1  0.50460576  0.32959279  0.16796911  1
  I  I67  1  0.50055228  0.33033173  0.49565733  1
  I  I68  1  0.50492771  0.33145526  0.83476210  1
  I  I69  1  0.49563760  0.66938130  0.16480432  1
  I  I70  1  0.49973557  0.66649666  0.49994657  1
  I  I71  1  0.50577069  0.66406611  0.83431034  1
  I  I72  1  0.83052837  0.00377332  0.15941661  1
  I  I73  1  0.83244805  0.00027853  0.50050414  1
  I  I74  1  0.83211201  0.00180162  0.83990589  1
  I  I75  1  0.82629922  0.32894458  0.15982177  1
  I  I76  1  0.83585500  0.33626167  0.50698134  1
  I  I77  1  0.83161799  0.33260715  0.83305686  1
  I  I78  1  0.83323553  0.66669108  0.16548271  1
  I  I79  1  0.83628645  0.66221404  0.50431821  1
  I  I80  1  0.82781649  0.66551391  0.82921938  1
  I  I81  1  0.16993571  0.16771183  -0.00304430  1
  I  I82  1  0.16639134  0.16659087  0.33346582  1
  I  I83  1  0.16412763  0.16747894  0.67069589  1
  I  I84  1  0.16651063  0.49985988  -0.00019289  1
  I  I85  1  0.16014636  0.49780001  0.33720936  1
  I  I86  1  0.16433411  0.49795923  0.66440593  1
  I  I87  1  0.17185428  0.83352371  0.00252078  1
  I  I88  1  0.17024251  0.83632151  0.32955654  1
  I  I89  1  0.16581513  0.83370530  0.66669778  1
  I  I90  1  0.50171511  0.16639033  -0.00072617  1
  I  I91  1  0.50551677  0.16255253  0.33218063  1
  I  I92  1  0.50122133  0.17323920  0.66846827  1
  I  I93  1  0.50703366  0.49315468  -0.00438874  1
  I  I94  1  0.50009756  0.49881629  0.33335769  1
  I  I95  1  0.50280569  0.49274998  0.67043999  1
  I  I96  1  0.49747802  0.84031470  0.00292834  1
  I  I97  1  0.49704698  0.83765120  0.32888074  1
  I  I98  1  0.50088545  0.83383750  0.66694519  1
  I  I99  1  0.82840600  0.16809563  -0.00187806  1
  I  I100  1  0.82756237  0.16764350  0.33073276  1
  I  I101  1  0.83186720  0.16563387  0.67028435  1
  I  I102  1  0.82872752  0.50130214  -0.00374052  1
  I  I103  1  0.83769630  0.49813790  0.33604801  1
  I  I104  1  0.83335845  0.49706063  0.66857250  1
  I  I105  1  0.83278094  0.82899090  -0.00300164  1
  I  I106  1  0.83359833  0.83327987  0.33316332  1
  I  I107  1  0.83275635  0.84138110  0.67112259  1
  I  I108  1  -0.00272038  0.16617636  0.15972718  1
  I  I109  1  0.00002177  0.16609626  0.49946646  1
  I  I110  1  -0.00168214  0.16766344  0.83978860  1
  I  I111  1  -0.00021613  0.50052975  0.16143038  1
  I  I112  1  -0.00113962  0.49875150  0.50734984  1
  I  I113  1  -0.00321953  0.49841150  0.83134629  1
  I  I114  1  0.00184980  0.83382091  0.16406199  1
  I  I115  1  -0.00015949  0.83748697  0.49644961  1
  I  I116  1  -0.00382370  0.83192750  0.83727329  1
  I  I117  1  0.33655280  0.16467959  0.16507820  1
  I  I118  1  0.33715697  0.17060679  0.49859387  1
  I  I119  1  0.33501544  0.17312217  0.83433013  1
  I  I120  1  0.33354948  0.49476408  0.16719647  1
  I  I121  1  0.33148350  0.49739588  0.50048780  1
  I  I122  1  0.33605374  0.49306017  0.83284252  1
  I  I123  1  0.33447290  0.84068271  0.16541855  1
  I  I124  1  0.33349282  0.82978220  0.50415349  1
  I  I125  1  0.33331152  0.83279981  0.83276259  1
  I  I126  1  0.66552541  0.16125834  0.16110380  1
  I  I127  1  0.66377840  0.16996762  0.50421503  1
  I  I128  1  0.66666669  0.16787492  0.83454176  1
  I  I129  1  0.66666666  0.50555754  0.17222446  1
  I  I130  1  0.66922068  0.49814490  0.50348817  1
  I  I131  1  0.66780794  0.49443737  0.82792565  1
  I  I132  1  0.66411256  0.83682226  0.16481152  1
  I  I133  1  0.66666666  0.83032265  0.49698895  1
  I  I134  1  0.66955492  0.83754843  0.83663453  1
