# generated using pymatgen
data_Cs27Sn13Pb14I81
_symmetry_space_group_name_H-M   'P 1'
_cell_length_a   18.97904836
_cell_length_b   18.97309542
_cell_length_c   18.97904834
_cell_angle_alpha   89.99992262
_cell_angle_beta   89.99870339
_cell_angle_gamma   90.00007733
_symmetry_Int_Tables_number   1
_chemical_formula_structural   Cs27Sn13Pb14I81
_chemical_formula_sum   'Cs27 Sn13 Pb14 I81'
_cell_volume   6834.19010390
_cell_formula_units_Z   1
loop_
 _symmetry_equiv_pos_site_id
 _symmetry_equiv_pos_as_xyz
  1  'x, y, z'
loop_
 _atom_site_type_symbol
 _atom_site_label
 _atom_site_symmetry_multiplicity
 _atom_site_fract_x
 _atom_site_fract_y
 _atom_site_fract_z
 _atom_site_occupancy
  Cs  Cs0  1  -0.00222684  -0.00078436  0.00085781  1
  Cs  Cs1  1  -0.00018481  0.00101699  0.33245704  1
  Cs  Cs2  1  0.00071960  -0.00068256  0.66594708  1
  Cs  Cs3  1  -0.00187699  0.33400008  -0.00118777  1
  Cs  Cs4  1  -0.00277320  0.33011566  0.33534931  1
  Cs  Cs5  1  0.00093655  0.34256175  0.66572991  1
  Cs  Cs6  1  0.00170095  0.66556501  -0.00175640  1
  Cs  Cs7  1  0.00468441  0.66759499  0.33269222  1
  Cs  Cs8  1  -0.00236798  0.65522553  0.66903486  1
  Cs  Cs9  1  0.33413716  -0.00058151  -0.00120826  1
  Cs  Cs10  1  0.33221281  -0.00108383  0.33445384  1
  Cs  Cs11  1  0.33420956  0.00101698  0.66685147  1
  Cs  Cs12  1  0.33429060  0.33585793  -0.00016527  1
  Cs  Cs13  1  0.33606264  0.33499813  0.33060405  1
  Cs  Cs14  1  0.33131742  0.33011561  0.66943986  1
  Cs  Cs15  1  0.33355339  0.66520678  0.00181560  1
  Cs  Cs16  1  0.32959673  0.66278160  0.33706987  1
  Cs  Cs17  1  0.33397433  0.66759498  0.66198230  1
  Cs  Cs18  1  0.66698899  -0.00090223  -0.00032236  1
  Cs  Cs19  1  0.66787486  -0.00058156  0.33252963  1
  Cs  Cs20  1  0.66580879  -0.00078440  0.66889349  1
  Cs  Cs21  1  0.66586021  0.32861031  0.00080660  1
  Cs  Cs22  1  0.66683203  0.33585793  0.33237617  1
  Cs  Cs23  1  0.66785435  0.33400018  0.66854358  1
  Cs  Cs24  1  0.66535288  0.66957775  0.00131383  1
  Cs  Cs25  1  0.66485100  0.66520699  0.33311333  1
  Cs  Cs26  1  0.66842306  0.66556478  0.66496583  1
  Sn  Sn27  1  0.16639517  0.16559139  0.83358828  1
  Sn  Sn28  1  0.50006841  0.50136815  0.83339131  1
  Sn  Sn29  1  0.49902167  0.83235435  0.83388396  1
  Sn  Sn30  1  0.16674032  0.16609555  0.49992634  1
  Sn  Sn31  1  0.83307833  0.16559136  0.50027149  1
  Sn  Sn32  1  0.16758661  0.16622574  0.16646842  1
  Sn  Sn33  1  0.50003129  0.83386932  0.16663539  1
  Sn  Sn34  1  0.50019828  0.16622574  0.49908008  1
  Sn  Sn35  1  0.49912779  0.16555946  0.16753891  1
  Sn  Sn36  1  0.83355591  0.83395465  0.49932328  1
  Sn  Sn37  1  0.83327534  0.50136811  0.16659825  1
  Sn  Sn38  1  0.83278272  0.83235432  0.16764502  1
  Sn  Sn39  1  0.16734340  0.83395460  0.83311076  1
  Pb  Pb40  1  0.83664870  0.16662370  0.83001796  1
  Pb  Pb41  1  0.83300454  0.16591650  0.16812695  1
  Pb  Pb42  1  0.83336745  0.83341963  0.83329923  1
  Pb  Pb43  1  0.50137478  0.50025564  0.16529193  1
  Pb  Pb44  1  0.16697804  0.49724430  0.49968864  1
  Pb  Pb45  1  0.16391651  0.83509040  0.50275014  1
  Pb  Pb46  1  0.16413356  0.49703186  0.16660696  1
  Pb  Pb47  1  0.49853977  0.16591654  0.83366216  1
  Pb  Pb48  1  0.50005969  0.49703192  0.50253311  1
  Pb  Pb49  1  0.83040497  0.50011079  0.83626172  1
  Pb  Pb50  1  0.16691071  0.83513686  0.16506284  1
  Pb  Pb51  1  0.83313702  0.50045142  0.49763669  1
  Pb  Pb52  1  0.50160381  0.83513690  0.49975600  1
  Pb  Pb53  1  0.16902993  0.50045136  0.83352967  1
  I  I54  1  0.16555385  0.00366387  0.16870111  1
  I  I55  1  0.16832720  0.00388197  0.49833972  1
  I  I56  1  0.17307787  0.00078200  0.83298877  1
  I  I57  1  0.17137386  0.32816183  0.16465327  1
  I  I58  1  0.16294686  0.32773842  0.50371966  1
  I  I59  1  0.16814813  0.33007867  0.83195695  1
  I  I60  1  0.16829071  0.66694954  0.16380533  1
  I  I61  1  0.16462728  0.66718465  0.50203949  1
  I  I62  1  0.16764562  0.66993701  0.83475153  1
  I  I63  1  0.50288442  0.00007577  0.16378240  1
  I  I64  1  0.49796573  0.00366385  0.50111270  1
  I  I65  1  0.49798058  -0.00269732  0.83449577  1
  I  I66  1  0.49835699  0.33015633  0.16830943  1
  I  I67  1  0.50201318  0.32816187  0.49529286  1
  I  I68  1  0.49902038  0.33453495  0.83292090  1
  I  I69  1  0.50390267  0.66994929  0.16276397  1
  I  I70  1  0.50286157  0.66694947  0.49837606  1
  I  I71  1  0.49501715  0.66873328  0.84007595  1
  I  I72  1  0.83217086  -0.00269732  0.16868612  1
  I  I73  1  0.83367769  0.00078203  0.49358851  1
  I  I74  1  0.82877282  0.00001982  0.83789419  1
  I  I75  1  0.83374592  0.33453488  0.16764601  1
  I  I76  1  0.83471011  0.33007871  0.49851872  1
  I  I77  1  0.83218467  0.33322198  0.83448203  1
  I  I78  1  0.82659067  0.66873326  0.17164972  1
  I  I79  1  0.83191492  0.66993704  0.49902116  1
  I  I80  1  0.83846314  0.66696210  0.82820304  1
  I  I81  1  0.17211126  0.16326752  0.00017344  1
  I  I82  1  0.16650835  0.16751147  0.33349910  1
  I  I83  1  0.16762212  0.16222430  0.66651671  1
  I  I84  1  0.16513861  0.49530241  -0.00004584  1
  I  I85  1  0.16755934  0.49934416  0.33302258  1
  I  I86  1  0.16536679  0.49725307  0.66690194  1
  I  I87  1  0.16599281  0.84076313  -0.00287646  1
  I  I88  1  0.16801833  0.83539526  0.33343897  1
  I  I89  1  0.17261046  0.84083717  0.67053988  1
  I  I90  1  0.49627179  0.16643706  0.00282991  1
  I  I91  1  0.49565567  0.16178106  0.33254047  1
  I  I92  1  0.49943533  0.16698171  0.66434275  1
  I  I93  1  0.50111189  0.49844322  -0.00263454  1
  I  I94  1  0.50162393  0.50041561  0.33315990  1
  I  I95  1  0.49992743  0.50505572  0.67047022  1
  I  I96  1  0.50287739  0.83649127  0.00061357  1
  I  I97  1  0.50371864  0.83760100  0.33027275  1
  I  I98  1  0.49797155  0.83229975  0.66938296  1
  I  I99  1  0.83332664  0.16690567  0.00013245  1
  I  I100  1  0.83780445  0.16552867  0.33613165  1
  I  I101  1  0.83003394  0.16017246  0.66175065  1
  I  I102  1  0.83404057  0.50527222  0.00384670  1
  I  I103  1  0.83081744  0.49971093  0.33010008  1
  I  I104  1  0.83358606  0.49932299  0.66663746  1
  I  I105  1  0.83192269  0.83027846  0.00307926  1
  I  I106  1  0.82777533  0.83481249  0.33232087  1
  I  I107  1  0.83291693  0.84015214  0.66395018  1
  I  I108  1  0.00232388  0.16698173  0.16723103  1
  I  I109  1  0.00015000  0.16222405  0.49904451  1
  I  I110  1  0.00491601  0.16017262  0.83663323  1
  I  I111  1  -0.00380355  0.50505589  0.16673973  1
  I  I112  1  -0.00023526  0.49725330  0.50129977  1
  I  I113  1  0.00002919  0.49932319  0.83308053  1
  I  I114  1  -0.00271632  0.83229963  0.16869499  1
  I  I115  1  -0.00387322  0.84083736  0.49405626  1
  I  I116  1  0.00271646  0.84015170  0.83374965  1
  I  I117  1  0.33412614  0.16178092  0.17101090  1
  I  I118  1  0.33316753  0.16751152  0.50015822  1
  I  I119  1  0.33053499  0.16552837  0.82886232  1
  I  I120  1  0.33350678  0.50041559  0.16504320  1
  I  I121  1  0.33364406  0.49934423  0.49910715  1
  I  I122  1  0.33656653  0.49971128  0.83584859  1
  I  I123  1  0.33639393  0.83760115  0.16294793  1
  I  I124  1  0.33322769  0.83539519  0.49864839  1
  I  I125  1  0.33434579  0.83481257  0.83889148  1
  I  I126  1  0.66383675  0.16643726  0.17039520  1
  I  I127  1  0.66649329  0.16326772  0.49455557  1
  I  I128  1  0.66653424  0.16690559  0.83333945  1
  I  I129  1  0.66930121  0.49844301  0.16555391  1
  I  I130  1  0.66671246  0.49530199  0.50152827  1
  I  I131  1  0.66281998  0.50527205  0.83262669  1
  I  I132  1  0.66605307  0.83649120  0.16378940  1
  I  I133  1  0.66954314  0.84076325  0.50067365  1
  I  I134  1  0.66358741  0.83027870  0.83474392  1
