# generated using pymatgen
data_Cs27Sn14Pb13I81
_symmetry_space_group_name_H-M   'P 1'
_cell_length_a   18.98473882
_cell_length_b   18.97639528
_cell_length_c   18.96590917
_cell_angle_alpha   89.99723185
_cell_angle_beta   90.00196529
_cell_angle_gamma   89.99987072
_symmetry_Int_Tables_number   1
_chemical_formula_structural   Cs27Sn14Pb13I81
_chemical_formula_sum   'Cs27 Sn14 Pb13 I81'
_cell_volume   6832.69461388
_cell_formula_units_Z   1
loop_
 _symmetry_equiv_pos_site_id
 _symmetry_equiv_pos_as_xyz
  1  'x, y, z'
loop_
 _atom_site_type_symbol
 _atom_site_label
 _atom_site_symmetry_multiplicity
 _atom_site_fract_x
 _atom_site_fract_y
 _atom_site_fract_z
 _atom_site_occupancy
  Cs  Cs0  1  0.00082018  0.00132145  0.00006780  1
  Cs  Cs1  1  0.00088101  -0.00512179  0.33004820  1
  Cs  Cs2  1  -0.00126880  -0.00294624  0.66730133  1
  Cs  Cs3  1  0.00298146  0.33260767  -0.00225205  1
  Cs  Cs4  1  -0.00126114  0.33625446  0.33353192  1
  Cs  Cs5  1  0.00110200  0.33363681  0.66828381  1
  Cs  Cs6  1  -0.00279637  0.66591968  -0.00133746  1
  Cs  Cs7  1  -0.00011996  0.66749337  0.33391835  1
  Cs  Cs8  1  -0.00162103  0.66879956  0.66770773  1
  Cs  Cs9  1  0.33014993  -0.00279402  0.00771983  1
  Cs  Cs10  1  0.33040345  -0.00353774  0.32745853  1
  Cs  Cs11  1  0.33598913  0.00281462  0.66645776  1
  Cs  Cs12  1  0.32945887  0.33407274  0.00077975  1
  Cs  Cs13  1  0.33502543  0.33575230  0.33693657  1
  Cs  Cs14  1  0.33071254  0.33080365  0.66440396  1
  Cs  Cs15  1  0.34522041  0.66877735  -0.00091000  1
  Cs  Cs16  1  0.32986420  0.66615915  0.33145599  1
  Cs  Cs17  1  0.33576673  0.66744810  0.66837667  1
  Cs  Cs18  1  0.66766617  -0.00083869  -0.00003620  1
  Cs  Cs19  1  0.66878244  0.00432382  0.33429736  1
  Cs  Cs20  1  0.66700067  0.00136871  0.66645204  1
  Cs  Cs21  1  0.66608953  0.33445479  0.00367072  1
  Cs  Cs22  1  0.66688044  0.33283663  0.33389711  1
  Cs  Cs23  1  0.66797671  0.32985737  0.66413019  1
  Cs  Cs24  1  0.66197035  0.66664244  -0.00276372  1
  Cs  Cs25  1  0.66986675  0.66450219  0.33425426  1
  Cs  Cs26  1  0.66687638  0.66775816  0.66868207  1
  Sn  Sn27  1  0.83359351  0.49932792  0.49969164  1
  Sn  Sn28  1  0.16647034  0.83313280  0.83318538  1
  Sn  Sn29  1  0.50053865  0.16668720  0.83313102  1
  Sn  Sn30  1  0.49978344  0.16626670  0.50023430  1
  Sn  Sn31  1  0.16579670  0.50034443  0.16700354  1
  Sn  Sn32  1  0.16618658  0.49957801  0.49974372  1
  Sn  Sn33  1  0.50017000  0.50037075  0.50017271  1
  Sn  Sn34  1  0.16613445  0.16666684  0.49986012  1
  Sn  Sn35  1  0.50002638  0.83362086  0.49968029  1
  Sn  Sn36  1  0.83307926  0.83243937  0.16567250  1
  Sn  Sn37  1  0.83435852  0.50087778  0.16726311  1
  Sn  Sn38  1  0.83250322  0.16606414  0.83258152  1
  Sn  Sn39  1  0.83417508  0.16724882  0.50067771  1
  Sn  Sn40  1  0.83401205  0.83412451  0.83428172  1
  Pb  Pb41  1  0.16678749  0.50245428  0.83317604  1
  Pb  Pb42  1  0.16644269  0.16940811  0.16978920  1
  Pb  Pb43  1  0.83183660  0.83340919  0.50027398  1
  Pb  Pb44  1  0.83343288  0.16728135  0.16652501  1
  Pb  Pb45  1  0.50320302  0.83334729  0.16961290  1
  Pb  Pb46  1  0.16657286  0.16480436  0.83138162  1
  Pb  Pb47  1  0.16445859  0.83029413  0.16401898  1
  Pb  Pb48  1  0.49988203  0.16672454  0.16675157  1
  Pb  Pb49  1  0.16886936  0.83300459  0.50148615  1
  Pb  Pb50  1  0.50025439  0.49990391  0.16892325  1
  Pb  Pb51  1  0.50052545  0.83582516  0.83161565  1
  Pb  Pb52  1  0.83323860  0.49945470  0.83338985  1
  Pb  Pb53  1  0.50006021  0.49645242  0.83052296  1
  I  I54  1  0.16614721  -0.00039907  0.16782560  1
  I  I55  1  0.16662441  0.00266915  0.50385534  1
  I  I56  1  0.16412926  -0.00283481  0.82974669  1
  I  I57  1  0.15911161  0.33739502  0.16688051  1
  I  I58  1  0.17065242  0.33373592  0.49764401  1
  I  I59  1  0.16648785  0.33322984  0.83496970  1
  I  I60  1  0.16375900  0.66284766  0.17662141  1
  I  I61  1  0.16629950  0.66334602  0.49736750  1
  I  I62  1  0.15883984  0.67009376  0.82978024  1
  I  I63  1  0.50142415  -0.00014717  0.17098004  1
  I  I64  1  0.50155470  0.00145177  0.50485693  1
  I  I65  1  0.50244959  0.00334152  0.82346107  1
  I  I66  1  0.50331489  0.33354255  0.16792909  1
  I  I67  1  0.50009067  0.33308800  0.50318588  1
  I  I68  1  0.50668889  0.32860371  0.82728358  1
  I  I69  1  0.49828437  0.66660750  0.16831917  1
  I  I70  1  0.50072325  0.66577682  0.49892755  1
  I  I71  1  0.49993706  0.66686471  0.83093259  1
  I  I72  1  0.83191098  -0.00236322  0.16671525  1
  I  I73  1  0.83212414  0.00277304  0.50076236  1
  I  I74  1  0.83326435  0.00035876  0.83195845  1
  I  I75  1  0.83621479  0.33657806  0.16905621  1
  I  I76  1  0.82939544  0.33333136  0.49966218  1
  I  I77  1  0.82911733  0.33009825  0.83093568  1
  I  I78  1  0.83723993  0.66572387  0.16876879  1
  I  I79  1  0.83306697  0.66398522  0.49917033  1
  I  I80  1  0.83765406  0.66925881  0.83279864  1
  I  I81  1  0.16716399  0.16759252  -0.00012515  1
  I  I82  1  0.16716173  0.16640376  0.33845500  1
  I  I83  1  0.16714599  0.17360391  0.66292367  1
  I  I84  1  0.15913018  0.50096442  0.00298093  1
  I  I85  1  0.16613823  0.49646315  0.33526133  1
  I  I86  1  0.16614599  0.49644164  0.66284077  1
  I  I87  1  0.16537161  0.83425610  -0.00363167  1
  I  I88  1  0.16668666  0.83575634  0.33325894  1
  I  I89  1  0.15863453  0.83153579  0.66902695  1
  I  I90  1  0.50708093  0.16525588  -0.00342966  1
  I  I91  1  0.50216428  0.16808040  0.33800972  1
  I  I92  1  0.50156971  0.16711561  0.66452266  1
  I  I93  1  0.49948943  0.49935261  0.00000173  1
  I  I94  1  0.50069930  0.49595435  0.33786300  1
  I  I95  1  0.50055952  0.50253538  0.66168989  1
  I  I96  1  0.49770007  0.83486696  -0.00011636  1
  I  I97  1  0.50006737  0.83631023  0.33782193  1
  I  I98  1  0.50275407  0.83092021  0.66349423  1
  I  I99  1  0.82782045  0.16547965  -0.00327961  1
  I  I100  1  0.83122016  0.16737179  0.33684293  1
  I  I101  1  0.83192133  0.16644124  0.66540307  1
  I  I102  1  0.83920976  0.50027331  0.00300386  1
  I  I103  1  0.83315908  0.50042315  0.33485075  1
  I  I104  1  0.83363091  0.49932987  0.66317273  1
  I  I105  1  0.83735250  0.83360308  -0.00078892  1
  I  I106  1  0.83071032  0.83217137  0.33153778  1
  I  I107  1  0.83513383  0.83428384  0.66907705  1
  I  I108  1  -0.00022999  0.16426244  0.16639664  1
  I  I109  1  -0.00095879  0.17422352  0.50420615  1
  I  I110  1  -0.00302266  0.16461845  0.82858064  1
  I  I111  1  -0.00103577  0.50354351  0.17680775  1
  I  I112  1  -0.00043401  0.49292354  0.49590539  1
  I  I113  1  -0.00013490  0.49639791  0.82813152  1
  I  I114  1  -0.00349072  0.83204147  0.16796038  1
  I  I115  1  -0.00015903  0.83384423  0.49896380  1
  I  I116  1  -0.00184890  0.83897619  0.83477815  1
  I  I117  1  0.33306034  0.16783121  0.16564929  1
  I  I118  1  0.33395077  0.17051763  0.50450534  1
  I  I119  1  0.33578762  0.16614534  0.82617866  1
  I  I120  1  0.33046518  0.49846275  0.17190798  1
  I  I121  1  0.33310855  0.49683021  0.49698326  1
  I  I122  1  0.33338486  0.50165032  0.83374423  1
  I  I123  1  0.33322915  0.83243011  0.16521340  1
  I  I124  1  0.33669689  0.83369601  0.50382296  1
  I  I125  1  0.33164134  0.83295972  0.82905713  1
  I  I126  1  0.66700685  0.16894253  0.17188861  1
  I  I127  1  0.66694943  0.16919925  0.50360382  1
  I  I128  1  0.66786393  0.16069088  0.82321147  1
  I  I129  1  0.67011490  0.50285875  0.17101524  1
  I  I130  1  0.66731560  0.49716229  0.49634622  1
  I  I131  1  0.66680874  0.50578121  0.83396439  1
  I  I132  1  0.67102509  0.82633922  0.15969510  1
  I  I133  1  0.66402889  0.83322812  0.50150530  1
  I  I134  1  0.66973829  0.83521891  0.83573588  1
