# generated using pymatgen
data_Cs27Sn14Pb13I81
_symmetry_space_group_name_H-M   'P 1'
_cell_length_a   18.97303721
_cell_length_b   18.98196244
_cell_length_c   18.97142854
_cell_angle_alpha   89.99941086
_cell_angle_beta   89.99903161
_cell_angle_gamma   90.00033707
_symmetry_Int_Tables_number   1
_chemical_formula_structural   Cs27Sn14Pb13I81
_chemical_formula_sum   'Cs27 Sn14 Pb13 I81'
_cell_volume   6832.47422987
_cell_formula_units_Z   1
loop_
 _symmetry_equiv_pos_site_id
 _symmetry_equiv_pos_as_xyz
  1  'x, y, z'
loop_
 _atom_site_type_symbol
 _atom_site_label
 _atom_site_symmetry_multiplicity
 _atom_site_fract_x
 _atom_site_fract_y
 _atom_site_fract_z
 _atom_site_occupancy
  Cs  Cs0  1  0.00103193  -0.00053245  0.00060975  1
  Cs  Cs1  1  0.00088311  -0.00349143  0.33169045  1
  Cs  Cs2  1  0.00241084  0.00151084  0.66866098  1
  Cs  Cs3  1  0.00708181  0.33537619  -0.00158363  1
  Cs  Cs4  1  0.00081639  0.33185070  0.33386318  1
  Cs  Cs5  1  -0.00551467  0.33458306  0.66610307  1
  Cs  Cs6  1  0.00115053  0.66615479  -0.00307547  1
  Cs  Cs7  1  -0.00318227  0.67078255  0.33406353  1
  Cs  Cs8  1  -0.00186916  0.66362159  0.66837269  1
  Cs  Cs9  1  0.33148322  0.00138177  -0.00048812  1
  Cs  Cs10  1  0.33217706  -0.00155587  0.33655705  1
  Cs  Cs11  1  0.33596518  -0.00045643  0.66482675  1
  Cs  Cs12  1  0.33026223  0.33579508  0.00077685  1
  Cs  Cs13  1  0.33257852  0.33407706  0.33266653  1
  Cs  Cs14  1  0.33326950  0.33312146  0.66593343  1
  Cs  Cs15  1  0.33362627  0.66363156  0.00012373  1
  Cs  Cs16  1  0.33431580  0.66656066  0.33645168  1
  Cs  Cs17  1  0.33372321  0.66811336  0.66213041  1
  Cs  Cs18  1  0.66695277  -0.00077336  -0.00226419  1
  Cs  Cs19  1  0.66780438  0.00123249  0.33225761  1
  Cs  Cs20  1  0.66059411  0.00825785  0.67573371  1
  Cs  Cs21  1  0.66418054  0.33211181  0.00189694  1
  Cs  Cs22  1  0.66721854  0.33417727  0.33430318  1
  Cs  Cs23  1  0.67366516  0.32635493  0.66479390  1
  Cs  Cs24  1  0.66596641  0.66846759  0.00300634  1
  Cs  Cs25  1  0.66817396  0.66506791  0.33069301  1
  Cs  Cs26  1  0.66861148  0.66661814  0.67249795  1
  Sn  Sn27  1  0.50005313  0.49997996  0.50035385  1
  Sn  Sn28  1  0.50047555  0.16665134  0.16698591  1
  Sn  Sn29  1  0.49982016  0.83358371  0.16692252  1
  Sn  Sn30  1  0.50025427  0.49975514  0.83293814  1
  Sn  Sn31  1  0.16691822  0.83295359  0.16589762  1
  Sn  Sn32  1  0.16691230  0.16618918  0.83210082  1
  Sn  Sn33  1  0.16678505  0.49927810  0.49963725  1
  Sn  Sn34  1  0.83322849  0.83338184  0.16728691  1
  Sn  Sn35  1  0.16666362  0.16743604  0.50082351  1
  Sn  Sn36  1  0.83311408  0.49981980  0.16664556  1
  Sn  Sn37  1  0.83291291  0.16674668  0.16673190  1
  Sn  Sn38  1  0.83222093  0.83407459  0.50030036  1
  Sn  Sn39  1  0.16698207  0.83367527  0.83387209  1
  Sn  Sn40  1  0.50059535  0.49988473  0.16692521  1
  Pb  Pb41  1  0.50325536  0.83143339  0.49828613  1
  Pb  Pb42  1  0.16849365  0.50022309  0.83058470  1
  Pb  Pb43  1  0.83542808  0.16391046  0.49781970  1
  Pb  Pb44  1  0.83589973  0.16674465  0.83642290  1
  Pb  Pb45  1  0.83043353  0.49985572  0.83645218  1
  Pb  Pb46  1  0.49764952  0.16895723  0.83577155  1
  Pb  Pb47  1  0.49821026  0.16875042  0.49770421  1
  Pb  Pb48  1  0.16678065  0.16471826  0.16691957  1
  Pb  Pb49  1  0.49757249  0.83156233  0.83556061  1
  Pb  Pb50  1  0.16674589  0.50265607  0.16878047  1
  Pb  Pb51  1  0.83524391  0.83350464  0.83364027  1
  Pb  Pb52  1  0.16525228  0.83318048  0.50032111  1
  Pb  Pb53  1  0.83287049  0.50161082  0.49805136  1
  I  I54  1  0.16632659  -0.00328056  0.16787078  1
  I  I55  1  0.16386250  0.00191720  0.49957317  1
  I  I56  1  0.16619490  -0.00018516  0.83285696  1
  I  I57  1  0.16610086  0.33344612  0.16453185  1
  I  I58  1  0.17044764  0.33344551  0.50353098  1
  I  I59  1  0.16851758  0.33104482  0.83313305  1
  I  I60  1  0.16638728  0.67069552  0.16272707  1
  I  I61  1  0.16999753  0.66451456  0.49836515  1
  I  I62  1  0.16745122  0.66905535  0.83779258  1
  I  I63  1  0.50210195  -0.00042922  0.16654074  1
  I  I64  1  0.49773344  0.00002856  0.49684390  1
  I  I65  1  0.50039007  0.00017916  0.83551319  1
  I  I66  1  0.50639802  0.33434396  0.16681949  1
  I  I67  1  0.49820051  0.33709195  0.49584683  1
  I  I68  1  0.49618476  0.33673241  0.83791360  1
  I  I69  1  0.50216636  0.66613338  0.16649509  1
  I  I70  1  0.49156795  0.66311547  0.49620775  1
  I  I71  1  0.49715674  0.66353160  0.83667310  1
  I  I72  1  0.83167563  -0.00081411  0.17057827  1
  I  I73  1  0.83762204  -0.00351429  0.49022333  1
  I  I74  1  0.83170898  0.00005362  0.83590088  1
  I  I75  1  0.82557975  0.33354169  0.16635100  1
  I  I76  1  0.83306277  0.33319589  0.49770615  1
  I  I77  1  0.83688444  0.33336039  0.83441617  1
  I  I78  1  0.83059937  0.66717803  0.17046700  1
  I  I79  1  0.83703241  0.66922198  0.49109357  1
  I  I80  1  0.83701408  0.66664698  0.83533297  1
  I  I81  1  0.16654650  0.16368829  -0.00159306  1
  I  I82  1  0.16672970  0.16928765  0.33527461  1
  I  I83  1  0.16737829  0.16379711  0.66664501  1
  I  I84  1  0.16704586  0.49787168  0.00019988  1
  I  I85  1  0.17224558  0.49549745  0.33630465  1
  I  I86  1  0.17230936  0.50208437  0.66287203  1
  I  I87  1  0.16478402  0.83868498  0.00123738  1
  I  I88  1  0.16753025  0.83350281  0.33061312  1
  I  I89  1  0.16403076  0.83378140  0.66897766  1
  I  I90  1  0.50126602  0.16850363  0.00424732  1
  I  I91  1  0.50079634  0.16861587  0.32918330  1
  I  I92  1  0.50013508  0.16822780  0.66668684  1
  I  I93  1  0.50407353  0.50064945  0.00198605  1
  I  I94  1  0.49941634  0.50047747  0.33184878  1
  I  I95  1  0.49132687  0.50192864  0.66599976  1
  I  I96  1  0.50501608  0.83062146  0.00455462  1
  I  I97  1  0.49416252  0.83078259  0.32907239  1
  I  I98  1  0.49938987  0.83027936  0.66668565  1
  I  I99  1  0.83099363  0.16306465  0.00490994  1
  I  I100  1  0.83213835  0.16835523  0.32934249  1
  I  I101  1  0.83294707  0.16499458  0.66656471  1
  I  I102  1  0.82942113  0.50399116  0.00505811  1
  I  I103  1  0.82795063  0.49955391  0.32957873  1
  I  I104  1  0.83319113  0.50342856  0.66651923  1
  I  I105  1  0.83161413  0.83298993  0.00410973  1
  I  I106  1  0.83695477  0.83251029  0.33028015  1
  I  I107  1  0.83844330  0.82987980  0.66407873  1
  I  I108  1  -0.00230637  0.16590197  0.16690425  1
  I  I109  1  0.00353992  0.17333122  0.50083564  1
  I  I110  1  0.00400349  0.16345073  0.83248867  1
  I  I111  1  -0.00245242  0.50005211  0.16929749  1
  I  I112  1  0.00229328  0.49825138  0.49792686  1
  I  I113  1  0.00023197  0.50030958  0.83390854  1
  I  I114  1  -0.00050604  0.83402837  0.16743893  1
  I  I115  1  -0.00214337  0.83103551  0.49096877  1
  I  I116  1  0.00347302  0.83568814  0.84017798  1
  I  I117  1  0.33583182  0.16790476  0.16637953  1
  I  I118  1  0.33000877  0.16660301  0.50003383  1
  I  I119  1  0.32982325  0.16253238  0.83281518  1
  I  I120  1  0.33653159  0.49961468  0.16518341  1
  I  I121  1  0.33376629  0.49762030  0.49623359  1
  I  I122  1  0.33615334  0.49994144  0.84136304  1
  I  I123  1  0.33355653  0.83300267  0.16205847  1
  I  I124  1  0.33350231  0.83380011  0.49799471  1
  I  I125  1  0.32959568  0.83663449  0.83884048  1
  I  I126  1  0.66640387  0.16342547  0.16712634  1
  I  I127  1  0.66671045  0.16775943  0.50014204  1
  I  I128  1  0.66636410  0.16769990  0.83241064  1
  I  I129  1  0.66540408  0.50420255  0.16819701  1
  I  I130  1  0.66372578  0.50318682  0.49880169  1
  I  I131  1  0.66233338  0.50125571  0.82941866  1
  I  I132  1  0.66678913  0.83182151  0.17174216  1
  I  I133  1  0.67063800  0.82998620  0.49039048  1
  I  I134  1  0.66637683  0.83110192  0.83404146  1
