# generated using pymatgen
data_Cs27Sn13Pb14I81
_symmetry_space_group_name_H-M   'P 1'
_cell_length_a   18.97912203
_cell_length_b   18.97237274
_cell_length_c   18.97901734
_cell_angle_alpha   90.00180992
_cell_angle_beta   89.99935752
_cell_angle_gamma   90.00101365
_symmetry_Int_Tables_number   1
_chemical_formula_structural   Cs27Sn13Pb14I81
_chemical_formula_sum   'Cs27 Sn13 Pb14 I81'
_cell_volume   6833.94515052
_cell_formula_units_Z   1
loop_
 _symmetry_equiv_pos_site_id
 _symmetry_equiv_pos_as_xyz
  1  'x, y, z'
loop_
 _atom_site_type_symbol
 _atom_site_label
 _atom_site_symmetry_multiplicity
 _atom_site_fract_x
 _atom_site_fract_y
 _atom_site_fract_z
 _atom_site_occupancy
  Cs  Cs0  1  0.00166337  0.00453428  0.00151394  1
  Cs  Cs1  1  -0.00198907  -0.00441461  0.33532284  1
  Cs  Cs2  1  0.00029735  -0.00036305  0.66397080  1
  Cs  Cs3  1  -0.00159399  0.33157995  -0.00071619  1
  Cs  Cs4  1  -0.00109231  0.33317226  0.33248440  1
  Cs  Cs5  1  0.00089346  0.33447531  0.66937409  1
  Cs  Cs6  1  -0.00369326  0.67048102  -0.00245578  1
  Cs  Cs7  1  0.00703213  0.67367814  0.33489402  1
  Cs  Cs8  1  -0.00118164  0.66788687  0.66695111  1
  Cs  Cs9  1  0.33465780  0.00022153  -0.00295052  1
  Cs  Cs10  1  0.33193023  0.00008777  0.33303357  1
  Cs  Cs11  1  0.33613527  0.00182831  0.66947259  1
  Cs  Cs12  1  0.33305078  0.33284888  0.00050637  1
  Cs  Cs13  1  0.33275562  0.33589505  0.33126918  1
  Cs  Cs14  1  0.33385144  0.33350088  0.66661327  1
  Cs  Cs15  1  0.33556719  0.66666210  0.00655733  1
  Cs  Cs16  1  0.32992989  0.66635297  0.33010346  1
  Cs  Cs17  1  0.33317103  0.66466330  0.66399245  1
  Cs  Cs18  1  0.66372355  -0.00630078  -0.00097601  1
  Cs  Cs19  1  0.67103306  0.00034395  0.33736448  1
  Cs  Cs20  1  0.66202668  -0.00210980  0.66243946  1
  Cs  Cs21  1  0.67059854  0.33402576  0.00196920  1
  Cs  Cs22  1  0.66738333  0.33303173  0.33391375  1
  Cs  Cs23  1  0.66456626  0.33502751  0.66359079  1
  Cs  Cs24  1  0.66667834  0.67407336  -0.00072603  1
  Cs  Cs25  1  0.66386170  0.66600493  0.33223878  1
  Cs  Cs26  1  0.66710691  0.66419331  0.66846286  1
  Sn  Sn27  1  0.83303257  0.16725367  0.16577922  1
  Sn  Sn28  1  0.83314331  0.16664237  0.83336730  1
  Sn  Sn29  1  0.16657362  0.16715829  0.50011983  1
  Sn  Sn30  1  0.83332620  0.49983381  0.49868310  1
  Sn  Sn31  1  0.49939112  0.49949604  0.83338802  1
  Sn  Sn32  1  0.16660423  0.16714721  0.16693526  1
  Sn  Sn33  1  0.50049430  0.16680148  0.16655172  1
  Sn  Sn34  1  0.49975322  0.83228583  0.49994541  1
  Sn  Sn35  1  0.83360326  0.49985194  0.16776327  1
  Sn  Sn36  1  0.50038240  0.50086115  0.50026572  1
  Sn  Sn37  1  0.16600841  0.16688580  0.83310668  1
  Sn  Sn38  1  0.16678239  0.83320668  0.83339109  1
  Sn  Sn39  1  0.16754910  0.50027717  0.83360897  1
  Pb  Pb40  1  0.16672803  0.83600839  0.16412274  1
  Pb  Pb41  1  0.83116838  0.82985241  0.50015708  1
  Pb  Pb42  1  0.16666761  0.49847654  0.50156149  1
  Pb  Pb43  1  0.83340063  0.83361560  0.16673097  1
  Pb  Pb44  1  0.16886424  0.83579194  0.50221430  1
  Pb  Pb45  1  0.50194079  0.49844562  0.16664949  1
  Pb  Pb46  1  0.50035276  0.16856250  0.83504286  1
  Pb  Pb47  1  0.49991458  0.83618001  0.16938439  1
  Pb  Pb48  1  0.83315240  0.49844500  0.83352563  1
  Pb  Pb49  1  0.49797876  0.16755937  0.49784302  1
  Pb  Pb50  1  0.83528414  0.16843397  0.50010618  1
  Pb  Pb51  1  0.83541283  0.83709983  0.83306686  1
  Pb  Pb52  1  0.49767434  0.83032421  0.83160037  1
  Pb  Pb53  1  0.16385868  0.49829975  0.16390776  1
  I  I54  1  0.16391589  0.00505137  0.16502880  1
  I  I55  1  0.16781154  0.00401894  0.50127064  1
  I  I56  1  0.16188608  0.00192161  0.83397572  1
  I  I57  1  0.16847768  0.32949452  0.16409867  1
  I  I58  1  0.16868051  0.33025962  0.50278031  1
  I  I59  1  0.16643949  0.33210639  0.83321098  1
  I  I60  1  0.16562221  0.66648439  0.16557996  1
  I  I61  1  0.16465122  0.66655005  0.50275070  1
  I  I62  1  0.17118870  0.66573815  0.83124876  1
  I  I63  1  0.50107252  0.00455278  0.16648780  1
  I  I64  1  0.49669546  -0.00144296  0.49815838  1
  I  I65  1  0.49947211  0.00012454  0.83242363  1
  I  I66  1  0.49756988  0.33026715  0.16840015  1
  I  I67  1  0.50259723  0.33643471  0.50307264  1
  I  I68  1  0.49418655  0.33635835  0.82667506  1
  I  I69  1  0.50212079  0.66644185  0.16429840  1
  I  I70  1  0.50407735  0.66493007  0.50525586  1
  I  I71  1  0.49642106  0.66223963  0.83250348  1
  I  I72  1  0.83451899  0.00425678  0.16218168  1
  I  I73  1  0.83256787  0.00016781  0.49995112  1
  I  I74  1  0.83859641  0.00535160  0.84001789  1
  I  I75  1  0.83352176  0.33190793  0.16630657  1
  I  I76  1  0.82674161  0.33620557  0.49931213  1
  I  I77  1  0.84005731  0.33050209  0.83526832  1
  I  I78  1  0.83191714  0.66331902  0.16961006  1
  I  I79  1  0.83349671  0.66162307  0.49574826  1
  I  I80  1  0.83486441  0.66650893  0.83391550  1
  I  I81  1  0.16533923  0.16682577  -0.00058201  1
  I  I82  1  0.16744252  0.16789551  0.33257050  1
  I  I83  1  0.16248269  0.16702411  0.66832258  1
  I  I84  1  0.17181081  0.49678502  -0.00433102  1
  I  I85  1  0.16891324  0.49668065  0.33311737  1
  I  I86  1  0.16583173  0.49541450  0.66990099  1
  I  I87  1  0.16730009  0.83509583  -0.00397779  1
  I  I88  1  0.16736396  0.83555712  0.33349943  1
  I  I89  1  0.16708081  0.83660282  0.67006961  1
  I  I90  1  0.49575593  0.16962301  0.00293848  1
  I  I91  1  0.50024480  0.16837119  0.32998879  1
  I  I92  1  0.49930638  0.16565269  0.66652342  1
  I  I93  1  0.49618769  0.49603274  -0.00248776  1
  I  I94  1  0.50284725  0.50139616  0.33613405  1
  I  I95  1  0.50198068  0.50157873  0.66622723  1
  I  I96  1  0.49936765  0.83291815  -0.00010852  1
  I  I97  1  0.49875496  0.82588057  0.33702831  1
  I  I98  1  0.49903382  0.83401439  0.66377738  1
  I  I99  1  0.83934896  0.17366833  0.00071562  1
  I  I100  1  0.83432175  0.16921484  0.33035068  1
  I  I101  1  0.83991250  0.16910238  0.66918627  1
  I  I102  1  0.83453454  0.49505881  0.00219517  1
  I  I103  1  0.82654431  0.49175659  0.33338734  1
  I  I104  1  0.83189774  0.49773270  0.66477539  1
  I  I105  1  0.83229926  0.82825023  -0.00022032  1
  I  I106  1  0.83381642  0.83910963  0.33353079  1
  I  I107  1  0.83403103  0.83371311  0.66666344  1
  I  I108  1  0.00002628  0.17098071  0.16394944  1
  I  I109  1  0.00328665  0.16878053  0.49812058  1
  I  I110  1  0.00166082  0.16921379  0.83771498  1
  I  I111  1  -0.00384371  0.49231732  0.17106248  1
  I  I112  1  -0.00235946  0.49522523  0.49843066  1
  I  I113  1  0.00263494  0.49938078  0.83306280  1
  I  I114  1  0.00015790  0.83462558  0.16728375  1
  I  I115  1  0.00030449  0.83334567  0.50050260  1
  I  I116  1  0.00372715  0.82803621  0.83246507  1
  I  I117  1  0.33232336  0.16613113  0.16634181  1
  I  I118  1  0.33001973  0.16828578  0.50190744  1
  I  I119  1  0.33011498  0.16552323  0.83445770  1
  I  I120  1  0.33314686  0.49718550  0.16819572  1
  I  I121  1  0.33606772  0.50116148  0.50338975  1
  I  I122  1  0.33283579  0.49655429  0.82714827  1
  I  I123  1  0.33328679  0.83514854  0.16663622  1
  I  I124  1  0.33637955  0.82652070  0.50053309  1
  I  I125  1  0.32992287  0.84131773  0.83231747  1
  I  I126  1  0.66789093  0.17141813  0.16261686  1
  I  I127  1  0.66659964  0.16505898  0.49999833  1
  I  I128  1  0.66928399  0.17077113  0.83837538  1
  I  I129  1  0.66969025  0.49156105  0.16615730  1
  I  I130  1  0.66599919  0.50149538  0.50307593  1
  I  I131  1  0.66444063  0.49621621  0.83122645  1
  I  I132  1  0.66656863  0.83648674  0.16535911  1
  I  I133  1  0.66319065  0.83528135  0.50100067  1
  I  I134  1  0.66631818  0.83346978  0.83291027  1
