# generated using pymatgen
data_Cs27Sn14Pb13I81
_symmetry_space_group_name_H-M   'P 1'
_cell_length_a   18.97153294
_cell_length_b   18.98465764
_cell_length_c   18.97519268
_cell_angle_alpha   90.00033430
_cell_angle_beta   90.00000476
_cell_angle_gamma   90.00183547
_symmetry_Int_Tables_number   1
_chemical_formula_structural   Cs27Sn14Pb13I81
_chemical_formula_sum   'Cs27 Sn14 Pb13 I81'
_cell_volume   6834.25828983
_cell_formula_units_Z   1
loop_
 _symmetry_equiv_pos_site_id
 _symmetry_equiv_pos_as_xyz
  1  'x, y, z'
loop_
 _atom_site_type_symbol
 _atom_site_label
 _atom_site_symmetry_multiplicity
 _atom_site_fract_x
 _atom_site_fract_y
 _atom_site_fract_z
 _atom_site_occupancy
  Cs  Cs0  1  -0.00008952  0.00097714  0.00033176  1
  Cs  Cs1  1  -0.00768953  0.00643630  0.33199130  1
  Cs  Cs2  1  -0.00012380  -0.00018710  0.66871736  1
  Cs  Cs3  1  0.00010961  0.33497744  -0.00110235  1
  Cs  Cs4  1  0.00080520  0.32486110  0.33982541  1
  Cs  Cs5  1  0.00042449  0.33397524  0.66540720  1
  Cs  Cs6  1  0.00101237  0.66580043  -0.00077855  1
  Cs  Cs7  1  -0.00208207  0.66794765  0.33286175  1
  Cs  Cs8  1  0.00050387  0.66611654  0.66881653  1
  Cs  Cs9  1  0.33375801  -0.00086532  0.00098801  1
  Cs  Cs10  1  0.33378139  0.00016451  0.33340116  1
  Cs  Cs11  1  0.33624183  -0.00265870  0.66598737  1
  Cs  Cs12  1  0.33395735  0.33488967  0.00100624  1
  Cs  Cs13  1  0.33375891  0.33195645  0.33609408  1
  Cs  Cs14  1  0.33382014  0.33451134  0.66348332  1
  Cs  Cs15  1  0.33078026  0.66761158  0.00216542  1
  Cs  Cs16  1  0.33383970  0.66805957  0.33127667  1
  Cs  Cs17  1  0.33256485  0.66994153  0.66500419  1
  Cs  Cs18  1  0.66565760  0.00066426  0.00038032  1
  Cs  Cs19  1  0.66876397  -0.00025045  0.33285400  1
  Cs  Cs20  1  0.66262132  0.00023287  0.66683176  1
  Cs  Cs21  1  0.66588360  0.33731397  -0.00157720  1
  Cs  Cs22  1  0.66368437  0.33456364  0.33659215  1
  Cs  Cs23  1  0.66551910  0.33571559  0.66691264  1
  Cs  Cs24  1  0.66754983  0.66315609  -0.00015444  1
  Cs  Cs25  1  0.66810999  0.66677012  0.33493703  1
  Cs  Cs26  1  0.66742927  0.66446876  0.66596768  1
  Sn  Sn27  1  0.16667877  0.83323201  0.16715616  1
  Sn  Sn28  1  0.16531854  0.50032428  0.16646089  1
  Sn  Sn29  1  0.49958501  0.83411976  0.16734611  1
  Sn  Sn30  1  0.49974215  0.16587298  0.16710388  1
  Sn  Sn31  1  0.16590215  0.83344569  0.83353773  1
  Sn  Sn32  1  0.49925509  0.83412032  0.49867506  1
  Sn  Sn33  1  0.83402760  0.16669452  0.83365842  1
  Sn  Sn34  1  0.49975219  0.16557796  0.49906815  1
  Sn  Sn35  1  0.16621977  0.50008911  0.83405851  1
  Sn  Sn36  1  0.83459550  0.50000693  0.83421125  1
  Sn  Sn37  1  0.16656042  0.83362701  0.49928675  1
  Sn  Sn38  1  0.16636001  0.16661148  0.83351639  1
  Sn  Sn39  1  0.83397804  0.83333191  0.83365412  1
  Sn  Sn40  1  0.83492205  0.49974348  0.16645458  1
  Pb  Pb41  1  0.16854789  0.16374953  0.50271427  1
  Pb  Pb42  1  0.83347892  0.83179858  0.16445081  1
  Pb  Pb43  1  0.83080375  0.16957025  0.16435763  1
  Pb  Pb44  1  0.49970608  0.50094692  0.49980196  1
  Pb  Pb45  1  0.83386070  0.49998696  0.49998049  1
  Pb  Pb46  1  0.83060787  0.16650446  0.50287183  1
  Pb  Pb47  1  0.16819380  0.16673940  0.16483650  1
  Pb  Pb48  1  0.49970057  0.16668715  0.83342945  1
  Pb  Pb49  1  0.49974519  0.83309055  0.83375863  1
  Pb  Pb50  1  0.83331146  0.83341057  0.50253922  1
  Pb  Pb51  1  0.49918103  0.50022756  0.83332086  1
  Pb  Pb52  1  0.49949708  0.50058178  0.16669229  1
  Pb  Pb53  1  0.16651967  0.50246997  0.49951125  1
  I  I54  1  0.17063914  -0.00316612  0.16435260  1
  I  I55  1  0.16953988  -0.00433743  0.50066457  1
  I  I56  1  0.16111627  -0.00109142  0.83318156  1
  I  I57  1  0.16552124  0.33617622  0.15964847  1
  I  I58  1  0.16897135  0.33297799  0.50107731  1
  I  I59  1  0.16187081  0.33396088  0.83854277  1
  I  I60  1  0.16979092  0.66771520  0.16143425  1
  I  I61  1  0.17418100  0.67070311  0.50589816  1
  I  I62  1  0.16171321  0.66727483  0.83347913  1
  I  I63  1  0.49439229  -0.00131622  0.16938546  1
  I  I64  1  0.49550573  -0.00115543  0.49688283  1
  I  I65  1  0.50108588  -0.00014051  0.83362822  1
  I  I66  1  0.50044047  0.33087317  0.16974599  1
  I  I67  1  0.50144416  0.33031821  0.49675854  1
  I  I68  1  0.49995773  0.33314831  0.83305467  1
  I  I69  1  0.49836139  0.66993785  0.17045383  1
  I  I70  1  0.49610097  0.67076969  0.49650234  1
  I  I71  1  0.50168782  0.66695376  0.83247403  1
  I  I72  1  0.83465289  0.00012821  0.16422578  1
  I  I73  1  0.83535078  -0.00011754  0.50221548  1
  I  I74  1  0.83943461  -0.00023928  0.83191392  1
  I  I75  1  0.83775535  0.33731262  0.15928488  1
  I  I76  1  0.83014395  0.33313508  0.50230596  1
  I  I77  1  0.83816150  0.33391185  0.83699502  1
  I  I78  1  0.83179693  0.66393407  0.15959945  1
  I  I79  1  0.82891852  0.66692489  0.50350334  1
  I  I80  1  0.83844708  0.66632906  0.83622854  1
  I  I81  1  0.16601196  0.16192498  -0.00343004  1
  I  I82  1  0.16687287  0.16819412  0.33341079  1
  I  I83  1  0.16504834  0.16802435  0.67106729  1
  I  I84  1  0.16361965  0.50529839  -0.00075548  1
  I  I85  1  0.16412653  0.50539325  0.32962002  1
  I  I86  1  0.16239102  0.50043252  0.67016603  1
  I  I87  1  0.16789544  0.83210763  -0.00025120  1
  I  I88  1  0.17400131  0.82633478  0.33233732  1
  I  I89  1  0.16775145  0.83335475  0.66777643  1
  I  I90  1  0.49982618  0.16176752  0.00249190  1
  I  I91  1  0.49908460  0.16257868  0.33302507  1
  I  I92  1  0.50008465  0.16093631  0.66423632  1
  I  I93  1  0.50103703  0.49909959  0.00025541  1
  I  I94  1  0.50106985  0.49892930  0.33297212  1
  I  I95  1  0.50134125  0.49908577  0.66659142  1
  I  I96  1  0.49650292  0.83754944  0.00306284  1
  I  I97  1  0.49132261  0.83678152  0.33282485  1
  I  I98  1  0.49688033  0.83838355  0.66408881  1
  I  I99  1  0.83469638  0.16410336  -0.00386866  1
  I  I100  1  0.83414535  0.16839433  0.33311475  1
  I  I101  1  0.83542830  0.16930236  0.67136434  1
  I  I102  1  0.83648241  0.50050712  -0.00140771  1
  I  I103  1  0.83596431  0.50218713  0.32985260  1
  I  I104  1  0.83699702  0.50023898  0.67080069  1
  I  I105  1  0.83654227  0.83499613  -0.00383681  1
  I  I106  1  0.83536824  0.83055335  0.33307931  1
  I  I107  1  0.83685809  0.83024890  0.67111596  1
  I  I108  1  -0.00003696  0.16364300  0.16720220  1
  I  I109  1  0.00016287  0.16592531  0.49915302  1
  I  I110  1  0.00045382  0.16604555  0.83394702  1
  I  I111  1  0.00118079  0.50770375  0.15970491  1
  I  I112  1  0.00035468  0.50236093  0.50061149  1
  I  I113  1  0.00054912  0.50080030  0.83754360  1
  I  I114  1  0.00337147  0.83037464  0.16795181  1
  I  I115  1  0.00332035  0.83070766  0.49915267  1
  I  I116  1  0.00151142  0.83298902  0.83289503  1
  I  I117  1  0.33623334  0.16708768  0.16674224  1
  I  I118  1  0.33654269  0.16505532  0.49889309  1
  I  I119  1  0.33025221  0.16563288  0.83354218  1
  I  I120  1  0.33001522  0.50185655  0.16060944  1
  I  I121  1  0.33301905  0.49746573  0.50225133  1
  I  I122  1  0.32896067  0.50034410  0.83798760  1
  I  I123  1  0.33230677  0.83087098  0.16406722  1
  I  I124  1  0.33310527  0.83639757  0.50318213  1
  I  I125  1  0.32971708  0.83349368  0.83301524  1
  I  I126  1  0.66289415  0.16070275  0.16764562  1
  I  I127  1  0.66256946  0.15914245  0.49811918  1
  I  I128  1  0.66949640  0.16708514  0.83318858  1
  I  I129  1  0.66921712  0.49954526  0.16028212  1
  I  I130  1  0.66670896  0.50210384  0.50154706  1
  I  I131  1  0.67032670  0.49975145  0.83736176  1
  I  I132  1  0.66392975  0.83532713  0.16964976  1
  I  I133  1  0.66331916  0.83696751  0.49677065  1
  I  I134  1  0.66954277  0.83327933  0.83316757  1
