# generated using pymatgen
data_Cs27Sn14Pb13I81
_symmetry_space_group_name_H-M   'P 1'
_cell_length_a   18.97493758
_cell_length_b   18.98480247
_cell_length_c   18.96787921
_cell_angle_alpha   89.99972864
_cell_angle_beta   89.99743225
_cell_angle_gamma   89.99946385
_symmetry_Int_Tables_number   1
_chemical_formula_structural   Cs27Sn14Pb13I81
_chemical_formula_sum   'Cs27 Sn14 Pb13 I81'
_cell_volume   6832.90234050
_cell_formula_units_Z   1
loop_
 _symmetry_equiv_pos_site_id
 _symmetry_equiv_pos_as_xyz
  1  'x, y, z'
loop_
 _atom_site_type_symbol
 _atom_site_label
 _atom_site_symmetry_multiplicity
 _atom_site_fract_x
 _atom_site_fract_y
 _atom_site_fract_z
 _atom_site_occupancy
  Cs  Cs0  1  -0.00247296  0.00218875  0.00080579  1
  Cs  Cs1  1  0.00135112  -0.00997459  0.33320124  1
  Cs  Cs2  1  0.00261902  0.00230469  0.66609180  1
  Cs  Cs3  1  -0.00105068  0.33426335  -0.00056737  1
  Cs  Cs4  1  -0.00087591  0.33239669  0.33529835  1
  Cs  Cs5  1  0.00181816  0.33326247  0.66654459  1
  Cs  Cs6  1  -0.00142680  0.66265696  0.00154855  1
  Cs  Cs7  1  -0.00058325  0.67884011  0.33562185  1
  Cs  Cs8  1  0.00285035  0.66466984  0.66472043  1
  Cs  Cs9  1  0.33504724  0.00121168  -0.00130492  1
  Cs  Cs10  1  0.33094553  0.00158734  0.32944706  1
  Cs  Cs11  1  0.33293033  -0.00132551  0.66750808  1
  Cs  Cs12  1  0.33118549  0.33534332  0.00670733  1
  Cs  Cs13  1  0.33910191  0.33359738  0.32607484  1
  Cs  Cs14  1  0.32884217  0.33360252  0.66664030  1
  Cs  Cs15  1  0.33371911  0.66288250  -0.00043635  1
  Cs  Cs16  1  0.33265953  0.66585745  0.33122567  1
  Cs  Cs17  1  0.33264416  0.66834774  0.66787669  1
  Cs  Cs18  1  0.66732875  -0.00131629  -0.00204969  1
  Cs  Cs19  1  0.66772396  0.00128395  0.33607250  1
  Cs  Cs20  1  0.66515686  0.00150457  0.66974894  1
  Cs  Cs21  1  0.67008472  0.33410427  -0.00048309  1
  Cs  Cs22  1  0.66112590  0.33475535  0.34061592  1
  Cs  Cs23  1  0.66717477  0.33338059  0.66262444  1
  Cs  Cs24  1  0.66727951  0.66768671  -0.00112143  1
  Cs  Cs25  1  0.66783021  0.66422974  0.33502703  1
  Cs  Cs26  1  0.66515443  0.66551541  0.66809393  1
  Sn  Sn27  1  0.16677453  0.16770840  0.50021154  1
  Sn  Sn28  1  0.16677059  0.16604147  0.83314408  1
  Sn  Sn29  1  0.49987130  0.83325457  0.83342699  1
  Sn  Sn30  1  0.50005445  0.83350515  0.50006273  1
  Sn  Sn31  1  0.83323848  0.16764554  0.16634938  1
  Sn  Sn32  1  0.50019486  0.83346847  0.16637167  1
  Sn  Sn33  1  0.83334749  0.16693198  0.83362298  1
  Sn  Sn34  1  0.16651801  0.83398158  0.83357098  1
  Sn  Sn35  1  0.49980313  0.16747648  0.83333929  1
  Sn  Sn36  1  0.50059197  0.49950705  0.83319736  1
  Sn  Sn37  1  0.83347906  0.49892747  0.16643511  1
  Sn  Sn38  1  0.16673687  0.49898817  0.49956257  1
  Sn  Sn39  1  0.83249505  0.49975039  0.83358126  1
  Sn  Sn40  1  0.83386519  0.83322682  0.83323651  1
  Pb  Pb41  1  0.16883594  0.83385851  0.50207868  1
  Pb  Pb42  1  0.16348393  0.50003200  0.17012547  1
  Pb  Pb43  1  0.50285165  0.16491927  0.16427453  1
  Pb  Pb44  1  0.49735229  0.16480762  0.50220381  1
  Pb  Pb45  1  0.16925535  0.83337900  0.16308064  1
  Pb  Pb46  1  0.83131207  0.83340824  0.16452061  1
  Pb  Pb47  1  0.49773445  0.50176976  0.50240780  1
  Pb  Pb48  1  0.83061409  0.83347243  0.50327596  1
  Pb  Pb49  1  0.50252097  0.50182543  0.16433267  1
  Pb  Pb50  1  0.83551001  0.16653943  0.50011314  1
  Pb  Pb51  1  0.16410549  0.16669004  0.16631072  1
  Pb  Pb52  1  0.16641715  0.49957598  0.83268384  1
  Pb  Pb53  1  0.83527957  0.49996730  0.50011091  1
  I  I54  1  0.16348458  -0.00002241  0.17178721  1
  I  I55  1  0.16740795  0.00255848  0.50427341  1
  I  I56  1  0.16705125  0.00054116  0.82757701  1
  I  I57  1  0.16922126  0.33332670  0.16128341  1
  I  I58  1  0.16492282  0.33233599  0.50970725  1
  I  I59  1  0.16643926  0.33035498  0.83041429  1
  I  I60  1  0.16411197  0.66676781  0.16676229  1
  I  I61  1  0.16736512  0.66512066  0.50300780  1
  I  I62  1  0.16780467  0.66903854  0.83089841  1
  I  I63  1  0.50191226  -0.00308391  0.16260592  1
  I  I64  1  0.49842284  -0.00323341  0.50462061  1
  I  I65  1  0.50191638  -0.00067323  0.83305247  1
  I  I66  1  0.49844904  0.33332478  0.16483526  1
  I  I67  1  0.50097603  0.33323318  0.50231802  1
  I  I68  1  0.50283416  0.33296942  0.83252476  1
  I  I69  1  0.50215124  0.66983955  0.16248494  1
  I  I70  1  0.49754987  0.66979533  0.50473462  1
  I  I71  1  0.50241605  0.66781142  0.83308996  1
  I  I72  1  0.83222121  0.00237981  0.16092004  1
  I  I73  1  0.83631554  -0.00006140  0.49893356  1
  I  I74  1  0.83096838  0.00031565  0.83649188  1
  I  I75  1  0.83465569  0.33319565  0.15533065  1
  I  I76  1  0.83205524  0.33324441  0.50492376  1
  I  I77  1  0.83146236  0.33305307  0.83707790  1
  I  I78  1  0.83182220  0.66433925  0.16102890  1
  I  I79  1  0.83739472  0.66676178  0.49988566  1
  I  I80  1  0.82996373  0.66656981  0.83658401  1
  I  I81  1  0.16856334  0.16160294  -0.00387475  1
  I  I82  1  0.16528659  0.17071272  0.33618887  1
  I  I83  1  0.16446562  0.16603992  0.66897071  1
  I  I84  1  0.16876319  0.50079415  0.00000456  1
  I  I85  1  0.16706924  0.49359195  0.33782743  1
  I  I86  1  0.16499547  0.49940299  0.66514732  1
  I  I87  1  0.16858406  0.83936544  -0.00525862  1
  I  I88  1  0.16788677  0.83343457  0.33339445  1
  I  I89  1  0.16906602  0.83451666  0.67051937  1
  I  I90  1  0.49498622  0.16331987  -0.00471738  1
  I  I91  1  0.50015047  0.16351063  0.33325522  1
  I  I92  1  0.50565835  0.16335750  0.67123423  1
  I  I93  1  0.49970355  0.50316437  -0.00432507  1
  I  I94  1  0.50083381  0.50315645  0.33329323  1
  I  I95  1  0.50660488  0.50306334  0.67100979  1
  I  I96  1  0.50058824  0.83372367  -0.00257282  1
  I  I97  1  0.49975723  0.83303748  0.33331415  1
  I  I98  1  0.49973542  0.83322907  0.66930364  1
  I  I99  1  0.83527384  0.16652456  -0.00281266  1
  I  I100  1  0.83425303  0.17177244  0.33031832  1
  I  I101  1  0.83131928  0.16651074  0.67076676  1
  I  I102  1  0.83027472  0.49990411  -0.00230134  1
  I  I103  1  0.83494594  0.49484978  0.33028973  1
  I  I104  1  0.83029103  0.49986847  0.67045063  1
  I  I105  1  0.83039397  0.83385980  -0.00424253  1
  I  I106  1  0.83212164  0.83301183  0.33319781  1
  I  I107  1  0.83106910  0.83376714  0.67201780  1
  I  I108  1  -0.00370926  0.16945941  0.15860161  1
  I  I109  1  0.00333034  0.16945619  0.50821325  1
  I  I110  1  -0.00033533  0.16355611  0.83295563  1
  I  I111  1  -0.00424785  0.49685574  0.15609833  1
  I  I112  1  0.00298502  0.49671957  0.50490031  1
  I  I113  1  -0.00303359  0.50086666  0.83521275  1
  I  I114  1  -0.00036663  0.83316895  0.16603364  1
  I  I115  1  0.00031639  0.83294034  0.50122648  1
  I  I116  1  -0.00035055  0.83596796  0.83288526  1
  I  I117  1  0.33354461  0.16482562  0.16571145  1
  I  I118  1  0.32960392  0.16895789  0.50793204  1
  I  I119  1  0.33335136  0.16184257  0.82764559  1
  I  I120  1  0.33356912  0.50172765  0.16545807  1
  I  I121  1  0.33017479  0.49687820  0.50466879  1
  I  I122  1  0.33577186  0.50252650  0.83002165  1
  I  I123  1  0.33730694  0.83359287  0.16365585  1
  I  I124  1  0.33648053  0.83314556  0.50559829  1
  I  I125  1  0.33445255  0.83573686  0.83252247  1
  I  I126  1  0.67055904  0.16897809  0.15898382  1
  I  I127  1  0.66642918  0.16504672  0.50112033  1
  I  I128  1  0.66687205  0.16295222  0.83795522  1
  I  I129  1  0.67032068  0.49691295  0.16364260  1
  I  I130  1  0.66650993  0.50200954  0.49920972  1
  I  I131  1  0.66709946  0.50195421  0.83623927  1
  I  I132  1  0.66357891  0.83348084  0.16190169  1
  I  I133  1  0.66269101  0.83271173  0.50346154  1
  I  I134  1  0.66598112  0.83531780  0.83342780  1
