# generated using pymatgen
data_Cs27Sn14Pb13I81
_symmetry_space_group_name_H-M   'P 1'
_cell_length_a   18.97027442
_cell_length_b   18.98407759
_cell_length_c   18.97177702
_cell_angle_alpha   90.00026633
_cell_angle_beta   89.99684096
_cell_angle_gamma   90.00048045
_symmetry_Int_Tables_number   1
_chemical_formula_structural   Cs27Sn14Pb13I81
_chemical_formula_sum   'Cs27 Sn14 Pb13 I81'
_cell_volume   6832.36602816
_cell_formula_units_Z   1
loop_
 _symmetry_equiv_pos_site_id
 _symmetry_equiv_pos_as_xyz
  1  'x, y, z'
loop_
 _atom_site_type_symbol
 _atom_site_label
 _atom_site_symmetry_multiplicity
 _atom_site_fract_x
 _atom_site_fract_y
 _atom_site_fract_z
 _atom_site_occupancy
  Cs  Cs0  1  0.00135598  -0.00227295  0.00006518  1
  Cs  Cs1  1  -0.00147358  0.00225547  0.33379381  1
  Cs  Cs2  1  -0.00324563  0.01146770  0.66616538  1
  Cs  Cs3  1  0.00360160  0.33378954  -0.00640251  1
  Cs  Cs4  1  -0.00195460  0.33253352  0.33544366  1
  Cs  Cs5  1  0.00841050  0.32777825  0.67280621  1
  Cs  Cs6  1  -0.00081165  0.66800140  0.00117329  1
  Cs  Cs7  1  -0.00180291  0.66619532  0.33069873  1
  Cs  Cs8  1  0.00206897  0.66174894  0.66907604  1
  Cs  Cs9  1  0.33300741  -0.00062805  0.00100028  1
  Cs  Cs10  1  0.32959960  -0.00179872  0.33473332  1
  Cs  Cs11  1  0.33695189  -0.00335587  0.66440904  1
  Cs  Cs12  1  0.33562830  0.32815080  0.00198348  1
  Cs  Cs13  1  0.33329357  0.33101418  0.32956568  1
  Cs  Cs14  1  0.33168045  0.33577911  0.66796227  1
  Cs  Cs15  1  0.33392451  0.66879503  0.00128529  1
  Cs  Cs16  1  0.33107326  0.66868768  0.33558960  1
  Cs  Cs17  1  0.33287115  0.66672676  0.66349973  1
  Cs  Cs18  1  0.66660798  -0.00288100  -0.00076152  1
  Cs  Cs19  1  0.66902488  -0.00134758  0.33457458  1
  Cs  Cs20  1  0.66556408  0.00308272  0.66702604  1
  Cs  Cs21  1  0.66265348  0.33589005  0.00183244  1
  Cs  Cs22  1  0.66676918  0.33561600  0.33333473  1
  Cs  Cs23  1  0.66619046  0.33214349  0.66486824  1
  Cs  Cs24  1  0.66765399  0.66726613  0.00015607  1
  Cs  Cs25  1  0.66844219  0.66520395  0.33393519  1
  Cs  Cs26  1  0.66608162  0.66591981  0.66638823  1
  Sn  Sn27  1  0.83315777  0.16704995  0.16607805  1
  Sn  Sn28  1  0.83358128  0.83236907  0.49995553  1
  Sn  Sn29  1  0.50025446  0.50042343  0.83260889  1
  Sn  Sn30  1  0.83317092  0.50056324  0.49998544  1
  Sn  Sn31  1  0.50011468  0.16777588  0.50016750  1
  Sn  Sn32  1  0.16582067  0.50062733  0.16679002  1
  Sn  Sn33  1  0.50007111  0.83317807  0.16649228  1
  Sn  Sn34  1  0.16721578  0.83322263  0.83333024  1
  Sn  Sn35  1  0.83432444  0.49980143  0.16705209  1
  Sn  Sn36  1  0.49933764  0.83299483  0.83408950  1
  Sn  Sn37  1  0.50025470  0.16654405  0.83265460  1
  Sn  Sn38  1  0.50052859  0.49921125  0.50054146  1
  Sn  Sn39  1  0.16645004  0.83240787  0.16617465  1
  Sn  Sn40  1  0.83337232  0.83329122  0.16741015  1
  Pb  Pb41  1  0.16387262  0.16642783  0.16664334  1
  Pb  Pb42  1  0.16633314  0.50004814  0.49766958  1
  Pb  Pb43  1  0.83079762  0.16690370  0.83616106  1
  Pb  Pb44  1  0.83155216  0.49990923  0.83302356  1
  Pb  Pb45  1  0.83161092  0.16761088  0.49840004  1
  Pb  Pb46  1  0.16970107  0.50227585  0.83612522  1
  Pb  Pb47  1  0.50171484  0.83285780  0.50026800  1
  Pb  Pb48  1  0.83359020  0.83324298  0.83279181  1
  Pb  Pb49  1  0.49995918  0.50209387  0.16721407  1
  Pb  Pb50  1  0.16979045  0.16349967  0.83352400  1
  Pb  Pb51  1  0.50180102  0.16378455  0.16710230  1
  Pb  Pb52  1  0.16287399  0.83322139  0.50041507  1
  Pb  Pb53  1  0.17006823  0.16677574  0.49990575  1
  I  I54  1  0.16689584  -0.00373552  0.16276098  1
  I  I55  1  0.16672654  -0.00038860  0.49710118  1
  I  I56  1  0.17147645  -0.00437750  0.84188758  1
  I  I57  1  0.16350739  0.33637274  0.16852251  1
  I  I58  1  0.16202835  0.33360476  0.49723770  1
  I  I59  1  0.16720204  0.33345266  0.83477673  1
  I  I60  1  0.16228773  0.66805302  0.16322785  1
  I  I61  1  0.17318891  0.66677370  0.50178319  1
  I  I62  1  0.17268683  0.67010858  0.83590142  1
  I  I63  1  0.50029324  -0.00430522  0.16298975  1
  I  I64  1  0.50230245  0.00151313  0.50274115  1
  I  I65  1  0.49666521  -0.00082481  0.83366238  1
  I  I66  1  0.50013534  0.33343644  0.16371748  1
  I  I67  1  0.50638448  0.33440704  0.50721083  1
  I  I68  1  0.50313015  0.33358012  0.82923512  1
  I  I69  1  0.50411609  0.67005145  0.16260951  1
  I  I70  1  0.50271409  0.66409840  0.50250638  1
  I  I71  1  0.49724515  0.66735806  0.83383485  1
  I  I72  1  0.83183058  -0.00182894  0.17028312  1
  I  I73  1  0.83179762  -0.00218064  0.49489321  1
  I  I74  1  0.83059067  -0.00019952  0.83314243  1
  I  I75  1  0.83584657  0.33480331  0.17127516  1
  I  I76  1  0.82852647  0.33661145  0.49281883  1
  I  I77  1  0.83083009  0.33345605  0.83495749  1
  I  I78  1  0.83352073  0.66714936  0.17055962  1
  I  I79  1  0.82563359  0.66604862  0.49042887  1
  I  I80  1  0.82923478  0.66674391  0.83719260  1
  I  I81  1  0.16914269  0.16894364  0.00014980  1
  I  I82  1  0.17073949  0.16343066  0.33285941  1
  I  I83  1  0.16179733  0.16497569  0.66700427  1
  I  I84  1  0.16042925  0.50292988  0.00395401  1
  I  I85  1  0.16818640  0.50820866  0.32955228  1
  I  I86  1  0.16436914  0.50132810  0.66701694  1
  I  I87  1  0.16626955  0.82979680  0.00157414  1
  I  I88  1  0.17051059  0.82996463  0.32984140  1
  I  I89  1  0.17409107  0.83359366  0.66964917  1
  I  I90  1  0.50180125  0.16901240  -0.00252559  1
  I  I91  1  0.50257239  0.17118542  0.33576834  1
  I  I92  1  0.50147888  0.16375637  0.66711829  1
  I  I93  1  0.50013647  0.49833089  -0.00205580  1
  I  I94  1  0.50177234  0.49660021  0.33591926  1
  I  I95  1  0.50583878  0.50186257  0.66636205  1
  I  I96  1  0.50193196  0.83320009  -0.00006067  1
  I  I97  1  0.49850742  0.83326433  0.33073980  1
  I  I98  1  0.49702155  0.83371230  0.66950025  1
  I  I99  1  0.83092498  0.16425409  0.00432252  1
  I  I100  1  0.82965181  0.16489077  0.33039094  1
  I  I101  1  0.83351294  0.16465969  0.66650924  1
  I  I102  1  0.83476782  0.50257674  0.00357385  1
  I  I103  1  0.82982170  0.50169041  0.33239604  1
  I  I104  1  0.82854617  0.50708174  0.66312894  1
  I  I105  1  0.83229010  0.83229030  0.00336764  1
  I  I106  1  0.83160703  0.83291001  0.33131349  1
  I  I107  1  0.83074265  0.82807848  0.66354584  1
  I  I108  1  -0.00408044  0.16123905  0.16893425  1
  I  I109  1  -0.00048407  0.16558738  0.49848079  1
  I  I110  1  0.00022729  0.16510148  0.83349642  1
  I  I111  1  -0.00151520  0.50570939  0.17227706  1
  I  I112  1  -0.00361511  0.50645774  0.49543451  1
  I  I113  1  0.00042306  0.50200888  0.83140047  1
  I  I114  1  -0.00053117  0.83255117  0.16595753  1
  I  I115  1  -0.00498660  0.82688620  0.49421957  1
  I  I116  1  0.00269886  0.83180282  0.83867488  1
  I  I117  1  0.33362980  0.16696133  0.16662206  1
  I  I118  1  0.33863288  0.17122393  0.50243506  1
  I  I119  1  0.33801391  0.16937212  0.83173642  1
  I  I120  1  0.33138418  0.50583776  0.16599131  1
  I  I121  1  0.33662723  0.49629718  0.50292755  1
  I  I122  1  0.33790390  0.49845761  0.82852321  1
  I  I123  1  0.33329174  0.82889307  0.16181611  1
  I  I124  1  0.33337469  0.83434109  0.49652437  1
  I  I125  1  0.33495976  0.83392481  0.84233610  1
  I  I126  1  0.66955556  0.16698585  0.16646520  1
  I  I127  1  0.66359323  0.16708893  0.50372266  1
  I  I128  1  0.66238831  0.16201506  0.82975133  1
  I  I129  1  0.66930459  0.50159726  0.16719374  1
  I  I130  1  0.66655550  0.50056362  0.49687057  1
  I  I131  1  0.66282913  0.50382647  0.83570627  1
  I  I132  1  0.66728380  0.83315324  0.16584433  1
  I  I133  1  0.66946656  0.83225202  0.49414267  1
  I  I134  1  0.66332303  0.83368031  0.83756514  1
