# generated using pymatgen
data_Cs27Sn13Pb14I81
_symmetry_space_group_name_H-M   'P 1'
_cell_length_a   18.98587355
_cell_length_b   18.98587355
_cell_length_c   19.00465932
_cell_angle_alpha   89.99999992
_cell_angle_beta   90.00000001
_cell_angle_gamma   89.99774445
_symmetry_Int_Tables_number   1
_chemical_formula_structural   Cs27Sn13Pb14I81
_chemical_formula_sum   'Cs27 Sn13 Pb14 I81'
_cell_volume   6850.48400593
_cell_formula_units_Z   1
loop_
 _symmetry_equiv_pos_site_id
 _symmetry_equiv_pos_as_xyz
  1  'x, y, z'
loop_
 _atom_site_type_symbol
 _atom_site_label
 _atom_site_symmetry_multiplicity
 _atom_site_fract_x
 _atom_site_fract_y
 _atom_site_fract_z
 _atom_site_occupancy
  Cs  Cs0  1  0.00216013  -0.00216009  0.00085809  1
  Cs  Cs1  1  0.00216014  -0.00216005  0.33247514  1
  Cs  Cs2  1  0.00092643  -0.00092647  0.66666667  1
  Cs  Cs3  1  -0.00280895  0.33280487  -0.00381383  1
  Cs  Cs4  1  -0.00280894  0.33280478  0.33714705  1
  Cs  Cs5  1  -0.00599563  0.33818738  0.66666670  1
  Cs  Cs6  1  -0.00317925  0.66836866  -0.00004656  1
  Cs  Cs7  1  -0.00317929  0.66836869  0.33337992  1
  Cs  Cs8  1  0.00214262  0.66481127  0.66666666  1
  Cs  Cs9  1  0.33163135  0.00317927  -0.00004660  1
  Cs  Cs10  1  0.33163122  0.00317922  0.33338000  1
  Cs  Cs11  1  0.33518890  -0.00214247  0.66666662  1
  Cs  Cs12  1  0.33423388  0.33388692  0.00475951  1
  Cs  Cs13  1  0.33423378  0.33388686  0.32857360  1
  Cs  Cs14  1  0.32990801  0.33960988  0.66666668  1
  Cs  Cs15  1  0.33427167  0.66572832  0.00082625  1
  Cs  Cs16  1  0.33427155  0.66572835  0.33250707  1
  Cs  Cs17  1  0.33383542  0.66616464  0.66666659  1
  Cs  Cs18  1  0.66719524  0.00280876  -0.00381377  1
  Cs  Cs19  1  0.66719524  0.00280882  0.33714724  1
  Cs  Cs20  1  0.66181248  0.00599555  0.66666667  1
  Cs  Cs21  1  0.66860862  0.33139131  -0.00472716  1
  Cs  Cs22  1  0.66860871  0.33139118  0.33806017  1
  Cs  Cs23  1  0.67617024  0.32383005  0.66666670  1
  Cs  Cs24  1  0.66611308  0.66576617  0.00475945  1
  Cs  Cs25  1  0.66611319  0.66576632  0.32857384  1
  Cs  Cs26  1  0.66039032  0.67009223  0.66666660  1
  Sn  Sn27  1  0.50024976  0.49975023  0.83344052  1
  Sn  Sn28  1  0.83366170  0.16633828  0.16666666  1
  Sn  Sn29  1  0.83365521  0.83315100  0.50135580  1
  Sn  Sn30  1  0.16643200  0.50094801  0.16666667  1
  Sn  Sn31  1  0.16684903  0.16634482  0.83197751  1
  Sn  Sn32  1  0.16624480  0.83375520  0.50015558  1
  Sn  Sn33  1  0.49905199  0.83356801  0.16666669  1
  Sn  Sn34  1  0.83365519  0.83315098  0.83197752  1
  Sn  Sn35  1  0.50024979  0.49975018  0.49989278  1
  Sn  Sn36  1  0.16684901  0.16634484  0.50135582  1
  Sn  Sn37  1  0.16768335  0.83231667  0.16666665  1
  Sn  Sn38  1  0.49930526  0.50069471  0.16666668  1
  Sn  Sn39  1  0.16624484  0.83375521  0.83317775  1
  Pb  Pb40  1  0.16524517  0.16673211  0.16666665  1
  Pb  Pb41  1  0.49951151  0.83210589  0.49771292  1
  Pb  Pb42  1  0.49684969  0.16947373  0.83317856  1
  Pb  Pb43  1  0.83326793  0.83475484  0.16666669  1
  Pb  Pb44  1  0.83614531  0.16385465  0.49859778  1
  Pb  Pb45  1  0.83614534  0.16385462  0.83473555  1
  Pb  Pb46  1  0.83315110  0.49758282  0.16666669  1
  Pb  Pb47  1  0.16789404  0.50048835  0.49771292  1
  Pb  Pb48  1  0.49684970  0.16947378  0.50015475  1
  Pb  Pb49  1  0.83052631  0.50315035  0.50015478  1
  Pb  Pb50  1  0.16789408  0.50048840  0.83562034  1
  Pb  Pb51  1  0.50241721  0.16684886  0.16666668  1
  Pb  Pb52  1  0.83052635  0.50315033  0.83317858  1
  Pb  Pb53  1  0.49951152  0.83210590  0.83562036  1
  I  I54  1  0.16926783  -0.00326912  0.16666670  1
  I  I55  1  0.16326069  -0.00176653  0.49708368  1
  I  I56  1  0.16326077  -0.00176654  0.83624954  1
  I  I57  1  0.17134486  0.33576006  0.16666651  1
  I  I58  1  0.17010788  0.33101871  0.50216388  1
  I  I59  1  0.17010775  0.33101871  0.83116954  1
  I  I60  1  0.17076272  0.66822041  0.16666682  1
  I  I61  1  0.16441024  0.67018365  0.50222392  1
  I  I62  1  0.16441019  0.67018364  0.83110925  1
  I  I63  1  0.49506312  -0.00307211  0.16666664  1
  I  I64  1  0.50236931  -0.00016402  0.49740100  1
  I  I65  1  0.50236904  -0.00016402  0.83593234  1
  I  I66  1  0.49445808  0.33702189  0.16666676  1
  I  I67  1  0.49725237  0.33755749  0.49456867  1
  I  I68  1  0.49725269  0.33755744  0.83876473  1
  I  I69  1  0.49627294  0.66610115  0.16666656  1
  I  I70  1  0.49742612  0.66408560  0.50058064  1
  I  I71  1  0.49742615  0.66408556  0.83275290  1
  I  I72  1  0.83517088  0.00196037  0.16666645  1
  I  I73  1  0.83395372  -0.00394229  0.50212170  1
  I  I74  1  0.83395387  -0.00394229  0.83121175  1
  I  I75  1  0.83512127  0.33011708  0.16666699  1
  I  I76  1  0.83359620  0.33305090  0.49777049  1
  I  I77  1  0.83359614  0.33305092  0.83556268  1
  I  I78  1  0.83290176  0.66686050  0.16666659  1
  I  I79  1  0.84240873  0.67098820  0.50109400  1
  I  I80  1  0.84240869  0.67098824  0.83223935  1
  I  I81  1  0.16488312  0.16290030  -0.00200911  1
  I  I82  1  0.16488319  0.16290056  0.33534244  1
  I  I83  1  0.16788095  0.15738126  0.66666667  1
  I  I84  1  0.17336267  0.50309720  0.00345048  1
  I  I85  1  0.17336284  0.50309686  0.32988288  1
  I  I86  1  0.17082164  0.50196907  0.66666665  1
  I  I87  1  0.16621936  0.83378077  0.00009649  1
  I  I88  1  0.16621934  0.83378086  0.33323684  1
  I  I89  1  0.16186659  0.83813317  0.66666666  1
  I  I90  1  0.49789026  0.16845787  0.00007180  1
  I  I91  1  0.49789022  0.16845785  0.33326150  1
  I  I92  1  0.50345116  0.16731863  0.66666667  1
  I  I93  1  0.49532638  0.50467376  0.00138303  1
  I  I94  1  0.49532610  0.50467394  0.33195028  1
  I  I95  1  0.49792376  0.50207593  0.66666666  1
  I  I96  1  0.49690271  0.82663712  0.00345047  1
  I  I97  1  0.49690299  0.82663698  0.32988288  1
  I  I98  1  0.49803135  0.82917874  0.66666666  1
  I  I99  1  0.83564354  0.16435679  0.00218757  1
  I  I100  1  0.83564355  0.16435634  0.33114581  1
  I  I101  1  0.83187737  0.16812269  0.66666671  1
  I  I102  1  0.83154230  0.50210948  0.00007184  1
  I  I103  1  0.83154241  0.50210977  0.33326148  1
  I  I104  1  0.83268110  0.49654889  0.66666668  1
  I  I105  1  0.83709970  0.83511696  -0.00200911  1
  I  I106  1  0.83709952  0.83511701  0.33534243  1
  I  I107  1  0.84261849  0.83211881  0.66666666  1
  I  I108  1  -0.00196035  0.16482910  0.16666676  1
  I  I109  1  0.00394230  0.16604627  0.50212149  1
  I  I110  1  0.00394225  0.16604630  0.83121185  1
  I  I111  1  0.00307204  0.50493710  0.16666665  1
  I  I112  1  0.00016398  0.49763087  0.49740132  1
  I  I113  1  0.00016399  0.49763084  0.83593210  1
  I  I114  1  0.00326907  0.83073180  0.16666668  1
  I  I115  1  0.00176650  0.83673913  0.49708378  1
  I  I116  1  0.00176650  0.83673918  0.83624947  1
  I  I117  1  0.33313948  0.16709818  0.16666665  1
  I  I118  1  0.32901178  0.15759080  0.50109427  1
  I  I119  1  0.32901177  0.15759118  0.83223918  1
  I  I120  1  0.33389884  0.50372686  0.16666658  1
  I  I121  1  0.33591442  0.50257437  0.50058044  1
  I  I122  1  0.33591440  0.50257412  0.83275324  1
  I  I123  1  0.33177958  0.82923760  0.16666677  1
  I  I124  1  0.32981633  0.83558980  0.50222423  1
  I  I125  1  0.32981630  0.83558965  0.83110900  1
  I  I126  1  0.66988294  0.16487879  0.16666678  1
  I  I127  1  0.66694908  0.16640396  0.49777047  1
  I  I128  1  0.66694911  0.16640378  0.83556282  1
  I  I129  1  0.66297812  0.50554206  0.16666680  1
  I  I130  1  0.66244251  0.50274701  0.49456874  1
  I  I131  1  0.66244256  0.50274703  0.83876468  1
  I  I132  1  0.66423990  0.82865512  0.16666652  1
  I  I133  1  0.66898127  0.82989226  0.50216354  1
  I  I134  1  0.66898134  0.82989244  0.83116988  1
