# generated using pymatgen
data_Cs27Sn14Pb13I81
_symmetry_space_group_name_H-M   'P 1'
_cell_length_a   18.98478278
_cell_length_b   18.96806636
_cell_length_c   18.97484386
_cell_angle_alpha   90.00208756
_cell_angle_beta   90.00113644
_cell_angle_gamma   90.00023462
_symmetry_Int_Tables_number   1
_chemical_formula_structural   Cs27Sn14Pb13I81
_chemical_formula_sum   'Cs27 Sn14 Pb13 I81'
_cell_volume   6832.92892202
_cell_formula_units_Z   1
loop_
 _symmetry_equiv_pos_site_id
 _symmetry_equiv_pos_as_xyz
  1  'x, y, z'
loop_
 _atom_site_type_symbol
 _atom_site_label
 _atom_site_symmetry_multiplicity
 _atom_site_fract_x
 _atom_site_fract_y
 _atom_site_fract_z
 _atom_site_occupancy
  Cs  Cs0  1  0.00088805  -0.00013423  0.00086601  1
  Cs  Cs1  1  -0.00262705  0.00083757  0.34027266  1
  Cs  Cs2  1  0.00429238  0.00217517  0.65421831  1
  Cs  Cs3  1  -0.00365217  0.33261962  0.00005172  1
  Cs  Cs4  1  -0.00131840  0.33633848  0.32904069  1
  Cs  Cs5  1  -0.00032761  0.33037235  0.67214450  1
  Cs  Cs6  1  0.00103822  0.66571059  -0.00107128  1
  Cs  Cs7  1  0.00056939  0.66507751  0.33500715  1
  Cs  Cs8  1  -0.00077876  0.66755921  0.66697664  1
  Cs  Cs9  1  0.33415397  -0.00163560  -0.00003892  1
  Cs  Cs10  1  0.33157884  -0.00152681  0.33108211  1
  Cs  Cs11  1  0.33038399  0.00721098  0.66655753  1
  Cs  Cs12  1  0.33161758  0.33319307  0.00160423  1
  Cs  Cs13  1  0.33519816  0.33668749  0.33314028  1
  Cs  Cs14  1  0.33648033  0.32703062  0.66424693  1
  Cs  Cs15  1  0.33271401  0.66784059  0.00011027  1
  Cs  Cs16  1  0.33450515  0.66445498  0.33227336  1
  Cs  Cs17  1  0.33423112  0.66643218  0.66794535  1
  Cs  Cs18  1  0.66556781  -0.00157616  0.00260444  1
  Cs  Cs19  1  0.67249663  0.00008422  0.33069391  1
  Cs  Cs20  1  0.66595139  0.00460458  0.66303461  1
  Cs  Cs21  1  0.67091562  0.33218428  -0.00115920  1
  Cs  Cs22  1  0.66551402  0.33300604  0.33492502  1
  Cs  Cs23  1  0.66312674  0.32846346  0.66802421  1
  Cs  Cs24  1  0.66618167  0.66815189  -0.00127639  1
  Cs  Cs25  1  0.66530700  0.66617392  0.33362561  1
  Cs  Cs26  1  0.66601362  0.66537076  0.66826583  1
  Sn  Sn27  1  0.83206622  0.50134890  0.16728109  1
  Sn  Sn28  1  0.49976073  0.83313814  0.50135583  1
  Sn  Sn29  1  0.16590556  0.50030731  0.50172982  1
  Sn  Sn30  1  0.49979393  0.83278083  0.83178060  1
  Sn  Sn31  1  0.16633959  0.83274459  0.83377487  1
  Sn  Sn32  1  0.50117386  0.49923674  0.16547129  1
  Sn  Sn33  1  0.16776355  0.50061967  0.83219727  1
  Sn  Sn34  1  0.49922459  0.16789689  0.16628748  1
  Sn  Sn35  1  0.49904817  0.50053704  0.83426522  1
  Sn  Sn36  1  0.16727227  0.16538524  0.16640291  1
  Sn  Sn37  1  0.83481775  0.83204574  0.16581038  1
  Sn  Sn38  1  0.83376079  0.83331796  0.83357030  1
  Sn  Sn39  1  0.83397372  0.50036224  0.49988574  1
  Sn  Sn40  1  0.16540138  0.83411326  0.16623372  1
  Pb  Pb41  1  0.16671480  0.17038739  0.49671987  1
  Pb  Pb42  1  0.83361508  0.16213507  0.83342126  1
  Pb  Pb43  1  0.16660594  0.16651758  0.83554965  1
  Pb  Pb44  1  0.50001791  0.83291675  0.16608577  1
  Pb  Pb45  1  0.83317908  0.50139052  0.83337945  1
  Pb  Pb46  1  0.50009561  0.50109661  0.50054750  1
  Pb  Pb47  1  0.83354043  0.16645720  0.16653284  1
  Pb  Pb48  1  0.50000248  0.16657879  0.83581236  1
  Pb  Pb49  1  0.16655368  0.50050355  0.16591575  1
  Pb  Pb50  1  0.49985578  0.16328192  0.49662907  1
  Pb  Pb51  1  0.16864931  0.83139536  0.50011950  1
  Pb  Pb52  1  0.83133905  0.83137780  0.50005115  1
  Pb  Pb53  1  0.83333035  0.17062791  0.49994059  1
  I  I54  1  0.16867364  -0.00164026  0.16025511  1
  I  I55  1  0.16840520  -0.00005072  0.50196621  1
  I  I56  1  0.16806446  -0.00379018  0.83713593  1
  I  I57  1  0.16822556  0.33192683  0.16773157  1
  I  I58  1  0.16424173  0.33838486  0.50469885  1
  I  I59  1  0.17170650  0.33689941  0.83082404  1
  I  I60  1  0.16634823  0.66928476  0.16532055  1
  I  I61  1  0.16380615  0.66354951  0.49753721  1
  I  I62  1  0.16801675  0.66733227  0.83684816  1
  I  I63  1  0.49894791  0.00141823  0.16721569  1
  I  I64  1  0.49980890  -0.00458628  0.50615856  1
  I  I65  1  0.49957198  -0.00376503  0.83161358  1
  I  I66  1  0.49898727  0.33508199  0.16227405  1
  I  I67  1  0.50051641  0.33334138  0.50151672  1
  I  I68  1  0.49541313  0.33683151  0.83523227  1
  I  I69  1  0.50056937  0.66408471  0.16600082  1
  I  I70  1  0.49999492  0.66885914  0.49810293  1
  I  I71  1  0.49896297  0.66688243  0.83664444  1
  I  I72  1  0.83219236  -0.00340969  0.16153488  1
  I  I73  1  0.83130889  -0.00039593  0.49939401  1
  I  I74  1  0.83139765  -0.00626730  0.84296167  1
  I  I75  1  0.83306544  0.33655794  0.17108552  1
  I  I76  1  0.83596393  0.33885704  0.49164976  1
  I  I77  1  0.83337308  0.33368587  0.83366386  1
  I  I78  1  0.83299733  0.66669302  0.16665459  1
  I  I79  1  0.83666229  0.66364878  0.49677446  1
  I  I80  1  0.83289254  0.66967601  0.83579116  1
  I  I81  1  0.17084861  0.16751818  0.00356996  1
  I  I82  1  0.17093216  0.16064462  0.32883344  1
  I  I83  1  0.16586659  0.16400789  0.66653766  1
  I  I84  1  0.16815825  0.50175690  -0.00256330  1
  I  I85  1  0.16619523  0.49993242  0.33457093  1
  I  I86  1  0.16646251  0.50785601  0.66799390  1
  I  I87  1  0.16868778  0.83046289  -0.00022507  1
  I  I88  1  0.16472757  0.83513528  0.33031724  1
  I  I89  1  0.16415286  0.82957512  0.66992279  1
  I  I90  1  0.49608556  0.16551755  0.00370064  1
  I  I91  1  0.49586080  0.17273726  0.32877768  1
  I  I92  1  0.50098535  0.16930861  0.66666143  1
  I  I93  1  0.49909672  0.50322616  0.00005716  1
  I  I94  1  0.49987441  0.49912572  0.33072101  1
  I  I95  1  0.49959410  0.50453057  0.66962077  1
  I  I96  1  0.49983711  0.83214458  -0.00267114  1
  I  I97  1  0.49984210  0.83235689  0.33449429  1
  I  I98  1  0.50089660  0.82487784  0.66891712  1
  I  I99  1  0.83332090  0.17340117  0.00044302  1
  I  I100  1  0.83273547  0.16083812  0.33287746  1
  I  I101  1  0.83279514  0.16721914  0.66661266  1
  I  I102  1  0.83249704  0.50197740  0.00271579  1
  I  I103  1  0.83379682  0.50596264  0.33168963  1
  I  I104  1  0.83441826  0.50325457  0.66474646  1
  I  I105  1  0.83164935  0.82662501  0.00081373  1
  I  I106  1  0.83527809  0.83179843  0.33023267  1
  I  I107  1  0.83512024  0.83040694  0.66962924  1
  I  I108  1  0.00271562  0.16653769  0.16580756  1
  I  I109  1  0.00025458  0.16157785  0.49727917  1
  I  I110  1  0.00026209  0.17102156  0.83844701  1
  I  I111  1  -0.00210406  0.50070152  0.16768578  1
  I  I112  1  0.00001681  0.50260031  0.49741189  1
  I  I113  1  0.00251431  0.50438931  0.83329504  1
  I  I114  1  0.00008312  0.83229954  0.15894723  1
  I  I115  1  0.00001112  0.83370960  0.50156439  1
  I  I116  1  0.00079890  0.82732153  0.84077411  1
  I  I117  1  0.33337010  0.16652137  0.16583315  1
  I  I118  1  0.33330499  0.16937351  0.50061742  1
  I  I119  1  0.33338514  0.16266823  0.83378140  1
  I  I120  1  0.33549160  0.50012734  0.16665119  1
  I  I121  1  0.33125660  0.50260681  0.49903477  1
  I  I122  1  0.33359263  0.50880193  0.83496978  1
  I  I123  1  0.33114837  0.83347739  0.16411131  1
  I  I124  1  0.33624657  0.82877415  0.50152918  1
  I  I125  1  0.33307585  0.82818125  0.83544701  1
  I  I126  1  0.66410311  0.16698162  0.16648484  1
  I  I127  1  0.66634235  0.16798150  0.49748092  1
  I  I128  1  0.66653564  0.16878401  0.83633524  1
  I  I129  1  0.66651223  0.50088874  0.16735039  1
  I  I130  1  0.66873808  0.50336298  0.49716318  1
  I  I131  1  0.66403160  0.50513861  0.83497250  1
  I  I132  1  0.66876294  0.83238261  0.16432093  1
  I  I133  1  0.66371159  0.82933520  0.50215226  1
  I  I134  1  0.66618457  0.82795792  0.83505176  1
