# generated using pymatgen
data_Cs27Sn13Pb14I81
_symmetry_space_group_name_H-M   'P 1'
_cell_length_a   18.97720211
_cell_length_b   18.97651188
_cell_length_c   18.97519506
_cell_angle_alpha   90.00196064
_cell_angle_beta   89.99792084
_cell_angle_gamma   89.99980256
_symmetry_Int_Tables_number   1
_chemical_formula_structural   Cs27Sn13Pb14I81
_chemical_formula_sum   'Cs27 Sn13 Pb14 I81'
_cell_volume   6833.36813494
_cell_formula_units_Z   1
loop_
 _symmetry_equiv_pos_site_id
 _symmetry_equiv_pos_as_xyz
  1  'x, y, z'
loop_
 _atom_site_type_symbol
 _atom_site_label
 _atom_site_symmetry_multiplicity
 _atom_site_fract_x
 _atom_site_fract_y
 _atom_site_fract_z
 _atom_site_occupancy
  Cs  Cs0  1  -0.00151393  0.00055851  -0.00052020  1
  Cs  Cs1  1  0.00012338  -0.00274446  0.33237675  1
  Cs  Cs2  1  -0.00364354  -0.00027406  0.66613550  1
  Cs  Cs3  1  -0.00063038  0.33300812  -0.00206009  1
  Cs  Cs4  1  0.00139928  0.34235560  0.33410881  1
  Cs  Cs5  1  -0.00077304  0.33234856  0.66895137  1
  Cs  Cs6  1  -0.00040374  0.66731100  0.00134574  1
  Cs  Cs7  1  0.00614459  0.65779007  0.34071708  1
  Cs  Cs8  1  0.00086131  0.66720812  0.66071646  1
  Cs  Cs9  1  0.33169460  0.00097732  0.00113315  1
  Cs  Cs10  1  0.33522234  0.00144366  0.33291781  1
  Cs  Cs11  1  0.33432087  -0.00503226  0.66476851  1
  Cs  Cs12  1  0.33427869  0.33210279  -0.00123830  1
  Cs  Cs13  1  0.33442461  0.33220260  0.33427728  1
  Cs  Cs14  1  0.33302361  0.33355026  0.66854667  1
  Cs  Cs15  1  0.33354048  0.67056885  -0.00327881  1
  Cs  Cs16  1  0.32581412  0.66451535  0.33400496  1
  Cs  Cs17  1  0.33525917  0.67409143  0.66985236  1
  Cs  Cs18  1  0.66994304  0.00024386  0.00234678  1
  Cs  Cs19  1  0.66483716  -0.00033613  0.33440245  1
  Cs  Cs20  1  0.66912433  0.00071860  0.65592704  1
  Cs  Cs21  1  0.66606160  0.33379555  0.00018203  1
  Cs  Cs22  1  0.66530564  0.33516277  0.33410211  1
  Cs  Cs23  1  0.66798937  0.33060100  0.66633784  1
  Cs  Cs24  1  0.66623126  0.66651990  -0.00083728  1
  Cs  Cs25  1  0.66953320  0.66530042  0.33310983  1
  Cs  Cs26  1  0.66347900  0.66989348  0.66824922  1
  Sn  Sn27  1  0.49970065  0.16621643  0.83369055  1
  Sn  Sn28  1  0.83405709  0.50113932  0.83373776  1
  Sn  Sn29  1  0.83320615  0.83245958  0.83407397  1
  Sn  Sn30  1  0.16602340  0.49972996  0.83368785  1
  Sn  Sn31  1  0.16633427  0.16699108  0.16685010  1
  Sn  Sn32  1  0.50036753  0.16661637  0.16582834  1
  Sn  Sn33  1  0.16652266  0.16666173  0.50019516  1
  Sn  Sn34  1  0.83325835  0.16652566  0.16663087  1
  Sn  Sn35  1  0.49976127  0.50022470  0.16731863  1
  Sn  Sn36  1  0.83300714  0.83342392  0.16624674  1
  Sn  Sn37  1  0.50053021  0.83323679  0.16641689  1
  Sn  Sn38  1  0.16761679  0.16711359  0.83308474  1
  Sn  Sn39  1  0.49986610  0.50000639  0.49958328  1
  Pb  Pb40  1  0.83626791  0.16701654  0.49591799  1
  Pb  Pb41  1  0.83161334  0.50037549  0.16504791  1
  Pb  Pb42  1  0.50262219  0.83701161  0.83541164  1
  Pb  Pb43  1  0.83320325  0.16638829  0.83478797  1
  Pb  Pb44  1  0.83088486  0.49988758  0.50337724  1
  Pb  Pb45  1  0.16914406  0.49792745  0.50318225  1
  Pb  Pb46  1  0.16936164  0.49766390  0.16421349  1
  Pb  Pb47  1  0.49994165  0.49851159  0.83362213  1
  Pb  Pb48  1  0.49995511  0.83038962  0.49644494  1
  Pb  Pb49  1  0.16410081  0.83392563  0.83347024  1
  Pb  Pb50  1  0.83331028  0.83318073  0.49872748  1
  Pb  Pb51  1  0.16605782  0.83524273  0.16666161  1
  Pb  Pb52  1  0.16678417  0.83603550  0.49997782  1
  Pb  Pb53  1  0.49836492  0.16799371  0.49980093  1
  I  I54  1  0.17091320  0.00442017  0.16345534  1
  I  I55  1  0.16852615  0.00466596  0.50206168  1
  I  I56  1  0.16959187  0.00393425  0.83457416  1
  I  I57  1  0.16598541  0.32897731  0.16777605  1
  I  I58  1  0.16797059  0.33004081  0.49675727  1
  I  I59  1  0.16444254  0.33184839  0.83431083  1
  I  I60  1  0.16745860  0.66624283  0.16513717  1
  I  I61  1  0.16708609  0.66606014  0.50060941  1
  I  I62  1  0.16593485  0.66390862  0.83380772  1
  I  I63  1  0.50019729  0.00136448  0.16143162  1
  I  I64  1  0.49872581  -0.00003146  0.50045309  1
  I  I65  1  0.49377163  0.00483022  0.83896435  1
  I  I66  1  0.49988065  0.33200227  0.16639154  1
  I  I67  1  0.49917738  0.33562268  0.49409563  1
  I  I68  1  0.50050922  0.33052302  0.83934825  1
  I  I69  1  0.50653935  0.66676903  0.17044480  1
  I  I70  1  0.49999673  0.66261396  0.49768301  1
  I  I71  1  0.49761172  0.66691178  0.83395400  1
  I  I72  1  0.82921283  0.00048169  0.15997861  1
  I  I73  1  0.83335747  0.00025868  0.50574286  1
  I  I74  1  0.83345213  -0.00205780  0.83743655  1
  I  I75  1  0.83237214  0.33065170  0.16426053  1
  I  I76  1  0.83241458  0.33331942  0.50060280  1
  I  I77  1  0.83415402  0.33502376  0.83514883  1
  I  I78  1  0.82614713  0.66946409  0.16248382  1
  I  I79  1  0.83399453  0.66646765  0.49568957  1
  I  I80  1  0.83721650  0.66648966  0.84019661  1
  I  I81  1  0.16834399  0.17004093  0.00007193  1
  I  I82  1  0.16801878  0.16458668  0.33205802  1
  I  I83  1  0.17177383  0.17146992  0.66817948  1
  I  I84  1  0.16522006  0.49303024  -0.00346120  1
  I  I85  1  0.16590300  0.49867873  0.33327468  1
  I  I86  1  0.16451498  0.49241264  0.67075802  1
  I  I87  1  0.16894263  0.83565883  0.00006197  1
  I  I88  1  0.16500157  0.83507668  0.33297043  1
  I  I89  1  0.16546958  0.83548098  0.66706137  1
  I  I90  1  0.49554085  0.16953287  0.00162032  1
  I  I91  1  0.49903548  0.16515367  0.32961052  1
  I  I92  1  0.49604380  0.17048923  0.66936242  1
  I  I93  1  0.50057238  0.49942123  0.00270500  1
  I  I94  1  0.50084864  0.49644861  0.33147446  1
  I  I95  1  0.50015609  0.49535089  0.66514490  1
  I  I96  1  0.50146299  0.82901511  0.00362144  1
  I  I97  1  0.50687599  0.84141429  0.32825936  1
  I  I98  1  0.50115759  0.83314406  0.66679386  1
  I  I99  1  0.83595246  0.16580487  0.00299534  1
  I  I100  1  0.82988152  0.16019863  0.32771175  1
  I  I101  1  0.83239294  0.16617531  0.66670364  1
  I  I102  1  0.83400603  0.49968643  -0.00292914  1
  I  I103  1  0.83397254  0.49982004  0.33316614  1
  I  I104  1  0.83526872  0.50377198  0.67150464  1
  I  I105  1  0.82970301  0.83429460  0.00094687  1
  I  I106  1  0.82780378  0.84051883  0.32898822  1
  I  I107  1  0.83457870  0.83012289  0.66958745  1
  I  I108  1  0.00011528  0.16091165  0.16485406  1
  I  I109  1  0.00417621  0.16715802  0.50361632  1
  I  I110  1  0.00271534  0.16793653  0.83493367  1
  I  I111  1  0.00020766  0.49915190  0.16674878  1
  I  I112  1  0.00040942  0.49937479  0.49869125  1
  I  I113  1  0.00025062  0.49582326  0.83477568  1
  I  I114  1  -0.00354074  0.84070224  0.16134208  1
  I  I115  1  -0.00009571  0.83368982  0.49813617  1
  I  I116  1  -0.00372762  0.83494030  0.84110330  1
  I  I117  1  0.33389029  0.16708905  0.16561833  1
  I  I118  1  0.33052069  0.16884156  0.49602582  1
  I  I119  1  0.33258997  0.17342697  0.83891695  1
  I  I120  1  0.33752256  0.49956225  0.16806119  1
  I  I121  1  0.33650685  0.49747856  0.49555690  1
  I  I122  1  0.33120616  0.49464602  0.83388882  1
  I  I123  1  0.33636808  0.83474574  0.16718343  1
  I  I124  1  0.33367063  0.83312325  0.49943262  1
  I  I125  1  0.33362178  0.83093707  0.83429430  1
  I  I126  1  0.66554323  0.16639584  0.16068731  1
  I  I127  1  0.66662828  0.16743194  0.50160482  1
  I  I128  1  0.66431452  0.16860075  0.83966166  1
  I  I129  1  0.66341893  0.49430992  0.16674555  1
  I  I130  1  0.66317909  0.49755938  0.49626637  1
  I  I131  1  0.66871188  0.50139933  0.83429381  1
  I  I132  1  0.66651420  0.83907901  0.16223813  1
  I  I133  1  0.66650510  0.83499391  0.50295550  1
  I  I134  1  0.67018429  0.82731165  0.83676561  1
