# generated using pymatgen
data_Cs27Sn13Pb14I81
_symmetry_space_group_name_H-M   'P 1'
_cell_length_a   18.97960619
_cell_length_b   18.96953984
_cell_length_c   18.98351652
_cell_angle_alpha   90.00169424
_cell_angle_beta   90.00068680
_cell_angle_gamma   89.99800888
_symmetry_Int_Tables_number   1
_chemical_formula_structural   Cs27Sn13Pb14I81
_chemical_formula_sum   'Cs27 Sn13 Pb14 I81'
_cell_volume   6834.71889192
_cell_formula_units_Z   1
loop_
 _symmetry_equiv_pos_site_id
 _symmetry_equiv_pos_as_xyz
  1  'x, y, z'
loop_
 _atom_site_type_symbol
 _atom_site_label
 _atom_site_symmetry_multiplicity
 _atom_site_fract_x
 _atom_site_fract_y
 _atom_site_fract_z
 _atom_site_occupancy
  Cs  Cs0  1  -0.00799507  -0.00799944  -0.00059785  1
  Cs  Cs1  1  -0.00226054  -0.00188517  0.33304086  1
  Cs  Cs2  1  -0.00211212  -0.00154708  0.66662223  1
  Cs  Cs3  1  0.00160970  0.33460410  0.00175664  1
  Cs  Cs4  1  0.00147763  0.33483578  0.33347170  1
  Cs  Cs5  1  -0.00079589  0.33289074  0.66473932  1
  Cs  Cs6  1  -0.00012200  0.67251830  -0.00830367  1
  Cs  Cs7  1  -0.00007247  0.66317241  0.33457188  1
  Cs  Cs8  1  0.00086562  0.66905366  0.67074334  1
  Cs  Cs9  1  0.33543030  0.00293746  -0.00062972  1
  Cs  Cs10  1  0.33311565  -0.00260374  0.33377729  1
  Cs  Cs11  1  0.33362159  0.00142781  0.66655404  1
  Cs  Cs12  1  0.33266445  0.33145633  0.00192810  1
  Cs  Cs13  1  0.33081453  0.33274825  0.33172665  1
  Cs  Cs14  1  0.33425948  0.33245354  0.66693458  1
  Cs  Cs15  1  0.33028804  0.66817780  -0.00133883  1
  Cs  Cs16  1  0.33471639  0.67248807  0.33513457  1
  Cs  Cs17  1  0.33504714  0.66770078  0.66685268  1
  Cs  Cs18  1  0.66954301  -0.00268240  0.00015879  1
  Cs  Cs19  1  0.66922359  -0.00133562  0.33106072  1
  Cs  Cs20  1  0.66746480  0.00374960  0.66884621  1
  Cs  Cs21  1  0.66634496  0.33412581  0.00047142  1
  Cs  Cs22  1  0.66790551  0.33397754  0.33293013  1
  Cs  Cs23  1  0.66629294  0.33426444  0.66818325  1
  Cs  Cs24  1  0.66897969  0.66819493  -0.00099077  1
  Cs  Cs25  1  0.66547958  0.66650426  0.33515697  1
  Cs  Cs26  1  0.66451209  0.66225089  0.66482266  1
  Sn  Sn27  1  0.16682640  0.16682328  0.83373624  1
  Sn  Sn28  1  0.83420959  0.50078715  0.49932980  1
  Sn  Sn29  1  0.49937622  0.16702760  0.49943261  1
  Sn  Sn30  1  0.49962737  0.83388921  0.83319182  1
  Sn  Sn31  1  0.16642600  0.49945764  0.49944259  1
  Sn  Sn32  1  0.83385314  0.49983726  0.16713126  1
  Sn  Sn33  1  0.49926660  0.16600757  0.83366194  1
  Sn  Sn34  1  0.49952518  0.16733080  0.16695249  1
  Sn  Sn35  1  0.16744842  0.16739087  0.49972914  1
  Sn  Sn36  1  0.16703806  0.16657709  0.16655789  1
  Sn  Sn37  1  0.83324286  0.83226059  0.49978324  1
  Sn  Sn38  1  0.49942909  0.49953693  0.16688913  1
  Sn  Sn39  1  0.16675639  0.49979168  0.16744523  1
  Pb  Pb40  1  0.83377933  0.16870580  0.16664927  1
  Pb  Pb41  1  0.83381596  0.16756007  0.49986480  1
  Pb  Pb42  1  0.16675588  0.83340820  0.16677952  1
  Pb  Pb43  1  0.83345319  0.16692678  0.83364682  1
  Pb  Pb44  1  0.83355018  0.49975508  0.83294887  1
  Pb  Pb45  1  0.16500546  0.83332680  0.49995707  1
  Pb  Pb46  1  0.50207463  0.83631035  0.50189791  1
  Pb  Pb47  1  0.49988725  0.83374430  0.16482043  1
  Pb  Pb48  1  0.49939402  0.49797610  0.49789532  1
  Pb  Pb49  1  0.16680674  0.49775547  0.83316423  1
  Pb  Pb50  1  0.16908808  0.83660398  0.83316605  1
  Pb  Pb51  1  0.83051636  0.83324971  0.83047068  1
  Pb  Pb52  1  0.83332523  0.82986390  0.16897919  1
  Pb  Pb53  1  0.49975498  0.49922299  0.83619632  1
  I  I54  1  0.17335307  0.00432026  0.16805829  1
  I  I55  1  0.16925769  0.00387170  0.49958756  1
  I  I56  1  0.16878326  0.00510410  0.83241909  1
  I  I57  1  0.16751604  0.33304302  0.16729163  1
  I  I58  1  0.16409417  0.33275215  0.49921240  1
  I  I59  1  0.17477066  0.32942206  0.83325032  1
  I  I60  1  0.16812557  0.66248085  0.17272736  1
  I  I61  1  0.16458300  0.66305975  0.49397411  1
  I  I62  1  0.16748155  0.66679378  0.83376239  1
  I  I63  1  0.49459825  0.00398425  0.16845678  1
  I  I64  1  0.49548733  0.00468322  0.49542374  1
  I  I65  1  0.49596027  0.00242305  0.83445009  1
  I  I66  1  0.49973989  0.33233081  0.16461752  1
  I  I67  1  0.50137236  0.32962330  0.50531399  1
  I  I68  1  0.49631869  0.32941914  0.83166141  1
  I  I69  1  0.49985201  0.66333117  0.16546331  1
  I  I70  1  0.49806979  0.66649688  0.50085785  1
  I  I71  1  0.50271323  0.66896939  0.83462253  1
  I  I72  1  0.83293303  -0.00020986  0.16760441  1
  I  I73  1  0.83241649  -0.00172853  0.50243803  1
  I  I74  1  0.83571705  -0.00002475  0.83090648  1
  I  I75  1  0.83276721  0.33694311  0.17444901  1
  I  I76  1  0.83472832  0.33660115  0.49547559  1
  I  I77  1  0.82928480  0.33333633  0.82988297  1
  I  I78  1  0.83236189  0.66152817  0.16824837  1
  I  I79  1  0.83778413  0.66477797  0.49548947  1
  I  I80  1  0.83097041  0.66665258  0.83611458  1
  I  I81  1  0.17458547  0.17219231  0.00087397  1
  I  I82  1  0.17303622  0.17167535  0.33332272  1
  I  I83  1  0.17271057  0.17033454  0.66588936  1
  I  I84  1  0.16676725  0.49550990  0.00361785  1
  I  I85  1  0.16461569  0.49123794  0.33313521  1
  I  I86  1  0.16102322  0.49557901  0.66314853  1
  I  I87  1  0.16571656  0.83155312  -0.00010937  1
  I  I88  1  0.16736769  0.83861075  0.33350449  1
  I  I89  1  0.16584422  0.83264124  0.66655063  1
  I  I90  1  0.49404985  0.16731736  0.00044614  1
  I  I91  1  0.49501572  0.17180951  0.33282003  1
  I  I92  1  0.49493662  0.16221709  0.66663710  1
  I  I93  1  0.49999770  0.49418146  0.00454290  1
  I  I94  1  0.50097812  0.49421467  0.32980571  1
  I  I95  1  0.50150968  0.49882022  0.66648411  1
  I  I96  1  0.50040796  0.83985876  -0.00293740  1
  I  I97  1  0.50146794  0.83443178  0.33349946  1
  I  I98  1  0.50064671  0.83942737  0.66971767  1
  I  I99  1  0.83309793  0.16904322  0.00025878  1
  I  I100  1  0.83082141  0.16344611  0.33343347  1
  I  I101  1  0.83237689  0.16883630  0.66642513  1
  I  I102  1  0.83311459  0.49680933  0.00360282  1
  I  I103  1  0.83415526  0.50316972  0.33347887  1
  I  I104  1  0.83776173  0.50301139  0.66268851  1
  I  I105  1  0.83301579  0.83280530  -0.00014557  1
  I  I106  1  0.83218889  0.83353336  0.33665882  1
  I  I107  1  0.83418173  0.82679032  0.66297518  1
  I  I108  1  0.00381027  0.17107869  0.16799819  1
  I  I109  1  0.00361030  0.16757782  0.49998208  1
  I  I110  1  0.00375794  0.16951985  0.83206295  1
  I  I111  1  0.00088506  0.49422483  0.17231394  1
  I  I112  1  0.00060251  0.49708061  0.49201485  1
  I  I113  1  0.00029065  0.49750731  0.83765377  1
  I  I114  1  -0.00007768  0.83640281  0.16579038  1
  I  I115  1  -0.00295977  0.83418222  0.49987715  1
  I  I116  1  -0.00011901  0.83440412  0.83353267  1
  I  I117  1  0.33353955  0.17437045  0.16602598  1
  I  I118  1  0.33268020  0.17176677  0.50070747  1
  I  I119  1  0.33387307  0.16326608  0.83323601  1
  I  I120  1  0.33268465  0.49421098  0.16961966  1
  I  I121  1  0.33022807  0.49641787  0.49655597  1
  I  I122  1  0.33338512  0.50324636  0.83165631  1
  I  I123  1  0.33346880  0.82814133  0.16732189  1
  I  I124  1  0.33355158  0.83100944  0.50130395  1
  I  I125  1  0.33682331  0.83505471  0.83277848  1
  I  I126  1  0.66331227  0.17066270  0.16647412  1
  I  I127  1  0.66379079  0.16647000  0.50092280  1
  I  I128  1  0.66272847  0.16320911  0.83269828  1
  I  I129  1  0.66647712  0.49562598  0.16990478  1
  I  I130  1  0.66888175  0.50213227  0.49594393  1
  I  I131  1  0.66642367  0.49735506  0.83320073  1
  I  I132  1  0.66659505  0.83417803  0.16617646  1
  I  I133  1  0.66974551  0.82681937  0.50042219  1
  I  I134  1  0.66304795  0.84243650  0.83439763  1
