# generated using pymatgen
data_Cs27Sn14Pb13I81
_symmetry_space_group_name_H-M   'P 1'
_cell_length_a   18.97490749
_cell_length_b   18.98418882
_cell_length_c   18.97007646
_cell_angle_alpha   89.99734277
_cell_angle_beta   89.99647512
_cell_angle_gamma   90.00048748
_symmetry_Int_Tables_number   1
_chemical_formula_structural   Cs27Sn14Pb13I81
_chemical_formula_sum   'Cs27 Sn14 Pb13 I81'
_cell_volume   6833.46213294
_cell_formula_units_Z   1
loop_
 _symmetry_equiv_pos_site_id
 _symmetry_equiv_pos_as_xyz
  1  'x, y, z'
loop_
 _atom_site_type_symbol
 _atom_site_label
 _atom_site_symmetry_multiplicity
 _atom_site_fract_x
 _atom_site_fract_y
 _atom_site_fract_z
 _atom_site_occupancy
  Cs  Cs0  1  0.00081447  -0.00289762  -0.00090827  1
  Cs  Cs1  1  0.00001725  0.00127592  0.33437792  1
  Cs  Cs2  1  0.00070545  -0.00207640  0.66665838  1
  Cs  Cs3  1  0.00122006  0.33553998  0.00223481  1
  Cs  Cs4  1  -0.00134051  0.33426905  0.33373417  1
  Cs  Cs5  1  -0.00058063  0.33310251  0.66441092  1
  Cs  Cs6  1  0.00098593  0.66780115  0.00015349  1
  Cs  Cs7  1  -0.00114352  0.66620296  0.33082983  1
  Cs  Cs8  1  -0.00102230  0.66879584  0.66927392  1
  Cs  Cs9  1  0.33465183  0.00179106  0.00199133  1
  Cs  Cs10  1  0.33273798  -0.00278874  0.33039561  1
  Cs  Cs11  1  0.33412020  0.00035858  0.66567642  1
  Cs  Cs12  1  0.33649172  0.33034465  -0.00026256  1
  Cs  Cs13  1  0.33029489  0.33465703  0.33864989  1
  Cs  Cs14  1  0.33049971  0.33416255  0.66137591  1
  Cs  Cs15  1  0.33289130  0.66671517  -0.00007066  1
  Cs  Cs16  1  0.33387294  0.66860728  0.33482286  1
  Cs  Cs17  1  0.33138470  0.66488155  0.66466238  1
  Cs  Cs18  1  0.66509164  0.00012717  0.00012173  1
  Cs  Cs19  1  0.66894643  0.00183741  0.33490164  1
  Cs  Cs20  1  0.66524994  0.00104301  0.66657587  1
  Cs  Cs21  1  0.66379389  0.33317194  -0.00288576  1
  Cs  Cs22  1  0.67103936  0.33066484  0.33482719  1
  Cs  Cs23  1  0.66794704  0.33519651  0.66967073  1
  Cs  Cs24  1  0.66645274  0.66669858  0.00022301  1
  Cs  Cs25  1  0.66666573  0.66699001  0.33542718  1
  Cs  Cs26  1  0.66754429  0.66462925  0.66457507  1
  Sn  Sn27  1  0.50033802  0.50000735  0.83396632  1
  Sn  Sn28  1  0.16686869  0.16674859  0.83414331  1
  Sn  Sn29  1  0.49949340  0.83335127  0.16578216  1
  Sn  Sn30  1  0.16725039  0.83398458  0.16711525  1
  Sn  Sn31  1  0.83323798  0.50089402  0.50073168  1
  Sn  Sn32  1  0.49920405  0.16690468  0.16635164  1
  Sn  Sn33  1  0.49980226  0.83313032  0.83390158  1
  Sn  Sn34  1  0.50000237  0.49971641  0.16624749  1
  Sn  Sn35  1  0.83295260  0.49951849  0.83301521  1
  Sn  Sn36  1  0.83410039  0.83270651  0.50008340  1
  Sn  Sn37  1  0.16581353  0.83341415  0.49928260  1
  Sn  Sn38  1  0.16736574  0.16602479  0.16572852  1
  Sn  Sn39  1  0.49963722  0.16683322  0.83358605  1
  Sn  Sn40  1  0.83350756  0.16719974  0.83366730  1
  Pb  Pb41  1  0.16693151  0.49723520  0.83358450  1
  Pb  Pb42  1  0.49998342  0.83338751  0.49963681  1
  Pb  Pb43  1  0.50203187  0.49985557  0.50015612  1
  Pb  Pb44  1  0.16671730  0.16444258  0.49931394  1
  Pb  Pb45  1  0.83089205  0.83307184  0.83167775  1
  Pb  Pb46  1  0.16922473  0.83533773  0.83386573  1
  Pb  Pb47  1  0.83353555  0.16663246  0.16379614  1
  Pb  Pb48  1  0.83075410  0.49996025  0.16585215  1
  Pb  Pb49  1  0.49988062  0.16678972  0.49953668  1
  Pb  Pb50  1  0.16361075  0.50296014  0.49995938  1
  Pb  Pb51  1  0.83342262  0.16671077  0.50271071  1
  Pb  Pb52  1  0.16946248  0.49977162  0.16641967  1
  Pb  Pb53  1  0.83321126  0.83345560  0.16882532  1
  I  I54  1  0.17492989  -0.00008062  0.16689853  1
  I  I55  1  0.15995112  -0.00338602  0.49898396  1
  I  I56  1  0.16578593  0.00343378  0.83362169  1
  I  I57  1  0.17026286  0.32983607  0.16132765  1
  I  I58  1  0.16581301  0.33328350  0.49955009  1
  I  I59  1  0.17093834  0.32895729  0.83968413  1
  I  I60  1  0.17079819  0.66989170  0.17151224  1
  I  I61  1  0.16709856  0.67096514  0.49417806  1
  I  I62  1  0.16662417  0.66693082  0.83288318  1
  I  I63  1  0.49559484  0.00002171  0.16015195  1
  I  I64  1  0.50377846  -0.00022184  0.50270889  1
  I  I65  1  0.50055118  0.00077063  0.83796808  1
  I  I66  1  0.49718441  0.33251233  0.15930461  1
  I  I67  1  0.50245611  0.33344441  0.49932939  1
  I  I68  1  0.50214407  0.33298595  0.83956841  1
  I  I69  1  0.49726543  0.66733241  0.16060498  1
  I  I70  1  0.49835950  0.66677384  0.50037198  1
  I  I71  1  0.50542901  0.66625400  0.83918674  1
  I  I72  1  0.82794786  0.00001244  0.16727654  1
  I  I73  1  0.83655951  -0.00281528  0.50031867  1
  I  I74  1  0.83157303  0.00261682  0.83234954  1
  I  I75  1  0.83471299  0.33332362  0.17309352  1
  I  I76  1  0.83042219  0.33615836  0.50220826  1
  I  I77  1  0.82763491  0.33354996  0.82750051  1
  I  I78  1  0.83328759  0.66673041  0.16264185  1
  I  I79  1  0.83638217  0.66652375  0.50667495  1
  I  I80  1  0.82751757  0.66392954  0.83051582  1
  I  I81  1  0.16809359  0.16044113  0.00022221  1
  I  I82  1  0.17304359  0.16450450  0.32965176  1
  I  I83  1  0.16787067  0.16597694  0.66977226  1
  I  I84  1  0.15960296  0.50627886  -0.00004799  1
  I  I85  1  0.16705401  0.49476096  0.33318514  1
  I  I86  1  0.17263141  0.49968272  0.66683347  1
  I  I87  1  0.16962288  0.83565907  0.00299497  1
  I  I88  1  0.16913564  0.83904924  0.33204771  1
  I  I89  1  0.16410450  0.83475446  0.66467147  1
  I  I90  1  0.49979620  0.16646645  -0.00077521  1
  I  I91  1  0.49487509  0.16538192  0.32912108  1
  I  I92  1  0.49996739  0.16610357  0.67087813  1
  I  I93  1  0.50598869  0.49987709  -0.00100271  1
  I  I94  1  0.50032599  0.50107835  0.33006483  1
  I  I95  1  0.50228794  0.50000977  0.67032522  1
  I  I96  1  0.49537230  0.83371830  0.00051547  1
  I  I97  1  0.49914225  0.83371025  0.32982404  1
  I  I98  1  0.50069551  0.83394731  0.66961351  1
  I  I99  1  0.83162353  0.17288120  -0.00435694  1
  I  I100  1  0.83262028  0.16726151  0.33329041  1
  I  I101  1  0.83164274  0.16742310  0.67103866  1
  I  I102  1  0.83057611  0.49489323  -0.00364458  1
  I  I103  1  0.83202014  0.50508046  0.33593910  1
  I  I104  1  0.82649675  0.49975927  0.66794554  1
  I  I105  1  0.83584685  0.83251238  -0.00023429  1
  I  I106  1  0.83177954  0.82699292  0.33697487  1
  I  I107  1  0.83808335  0.83254371  0.66374749  1
  I  I108  1  0.00341847  0.16056928  0.16272893  1
  I  I109  1  -0.00000069  0.16805490  0.50032869  1
  I  I110  1  0.00010571  0.17072608  0.83628369  1
  I  I111  1  -0.00000490  0.50029580  0.16721582  1
  I  I112  1  -0.00436612  0.50056376  0.50719097  1
  I  I113  1  -0.00319903  0.49558349  0.82786417  1
  I  I114  1  0.00329136  0.83877811  0.16897221  1
  I  I115  1  0.00025231  0.82995101  0.49528223  1
  I  I116  1  0.00013091  0.83392522  0.83492592  1
  I  I117  1  0.33415268  0.16477353  0.15775466  1
  I  I118  1  0.33316508  0.16516462  0.50640210  1
  I  I119  1  0.33444601  0.16569043  0.83779066  1
  I  I120  1  0.33774812  0.50048404  0.15886889  1
  I  I121  1  0.33330756  0.50082103  0.50094106  1
  I  I122  1  0.33707142  0.50025764  0.83831907  1
  I  I123  1  0.33407251  0.83441148  0.16926704  1
  I  I124  1  0.33088223  0.83569182  0.49847039  1
  I  I125  1  0.33741910  0.83218687  0.83198991  1
  I  I126  1  0.66306887  0.16563144  0.16333697  1
  I  I127  1  0.66689705  0.16281872  0.49826608  1
  I  I128  1  0.66545170  0.16735772  0.83606984  1
  I  I129  1  0.66228842  0.50013430  0.16515242  1
  I  I130  1  0.66986129  0.50777999  0.50174293  1
  I  I131  1  0.66581239  0.49517927  0.83291647  1
  I  I132  1  0.66292168  0.83447173  0.16365942  1
  I  I133  1  0.66913932  0.82903861  0.50102971  1
  I  I134  1  0.66279872  0.83802939  0.83783952  1
