# generated using pymatgen
data_Cs27Sn13Pb14I81
_symmetry_space_group_name_H-M   'P 1'
_cell_length_a   19.00231552
_cell_length_b   18.98768167
_cell_length_c   18.98364949
_cell_angle_alpha   89.99828087
_cell_angle_beta   90.00107847
_cell_angle_gamma   89.99960896
_symmetry_Int_Tables_number   1
_chemical_formula_structural   Cs27Sn13Pb14I81
_chemical_formula_sum   'Cs27 Sn13 Pb14 I81'
_cell_volume   6849.48901284
_cell_formula_units_Z   1
loop_
 _symmetry_equiv_pos_site_id
 _symmetry_equiv_pos_as_xyz
  1  'x, y, z'
loop_
 _atom_site_type_symbol
 _atom_site_label
 _atom_site_symmetry_multiplicity
 _atom_site_fract_x
 _atom_site_fract_y
 _atom_site_fract_z
 _atom_site_occupancy
  Cs  Cs0  1  -0.00117787  0.00241642  0.00834157  1
  Cs  Cs1  1  -0.00122093  -0.00314232  0.32905164  1
  Cs  Cs2  1  0.00077989  -0.00311328  0.66446904  1
  Cs  Cs3  1  -0.00190389  0.33072252  -0.01152759  1
  Cs  Cs4  1  -0.00045463  0.33574338  0.33619941  1
  Cs  Cs5  1  -0.00028890  0.33366189  0.66890459  1
  Cs  Cs6  1  0.00025404  0.66611474  -0.00219763  1
  Cs  Cs7  1  -0.00006012  0.66736126  0.33195853  1
  Cs  Cs8  1  0.00036231  0.66763930  0.66948728  1
  Cs  Cs9  1  0.33548708  0.00759008  0.00077975  1
  Cs  Cs10  1  0.32861687  0.00442673  0.33024464  1
  Cs  Cs11  1  0.33491993  -0.00294258  0.66883819  1
  Cs  Cs12  1  0.33289727  0.32876902  -0.00179984  1
  Cs  Cs13  1  0.33450573  0.33563038  0.33536927  1
  Cs  Cs14  1  0.32975600  0.33312517  0.66330521  1
  Cs  Cs15  1  0.33572489  0.66597822  0.00201891  1
  Cs  Cs16  1  0.33407145  0.66381836  0.33151503  1
  Cs  Cs17  1  0.33524001  0.66871191  0.66735894  1
  Cs  Cs18  1  0.66435992  0.00978332  -0.00131904  1
  Cs  Cs19  1  0.67283769  -0.00053406  0.33250829  1
  Cs  Cs20  1  0.66294963  -0.00621293  0.66842207  1
  Cs  Cs21  1  0.66829316  0.32897690  -0.00122268  1
  Cs  Cs22  1  0.66618091  0.33525451  0.33396875  1
  Cs  Cs23  1  0.67053078  0.33338983  0.66478488  1
  Cs  Cs24  1  0.66298823  0.66494429  0.00019992  1
  Cs  Cs25  1  0.66638782  0.66627208  0.33334943  1
  Cs  Cs26  1  0.66246639  0.67189320  0.66655916  1
  Sn  Sn27  1  0.83355623  0.16693146  0.50011446  1
  Sn  Sn28  1  0.49984038  0.49977074  0.83387834  1
  Sn  Sn29  1  0.16621259  0.16660034  0.50001053  1
  Sn  Sn30  1  0.16621197  0.49976080  0.16662369  1
  Sn  Sn31  1  0.50026514  0.16638746  0.49986288  1
  Sn  Sn32  1  0.16594328  0.83325863  0.83371362  1
  Sn  Sn33  1  0.83373954  0.50007500  0.16675314  1
  Sn  Sn34  1  0.83413432  0.50004150  0.49953390  1
  Sn  Sn35  1  0.83405479  0.83330277  0.83403769  1
  Sn  Sn36  1  0.16674739  0.83287746  0.50026890  1
  Sn  Sn37  1  0.50000833  0.50046242  0.16550000  1
  Sn  Sn38  1  0.49999566  0.83328607  0.16690795  1
  Sn  Sn39  1  0.16574385  0.50055499  0.49948330  1
  Pb  Pb40  1  0.50008344  0.16754242  0.16912880  1
  Pb  Pb41  1  0.83133765  0.50160293  0.83274534  1
  Pb  Pb42  1  0.49940428  0.83206176  0.83574138  1
  Pb  Pb43  1  0.49995859  0.16980299  0.83034839  1
  Pb  Pb44  1  0.50015987  0.49893466  0.49967657  1
  Pb  Pb45  1  0.49722342  0.83590622  0.49724129  1
  Pb  Pb46  1  0.83530350  0.83266494  0.50106152  1
  Pb  Pb47  1  0.16852992  0.50173558  0.83303343  1
  Pb  Pb48  1  0.16628376  0.17035088  0.16888255  1
  Pb  Pb49  1  0.16647781  0.16342272  0.83085872  1
  Pb  Pb50  1  0.83359505  0.16984803  0.16907785  1
  Pb  Pb51  1  0.83350902  0.16357300  0.83028615  1
  Pb  Pb52  1  0.16833672  0.83133029  0.16637926  1
  Pb  Pb53  1  0.83107711  0.83095733  0.16399424  1
  I  I54  1  0.17012440  0.00001178  0.16759333  1
  I  I55  1  0.16796659  0.00002870  0.50616616  1
  I  I56  1  0.16494796  -0.00459379  0.82696551  1
  I  I57  1  0.17125005  0.33863333  0.17303163  1
  I  I58  1  0.16731882  0.33399925  0.49434748  1
  I  I59  1  0.16864529  0.33346570  0.83315275  1
  I  I60  1  0.16606544  0.66314245  0.17399381  1
  I  I61  1  0.16201948  0.66560693  0.49977696  1
  I  I62  1  0.16416474  0.66932704  0.82581662  1
  I  I63  1  0.49834641  -0.00223472  0.16829585  1
  I  I64  1  0.50145561  0.00361469  0.49916677  1
  I  I65  1  0.50015379  0.00003990  0.83431437  1
  I  I66  1  0.49980693  0.33724761  0.16461561  1
  I  I67  1  0.49526595  0.33108635  0.49860183  1
  I  I68  1  0.50027205  0.33746751  0.84177707  1
  I  I69  1  0.49929599  0.66448230  0.16403120  1
  I  I70  1  0.49997753  0.66675277  0.50199082  1
  I  I71  1  0.50006509  0.66410146  0.83343145  1
  I  I72  1  0.83084597  -0.00008495  0.16725732  1
  I  I73  1  0.83364152  0.00243544  0.50315396  1
  I  I74  1  0.83620576  -0.00410962  0.83102433  1
  I  I75  1  0.82930655  0.33826292  0.16818963  1
  I  I76  1  0.83712059  0.33429895  0.49646206  1
  I  I77  1  0.83117867  0.33344207  0.83508736  1
  I  I78  1  0.83463399  0.66273545  0.17486139  1
  I  I79  1  0.83779717  0.66337376  0.49716958  1
  I  I80  1  0.83702393  0.66904841  0.82997382  1
  I  I81  1  0.16810267  0.16646956  -0.00000704  1
  I  I82  1  0.16707940  0.16094614  0.33791407  1
  I  I83  1  0.16677501  0.17409343  0.66191229  1
  I  I84  1  0.16531467  0.50432877  0.00273858  1
  I  I85  1  0.16899544  0.50175005  0.33459900  1
  I  I86  1  0.16391912  0.49742955  0.66306880  1
  I  I87  1  0.16427395  0.82824054  -0.00251196  1
  I  I88  1  0.16862576  0.83527189  0.33630872  1
  I  I89  1  0.16366701  0.83138483  0.66534707  1
  I  I90  1  0.49988773  0.16446570  0.00011490  1
  I  I91  1  0.49835284  0.17011141  0.33696423  1
  I  I92  1  0.49901795  0.16808715  0.66241489  1
  I  I93  1  0.49966356  0.50569894  0.00166884  1
  I  I94  1  0.49951158  0.50184281  0.33063587  1
  I  I95  1  0.49982903  0.49838004  0.66825717  1
  I  I96  1  0.49783120  0.82854817  0.00323415  1
  I  I97  1  0.49923739  0.82350425  0.33018965  1
  I  I98  1  0.50128899  0.83234072  0.66659553  1
  I  I99  1  0.83217031  0.16748237  -0.00014847  1
  I  I100  1  0.83356312  0.16655209  0.33763865  1
  I  I101  1  0.83440537  0.17606256  0.66203079  1
  I  I102  1  0.83518322  0.50399834  0.00270893  1
  I  I103  1  0.83157068  0.49686284  0.33401764  1
  I  I104  1  0.83713970  0.49618336  0.66326437  1
  I  I105  1  0.84124746  0.82936258  -0.00350209  1
  I  I106  1  0.83344837  0.83544826  0.33319047  1
  I  I107  1  0.83390468  0.83099533  0.66886265  1
  I  I108  1  -0.00001374  0.16442939  0.16965762  1
  I  I109  1  0.00032567  0.16888346  0.50035467  1
  I  I110  1  0.00000632  0.17172619  0.83051459  1
  I  I111  1  0.00013338  0.50058059  0.17482626  1
  I  I112  1  0.00058598  0.49563473  0.49259741  1
  I  I113  1  0.00003631  0.50003855  0.83576357  1
  I  I114  1  0.00005244  0.83221872  0.16825098  1
  I  I115  1  0.00343159  0.83665310  0.50070118  1
  I  I116  1  0.00086185  0.83034258  0.82714505  1
  I  I117  1  0.33325997  0.16839468  0.17053869  1
  I  I118  1  0.33226634  0.16820981  0.49942690  1
  I  I119  1  0.33332281  0.16447088  0.83026475  1
  I  I120  1  0.33333954  0.50456264  0.16857636  1
  I  I121  1  0.33053059  0.49875293  0.49754262  1
  I  I122  1  0.33614729  0.50339084  0.83633512  1
  I  I123  1  0.33588614  0.82526800  0.16674542  1
  I  I124  1  0.32925149  0.83083876  0.50668787  1
  I  I125  1  0.33070382  0.83086144  0.82793980  1
  I  I126  1  0.66670764  0.16778739  0.17067935  1
  I  I127  1  0.66742342  0.17444928  0.49927326  1
  I  I128  1  0.66664474  0.16361485  0.82986711  1
  I  I129  1  0.66652186  0.50447864  0.16835610  1
  I  I130  1  0.66920875  0.49451037  0.49759072  1
  I  I131  1  0.66378013  0.50360087  0.83635481  1
  I  I132  1  0.66350946  0.82571114  0.16659417  1
  I  I133  1  0.66659504  0.83343962  0.50219825  1
  I  I134  1  0.66834139  0.83040549  0.83274940  1
