# generated using pymatgen
data_Cs27Sn13Pb14I81
_symmetry_space_group_name_H-M   'P 1'
_cell_length_a   18.97395999
_cell_length_b   18.97474797
_cell_length_c   18.98343196
_cell_angle_alpha   90.00098286
_cell_angle_beta   90.00196410
_cell_angle_gamma   90.00141663
_symmetry_Int_Tables_number   1
_chemical_formula_structural   Cs27Sn13Pb14I81
_chemical_formula_sum   'Cs27 Sn13 Pb14 I81'
_cell_volume   6834.53113368
_cell_formula_units_Z   1
loop_
 _symmetry_equiv_pos_site_id
 _symmetry_equiv_pos_as_xyz
  1  'x, y, z'
loop_
 _atom_site_type_symbol
 _atom_site_label
 _atom_site_symmetry_multiplicity
 _atom_site_fract_x
 _atom_site_fract_y
 _atom_site_fract_z
 _atom_site_occupancy
  Cs  Cs0  1  0.00136592  0.00265740  0.00213187  1
  Cs  Cs1  1  0.00004755  0.00048614  0.33130628  1
  Cs  Cs2  1  -0.00240464  -0.00162991  0.66601788  1
  Cs  Cs3  1  0.00032748  0.33293938  0.00568873  1
  Cs  Cs4  1  -0.00643888  0.33062487  0.33294828  1
  Cs  Cs5  1  0.00115344  0.33313832  0.66333925  1
  Cs  Cs6  1  -0.00324496  0.66499355  -0.00480038  1
  Cs  Cs7  1  0.00212234  0.66911290  0.33206888  1
  Cs  Cs8  1  0.00056717  0.66821743  0.67149531  1
  Cs  Cs9  1  0.33259180  0.00320561  0.00094969  1
  Cs  Cs10  1  0.33298894  -0.00763960  0.33250404  1
  Cs  Cs11  1  0.33300116  0.00286988  0.66736531  1
  Cs  Cs12  1  0.33363552  0.33318048  -0.00108845  1
  Cs  Cs13  1  0.33449322  0.33492266  0.33417502  1
  Cs  Cs14  1  0.33320751  0.33300767  0.66776724  1
  Cs  Cs15  1  0.33386156  0.66478076  0.00083387  1
  Cs  Cs16  1  0.33479610  0.67133369  0.33418452  1
  Cs  Cs17  1  0.33239237  0.66557976  0.66508176  1
  Cs  Cs18  1  0.66497753  -0.00248846  -0.00310599  1
  Cs  Cs19  1  0.66714075  -0.00023419  0.33287355  1
  Cs  Cs20  1  0.66973376  0.00177839  0.66966279  1
  Cs  Cs21  1  0.66380707  0.33398370  0.00282359  1
  Cs  Cs22  1  0.67144485  0.33265054  0.33532580  1
  Cs  Cs23  1  0.66761329  0.33253798  0.66117230  1
  Cs  Cs24  1  0.66899718  0.66778469  -0.00179812  1
  Cs  Cs25  1  0.66332036  0.66709285  0.33579283  1
  Cs  Cs26  1  0.66792958  0.66501314  0.66721081  1
  Sn  Sn27  1  0.49876730  0.83252000  0.83316299  1
  Sn  Sn28  1  0.49904952  0.16649105  0.49875660  1
  Sn  Sn29  1  0.83323842  0.83307477  0.16761628  1
  Sn  Sn30  1  0.49913627  0.49929311  0.16625787  1
  Sn  Sn31  1  0.16741101  0.50003463  0.16676239  1
  Sn  Sn32  1  0.16687629  0.49933444  0.49970910  1
  Sn  Sn33  1  0.49966403  0.16712047  0.16792534  1
  Sn  Sn34  1  0.16758445  0.16703134  0.49969888  1
  Sn  Sn35  1  0.16760262  0.50047685  0.83350590  1
  Sn  Sn36  1  0.49933795  0.50083122  0.83378508  1
  Sn  Sn37  1  0.83323932  0.83295943  0.49896646  1
  Sn  Sn38  1  0.16796860  0.83321449  0.83347832  1
  Sn  Sn39  1  0.83359792  0.16765996  0.83373005  1
  Pb  Pb40  1  0.83067987  0.16473318  0.16463019  1
  Pb  Pb41  1  0.50177534  0.83586534  0.50286047  1
  Pb  Pb42  1  0.83271520  0.50203901  0.16674754  1
  Pb  Pb43  1  0.16530650  0.83329058  0.50197366  1
  Pb  Pb44  1  0.83351908  0.83456728  0.83347461  1
  Pb  Pb45  1  0.16482509  0.16742786  0.83169246  1
  Pb  Pb46  1  0.83640014  0.50269374  0.49998390  1
  Pb  Pb47  1  0.16898906  0.16886737  0.16945640  1
  Pb  Pb48  1  0.16490403  0.83078214  0.16384289  1
  Pb  Pb49  1  0.50129986  0.83275998  0.16458515  1
  Pb  Pb50  1  0.49815574  0.49838614  0.49998034  1
  Pb  Pb51  1  0.83316952  0.49711538  0.83338310  1
  Pb  Pb52  1  0.83352771  0.16504112  0.50110789  1
  Pb  Pb53  1  0.50111369  0.16754628  0.83329733  1
  I  I54  1  0.16659210  -0.00004661  0.16623872  1
  I  I55  1  0.16851865  0.00247782  0.50345047  1
  I  I56  1  0.16864369  -0.00227015  0.83041110  1
  I  I57  1  0.16747875  0.33716673  0.15978648  1
  I  I58  1  0.17034586  0.33394032  0.50404137  1
  I  I59  1  0.17059016  0.33690730  0.83423367  1
  I  I60  1  0.17348763  0.66259579  0.17209583  1
  I  I61  1  0.16434939  0.66366652  0.49959315  1
  I  I62  1  0.16872033  0.66556875  0.83081382  1
  I  I63  1  0.50337999  0.00225357  0.16817174  1
  I  I64  1  0.49383332  0.00384937  0.49590363  1
  I  I65  1  0.49884670  -0.00195449  0.83307577  1
  I  I66  1  0.49666969  0.33429335  0.16273730  1
  I  I67  1  0.49934552  0.33034103  0.50235312  1
  I  I68  1  0.49606385  0.33642269  0.83475615  1
  I  I69  1  0.49748847  0.66343440  0.16382100  1
  I  I70  1  0.50011242  0.66669561  0.49806075  1
  I  I71  1  0.49756445  0.66577646  0.83867241  1
  I  I72  1  0.83215609  -0.00301642  0.16888341  1
  I  I73  1  0.83530702  -0.00265550  0.49884157  1
  I  I74  1  0.83188557  0.00195920  0.83244697  1
  I  I75  1  0.83498981  0.33333578  0.16472298  1
  I  I76  1  0.83230454  0.33320231  0.50243295  1
  I  I77  1  0.83240947  0.32985101  0.83169651  1
  I  I78  1  0.83201760  0.66984031  0.16820833  1
  I  I79  1  0.83362683  0.67046681  0.49860638  1
  I  I80  1  0.83349742  0.66648177  0.83306621  1
  I  I81  1  0.16622108  0.16640458  0.00017618  1
  I  I82  1  0.16616931  0.17134736  0.33736499  1
  I  I83  1  0.17203964  0.17161864  0.66385965  1
  I  I84  1  0.17031433  0.50508326  -0.00064301  1
  I  I85  1  0.16991872  0.49541736  0.33319560  1
  I  I86  1  0.16994377  0.50007724  0.66748516  1
  I  I87  1  0.16732817  0.82924760  -0.00412103  1
  I  I88  1  0.16560807  0.83231500  0.33323706  1
  I  I89  1  0.16661011  0.82789665  0.66985778  1
  I  I90  1  0.50334471  0.16766453  0.00198667  1
  I  I91  1  0.49757583  0.17241709  0.33316851  1
  I  I92  1  0.49849570  0.16605445  0.66458795  1
  I  I93  1  0.49278493  0.49756849  -0.00022977  1
  I  I94  1  0.49621854  0.49781493  0.33049814  1
  I  I95  1  0.49621302  0.50209609  0.66953698  1
  I  I96  1  0.50012161  0.83475505  -0.00334045  1
  I  I97  1  0.50092009  0.83168975  0.33337513  1
  I  I98  1  0.49937007  0.82871159  0.67072906  1
  I  I99  1  0.83256856  0.16324180  -0.00278501  1
  I  I100  1  0.83439620  0.16612520  0.33318328  1
  I  I101  1  0.83051698  0.16264488  0.66871016  1
  I  I102  1  0.83769833  0.50275160  -0.00004894  1
  I  I103  1  0.83311992  0.49781553  0.33335275  1
  I  I104  1  0.83259912  0.50252751  0.66677561  1
  I  I105  1  0.83263160  0.83469795  0.00160709  1
  I  I106  1  0.83366776  0.83440030  0.33340448  1
  I  I107  1  0.83404828  0.83628377  0.66522674  1
  I  I108  1  0.00012892  0.16741675  0.16663598  1
  I  I109  1  0.00269932  0.16999163  0.50376828  1
  I  I110  1  -0.00253555  0.16392834  0.83036554  1
  I  I111  1  0.00322975  0.50231260  0.16491828  1
  I  I112  1  0.00492420  0.49288084  0.50095504  1
  I  I113  1  0.00356201  0.50443575  0.83340950  1
  I  I114  1  -0.00287007  0.83267042  0.16799375  1
  I  I115  1  -0.00252715  0.83521807  0.49981299  1
  I  I116  1  0.00244273  0.82941630  0.83266004  1
  I  I117  1  0.33702305  0.16707608  0.16502449  1
  I  I118  1  0.33328637  0.17037782  0.49937313  1
  I  I119  1  0.33328294  0.16513601  0.83370968  1
  I  I120  1  0.33361054  0.49640801  0.16434956  1
  I  I121  1  0.32989928  0.49898862  0.50142943  1
  I  I122  1  0.33300167  0.50357423  0.83405496  1
  I  I123  1  0.33335621  0.83520502  0.16678514  1
  I  I124  1  0.33332232  0.83285036  0.50020156  1
  I  I125  1  0.33335164  0.83012152  0.83275288  1
  I  I126  1  0.66279617  0.17376242  0.17205552  1
  I  I127  1  0.66406133  0.16520615  0.49890921  1
  I  I128  1  0.66854330  0.16371897  0.83126841  1
  I  I129  1  0.66290517  0.49741308  0.16066040  1
  I  I130  1  0.66641054  0.49854855  0.50085160  1
  I  I131  1  0.66311512  0.50389451  0.83862037  1
  I  I132  1  0.66913967  0.83240022  0.16695275  1
  I  I133  1  0.66955816  0.83572270  0.49913355  1
  I  I134  1  0.66433005  0.83101632  0.83377755  1
