# generated using pymatgen
data_Cs27Sn14Pb13I81
_symmetry_space_group_name_H-M   'P 1'
_cell_length_a   18.98656354
_cell_length_b   18.97738091
_cell_length_c   18.96191668
_cell_angle_alpha   90.00074351
_cell_angle_beta   89.99987837
_cell_angle_gamma   89.99919851
_symmetry_Int_Tables_number   1
_chemical_formula_structural   Cs27Sn14Pb13I81
_chemical_formula_sum   'Cs27 Sn14 Pb13 I81'
_cell_volume   6832.26771755
_cell_formula_units_Z   1
loop_
 _symmetry_equiv_pos_site_id
 _symmetry_equiv_pos_as_xyz
  1  'x, y, z'
loop_
 _atom_site_type_symbol
 _atom_site_label
 _atom_site_symmetry_multiplicity
 _atom_site_fract_x
 _atom_site_fract_y
 _atom_site_fract_z
 _atom_site_occupancy
  Cs  Cs0  1  -0.00035326  -0.00409604  -0.01105196  1
  Cs  Cs1  1  0.00133000  0.00290580  0.33452219  1
  Cs  Cs2  1  -0.00098910  -0.00093412  0.67149362  1
  Cs  Cs3  1  0.00278453  0.33191923  -0.00155938  1
  Cs  Cs4  1  -0.00083000  0.33267830  0.33374500  1
  Cs  Cs5  1  -0.00189476  0.33331465  0.66708491  1
  Cs  Cs6  1  0.00575157  0.67422980  0.00806211  1
  Cs  Cs7  1  -0.00093311  0.66546528  0.33362668  1
  Cs  Cs8  1  -0.00135472  0.66754591  0.66439097  1
  Cs  Cs9  1  0.33337954  -0.00119730  0.00028663  1
  Cs  Cs10  1  0.33395579  0.00293169  0.33360142  1
  Cs  Cs11  1  0.33672315  -0.00075484  0.66592353  1
  Cs  Cs12  1  0.33337729  0.33957722  -0.00418631  1
  Cs  Cs13  1  0.33125754  0.32776203  0.33517330  1
  Cs  Cs14  1  0.33474085  0.33532458  0.66772328  1
  Cs  Cs15  1  0.32885853  0.65918138  0.00607036  1
  Cs  Cs16  1  0.33284345  0.66890197  0.33105106  1
  Cs  Cs17  1  0.33514924  0.66555041  0.66685258  1
  Cs  Cs18  1  0.66743078  -0.00127720  -0.00220209  1
  Cs  Cs19  1  0.66495658  0.00298895  0.33360156  1
  Cs  Cs20  1  0.66445109  -0.00078127  0.66763627  1
  Cs  Cs21  1  0.66498928  0.33468775  -0.00030915  1
  Cs  Cs22  1  0.66861862  0.33006913  0.33440112  1
  Cs  Cs23  1  0.66674189  0.33508012  0.66552925  1
  Cs  Cs24  1  0.66530773  0.66561806  0.01075735  1
  Cs  Cs25  1  0.66771500  0.66707855  0.33002940  1
  Cs  Cs26  1  0.66613075  0.66536237  0.66563253  1
  Sn  Sn27  1  0.83307392  0.83367214  0.50008212  1
  Sn  Sn28  1  0.49990677  0.83299674  0.83312706  1
  Sn  Sn29  1  0.49986556  0.16666137  0.16489354  1
  Sn  Sn30  1  0.83438079  0.16632184  0.49984085  1
  Sn  Sn31  1  0.83360614  0.50086481  0.83340950  1
  Sn  Sn32  1  0.16673189  0.83369086  0.50017877  1
  Sn  Sn33  1  0.16665173  0.49982641  0.50012843  1
  Sn  Sn34  1  0.50017889  0.50118453  0.49982037  1
  Sn  Sn35  1  0.16622912  0.16634695  0.16684391  1
  Sn  Sn36  1  0.83389428  0.16645766  0.16670179  1
  Sn  Sn37  1  0.50016069  0.83218238  0.50048636  1
  Sn  Sn38  1  0.16540876  0.16648578  0.50013248  1
  Sn  Sn39  1  0.83316311  0.50004227  0.50067771  1
  Sn  Sn40  1  0.50008310  0.16621681  0.83440429  1
  Pb  Pb41  1  0.83342902  0.83650869  0.16915940  1
  Pb  Pb42  1  0.16645967  0.49731943  0.16935495  1
  Pb  Pb43  1  0.16959186  0.83302578  0.83099171  1
  Pb  Pb44  1  0.16350176  0.50026073  0.83110358  1
  Pb  Pb45  1  0.83082221  0.83013104  0.83140894  1
  Pb  Pb46  1  0.49995472  0.49710485  0.17003358  1
  Pb  Pb47  1  0.49985906  0.83539289  0.16680003  1
  Pb  Pb48  1  0.50178966  0.50090953  0.83166324  1
  Pb  Pb49  1  0.16667871  0.83632233  0.16911914  1
  Pb  Pb50  1  0.83124321  0.16814142  0.83300663  1
  Pb  Pb51  1  0.16927392  0.16666775  0.83278916  1
  Pb  Pb52  1  0.50007887  0.16656064  0.50015537  1
  Pb  Pb53  1  0.83357760  0.49775062  0.16688565  1
  I  I54  1  0.16802267  0.00452791  0.17544601  1
  I  I55  1  0.16561381  0.00052116  0.49548726  1
  I  I56  1  0.16412824  0.00007279  0.83006490  1
  I  I57  1  0.16665204  0.32900977  0.17451349  1
  I  I58  1  0.16484958  0.33281824  0.49570335  1
  I  I59  1  0.17002855  0.33325024  0.83006655  1
  I  I60  1  0.16767798  0.66674823  0.16726433  1
  I  I61  1  0.16459816  0.66666131  0.50264409  1
  I  I62  1  0.16956663  0.66662030  0.83067136  1
  I  I63  1  0.50015962  0.00393774  0.17032411  1
  I  I64  1  0.50011364  -0.00216605  0.50021521  1
  I  I65  1  0.50102085  0.00023015  0.82890953  1
  I  I66  1  0.50048021  0.32869756  0.16300454  1
  I  I67  1  0.50053665  0.33524059  0.49955353  1
  I  I68  1  0.50119226  0.33115047  0.83524476  1
  I  I69  1  0.50047084  0.66657603  0.16461092  1
  I  I70  1  0.49998079  0.66735944  0.50649960  1
  I  I71  1  0.50171198  0.66946042  0.82573769  1
  I  I72  1  0.83190501  0.00482911  0.17351390  1
  I  I73  1  0.83450346  0.00052722  0.49475216  1
  I  I74  1  0.83325695  -0.00027726  0.83255923  1
  I  I75  1  0.83254742  0.32937614  0.17496158  1
  I  I76  1  0.83458273  0.33305696  0.49947006  1
  I  I77  1  0.82983742  0.33559879  0.82467586  1
  I  I78  1  0.83164313  0.66671654  0.16757756  1
  I  I79  1  0.83500250  0.66638603  0.50536331  1
  I  I80  1  0.83095129  0.66283882  0.82263119  1
  I  I81  1  0.16383580  0.16691994  0.00301563  1
  I  I82  1  0.16901304  0.16698440  0.33508436  1
  I  I83  1  0.16313987  0.16686892  0.66262154  1
  I  I84  1  0.16638440  0.49757512  0.00014530  1
  I  I85  1  0.16346960  0.50201096  0.33841849  1
  I  I86  1  0.16953109  0.49581843  0.66168459  1
  I  I87  1  0.16771220  0.83535009  0.00006143  1
  I  I88  1  0.16976726  0.83107236  0.33839975  1
  I  I89  1  0.16414184  0.83718146  0.66164685  1
  I  I90  1  0.50119910  0.16076261  0.00030613  1
  I  I91  1  0.50015623  0.16752146  0.33170210  1
  I  I92  1  0.50050732  0.16594749  0.66829405  1
  I  I93  1  0.50293067  0.50152887  0.00007472  1
  I  I94  1  0.50337321  0.50479796  0.33852892  1
  I  I95  1  0.49849484  0.49730111  0.66282413  1
  I  I96  1  0.50213387  0.83817753  -0.00286421  1
  I  I97  1  0.49993615  0.83113748  0.33720158  1
  I  I98  1  0.49987646  0.83754846  0.66457006  1
  I  I99  1  0.83473647  0.17027555  0.00266799  1
  I  I100  1  0.83090237  0.16848192  0.33518678  1
  I  I101  1  0.83616973  0.16563720  0.66301935  1
  I  I102  1  0.82923010  0.49549979  -0.00259643  1
  I  I103  1  0.83365116  0.50120228  0.33756598  1
  I  I104  1  0.83286180  0.49649170  0.66316669  1
  I  I105  1  0.83086154  0.83302275  -0.00018496  1
  I  I106  1  0.83022577  0.82781394  0.33851514  1
  I  I107  1  0.83539531  0.83919287  0.66210366  1
  I  I108  1  -0.00006311  0.16836970  0.17611685  1
  I  I109  1  -0.00038809  0.16756091  0.49277412  1
  I  I110  1  -0.00011314  0.16823702  0.83514491  1
  I  I111  1  -0.00005552  0.49712852  0.16886829  1
  I  I112  1  -0.00046590  0.50100381  0.50326144  1
  I  I113  1  -0.00409093  0.49598862  0.82469449  1
  I  I114  1  0.00000187  0.83435715  0.16817181  1
  I  I115  1  -0.00021298  0.83144338  0.49790951  1
  I  I116  1  -0.00027349  0.83370061  0.83190447  1
  I  I117  1  0.33308407  0.16590281  0.17074715  1
  I  I118  1  0.33122474  0.16690288  0.49735324  1
  I  I119  1  0.33728974  0.16400619  0.83450379  1
  I  I120  1  0.33332408  0.49694375  0.16797729  1
  I  I121  1  0.33331249  0.50057746  0.49902885  1
  I  I122  1  0.33350369  0.49847720  0.83080118  1
  I  I123  1  0.33337659  0.83756768  0.17080839  1
  I  I124  1  0.33363598  0.83210878  0.50348922  1
  I  I125  1  0.33755421  0.83908965  0.82494215  1
  I  I126  1  0.66691924  0.16697203  0.16984372  1
  I  I127  1  0.66898915  0.16737129  0.49743840  1
  I  I128  1  0.66342377  0.16390778  0.83490256  1
  I  I129  1  0.66671892  0.49640928  0.17013533  1
  I  I130  1  0.66730469  0.50047272  0.50379051  1
  I  I131  1  0.66924922  0.49762449  0.82325426  1
  I  I132  1  0.66660842  0.83655947  0.17044940  1
  I  I133  1  0.66651237  0.83203529  0.50358776  1
  I  I134  1  0.66322498  0.83921160  0.82439044  1
