# generated using pymatgen
data_Cs27Sn13Pb14I81
_symmetry_space_group_name_H-M   'P 1'
_cell_length_a   18.97458594
_cell_length_b   18.97983896
_cell_length_c   18.97552352
_cell_angle_alpha   90.00057650
_cell_angle_beta   90.00248310
_cell_angle_gamma   90.00151557
_symmetry_Int_Tables_number   1
_chemical_formula_structural   Cs27Sn13Pb14I81
_chemical_formula_sum   'Cs27 Sn13 Pb14 I81'
_cell_volume   6833.74228854
_cell_formula_units_Z   1
loop_
 _symmetry_equiv_pos_site_id
 _symmetry_equiv_pos_as_xyz
  1  'x, y, z'
loop_
 _atom_site_type_symbol
 _atom_site_label
 _atom_site_symmetry_multiplicity
 _atom_site_fract_x
 _atom_site_fract_y
 _atom_site_fract_z
 _atom_site_occupancy
  Cs  Cs0  1  0.00089746  0.00203862  0.00063232  1
  Cs  Cs1  1  -0.00155486  -0.00175959  0.33255930  1
  Cs  Cs2  1  -0.00069742  0.00148176  0.66766340  1
  Cs  Cs3  1  0.00152073  0.32811266  -0.00099904  1
  Cs  Cs4  1  -0.00070136  0.33285842  0.33442367  1
  Cs  Cs5  1  -0.00094782  0.33366986  0.66726472  1
  Cs  Cs6  1  0.00058499  0.67011119  0.00337482  1
  Cs  Cs7  1  0.00055009  0.67058291  0.33085334  1
  Cs  Cs8  1  0.00140746  0.66493020  0.66601546  1
  Cs  Cs9  1  0.33708170  0.00279129  -0.00181383  1
  Cs  Cs10  1  0.33383399  -0.00182723  0.33792370  1
  Cs  Cs11  1  0.33561425  -0.00231953  0.66534084  1
  Cs  Cs12  1  0.33248629  0.33390573  0.00378171  1
  Cs  Cs13  1  0.33360818  0.33530208  0.33063332  1
  Cs  Cs14  1  0.33205851  0.33375694  0.66449797  1
  Cs  Cs15  1  0.33540530  0.66289254  -0.00121734  1
  Cs  Cs16  1  0.33069249  0.66609781  0.33382202  1
  Cs  Cs17  1  0.33085624  0.66939041  0.66714833  1
  Cs  Cs18  1  0.66603314  -0.00086511  0.00077062  1
  Cs  Cs19  1  0.66729956  0.00218975  0.33167570  1
  Cs  Cs20  1  0.66535522  0.00036280  0.66698064  1
  Cs  Cs21  1  0.66675529  0.33429730  -0.00090285  1
  Cs  Cs22  1  0.66715906  0.33233247  0.33476518  1
  Cs  Cs23  1  0.66925092  0.34202443  0.66557869  1
  Cs  Cs24  1  0.66449431  0.66864759  -0.00063263  1
  Cs  Cs25  1  0.66791330  0.66238339  0.33394246  1
  Cs  Cs26  1  0.66786721  0.65992444  0.66629973  1
  Sn  Sn27  1  0.83274297  0.16751868  0.16710882  1
  Sn  Sn28  1  0.83297381  0.83407585  0.50101561  1
  Sn  Sn29  1  0.16660415  0.83297719  0.83351360  1
  Sn  Sn30  1  0.83393731  0.16591925  0.49974478  1
  Sn  Sn31  1  0.50089411  0.16567986  0.16589020  1
  Sn  Sn32  1  0.83322334  0.83366012  0.83235687  1
  Sn  Sn33  1  0.16592098  0.16712830  0.49998111  1
  Sn  Sn34  1  0.50026071  0.83402774  0.83389210  1
  Sn  Sn35  1  0.16645664  0.50035364  0.83306381  1
  Sn  Sn36  1  0.16629813  0.49925021  0.50044394  1
  Sn  Sn37  1  0.83347673  0.49882731  0.16627088  1
  Sn  Sn38  1  0.49991391  0.83400057  0.16642570  1
  Sn  Sn39  1  0.50041679  0.16659000  0.83359222  1
  Pb  Pb40  1  0.16441534  0.83357342  0.50192152  1
  Pb  Pb41  1  0.16703588  0.16634577  0.16932854  1
  Pb  Pb42  1  0.50217420  0.49972624  0.16656464  1
  Pb  Pb43  1  0.83548628  0.49987993  0.49835541  1
  Pb  Pb44  1  0.83157527  0.83411833  0.16656608  1
  Pb  Pb45  1  0.17013710  0.83364940  0.16374626  1
  Pb  Pb46  1  0.83115903  0.16499112  0.83313519  1
  Pb  Pb47  1  0.16903992  0.16647411  0.83119955  1
  Pb  Pb48  1  0.83592262  0.50267538  0.83580510  1
  Pb  Pb49  1  0.16423324  0.49995121  0.16651501  1
  Pb  Pb50  1  0.50062724  0.16679027  0.49999118  1
  Pb  Pb51  1  0.49765370  0.50007240  0.83327090  1
  Pb  Pb52  1  0.50290666  0.83319555  0.50030853  1
  Pb  Pb53  1  0.49675393  0.50012933  0.49993807  1
  I  I54  1  0.16073803  0.00001157  0.16733683  1
  I  I55  1  0.16477112  0.00251213  0.50064610  1
  I  I56  1  0.16569807  -0.00285663  0.83199969  1
  I  I57  1  0.17066247  0.33313637  0.16227087  1
  I  I58  1  0.16123510  0.33308226  0.50617673  1
  I  I59  1  0.16844995  0.33550967  0.83074594  1
  I  I60  1  0.16497815  0.66680744  0.17155822  1
  I  I61  1  0.16549375  0.66452351  0.50261502  1
  I  I62  1  0.16834688  0.66744037  0.82722548  1
  I  I63  1  0.50641108  0.00082047  0.16156928  1
  I  I64  1  0.49460822  0.00007027  0.50039451  1
  I  I65  1  0.49783325  -0.00117702  0.83752234  1
  I  I66  1  0.50153364  0.32972635  0.16262196  1
  I  I67  1  0.50415943  0.33298970  0.50068958  1
  I  I68  1  0.49838915  0.33034325  0.83782318  1
  I  I69  1  0.50170812  0.66962862  0.16128725  1
  I  I70  1  0.50125928  0.66701128  0.49927813  1
  I  I71  1  0.50142844  0.67024023  0.83798693  1
  I  I72  1  0.83066436  0.00285177  0.16853497  1
  I  I73  1  0.83922219  0.00094750  0.49756004  1
  I  I74  1  0.83799018  -0.00337866  0.83402718  1
  I  I75  1  0.82817151  0.33137732  0.17268095  1
  I  I76  1  0.83496245  0.33039715  0.49689690  1
  I  I77  1  0.83274515  0.33330349  0.83139661  1
  I  I78  1  0.83288981  0.66540353  0.16666173  1
  I  I79  1  0.83371171  0.66913580  0.50215199  1
  I  I80  1  0.82810102  0.67092787  0.82902558  1
  I  I81  1  0.16433494  0.16711767  -0.00022359  1
  I  I82  1  0.16706989  0.17289682  0.33736272  1
  I  I83  1  0.16162728  0.16781719  0.66344107  1
  I  I84  1  0.16654891  0.50566305  -0.00297963  1
  I  I85  1  0.16573519  0.49531558  0.33621787  1
  I  I86  1  0.16595502  0.50053707  0.66671159  1
  I  I87  1  0.16038308  0.82767223  -0.00471469  1
  I  I88  1  0.16639940  0.83182965  0.33358360  1
  I  I89  1  0.17161860  0.83232051  0.67011966  1
  I  I90  1  0.50458691  0.16169429  0.00061895  1
  I  I91  1  0.50133094  0.16210370  0.33018763  1
  I  I92  1  0.49817727  0.16036262  0.66941462  1
  I  I93  1  0.49725477  0.50016655  -0.00008393  1
  I  I94  1  0.49792754  0.50077869  0.33297310  1
  I  I95  1  0.50400611  0.49919309  0.66692882  1
  I  I96  1  0.50225413  0.83756647  -0.00119637  1
  I  I97  1  0.50246559  0.83856897  0.33044145  1
  I  I98  1  0.49747671  0.83836090  0.67037829  1
  I  I99  1  0.83093045  0.16859688  0.00266898  1
  I  I100  1  0.83164070  0.16454312  0.33334303  1
  I  I101  1  0.83603983  0.16340238  0.66394433  1
  I  I102  1  0.83467380  0.49474847  0.00332914  1
  I  I103  1  0.83502764  0.50134379  0.33065721  1
  I  I104  1  0.83239692  0.49829142  0.66676939  1
  I  I105  1  0.83464913  0.83251320  -0.00274479  1
  I  I106  1  0.83250711  0.83408558  0.33542536  1
  I  I107  1  0.83211483  0.83903716  0.66706652  1
  I  I108  1  -0.00318589  0.17047502  0.16865468  1
  I  I109  1  -0.00107575  0.16637725  0.49536532  1
  I  I110  1  -0.00005261  0.16517872  0.83564569  1
  I  I111  1  -0.00358243  0.49495198  0.16680075  1
  I  I112  1  0.00310046  0.49828238  0.50418357  1
  I  I113  1  0.00368867  0.50450297  0.82934578  1
  I  I114  1  -0.00024801  0.83294905  0.16567420  1
  I  I115  1  -0.00349228  0.83467757  0.50410619  1
  I  I116  1  -0.00019173  0.82861234  0.82812711  1
  I  I117  1  0.33679267  0.16265312  0.16346885  1
  I  I118  1  0.33082500  0.17105018  0.50086712  1
  I  I119  1  0.33682829  0.16107391  0.83808702  1
  I  I120  1  0.33323145  0.50010891  0.16735261  1
  I  I121  1  0.32839337  0.49441970  0.50296352  1
  I  I122  1  0.32975835  0.50587559  0.82956185  1
  I  I123  1  0.33822020  0.83926234  0.16284402  1
  I  I124  1  0.33316364  0.83334193  0.50024344  1
  I  I125  1  0.33374689  0.83295856  0.83768552  1
  I  I126  1  0.66702677  0.16615144  0.16909829  1
  I  I127  1  0.66999126  0.16123804  0.49782269  1
  I  I128  1  0.66330305  0.15974658  0.83353722  1
  I  I129  1  0.67002000  0.49922672  0.16768555  1
  I  I130  1  0.66736886  0.49958355  0.49895956  1
  I  I131  1  0.66695926  0.50103446  0.83409366  1
  I  I132  1  0.66388882  0.83484314  0.16057223  1
  I  I133  1  0.67090384  0.84025741  0.50427177  1
  I  I134  1  0.66625840  0.83896021  0.83432958  1
