# generated using pymatgen
data_Cs27Sn13Pb14I81
_symmetry_space_group_name_H-M   'P 1'
_cell_length_a   18.99247532
_cell_length_b   18.98304730
_cell_length_c   19.00067920
_cell_angle_alpha   90.00093633
_cell_angle_beta   90.00079536
_cell_angle_gamma   89.99922419
_symmetry_Int_Tables_number   1
_chemical_formula_structural   Cs27Sn13Pb14I81
_chemical_formula_sum   'Cs27 Sn13 Pb14 I81'
_cell_volume   6850.41096127
_cell_formula_units_Z   1
loop_
 _symmetry_equiv_pos_site_id
 _symmetry_equiv_pos_as_xyz
  1  'x, y, z'
loop_
 _atom_site_type_symbol
 _atom_site_label
 _atom_site_symmetry_multiplicity
 _atom_site_fract_x
 _atom_site_fract_y
 _atom_site_fract_z
 _atom_site_occupancy
  Cs  Cs0  1  -0.00014344  -0.00114317  -0.00007606  1
  Cs  Cs1  1  -0.00092407  -0.00967151  0.33565170  1
  Cs  Cs2  1  -0.00025911  -0.00120306  0.66542804  1
  Cs  Cs3  1  0.00056673  0.33408844  -0.00090406  1
  Cs  Cs4  1  0.00178859  0.33461802  0.33417450  1
  Cs  Cs5  1  0.00028978  0.33439533  0.66695376  1
  Cs  Cs6  1  0.00212633  0.66464761  -0.00065312  1
  Cs  Cs7  1  -0.00211350  0.67108503  0.33283066  1
  Cs  Cs8  1  -0.00157190  0.66257081  0.66810421  1
  Cs  Cs9  1  0.33288737  -0.00164445  -0.00050747  1
  Cs  Cs10  1  0.32912089  -0.00165042  0.33480093  1
  Cs  Cs11  1  0.32994745  -0.00194043  0.66545409  1
  Cs  Cs12  1  0.33086610  0.33247404  0.00027220  1
  Cs  Cs13  1  0.33054975  0.33232394  0.33402927  1
  Cs  Cs14  1  0.33190143  0.33278760  0.66544273  1
  Cs  Cs15  1  0.33797448  0.67601841  -0.00060910  1
  Cs  Cs16  1  0.34286795  0.67240785  0.33216492  1
  Cs  Cs17  1  0.34378548  0.67146828  0.66817018  1
  Cs  Cs18  1  0.66834136  0.00460522  0.00058847  1
  Cs  Cs19  1  0.67111042  -0.00348934  0.33312147  1
  Cs  Cs20  1  0.66956503  0.00229104  0.66665901  1
  Cs  Cs21  1  0.66758103  0.33185807  0.00192824  1
  Cs  Cs22  1  0.66713984  0.33397599  0.33124300  1
  Cs  Cs23  1  0.66772267  0.33234695  0.66712379  1
  Cs  Cs24  1  0.65785316  0.66514468  0.00626405  1
  Cs  Cs25  1  0.65929801  0.67457415  0.32730469  1
  Cs  Cs26  1  0.66243125  0.66749408  0.66470969  1
  Sn  Sn27  1  0.83333644  0.83241314  0.83358909  1
  Sn  Sn28  1  0.16685580  0.16735215  0.16609557  1
  Sn  Sn29  1  0.83358027  0.49927700  0.50024512  1
  Sn  Sn30  1  0.16673107  0.49949971  0.16657136  1
  Sn  Sn31  1  0.83313386  0.16802466  0.50056947  1
  Sn  Sn32  1  0.50083930  0.16737751  0.49980941  1
  Sn  Sn33  1  0.83381295  0.16710453  0.83250952  1
  Sn  Sn34  1  0.49900046  0.16734648  0.16705958  1
  Sn  Sn35  1  0.83342449  0.50009177  0.83280006  1
  Sn  Sn36  1  0.16671120  0.49941267  0.83310592  1
  Sn  Sn37  1  0.16643335  0.16739536  0.83397882  1
  Sn  Sn38  1  0.16646989  0.49996366  0.50025716  1
  Sn  Sn39  1  0.49957529  0.16732664  0.83304375  1
  Pb  Pb40  1  0.16653513  0.83331005  0.16648242  1
  Pb  Pb41  1  0.49986099  0.83748259  0.16639085  1
  Pb  Pb42  1  0.83527776  0.49986656  0.16692900  1
  Pb  Pb43  1  0.16643350  0.82846823  0.50048523  1
  Pb  Pb44  1  0.50321234  0.83686071  0.83325060  1
  Pb  Pb45  1  0.83342206  0.83235541  0.50226881  1
  Pb  Pb46  1  0.50069535  0.49781911  0.49996704  1
  Pb  Pb47  1  0.16460255  0.83294973  0.83306972  1
  Pb  Pb48  1  0.49680902  0.49729387  0.16659112  1
  Pb  Pb49  1  0.49999890  0.49768051  0.83335967  1
  Pb  Pb50  1  0.50024474  0.83726370  0.50032605  1
  Pb  Pb51  1  0.83442852  0.16675146  0.16724286  1
  Pb  Pb52  1  0.83350884  0.83300694  0.16323869  1
  Pb  Pb53  1  0.16587008  0.16766700  0.49999874  1
  I  I54  1  0.17119278  0.00388346  0.16097188  1
  I  I55  1  0.16713866  0.00020361  0.49918942  1
  I  I56  1  0.16672156  0.00379348  0.83852189  1
  I  I57  1  0.17052059  0.33255562  0.16473209  1
  I  I58  1  0.16552027  0.33578931  0.50039050  1
  I  I59  1  0.16217297  0.33255141  0.83434573  1
  I  I60  1  0.16269053  0.66300063  0.16522666  1
  I  I61  1  0.15723651  0.66030874  0.50067356  1
  I  I62  1  0.16039260  0.66266918  0.83405729  1
  I  I63  1  0.49297882  0.00558368  0.16537742  1
  I  I64  1  0.50637092  0.00584827  0.50061398  1
  I  I65  1  0.49857066  0.00551479  0.83365884  1
  I  I66  1  0.49934672  0.32901415  0.16552677  1
  I  I67  1  0.50143859  0.32934253  0.50129696  1
  I  I68  1  0.50442893  0.32899227  0.83318253  1
  I  I69  1  0.49943050  0.66685071  0.16695707  1
  I  I70  1  0.49918109  0.66662635  0.49957928  1
  I  I71  1  0.49907261  0.66677929  0.83374472  1
  I  I72  1  0.83480866  0.00043381  0.16688916  1
  I  I73  1  0.82859974  0.00314207  0.50361622  1
  I  I74  1  0.83235108  0.00232459  0.83019946  1
  I  I75  1  0.83034340  0.33306579  0.16217915  1
  I  I76  1  0.83334913  0.33265132  0.50869673  1
  I  I77  1  0.83439022  0.33256109  0.82932690  1
  I  I78  1  0.83664179  0.66634200  0.16741043  1
  I  I79  1  0.84108716  0.66269658  0.50543948  1
  I  I80  1  0.84188654  0.66494380  0.82878568  1
  I  I81  1  0.16922471  0.17364886  -0.00119324  1
  I  I82  1  0.17108536  0.17191436  0.33104141  1
  I  I83  1  0.16876973  0.17016432  0.66965648  1
  I  I84  1  0.16092353  0.49374761  -0.00112804  1
  I  I85  1  0.16207964  0.49252214  0.33340586  1
  I  I86  1  0.16049237  0.49342090  0.66760620  1
  I  I87  1  0.16471886  0.83017790  -0.00024273  1
  I  I88  1  0.16532423  0.83704044  0.33335784  1
  I  I89  1  0.16658329  0.83817497  0.66689975  1
  I  I90  1  0.50027579  0.16681006  -0.00069770  1
  I  I91  1  0.49938691  0.16852197  0.33344506  1
  I  I92  1  0.50142869  0.16739978  0.66716550  1
  I  I93  1  0.50276940  0.49652129  -0.00012717  1
  I  I94  1  0.50024838  0.49588778  0.33334963  1
  I  I95  1  0.49428440  0.49702658  0.66671151  1
  I  I96  1  0.50106394  0.83436894  -0.00028897  1
  I  I97  1  0.50090610  0.83358418  0.33327223  1
  I  I98  1  0.49907924  0.83419921  0.66700661  1
  I  I99  1  0.83055827  0.16724744  -0.00336460  1
  I  I100  1  0.82962987  0.17196588  0.33676147  1
  I  I101  1  0.83010485  0.16674134  0.66798920  1
  I  I102  1  0.83756104  0.49765841  -0.00373306  1
  I  I103  1  0.83864925  0.49178006  0.33692049  1
  I  I104  1  0.84218404  0.49737224  0.66766354  1
  I  I105  1  0.83499810  0.83683265  -0.00491907  1
  I  I106  1  0.83342692  0.83491443  0.33362282  1
  I  I107  1  0.83418341  0.83613611  0.66994821  1
  I  I108  1  0.00354875  0.17136888  0.16174262  1
  I  I109  1  -0.00293999  0.16890279  0.50424112  1
  I  I110  1  -0.00028770  0.16707781  0.83380282  1
  I  I111  1  0.00358588  0.49096497  0.16548819  1
  I  I112  1  -0.00038940  0.49211492  0.50172092  1
  I  I113  1  -0.00000699  0.49492173  0.83306168  1
  I  I114  1  0.00016679  0.83804666  0.16785183  1
  I  I115  1  -0.00028857  0.84169603  0.49927366  1
  I  I116  1  -0.00309007  0.83971248  0.83252670  1
  I  I117  1  0.33281505  0.17132829  0.16317180  1
  I  I118  1  0.33519798  0.16844358  0.50258741  1
  I  I119  1  0.33265895  0.17213523  0.83378006  1
  I  I120  1  0.32845088  0.49637257  0.16622204  1
  I  I121  1  0.33027144  0.49672483  0.50087109  1
  I  I122  1  0.32969939  0.49356803  0.83253585  1
  I  I123  1  0.33328411  0.83059016  0.16522470  1
  I  I124  1  0.33343396  0.83428987  0.50051117  1
  I  I125  1  0.33365356  0.83283604  0.83418315  1
  I  I126  1  0.66432539  0.16517248  0.16321839  1
  I  I127  1  0.66759098  0.17185204  0.50418150  1
  I  I128  1  0.66739853  0.16591512  0.83327341  1
  I  I129  1  0.66648670  0.49963355  0.16617506  1
  I  I130  1  0.67043693  0.49649298  0.50823786  1
  I  I131  1  0.67034556  0.49877826  0.82705604  1
  I  I132  1  0.66647669  0.83421128  0.16682233  1
  I  I133  1  0.66688416  0.82908886  0.50075242  1
  I  I134  1  0.67098048  0.83271784  0.83186176  1
