# generated using pymatgen
data_Cs27Sn14Pb13I81
_symmetry_space_group_name_H-M   'P 1'
_cell_length_a   18.97984588
_cell_length_b   18.96311707
_cell_length_c   18.98306295
_cell_angle_alpha   90.00079933
_cell_angle_beta   90.00149090
_cell_angle_gamma   89.99950361
_symmetry_Int_Tables_number   1
_chemical_formula_structural   Cs27Sn14Pb13I81
_chemical_formula_sum   'Cs27 Sn14 Pb13 I81'
_cell_volume   6832.32781090
_cell_formula_units_Z   1
loop_
 _symmetry_equiv_pos_site_id
 _symmetry_equiv_pos_as_xyz
  1  'x, y, z'
loop_
 _atom_site_type_symbol
 _atom_site_label
 _atom_site_symmetry_multiplicity
 _atom_site_fract_x
 _atom_site_fract_y
 _atom_site_fract_z
 _atom_site_occupancy
  Cs  Cs0  1  0.00077663  -0.00578676  0.00395396  1
  Cs  Cs1  1  -0.00487167  -0.00142688  0.33416836  1
  Cs  Cs2  1  -0.00213843  -0.00113000  0.66273499  1
  Cs  Cs3  1  -0.00104961  0.33373005  0.00044911  1
  Cs  Cs4  1  -0.00150599  0.33276664  0.33007513  1
  Cs  Cs5  1  0.00041875  0.33509573  0.66873179  1
  Cs  Cs6  1  0.00358775  0.67039188  -0.00085375  1
  Cs  Cs7  1  -0.00075977  0.66655609  0.33219962  1
  Cs  Cs8  1  0.00094502  0.66482316  0.66921975  1
  Cs  Cs9  1  0.33282079  -0.00089063  0.00012406  1
  Cs  Cs10  1  0.33188180  0.00150765  0.33703252  1
  Cs  Cs11  1  0.33504673  0.00266436  0.66360221  1
  Cs  Cs12  1  0.33349270  0.33137870  -0.00012654  1
  Cs  Cs13  1  0.33388255  0.33382267  0.33312446  1
  Cs  Cs14  1  0.33281350  0.33239151  0.66639235  1
  Cs  Cs15  1  0.33270899  0.67816579  0.00141930  1
  Cs  Cs16  1  0.33752766  0.66595193  0.33387515  1
  Cs  Cs17  1  0.32859810  0.66614852  0.66463561  1
  Cs  Cs18  1  0.66639230  -0.00564264  0.00013665  1
  Cs  Cs19  1  0.67559958  0.00031044  0.33630528  1
  Cs  Cs20  1  0.66568897  -0.00198173  0.66500591  1
  Cs  Cs21  1  0.66761494  0.33343385  -0.00264794  1
  Cs  Cs22  1  0.66736800  0.33502503  0.33137932  1
  Cs  Cs23  1  0.66683017  0.33282798  0.67021771  1
  Cs  Cs24  1  0.66309357  0.67033206  0.00039979  1
  Cs  Cs25  1  0.66275246  0.66354720  0.33098557  1
  Cs  Cs26  1  0.66938672  0.66735806  0.66778573  1
  Sn  Sn27  1  0.83332655  0.16672515  0.83347111  1
  Sn  Sn28  1  0.49988822  0.49959276  0.83350019  1
  Sn  Sn29  1  0.16692612  0.16642070  0.49980463  1
  Sn  Sn30  1  0.83255759  0.49915632  0.83376375  1
  Sn  Sn31  1  0.49974048  0.16638371  0.49967855  1
  Sn  Sn32  1  0.16727732  0.16739710  0.16679393  1
  Sn  Sn33  1  0.83403328  0.49952431  0.16584346  1
  Sn  Sn34  1  0.16743344  0.83391831  0.49986539  1
  Sn  Sn35  1  0.16658865  0.49936878  0.16632204  1
  Sn  Sn36  1  0.50018509  0.16728924  0.83361837  1
  Sn  Sn37  1  0.83332081  0.49941030  0.50023427  1
  Sn  Sn38  1  0.49930236  0.83398016  0.50017635  1
  Sn  Sn39  1  0.16636549  0.16696948  0.83341593  1
  Sn  Sn40  1  0.49973076  0.16677647  0.16675951  1
  Pb  Pb41  1  0.83333094  0.16875837  0.50207722  1
  Pb  Pb42  1  0.49989101  0.83727166  0.16986538  1
  Pb  Pb43  1  0.83336601  0.16809042  0.16404896  1
  Pb  Pb44  1  0.16490555  0.49927998  0.49789142  1
  Pb  Pb45  1  0.50173154  0.49928328  0.50227253  1
  Pb  Pb46  1  0.16688077  0.83406553  0.16949245  1
  Pb  Pb47  1  0.83336487  0.83307798  0.83331498  1
  Pb  Pb48  1  0.16679898  0.83692739  0.83039201  1
  Pb  Pb49  1  0.16712386  0.49832282  0.83589173  1
  Pb  Pb50  1  0.83327130  0.83034303  0.50006138  1
  Pb  Pb51  1  0.83321522  0.82965041  0.16663238  1
  Pb  Pb52  1  0.49980883  0.83374855  0.83085066  1
  Pb  Pb53  1  0.49948783  0.49809197  0.16382751  1
  I  I54  1  0.17161978  0.00402102  0.16342472  1
  I  I55  1  0.17036296  0.00209642  0.49949242  1
  I  I56  1  0.16781404  0.00563944  0.83966758  1
  I  I57  1  0.16590097  0.33168917  0.16941994  1
  I  I58  1  0.17067417  0.32967721  0.50197938  1
  I  I59  1  0.16699982  0.32963272  0.82755977  1
  I  I60  1  0.16043686  0.66396479  0.16749349  1
  I  I61  1  0.16987539  0.66882519  0.49784229  1
  I  I62  1  0.16576672  0.66663309  0.83337061  1
  I  I63  1  0.49279765  0.00544423  0.15921977  1
  I  I64  1  0.49613906  0.00210177  0.50230979  1
  I  I65  1  0.50025939  0.00420685  0.83506714  1
  I  I66  1  0.49827209  0.32977203  0.17209035  1
  I  I67  1  0.49578911  0.32972603  0.49926139  1
  I  I68  1  0.50161384  0.33136032  0.83048785  1
  I  I69  1  0.50084596  0.66661324  0.16655728  1
  I  I70  1  0.49688185  0.66878153  0.50229745  1
  I  I71  1  0.50732913  0.66380788  0.83221568  1
  I  I72  1  0.83373862  0.00034397  0.16555608  1
  I  I73  1  0.83330692  0.00031006  0.50203857  1
  I  I74  1  0.83213157  0.00366118  0.83210688  1
  I  I75  1  0.83503816  0.33630320  0.16858944  1
  I  I76  1  0.83359835  0.33655541  0.49883677  1
  I  I77  1  0.83206529  0.33361996  0.83261941  1
  I  I78  1  0.83971806  0.66104887  0.16455880  1
  I  I79  1  0.83359965  0.66241939  0.50263895  1
  I  I80  1  0.82803859  0.66253326  0.83289230  1
  I  I81  1  0.16945535  0.17333296  0.00013204  1
  I  I82  1  0.17379873  0.16734751  0.33348972  1
  I  I83  1  0.16942003  0.16267259  0.66649464  1
  I  I84  1  0.16086809  0.49265020  0.00352981  1
  I  I85  1  0.16113400  0.49413913  0.33016861  1
  I  I86  1  0.16485478  0.49989735  0.66681705  1
  I  I87  1  0.16500568  0.83311146  0.00015372  1
  I  I88  1  0.17046209  0.83896637  0.33712169  1
  I  I89  1  0.17054972  0.83696366  0.66256066  1
  I  I90  1  0.49719568  0.17324269  -0.00069400  1
  I  I91  1  0.49235078  0.16323055  0.33386435  1
  I  I92  1  0.49750266  0.16662161  0.66677177  1
  I  I93  1  0.50617079  0.49226401  -0.00378846  1
  I  I94  1  0.50241650  0.49968140  0.33320178  1
  I  I95  1  0.50572305  0.49372964  0.67000687  1
  I  I96  1  0.50155658  0.83304608  0.00007101  1
  I  I97  1  0.49528409  0.83572118  0.33770151  1
  I  I98  1  0.49646680  0.83984601  0.66318527  1
  I  I99  1  0.83299642  0.17383349  -0.00391076  1
  I  I100  1  0.83277298  0.16903612  0.33320329  1
  I  I101  1  0.83352538  0.17331466  0.67005779  1
  I  I102  1  0.83339203  0.49374646  -0.00074202  1
  I  I103  1  0.83809522  0.50045931  0.33277766  1
  I  I104  1  0.82894045  0.49650842  0.66786938  1
  I  I105  1  0.83352478  0.83340323  -0.00011631  1
  I  I106  1  0.83348255  0.83342363  0.33369047  1
  I  I107  1  0.83384392  0.83053350  0.66644711  1
  I  I108  1  0.00299067  0.16906352  0.16746985  1
  I  I109  1  0.00299811  0.16367797  0.49977321  1
  I  I110  1  0.00025657  0.17184887  0.83204657  1
  I  I111  1  -0.00015211  0.49313317  0.16616596  1
  I  I112  1  -0.00299953  0.49947747  0.50530237  1
  I  I113  1  -0.00280067  0.49530078  0.83135262  1
  I  I114  1  0.00025758  0.83826022  0.16997591  1
  I  I115  1  0.00293771  0.83876284  0.49945615  1
  I  I116  1  0.00018384  0.83272263  0.83002492  1
  I  I117  1  0.33256334  0.17268679  0.16352062  1
  I  I118  1  0.33331189  0.16376000  0.50377505  1
  I  I119  1  0.33377869  0.17075478  0.83249924  1
  I  I120  1  0.33076992  0.49616716  0.16704327  1
  I  I121  1  0.33336602  0.50063774  0.50011499  1
  I  I122  1  0.33590982  0.49385540  0.83278917  1
  I  I123  1  0.33337955  0.82615257  0.16446686  1
  I  I124  1  0.33331765  0.83825165  0.50050277  1
  I  I125  1  0.33330146  0.82994531  0.83520506  1
  I  I126  1  0.66394484  0.16844132  0.16777223  1
  I  I127  1  0.66368124  0.16354862  0.49996050  1
  I  I128  1  0.66593288  0.17178239  0.83254206  1
  I  I129  1  0.66915475  0.49824238  0.16862422  1
  I  I130  1  0.66968649  0.49955894  0.49572402  1
  I  I131  1  0.66750476  0.49119461  0.83402033  1
  I  I132  1  0.66634695  0.83376324  0.16947088  1
  I  I133  1  0.66371097  0.83879906  0.50074968  1
  I  I134  1  0.66650841  0.83750429  0.82980050  1
