# generated using pymatgen
data_Cs27Sn14Pb13I81
_symmetry_space_group_name_H-M   'P 1'
_cell_length_a   18.95878121
_cell_length_b   18.96184160
_cell_length_c   18.96176736
_cell_angle_alpha   90.00028057
_cell_angle_beta   89.99868342
_cell_angle_gamma   90.00094830
_symmetry_Int_Tables_number   1
_chemical_formula_structural   Cs27Sn14Pb13I81
_chemical_formula_sum   'Cs27 Sn14 Pb13 I81'
_cell_volume   6816.63033518
_cell_formula_units_Z   1
loop_
 _symmetry_equiv_pos_site_id
 _symmetry_equiv_pos_as_xyz
  1  'x, y, z'
loop_
 _atom_site_type_symbol
 _atom_site_label
 _atom_site_symmetry_multiplicity
 _atom_site_fract_x
 _atom_site_fract_y
 _atom_site_fract_z
 _atom_site_occupancy
  Cs  Cs0  1  -0.00001068  0.00068405  -0.00236055  1
  Cs  Cs1  1  0.00208073  -0.00145317  0.33234627  1
  Cs  Cs2  1  0.00275473  -0.00009066  0.67002073  1
  Cs  Cs3  1  -0.00060389  0.33016279  -0.00200880  1
  Cs  Cs4  1  0.00076663  0.33460069  0.33635015  1
  Cs  Cs5  1  -0.00127234  0.33091233  0.66456680  1
  Cs  Cs6  1  -0.00247674  0.66837906  0.00124303  1
  Cs  Cs7  1  -0.00000313  0.66678518  0.33260367  1
  Cs  Cs8  1  -0.00107811  0.66800859  0.66624667  1
  Cs  Cs9  1  0.33450712  -0.00005470  0.00115556  1
  Cs  Cs10  1  0.33314229  -0.00009703  0.33303458  1
  Cs  Cs11  1  0.33182724  -0.00013843  0.66526278  1
  Cs  Cs12  1  0.33463599  0.33496218  0.00011901  1
  Cs  Cs13  1  0.32984426  0.33152026  0.33211345  1
  Cs  Cs14  1  0.33509663  0.34321446  0.66863895  1
  Cs  Cs15  1  0.33378203  0.66476585  -0.00008876  1
  Cs  Cs16  1  0.33147066  0.66724280  0.33252896  1
  Cs  Cs17  1  0.33595097  0.65823438  0.66962438  1
  Cs  Cs18  1  0.66638737  -0.00089276  0.00132695  1
  Cs  Cs19  1  0.66499044  0.00009226  0.33322344  1
  Cs  Cs20  1  0.66480718  0.00038405  0.66500079  1
  Cs  Cs21  1  0.66564213  0.33344576  0.00058367  1
  Cs  Cs22  1  0.66932831  0.33081750  0.33768013  1
  Cs  Cs23  1  0.66692235  0.33492446  0.65813659  1
  Cs  Cs24  1  0.66725814  0.66749450  0.00021383  1
  Cs  Cs25  1  0.66763845  0.66932777  0.33156333  1
  Cs  Cs26  1  0.66629338  0.66595949  0.66803125  1
  Sn  Sn27  1  0.83239140  0.83297200  0.83335689  1
  Sn  Sn28  1  0.50016989  0.16594571  0.83379960  1
  Sn  Sn29  1  0.50061072  0.83425372  0.83410654  1
  Sn  Sn30  1  0.50100836  0.49994090  0.16677206  1
  Sn  Sn31  1  0.49985721  0.83340611  0.16591942  1
  Sn  Sn32  1  0.16667237  0.83414311  0.16704321  1
  Sn  Sn33  1  0.83392991  0.83364107  0.49997020  1
  Sn  Sn34  1  0.49937140  0.16668353  0.16604854  1
  Sn  Sn35  1  0.16619356  0.83382991  0.49949117  1
  Sn  Sn36  1  0.16722942  0.16572778  0.49946417  1
  Sn  Sn37  1  0.83342698  0.83299055  0.16655442  1
  Sn  Sn38  1  0.16728553  0.16565883  0.16705744  1
  Sn  Sn39  1  0.83250141  0.50046622  0.16574836  1
  Sn  Sn40  1  0.83321555  0.50050342  0.83425385  1
  Pb  Pb41  1  0.50233636  0.50015404  0.83541800  1
  Pb  Pb42  1  0.16713689  0.83309294  0.83344893  1
  Pb  Pb43  1  0.16285450  0.50002295  0.83369439  1
  Pb  Pb44  1  0.16599480  0.49996208  0.16643271  1
  Pb  Pb45  1  0.83334723  0.50260188  0.49952636  1
  Pb  Pb46  1  0.16650816  0.50065545  0.49985557  1
  Pb  Pb47  1  0.83046950  0.16652966  0.83327469  1
  Pb  Pb48  1  0.83606452  0.16347372  0.50000220  1
  Pb  Pb49  1  0.16958483  0.16665139  0.83353911  1
  Pb  Pb50  1  0.50017162  0.50012369  0.49616940  1
  Pb  Pb51  1  0.49736418  0.16656518  0.49987185  1
  Pb  Pb52  1  0.83345298  0.16666494  0.16668039  1
  Pb  Pb53  1  0.49932891  0.83317136  0.50023763  1
  I  I54  1  0.16937031  -0.00113894  0.17057014  1
  I  I55  1  0.16264151  -0.00117235  0.49478234  1
  I  I56  1  0.16170840  -0.00025830  0.83341844  1
  I  I57  1  0.17002441  0.33010031  0.17045971  1
  I  I58  1  0.16816971  0.33015795  0.49437109  1
  I  I59  1  0.16733655  0.33307443  0.83365259  1
  I  I60  1  0.16859272  0.67025401  0.17066379  1
  I  I61  1  0.16235451  0.67077552  0.49438047  1
  I  I62  1  0.17247731  0.66710312  0.83300701  1
  I  I63  1  0.49963279  -0.00094835  0.16311118  1
  I  I64  1  0.50312351  -0.00028103  0.49672850  1
  I  I65  1  0.50525732  -0.00137885  0.84159601  1
  I  I66  1  0.49910569  0.33262084  0.16253050  1
  I  I67  1  0.49817665  0.33311490  0.50152906  1
  I  I68  1  0.49918949  0.33102834  0.83843505  1
  I  I69  1  0.50023195  0.66809461  0.16356261  1
  I  I70  1  0.49717384  0.66714817  0.50100098  1
  I  I71  1  0.50142694  0.66970616  0.83674899  1
  I  I72  1  0.83146896  -0.00371113  0.16608006  1
  I  I73  1  0.83378899  -0.00483984  0.49851981  1
  I  I74  1  0.83217123  -0.00377450  0.83512595  1
  I  I75  1  0.83050093  0.33643428  0.16138080  1
  I  I76  1  0.83453068  0.33331932  0.50059392  1
  I  I77  1  0.83333703  0.33626563  0.83999218  1
  I  I78  1  0.83093311  0.66839755  0.16644010  1
  I  I79  1  0.83983408  0.67097278  0.49909768  1
  I  I80  1  0.82806943  0.66871630  0.83427627  1
  I  I81  1  0.16805143  0.16190066  0.00351578  1
  I  I82  1  0.17236450  0.16222793  0.33177537  1
  I  I83  1  0.16575301  0.16065560  0.66372840  1
  I  I84  1  0.16887418  0.50009302  0.00063056  1
  I  I85  1  0.16541223  0.50008136  0.33284721  1
  I  I86  1  0.16674909  0.49999462  0.66662950  1
  I  I87  1  0.16445619  0.83734915  0.00363192  1
  I  I88  1  0.16380548  0.83660158  0.33183038  1
  I  I89  1  0.16237842  0.83820138  0.66369178  1
  I  I90  1  0.49475512  0.16517449  0.00184811  1
  I  I91  1  0.49855606  0.16519324  0.32954975  1
  I  I92  1  0.50042499  0.16046855  0.66964535  1
  I  I93  1  0.50150374  0.50044073  0.00369064  1
  I  I94  1  0.50612407  0.50141617  0.32765690  1
  I  I95  1  0.50048038  0.49987538  0.66711804  1
  I  I96  1  0.50265662  0.83412320  0.00145254  1
  I  I97  1  0.50261857  0.83410580  0.32965291  1
  I  I98  1  0.50348525  0.83802181  0.67001323  1
  I  I99  1  0.83875927  0.16294509  0.00018126  1
  I  I100  1  0.82813609  0.16770416  0.33304950  1
  I  I101  1  0.83315758  0.16711243  0.66671291  1
  I  I102  1  0.82989819  0.50909079  0.00117471  1
  I  I103  1  0.82989373  0.50415269  0.32973431  1
  I  I104  1  0.83371319  0.50455130  0.66951604  1
  I  I105  1  0.83286097  0.82939868  0.00085024  1
  I  I106  1  0.83374081  0.82982910  0.33189451  1
  I  I107  1  0.83366616  0.83007447  0.66738607  1
  I  I108  1  0.00307854  0.16352656  0.17090527  1
  I  I109  1  0.00408039  0.16572153  0.49279299  1
  I  I110  1  0.00000106  0.16716803  0.83357718  1
  I  I111  1  -0.00343909  0.50438322  0.16363473  1
  I  I112  1  -0.00019840  0.49792699  0.49796200  1
  I  I113  1  -0.00527422  0.50732540  0.84058515  1
  I  I114  1  -0.00051455  0.83267991  0.16712966  1
  I  I115  1  -0.00018582  0.83631443  0.49643698  1
  I  I116  1  -0.00315077  0.82909672  0.83571811  1
  I  I117  1  0.33388092  0.16354033  0.16692589  1
  I  I118  1  0.32955669  0.15740896  0.49694232  1
  I  I119  1  0.33757848  0.15923539  0.83608489  1
  I  I120  1  0.33619173  0.50258269  0.16684892  1
  I  I121  1  0.33324947  0.50288902  0.50021540  1
  I  I122  1  0.33396436  0.50062362  0.83344835  1
  I  I123  1  0.33385762  0.83361820  0.16706466  1
  I  I124  1  0.33003100  0.83815972  0.49531872  1
  I  I125  1  0.33671056  0.83786138  0.83702440  1
  I  I126  1  0.66343587  0.16409837  0.16206897  1
  I  I127  1  0.66647830  0.16664220  0.49961356  1
  I  I128  1  0.66256306  0.16393574  0.84182371  1
  I  I129  1  0.66689351  0.50407515  0.16274450  1
  I  I130  1  0.66701462  0.50083388  0.50169988  1
  I  I131  1  0.67009195  0.50326142  0.83664584  1
  I  I132  1  0.66665491  0.83286116  0.16651466  1
  I  I133  1  0.66940879  0.83132403  0.49734421  1
  I  I134  1  0.66697731  0.83331789  0.83657195  1
