# generated using pymatgen
data_Cs27Sn14Pb13I81
_symmetry_space_group_name_H-M   'P 1'
_cell_length_a   18.98028453
_cell_length_b   18.96201408
_cell_length_c   18.99043655
_cell_angle_alpha   89.99982175
_cell_angle_beta   89.99988820
_cell_angle_gamma   89.99917677
_symmetry_Int_Tables_number   1
_chemical_formula_structural   Cs27Sn14Pb13I81
_chemical_formula_sum   'Cs27 Sn14 Pb13 I81'
_cell_volume   6834.74209766
_cell_formula_units_Z   1
loop_
 _symmetry_equiv_pos_site_id
 _symmetry_equiv_pos_as_xyz
  1  'x, y, z'
loop_
 _atom_site_type_symbol
 _atom_site_label
 _atom_site_symmetry_multiplicity
 _atom_site_fract_x
 _atom_site_fract_y
 _atom_site_fract_z
 _atom_site_occupancy
  Cs  Cs0  1  -0.00127753  -0.00008053  -0.00019699  1
  Cs  Cs1  1  -0.00380362  0.00109757  0.33405853  1
  Cs  Cs2  1  -0.00010455  -0.00153881  0.66578159  1
  Cs  Cs3  1  0.00116596  0.33115363  -0.00007627  1
  Cs  Cs4  1  0.00036176  0.33748106  0.33548882  1
  Cs  Cs5  1  0.00228319  0.33260853  0.66506684  1
  Cs  Cs6  1  0.00213314  0.66716390  -0.00245605  1
  Cs  Cs7  1  0.00698302  0.65903489  0.33174639  1
  Cs  Cs8  1  -0.00142438  0.66930036  0.67075151  1
  Cs  Cs9  1  0.33585121  0.00094724  0.00051982  1
  Cs  Cs10  1  0.33657666  -0.00039421  0.33416552  1
  Cs  Cs11  1  0.33558354  0.00004984  0.66489980  1
  Cs  Cs12  1  0.33298713  0.33195949  -0.00256019  1
  Cs  Cs13  1  0.33120895  0.33789889  0.33528179  1
  Cs  Cs14  1  0.33223010  0.33351985  0.66820718  1
  Cs  Cs15  1  0.33055599  0.66496831  0.00332056  1
  Cs  Cs16  1  0.32525508  0.66022608  0.33157381  1
  Cs  Cs17  1  0.33381035  0.66683320  0.66447994  1
  Cs  Cs18  1  0.66560905  0.00115993  0.00251123  1
  Cs  Cs19  1  0.66672188  -0.00066234  0.33326792  1
  Cs  Cs20  1  0.66548249  0.00002987  0.66404226  1
  Cs  Cs21  1  0.66631516  0.33384413  0.00017694  1
  Cs  Cs22  1  0.66817501  0.33552461  0.33338256  1
  Cs  Cs23  1  0.66634015  0.33613366  0.66639329  1
  Cs  Cs24  1  0.66826710  0.66143111  -0.00182837  1
  Cs  Cs25  1  0.66619744  0.66829484  0.33469771  1
  Cs  Cs26  1  0.66834052  0.66209460  0.66706533  1
  Sn  Sn27  1  0.83259637  0.83422883  0.49884554  1
  Sn  Sn28  1  0.50027136  0.16601735  0.83319978  1
  Sn  Sn29  1  0.50102020  0.16643923  0.49980837  1
  Sn  Sn30  1  0.83321591  0.16626035  0.16689594  1
  Sn  Sn31  1  0.16672772  0.49924597  0.83321424  1
  Sn  Sn32  1  0.50027028  0.83409422  0.83360974  1
  Sn  Sn33  1  0.50092338  0.83385463  0.16687554  1
  Sn  Sn34  1  0.16681507  0.16594187  0.16632446  1
  Sn  Sn35  1  0.83215516  0.16600616  0.49988170  1
  Sn  Sn36  1  0.49995181  0.16653995  0.16704333  1
  Sn  Sn37  1  0.83294819  0.16620638  0.83316315  1
  Sn  Sn38  1  0.16677159  0.16664017  0.83405643  1
  Sn  Sn39  1  0.83259099  0.83402301  0.16746857  1
  Sn  Sn40  1  0.50078975  0.83401997  0.49948850  1
  Pb  Pb41  1  0.83312964  0.50060957  0.49996711  1
  Pb  Pb42  1  0.16673590  0.16637591  0.49993797  1
  Pb  Pb43  1  0.16634048  0.83372244  0.49972936  1
  Pb  Pb44  1  0.83312586  0.50065176  0.16664228  1
  Pb  Pb45  1  0.49825931  0.49989068  0.83341161  1
  Pb  Pb46  1  0.16636927  0.83603481  0.16676964  1
  Pb  Pb47  1  0.83085377  0.83554741  0.83361363  1
  Pb  Pb48  1  0.50019378  0.50031227  0.49996855  1
  Pb  Pb49  1  0.83570028  0.49692130  0.83339708  1
  Pb  Pb50  1  0.50026596  0.50033030  0.16663429  1
  Pb  Pb51  1  0.16657981  0.49993134  0.50321018  1
  Pb  Pb52  1  0.16947513  0.83458694  0.83340498  1
  Pb  Pb53  1  0.16661196  0.49663248  0.16425495  1
  I  I54  1  0.16711552  0.00419649  0.15815705  1
  I  I55  1  0.16695585  0.00051361  0.50466381  1
  I  I56  1  0.16507079  0.00417821  0.83714906  1
  I  I57  1  0.16694152  0.32819186  0.16530917  1
  I  I58  1  0.16684327  0.33264687  0.49704965  1
  I  I59  1  0.16858648  0.33043443  0.83763666  1
  I  I60  1  0.16710216  0.66665337  0.16545953  1
  I  I61  1  0.16748938  0.66672876  0.50167302  1
  I  I62  1  0.16878628  0.66449202  0.83174621  1
  I  I63  1  0.50011664  0.00133885  0.16587136  1
  I  I64  1  0.50325859  0.00096068  0.50078534  1
  I  I65  1  0.49731703  0.00186063  0.83335313  1
  I  I66  1  0.50049324  0.32869370  0.16551731  1
  I  I67  1  0.50353456  0.32911288  0.50062687  1
  I  I68  1  0.50160671  0.32909584  0.83368542  1
  I  I69  1  0.50532804  0.67092146  0.16585933  1
  I  I70  1  0.50480163  0.67090802  0.50171613  1
  I  I71  1  0.49829488  0.67005958  0.83284850  1
  I  I72  1  0.83259259  0.00167449  0.16711352  1
  I  I73  1  0.82930678  0.00131425  0.49922478  1
  I  I74  1  0.83943000  0.00421211  0.83369009  1
  I  I75  1  0.83287446  0.32879560  0.16673638  1
  I  I76  1  0.82968396  0.32924790  0.49954896  1
  I  I77  1  0.82730246  0.32774389  0.83404576  1
  I  I78  1  0.82708821  0.67087223  0.17143021  1
  I  I79  1  0.82772612  0.67085604  0.49594260  1
  I  I80  1  0.83405505  0.66704159  0.83291672  1
  I  I81  1  0.16694126  0.17033609  -0.00051299  1
  I  I82  1  0.16713395  0.16437080  0.33026118  1
  I  I83  1  0.16697108  0.17111246  0.66986795  1
  I  I84  1  0.16772864  0.49709115  -0.00325413  1
  I  I85  1  0.16686716  0.49989534  0.33310099  1
  I  I86  1  0.16759797  0.48990338  0.67082654  1
  I  I87  1  0.16595243  0.83092878  -0.00004238  1
  I  I88  1  0.17189550  0.83525266  0.33312298  1
  I  I89  1  0.16651043  0.83447828  0.66686311  1
  I  I90  1  0.50094322  0.16207578  0.00003428  1
  I  I91  1  0.50147040  0.16130376  0.33305494  1
  I  I92  1  0.50128659  0.16163667  0.66683468  1
  I  I93  1  0.49912244  0.49978468  -0.00006161  1
  I  I94  1  0.49804273  0.49778229  0.33332272  1
  I  I95  1  0.49783763  0.49934164  0.66675161  1
  I  I96  1  0.50246621  0.84077780  0.00060748  1
  I  I97  1  0.50462869  0.84155995  0.33316653  1
  I  I98  1  0.50188064  0.84034021  0.66630578  1
  I  I99  1  0.83214945  0.16385292  0.00048298  1
  I  I100  1  0.83150099  0.16309038  0.33305911  1
  I  I101  1  0.83161390  0.16357465  0.66635485  1
  I  I102  1  0.83334384  0.50055450  -0.00009955  1
  I  I103  1  0.83504303  0.49384047  0.33331189  1
  I  I104  1  0.83474750  0.50013120  0.66677101  1
  I  I105  1  0.82987686  0.83831028  0.00290385  1
  I  I106  1  0.82443179  0.84357386  0.33312470  1
  I  I107  1  0.83012370  0.83776050  0.66404469  1
  I  I108  1  -0.00100478  0.16316402  0.16286018  1
  I  I109  1  -0.00351076  0.16281028  0.50056581  1
  I  I110  1  -0.00020398  0.17172656  0.83617885  1
  I  I111  1  0.00001906  0.50049060  0.16599665  1
  I  I112  1  -0.00020079  0.49870975  0.49983500  1
  I  I113  1  0.00360354  0.49412725  0.83386430  1
  I  I114  1  -0.00364860  0.83846595  0.17118605  1
  I  I115  1  -0.00414953  0.83925205  0.49631490  1
  I  I116  1  -0.00022102  0.83318491  0.83263309  1
  I  I117  1  0.33450160  0.16314444  0.16296929  1
  I  I118  1  0.33692222  0.16225398  0.50051534  1
  I  I119  1  0.33414249  0.16729885  0.83603230  1
  I  I120  1  0.33327496  0.50093166  0.16639845  1
  I  I121  1  0.33346713  0.49965430  0.49984690  1
  I  I122  1  0.33062369  0.49169298  0.83383590  1
  I  I123  1  0.33694538  0.83780699  0.16632783  1
  I  I124  1  0.33746627  0.83887494  0.50083472  1
  I  I125  1  0.33779399  0.83967474  0.83310518  1
  I  I126  1  0.66650900  0.16344009  0.16376105  1
  I  I127  1  0.66642433  0.16318522  0.50092190  1
  I  I128  1  0.66608434  0.16167376  0.83558041  1
  I  I129  1  0.66670784  0.49356632  0.16481533  1
  I  I130  1  0.66666319  0.49788587  0.50242681  1
  I  I131  1  0.66667478  0.49926871  0.83262731  1
  I  I132  1  0.66602809  0.84238151  0.16753561  1
  I  I133  1  0.66597180  0.83899799  0.49923897  1
  I  I134  1  0.66279182  0.83978541  0.83325376  1
