# generated using pymatgen
data_Cs27Sn13Pb14I81
_symmetry_space_group_name_H-M   'P 1'
_cell_length_a   18.97027189
_cell_length_b   18.97569004
_cell_length_c   18.98302856
_cell_angle_alpha   90.00197959
_cell_angle_beta   90.00216599
_cell_angle_gamma   90.00181976
_symmetry_Int_Tables_number   1
_chemical_formula_structural   Cs27Sn13Pb14I81
_chemical_formula_sum   'Cs27 Sn13 Pb14 I81'
_cell_volume   6833.39669801
_cell_formula_units_Z   1
loop_
 _symmetry_equiv_pos_site_id
 _symmetry_equiv_pos_as_xyz
  1  'x, y, z'
loop_
 _atom_site_type_symbol
 _atom_site_label
 _atom_site_symmetry_multiplicity
 _atom_site_fract_x
 _atom_site_fract_y
 _atom_site_fract_z
 _atom_site_occupancy
  Cs  Cs0  1  -0.00089877  -0.00208877  0.00293164  1
  Cs  Cs1  1  -0.00033096  -0.00161027  0.33724404  1
  Cs  Cs2  1  0.00002356  0.00014417  0.66539423  1
  Cs  Cs3  1  -0.00604990  0.33220839  -0.00229600  1
  Cs  Cs4  1  0.00310292  0.34099599  0.33620268  1
  Cs  Cs5  1  -0.00079345  0.33307738  0.66655316  1
  Cs  Cs6  1  0.00034854  0.67036221  0.01047784  1
  Cs  Cs7  1  0.00066173  0.66200253  0.32889244  1
  Cs  Cs8  1  -0.00289935  0.66743494  0.66389889  1
  Cs  Cs9  1  0.33062570  -0.00101243  -0.00296399  1
  Cs  Cs10  1  0.33522472  0.00451336  0.33673341  1
  Cs  Cs11  1  0.33325065  -0.00178099  0.66661692  1
  Cs  Cs12  1  0.33463371  0.33344909  -0.00327392  1
  Cs  Cs13  1  0.33383269  0.33247167  0.33272204  1
  Cs  Cs14  1  0.33237325  0.33347114  0.66891889  1
  Cs  Cs15  1  0.33357366  0.66831026  -0.00106362  1
  Cs  Cs16  1  0.33361418  0.66310312  0.33090005  1
  Cs  Cs17  1  0.33555265  0.66765598  0.66954621  1
  Cs  Cs18  1  0.67093415  0.00309847  0.00347806  1
  Cs  Cs19  1  0.66540455  0.00242024  0.33351149  1
  Cs  Cs20  1  0.66831572  -0.00377558  0.66373410  1
  Cs  Cs21  1  0.67077875  0.33108413  -0.00173915  1
  Cs  Cs22  1  0.66350735  0.33107108  0.33005885  1
  Cs  Cs23  1  0.66840894  0.33552856  0.67001780  1
  Cs  Cs24  1  0.66532771  0.66584055  0.00205730  1
  Cs  Cs25  1  0.66603311  0.66624864  0.33138496  1
  Cs  Cs26  1  0.66656892  0.66828247  0.66627064  1
  Sn  Sn27  1  0.83426688  0.83389312  0.50059578  1
  Sn  Sn28  1  0.16663974  0.49990353  0.83322970  1
  Sn  Sn29  1  0.49952890  0.83357216  0.16665018  1
  Sn  Sn30  1  0.83391749  0.16644022  0.50020124  1
  Sn  Sn31  1  0.49974407  0.16673965  0.83284877  1
  Sn  Sn32  1  0.16590139  0.16610742  0.50004629  1
  Sn  Sn33  1  0.16646020  0.16680919  0.16652435  1
  Sn  Sn34  1  0.49992815  0.49984217  0.50044237  1
  Sn  Sn35  1  0.49961681  0.50038411  0.16605838  1
  Sn  Sn36  1  0.49930990  0.49929293  0.83324359  1
  Sn  Sn37  1  0.16714832  0.16729031  0.83356275  1
  Sn  Sn38  1  0.83357223  0.83311824  0.83314953  1
  Sn  Sn39  1  0.16638771  0.83330395  0.50018255  1
  Pb  Pb40  1  0.83662121  0.16669673  0.17009958  1
  Pb  Pb41  1  0.83375920  0.50273427  0.83342376  1
  Pb  Pb42  1  0.49995454  0.83140023  0.49818389  1
  Pb  Pb43  1  0.16880719  0.49761802  0.16363328  1
  Pb  Pb44  1  0.83075814  0.49962593  0.16658631  1
  Pb  Pb45  1  0.49981400  0.16864014  0.50241975  1
  Pb  Pb46  1  0.83133443  0.83350331  0.16789469  1
  Pb  Pb47  1  0.16862216  0.49989513  0.50203447  1
  Pb  Pb48  1  0.83087104  0.50005673  0.50000885  1
  Pb  Pb49  1  0.50190167  0.83351356  0.83510748  1
  Pb  Pb50  1  0.83388583  0.16470831  0.83137927  1
  Pb  Pb51  1  0.16458233  0.83327712  0.83163898  1
  Pb  Pb52  1  0.49821322  0.16697660  0.16398747  1
  Pb  Pb53  1  0.16898641  0.83544396  0.16969995  1
  I  I54  1  0.17018091  0.00327625  0.16110810  1
  I  I55  1  0.16394505  0.00123712  0.50189415  1
  I  I56  1  0.17083740  0.00329446  0.83384600  1
  I  I57  1  0.16970164  0.32982370  0.17314200  1
  I  I58  1  0.16357600  0.33006919  0.49885001  1
  I  I59  1  0.17175277  0.33206924  0.83101984  1
  I  I60  1  0.16613287  0.66650841  0.16677725  1
  I  I61  1  0.16377766  0.66907357  0.50243217  1
  I  I62  1  0.17213657  0.66416418  0.83030383  1
  I  I63  1  0.49924908  -0.00182402  0.16600855  1
  I  I64  1  0.49995956  0.00017398  0.49941432  1
  I  I65  1  0.49539444  0.00264091  0.83449861  1
  I  I66  1  0.49817276  0.33614279  0.16862559  1
  I  I67  1  0.49961582  0.33649937  0.49568768  1
  I  I68  1  0.49633955  0.33407514  0.83453914  1
  I  I69  1  0.50024663  0.66548166  0.16520215  1
  I  I70  1  0.49967638  0.66348951  0.50476219  1
  I  I71  1  0.49675454  0.66353541  0.83222644  1
  I  I72  1  0.82850136  0.00010414  0.16383044  1
  I  I73  1  0.83673667  -0.00037218  0.50430961  1
  I  I74  1  0.83216696  -0.00286737  0.83041420  1
  I  I75  1  0.83004853  0.33287429  0.16712605  1
  I  I76  1  0.83801786  0.33035294  0.50037800  1
  I  I77  1  0.83225167  0.33315860  0.83179875  1
  I  I78  1  0.83535446  0.66684867  0.16815165  1
  I  I79  1  0.83593005  0.67000996  0.50393537  1
  I  I80  1  0.83176582  0.67027947  0.82528583  1
  I  I81  1  0.17340194  0.17096004  -0.00139377  1
  I  I82  1  0.16346024  0.16125947  0.33464892  1
  I  I83  1  0.16696157  0.16690286  0.66669822  1
  I  I84  1  0.17265598  0.49615027  -0.00423656  1
  I  I85  1  0.16899576  0.49900999  0.33330540  1
  I  I86  1  0.17394641  0.49445103  0.66978176  1
  I  I87  1  0.16529772  0.83410021  0.00004060  1
  I  I88  1  0.16117018  0.83778080  0.33761413  1
  I  I89  1  0.16666135  0.83895109  0.66365523  1
  I  I90  1  0.49527626  0.17096983  -0.00381905  1
  I  I91  1  0.49934369  0.16826376  0.33345240  1
  I  I92  1  0.49482989  0.17154676  0.67017182  1
  I  I93  1  0.49575695  0.50071501  -0.00084461  1
  I  I94  1  0.50122753  0.50507044  0.33299737  1
  I  I95  1  0.49673812  0.49571753  0.66798134  1
  I  I96  1  0.50131479  0.82801805  0.00265652  1
  I  I97  1  0.50097320  0.82800332  0.33053104  1
  I  I98  1  0.49948304  0.83186326  0.66657615  1
  I  I99  1  0.83300318  0.16495697  -0.00017378  1
  I  I100  1  0.83501453  0.15922617  0.33808806  1
  I  I101  1  0.83810454  0.16444074  0.66358188  1
  I  I102  1  0.83165935  0.50175683  -0.00033440  1
  I  I103  1  0.83214156  0.50184854  0.33360494  1
  I  I104  1  0.82907739  0.49935638  0.66669807  1
  I  I105  1  0.83136539  0.83256440  -0.00204054  1
  I  I106  1  0.83550613  0.83764819  0.33713691  1
  I  I107  1  0.83493682  0.83687854  0.66525266  1
  I  I108  1  0.00450955  0.16512986  0.15931618  1
  I  I109  1  0.00137172  0.16234535  0.50221811  1
  I  I110  1  0.00350203  0.17065620  0.83415239  1
  I  I111  1  0.00075067  0.49989093  0.16577896  1
  I  I112  1  0.00030338  0.49993792  0.50233528  1
  I  I113  1  0.00317875  0.49393210  0.83071558  1
  I  I114  1  0.00028227  0.83462130  0.16464165  1
  I  I115  1  -0.00007673  0.83827312  0.50460154  1
  I  I116  1  -0.00303352  0.83423232  0.83048568  1
  I  I117  1  0.33044016  0.16656056  0.17223865  1
  I  I118  1  0.33011036  0.16330813  0.49910715  1
  I  I119  1  0.33235101  0.17023332  0.83128701  1
  I  I120  1  0.33702368  0.50361904  0.16883166  1
  I  I121  1  0.33660908  0.50003555  0.49875360  1
  I  I122  1  0.33449724  0.49598899  0.83286499  1
  I  I123  1  0.33655314  0.82838087  0.16644186  1
  I  I124  1  0.33079355  0.83818815  0.49887783  1
  I  I125  1  0.33320662  0.83350512  0.83240592  1
  I  I126  1  0.66645316  0.16693038  0.16665148  1
  I  I127  1  0.66886014  0.16279977  0.50230131  1
  I  I128  1  0.66432308  0.17079860  0.83240259  1
  I  I129  1  0.66174334  0.50315473  0.16459340  1
  I  I130  1  0.66267632  0.50032894  0.50253973  1
  I  I131  1  0.66310241  0.49616277  0.83381146  1
  I  I132  1  0.66338962  0.82905405  0.16774898  1
  I  I133  1  0.66941300  0.83656726  0.50236682  1
  I  I134  1  0.66948162  0.83354143  0.82628936  1
