# generated using pymatgen
data_Cs27Sn13Pb14I81
_symmetry_space_group_name_H-M   'P 1'
_cell_length_a   18.97853759
_cell_length_b   18.99535691
_cell_length_c   18.99963467
_cell_angle_alpha   89.99758419
_cell_angle_beta   89.99860144
_cell_angle_gamma   90.00252282
_symmetry_Int_Tables_number   1
_chemical_formula_structural   Cs27Sn13Pb14I81
_chemical_formula_sum   'Cs27 Sn13 Pb14 I81'
_cell_volume   6849.44608699
_cell_formula_units_Z   1
loop_
 _symmetry_equiv_pos_site_id
 _symmetry_equiv_pos_as_xyz
  1  'x, y, z'
loop_
 _atom_site_type_symbol
 _atom_site_label
 _atom_site_symmetry_multiplicity
 _atom_site_fract_x
 _atom_site_fract_y
 _atom_site_fract_z
 _atom_site_occupancy
  Cs  Cs0  1  -0.00272600  -0.00173408  0.00285027  1
  Cs  Cs1  1  0.00084418  -0.00012998  0.33346720  1
  Cs  Cs2  1  0.00256805  -0.00169334  0.66223829  1
  Cs  Cs3  1  -0.00034180  0.33733406  0.00072968  1
  Cs  Cs4  1  -0.00094402  0.33306249  0.33295519  1
  Cs  Cs5  1  -0.00574994  0.33824950  0.66661589  1
  Cs  Cs6  1  -0.00054968  0.66459331  -0.00209877  1
  Cs  Cs7  1  0.00166644  0.66763105  0.33333445  1
  Cs  Cs8  1  -0.00045390  0.66484803  0.66777583  1
  Cs  Cs9  1  0.33285599  0.00349354  -0.00222644  1
  Cs  Cs10  1  0.33049291  0.00291471  0.33496447  1
  Cs  Cs11  1  0.33390120  0.00132528  0.66629049  1
  Cs  Cs12  1  0.33359656  0.33328337  -0.00012676  1
  Cs  Cs13  1  0.33266900  0.33177555  0.33191871  1
  Cs  Cs14  1  0.33234516  0.33085895  0.66953181  1
  Cs  Cs15  1  0.33384059  0.66282689  0.00194106  1
  Cs  Cs16  1  0.33745164  0.66583828  0.33293514  1
  Cs  Cs17  1  0.33366683  0.66665635  0.66533168  1
  Cs  Cs18  1  0.67467372  -0.00683029  -0.00797924  1
  Cs  Cs19  1  0.67150834  -0.00074889  0.33001485  1
  Cs  Cs20  1  0.66413301  0.00033297  0.67799212  1
  Cs  Cs21  1  0.66496981  0.32937327  -0.00344223  1
  Cs  Cs22  1  0.66876900  0.33612629  0.33621587  1
  Cs  Cs23  1  0.67645540  0.33426462  0.66811181  1
  Cs  Cs24  1  0.66467297  0.67657902  0.00266592  1
  Cs  Cs25  1  0.65405835  0.66479284  0.33318409  1
  Cs  Cs26  1  0.66616999  0.66575039  0.66464544  1
  Sn  Sn27  1  0.49981394  0.49989660  0.83329319  1
  Sn  Sn28  1  0.83342471  0.50016028  0.16676664  1
  Sn  Sn29  1  0.16646047  0.16611507  0.83335778  1
  Sn  Sn30  1  0.16694789  0.83332009  0.16665702  1
  Sn  Sn31  1  0.16704986  0.16670543  0.16649781  1
  Sn  Sn32  1  0.49975266  0.16664908  0.49920697  1
  Sn  Sn33  1  0.16598541  0.49990917  0.16781598  1
  Sn  Sn34  1  0.83356093  0.83338334  0.49962008  1
  Sn  Sn35  1  0.16699708  0.16724820  0.50019532  1
  Sn  Sn36  1  0.49974028  0.16619955  0.16735079  1
  Sn  Sn37  1  0.16695013  0.83412852  0.83338896  1
  Sn  Sn38  1  0.16700123  0.49978203  0.49915594  1
  Sn  Sn39  1  0.16630743  0.83304429  0.49982731  1
  Pb  Pb40  1  0.83562249  0.83079493  0.16908970  1
  Pb  Pb41  1  0.49816689  0.16796751  0.83330790  1
  Pb  Pb42  1  0.83715008  0.16668523  0.83339161  1
  Pb  Pb43  1  0.83339595  0.16842914  0.16678590  1
  Pb  Pb44  1  0.49700137  0.83099799  0.83324011  1
  Pb  Pb45  1  0.83005702  0.50049292  0.83637227  1
  Pb  Pb46  1  0.16750569  0.49997558  0.83341922  1
  Pb  Pb47  1  0.49736873  0.83700266  0.16671777  1
  Pb  Pb48  1  0.83328729  0.16439741  0.49989168  1
  Pb  Pb49  1  0.49753596  0.49699067  0.50189936  1
  Pb  Pb50  1  0.83643374  0.83306209  0.83063492  1
  Pb  Pb51  1  0.83551567  0.50259833  0.49770856  1
  Pb  Pb52  1  0.49969508  0.49761640  0.16529492  1
  Pb  Pb53  1  0.49960132  0.83631956  0.49991091  1
  I  I54  1  0.17138649  0.00041714  0.16871682  1
  I  I55  1  0.16633396  0.00022210  0.49846339  1
  I  I56  1  0.16786568  0.00029643  0.83283605  1
  I  I57  1  0.16684735  0.33302421  0.16874715  1
  I  I58  1  0.17176591  0.33272484  0.49739987  1
  I  I59  1  0.17003914  0.33081441  0.83358293  1
  I  I60  1  0.16170238  0.66636537  0.16856685  1
  I  I61  1  0.16180557  0.66696537  0.49846796  1
  I  I62  1  0.16853924  0.66920904  0.83278824  1
  I  I63  1  0.49211497  0.00477274  0.17084664  1
  I  I64  1  0.49096635  0.00388932  0.49724920  1
  I  I65  1  0.50056975  0.00018471  0.83285478  1
  I  I66  1  0.49140721  0.33017751  0.16929163  1
  I  I67  1  0.49214230  0.32947947  0.49591703  1
  I  I68  1  0.49385446  0.33527735  0.83471024  1
  I  I69  1  0.49936929  0.66664932  0.16466037  1
  I  I70  1  0.49882054  0.66661392  0.50166620  1
  I  I71  1  0.49609663  0.66349733  0.83453727  1
  I  I72  1  0.83393544  -0.00036790  0.16744271  1
  I  I73  1  0.84299957  -0.00294498  0.49803695  1
  I  I74  1  0.82909040  -0.00024500  0.83479019  1
  I  I75  1  0.84189202  0.33607121  0.16778215  1
  I  I76  1  0.83441579  0.33351713  0.49974768  1
  I  I77  1  0.83598254  0.33371931  0.83197765  1
  I  I78  1  0.84109490  0.66329126  0.16628973  1
  I  I79  1  0.84263248  0.66998054  0.50033294  1
  I  I80  1  0.83701166  0.66673287  0.83321263  1
  I  I81  1  0.17102426  0.16488516  0.00093576  1
  I  I82  1  0.17013606  0.16492616  0.33337902  1
  I  I83  1  0.17134507  0.16342034  0.66572882  1
  I  I84  1  0.16512221  0.49975066  0.00296140  1
  I  I85  1  0.16376902  0.49974348  0.33281941  1
  I  I86  1  0.16969344  0.50004215  0.66406787  1
  I  I87  1  0.16872411  0.83596153  0.00055670  1
  I  I88  1  0.16257068  0.83587455  0.33359841  1
  I  I89  1  0.16335457  0.83598511  0.66586192  1
  I  I90  1  0.49235064  0.17079396  0.00262046  1
  I  I91  1  0.48865889  0.16758040  0.33326498  1
  I  I92  1  0.49310755  0.16694790  0.66408388  1
  I  I93  1  0.49487318  0.49621264  -0.00196446  1
  I  I94  1  0.50146292  0.50107560  0.33335644  1
  I  I95  1  0.49497736  0.49832172  0.66917206  1
  I  I96  1  0.49835567  0.83470819  0.00008205  1
  I  I97  1  0.49782848  0.82859213  0.33330645  1
  I  I98  1  0.49690900  0.83563836  0.66650804  1
  I  I99  1  0.83265967  0.16677511  0.00017597  1
  I  I100  1  0.83802607  0.16638835  0.33335538  1
  I  I101  1  0.83239945  0.16792589  0.66652641  1
  I  I102  1  0.84447867  0.49911241  0.00372416  1
  I  I103  1  0.83681274  0.49874475  0.33021207  1
  I  I104  1  0.83415027  0.50016972  0.66648460  1
  I  I105  1  0.83398847  0.83278364  0.00019007  1
  I  I106  1  0.84296352  0.83492160  0.33640494  1
  I  I107  1  0.84153942  0.83309347  0.66309310  1
  I  I108  1  0.00423559  0.16446748  0.16784525  1
  I  I109  1  0.00418098  0.16780792  0.49901623  1
  I  I110  1  0.00583367  0.16444496  0.83324560  1
  I  I111  1  0.00320935  0.49740738  0.16952352  1
  I  I112  1  0.00443962  0.49428758  0.50027871  1
  I  I113  1  0.00014271  0.49950866  0.83156430  1
  I  I114  1  0.00476232  0.83916497  0.16518217  1
  I  I115  1  0.00366867  0.83584498  0.50016100  1
  I  I116  1  0.00491293  0.83602162  0.83608174  1
  I  I117  1  0.33049995  0.16885448  0.16756788  1
  I  I118  1  0.33045488  0.16462590  0.49908556  1
  I  I119  1  0.32956090  0.16355607  0.83321171  1
  I  I120  1  0.32962844  0.50185504  0.16874769  1
  I  I121  1  0.32890038  0.50555186  0.49361181  1
  I  I122  1  0.33462522  0.49940786  0.83577875  1
  I  I123  1  0.32827099  0.82683065  0.17035071  1
  I  I124  1  0.32902452  0.83175584  0.50005448  1
  I  I125  1  0.32857420  0.83797086  0.82968596  1
  I  I126  1  0.66348649  0.17154813  0.17346611  1
  I  I127  1  0.66350537  0.16583334  0.49357554  1
  I  I128  1  0.66634016  0.16884430  0.83311828  1
  I  I129  1  0.66886906  0.49740940  0.16457339  1
  I  I130  1  0.66658032  0.50066332  0.49937755  1
  I  I131  1  0.66266964  0.49624903  0.83334153  1
  I  I132  1  0.66676234  0.83209453  0.16863243  1
  I  I133  1  0.66926016  0.83400728  0.49892098  1
  I  I134  1  0.66676464  0.83263026  0.83194454  1
