# generated using pymatgen
data_Cs27Sn14Pb13I81
_symmetry_space_group_name_H-M   'P 1'
_cell_length_a   18.96542188
_cell_length_b   18.95669949
_cell_length_c   18.96098230
_cell_angle_alpha   89.99988493
_cell_angle_beta   90.00116238
_cell_angle_gamma   89.99954687
_symmetry_Int_Tables_number   1
_chemical_formula_structural   Cs27Sn14Pb13I81
_chemical_formula_sum   'Cs27 Sn14 Pb13 I81'
_cell_volume   6816.88654709
_cell_formula_units_Z   1
loop_
 _symmetry_equiv_pos_site_id
 _symmetry_equiv_pos_as_xyz
  1  'x, y, z'
loop_
 _atom_site_type_symbol
 _atom_site_label
 _atom_site_symmetry_multiplicity
 _atom_site_fract_x
 _atom_site_fract_y
 _atom_site_fract_z
 _atom_site_occupancy
  Cs  Cs0  1  0.00014723  0.00361963  0.00024864  1
  Cs  Cs1  1  -0.00287577  -0.00199204  0.33334450  1
  Cs  Cs2  1  -0.00204402  0.00242360  0.66848567  1
  Cs  Cs3  1  -0.00183878  0.33263427  -0.00068865  1
  Cs  Cs4  1  -0.00040363  0.33322289  0.33229264  1
  Cs  Cs5  1  0.00038940  0.33201481  0.66893289  1
  Cs  Cs6  1  0.00204906  0.66264969  0.00119721  1
  Cs  Cs7  1  0.00113866  0.66801869  0.33506715  1
  Cs  Cs8  1  0.00182530  0.66659655  0.66330487  1
  Cs  Cs9  1  0.33296522  -0.00191322  -0.00052220  1
  Cs  Cs10  1  0.33445635  0.00288345  0.33394851  1
  Cs  Cs11  1  0.33306028  0.00226057  0.66654437  1
  Cs  Cs12  1  0.33368497  0.33201202  0.00529149  1
  Cs  Cs13  1  0.33581311  0.32629055  0.32845052  1
  Cs  Cs14  1  0.33472331  0.33487037  0.66535230  1
  Cs  Cs15  1  0.33310774  0.66837381  -0.00165814  1
  Cs  Cs16  1  0.33234118  0.66674000  0.33465351  1
  Cs  Cs17  1  0.33359442  0.66529900  0.66638368  1
  Cs  Cs18  1  0.66666274  -0.00200754  -0.00253442  1
  Cs  Cs19  1  0.66876626  0.00098937  0.33352669  1
  Cs  Cs20  1  0.66775038  -0.00352720  0.66950067  1
  Cs  Cs21  1  0.66826639  0.33708578  0.00012068  1
  Cs  Cs22  1  0.66536060  0.33143140  0.33284243  1
  Cs  Cs23  1  0.66492597  0.33425880  0.66623686  1
  Cs  Cs24  1  0.66703651  0.66482952  -0.00222482  1
  Cs  Cs25  1  0.66630759  0.66673073  0.33458478  1
  Cs  Cs26  1  0.66531674  0.66754629  0.66658027  1
  Sn  Sn27  1  0.16772764  0.50070560  0.83262051  1
  Sn  Sn28  1  0.83338560  0.49904698  0.49996016  1
  Sn  Sn29  1  0.49887446  0.49898699  0.83268232  1
  Sn  Sn30  1  0.49912743  0.83277621  0.49921945  1
  Sn  Sn31  1  0.16665996  0.83318298  0.16694068  1
  Sn  Sn32  1  0.16720671  0.50019246  0.50035690  1
  Sn  Sn33  1  0.83316321  0.16610850  0.16726835  1
  Sn  Sn34  1  0.83327086  0.83370527  0.16664876  1
  Sn  Sn35  1  0.49944230  0.50042904  0.50021855  1
  Sn  Sn36  1  0.50011387  0.83298071  0.16764839  1
  Sn  Sn37  1  0.16760668  0.83304511  0.50029829  1
  Sn  Sn38  1  0.83333457  0.16751092  0.49969690  1
  Sn  Sn39  1  0.16656149  0.83269681  0.83281114  1
  Sn  Sn40  1  0.49977638  0.16786213  0.83319735  1
  Pb  Pb41  1  0.50235643  0.16387884  0.16420610  1
  Pb  Pb42  1  0.49827332  0.83248543  0.83279568  1
  Pb  Pb43  1  0.49987131  0.50218662  0.16678236  1
  Pb  Pb44  1  0.83689577  0.83301369  0.83646991  1
  Pb  Pb45  1  0.16687668  0.50173090  0.16692463  1
  Pb  Pb46  1  0.83332197  0.83313977  0.49876305  1
  Pb  Pb47  1  0.16427844  0.16390319  0.16676968  1
  Pb  Pb48  1  0.83330711  0.50012519  0.16925435  1
  Pb  Pb49  1  0.50206077  0.16637589  0.50138148  1
  Pb  Pb50  1  0.16441527  0.16687708  0.50003195  1
  Pb  Pb51  1  0.83096889  0.16683442  0.83339657  1
  Pb  Pb52  1  0.83369014  0.50023119  0.83065672  1
  Pb  Pb53  1  0.16892652  0.16760641  0.83318695  1
  I  I54  1  0.16899204  -0.00500074  0.16669178  1
  I  I55  1  0.16975664  -0.00372969  0.49979920  1
  I  I56  1  0.16798760  -0.00306726  0.83357352  1
  I  I57  1  0.16431964  0.33328709  0.16606387  1
  I  I58  1  0.16829411  0.33710834  0.50617370  1
  I  I59  1  0.16773476  0.33717640  0.82676400  1
  I  I60  1  0.16358496  0.67073972  0.16682127  1
  I  I61  1  0.16469236  0.66701227  0.50030984  1
  I  I62  1  0.17234442  0.66656420  0.83300438  1
  I  I63  1  0.49721830  -0.00441447  0.17088694  1
  I  I64  1  0.49711614  -0.00319263  0.49803215  1
  I  I65  1  0.49983958  0.00118167  0.83395509  1
  I  I66  1  0.50225743  0.33313847  0.16847137  1
  I  I67  1  0.49824934  0.33645663  0.50321871  1
  I  I68  1  0.49587790  0.33529084  0.82699467  1
  I  I69  1  0.50233553  0.67081888  0.16613245  1
  I  I70  1  0.50202725  0.66640428  0.50190145  1
  I  I71  1  0.49800165  0.66380927  0.83212323  1
  I  I72  1  0.83405363  -0.00087616  0.17352218  1
  I  I73  1  0.83311070  0.00186313  0.49720125  1
  I  I74  1  0.83193422  -0.00011449  0.82817971  1
  I  I75  1  0.83270930  0.33061650  0.16885059  1
  I  I76  1  0.83309107  0.33403255  0.49457905  1
  I  I77  1  0.83749926  0.33354275  0.83789468  1
  I  I78  1  0.83410957  0.67002024  0.16772489  1
  I  I79  1  0.83355578  0.66410669  0.49902888  1
  I  I80  1  0.82751091  0.66666367  0.83388806  1
  I  I81  1  0.16436112  0.16603256  -0.00006846  1
  I  I82  1  0.16907938  0.16743360  0.33348475  1
  I  I83  1  0.16286179  0.15999755  0.66658355  1
  I  I84  1  0.17109637  0.50490043  -0.00324753  1
  I  I85  1  0.16609655  0.50505103  0.33713053  1
  I  I86  1  0.16681346  0.50836307  0.66591741  1
  I  I87  1  0.16677165  0.82992108  0.00006022  1
  I  I88  1  0.16638714  0.82928658  0.33395788  1
  I  I89  1  0.17178192  0.82908127  0.66564972  1
  I  I90  1  0.50131643  0.17129570  -0.00344270  1
  I  I91  1  0.50002814  0.16827115  0.33324420  1
  I  I92  1  0.50236754  0.16547798  0.66918481  1
  I  I93  1  0.49578710  0.49811749  -0.00326163  1
  I  I94  1  0.49978561  0.50321417  0.33704635  1
  I  I95  1  0.50010700  0.50222252  0.66563761  1
  I  I96  1  0.49949071  0.83430366  0.00218022  1
  I  I97  1  0.49619279  0.82848644  0.33426895  1
  I  I98  1  0.49667909  0.83258920  0.66366940  1
  I  I99  1  0.83263639  0.16017724  0.00292125  1
  I  I100  1  0.83262834  0.16585034  0.33353748  1
  I  I101  1  0.83307275  0.17064193  0.66378704  1
  I  I102  1  0.83332571  0.49970712  0.00000315  1
  I  I103  1  0.83355905  0.49995991  0.33772101  1
  I  I104  1  0.83335773  0.49505030  0.66224749  1
  I  I105  1  0.83084683  0.83995187  0.00485006  1
  I  I106  1  0.83720631  0.83404472  0.33064435  1
  I  I107  1  0.83246014  0.83462678  0.66647994  1
  I  I108  1  -0.00382806  0.16109917  0.16990520  1
  I  I109  1  -0.00374197  0.16902340  0.49668843  1
  I  I110  1  -0.00003906  0.16590754  0.83398149  1
  I  I111  1  0.00004036  0.50286740  0.16639699  1
  I  I112  1  0.00098406  0.50155115  0.50285899  1
  I  I113  1  0.00350716  0.50531126  0.82997983  1
  I  I114  1  0.00045526  0.83703484  0.16729466  1
  I  I115  1  0.00278929  0.83027864  0.49907773  1
  I  I116  1  0.00515954  0.82795632  0.83041447  1
  I  I117  1  0.33371866  0.16570703  0.16572809  1
  I  I118  1  0.33360317  0.16761500  0.50145417  1
  I  I119  1  0.33669142  0.16677602  0.83204741  1
  I  I120  1  0.33340299  0.50154909  0.17001849  1
  I  I121  1  0.33341009  0.50725615  0.50577391  1
  I  I122  1  0.33328778  0.50100456  0.82508351  1
  I  I123  1  0.33302419  0.83106972  0.16690823  1
  I  I124  1  0.33306838  0.82638322  0.49578490  1
  I  I125  1  0.33023998  0.83250392  0.83782516  1
  I  I126  1  0.67012453  0.16021903  0.17089971  1
  I  I127  1  0.66996330  0.16995880  0.49667868  1
  I  I128  1  0.66315020  0.17153357  0.83292364  1
  I  I129  1  0.66659336  0.50398688  0.16601473  1
  I  I130  1  0.66565375  0.50115595  0.50311989  1
  I  I131  1  0.66350252  0.49660805  0.83007782  1
  I  I132  1  0.66641333  0.83698475  0.17228233  1
  I  I133  1  0.66407021  0.83060770  0.49584163  1
  I  I134  1  0.66643347  0.83359690  0.83351662  1
