# generated using pymatgen
data_Cs27Sn14Pb13I81
_symmetry_space_group_name_H-M   'P 1'
_cell_length_a   18.97229730
_cell_length_b   18.97783567
_cell_length_c   18.98127798
_cell_angle_alpha   89.99944408
_cell_angle_beta   90.00048573
_cell_angle_gamma   89.99945241
_symmetry_Int_Tables_number   1
_chemical_formula_structural   Cs27Sn14Pb13I81
_chemical_formula_sum   'Cs27 Sn14 Pb13 I81'
_cell_volume   6834.26874707
_cell_formula_units_Z   1
loop_
 _symmetry_equiv_pos_site_id
 _symmetry_equiv_pos_as_xyz
  1  'x, y, z'
loop_
 _atom_site_type_symbol
 _atom_site_label
 _atom_site_symmetry_multiplicity
 _atom_site_fract_x
 _atom_site_fract_y
 _atom_site_fract_z
 _atom_site_occupancy
  Cs  Cs0  1  -0.00104214  0.00078910  -0.00016286  1
  Cs  Cs1  1  -0.00107259  0.00063982  0.33055371  1
  Cs  Cs2  1  0.00130106  0.00027192  0.66925155  1
  Cs  Cs3  1  -0.00454288  0.33470720  0.00873493  1
  Cs  Cs4  1  -0.00064753  0.33158114  0.32602723  1
  Cs  Cs5  1  0.00432645  0.33281198  0.66690333  1
  Cs  Cs6  1  -0.00438458  0.66428189  0.00058330  1
  Cs  Cs7  1  -0.00021343  0.66699555  0.33305083  1
  Cs  Cs8  1  0.00204904  0.66788231  0.66674991  1
  Cs  Cs9  1  0.33364378  -0.00469916  0.00098942  1
  Cs  Cs10  1  0.33210163  -0.00082320  0.33221183  1
  Cs  Cs11  1  0.33113104  0.00355182  0.66727036  1
  Cs  Cs12  1  0.33367012  0.33219180  -0.00399040  1
  Cs  Cs13  1  0.33518271  0.33352053  0.33439634  1
  Cs  Cs14  1  0.33397702  0.33352336  0.66689912  1
  Cs  Cs15  1  0.33364352  0.67317094  0.00130504  1
  Cs  Cs16  1  0.33211834  0.66741670  0.33376425  1
  Cs  Cs17  1  0.33137358  0.66299676  0.66572685  1
  Cs  Cs18  1  0.66587934  -0.00516411  -0.00382538  1
  Cs  Cs19  1  0.66720165  -0.00206701  0.33493393  1
  Cs  Cs20  1  0.66853789  0.00122685  0.66626732  1
  Cs  Cs21  1  0.66854053  0.33467183  -0.00064992  1
  Cs  Cs22  1  0.66447053  0.33252238  0.33496303  1
  Cs  Cs23  1  0.66482644  0.33281846  0.66576043  1
  Cs  Cs24  1  0.66869972  0.66978736  -0.00194396  1
  Cs  Cs25  1  0.66647286  0.66837506  0.33499334  1
  Cs  Cs26  1  0.66681848  0.66574025  0.66474700  1
  Sn  Sn27  1  0.49973643  0.49951386  0.16639447  1
  Sn  Sn28  1  0.16647109  0.49878483  0.50031749  1
  Sn  Sn29  1  0.16746778  0.16777938  0.50036293  1
  Sn  Sn30  1  0.83275733  0.83265073  0.49941914  1
  Sn  Sn31  1  0.83377643  0.50013559  0.50014987  1
  Sn  Sn32  1  0.49940719  0.16756912  0.83337550  1
  Sn  Sn33  1  0.49924801  0.16638202  0.50001474  1
  Sn  Sn34  1  0.16753053  0.49898259  0.83295228  1
  Sn  Sn35  1  0.83316215  0.83332482  0.16775378  1
  Sn  Sn36  1  0.50024340  0.83347434  0.50039794  1
  Sn  Sn37  1  0.49920688  0.49938225  0.83348286  1
  Sn  Sn38  1  0.49986607  0.50010051  0.49998255  1
  Sn  Sn39  1  0.16758388  0.16810485  0.83285487  1
  Sn  Sn40  1  0.50001497  0.16726605  0.16649426  1
  Pb  Pb41  1  0.16930006  0.49999357  0.16640587  1
  Pb  Pb42  1  0.50115971  0.83324462  0.16908979  1
  Pb  Pb43  1  0.83337121  0.83317496  0.83222923  1
  Pb  Pb44  1  0.82987937  0.16435485  0.16669227  1
  Pb  Pb45  1  0.16354601  0.83319035  0.16676958  1
  Pb  Pb46  1  0.49979925  0.83316086  0.83017368  1
  Pb  Pb47  1  0.83364068  0.16714969  0.83321952  1
  Pb  Pb48  1  0.83027728  0.50152669  0.16946420  1
  Pb  Pb49  1  0.16643708  0.83357910  0.49998616  1
  Pb  Pb50  1  0.16926897  0.16683491  0.16638625  1
  Pb  Pb51  1  0.83348087  0.49969178  0.83077539  1
  Pb  Pb52  1  0.16687290  0.83305021  0.83319988  1
  Pb  Pb53  1  0.83397318  0.16688488  0.50014350  1
  I  I54  1  0.17000196  0.00033722  0.16751736  1
  I  I55  1  0.17062237  0.00337184  0.50426618  1
  I  I56  1  0.17127417  0.00392832  0.82767299  1
  I  I57  1  0.16154880  0.33340213  0.16852100  1
  I  I58  1  0.17053425  0.33389733  0.50427631  1
  I  I59  1  0.17291091  0.33355812  0.82609174  1
  I  I60  1  0.17127755  0.66626795  0.16734303  1
  I  I61  1  0.16959592  0.66326023  0.50397419  1
  I  I62  1  0.17137634  0.66257715  0.82730713  1
  I  I63  1  0.50114898  0.00284225  0.16696432  1
  I  I64  1  0.50062680  0.00111641  0.49941293  1
  I  I65  1  0.49634342  0.00351650  0.83410349  1
  I  I66  1  0.50019611  0.33351499  0.17239169  1
  I  I67  1  0.50048875  0.33387743  0.49969960  1
  I  I68  1  0.49689354  0.33359350  0.82894060  1
  I  I69  1  0.50106623  0.66377526  0.16720483  1
  I  I70  1  0.50068265  0.66501255  0.49955992  1
  I  I71  1  0.49648590  0.66296742  0.83350144  1
  I  I72  1  0.83170433  -0.00339104  0.17589975  1
  I  I73  1  0.82857457  -0.00275234  0.49611884  1
  I  I74  1  0.83276433  0.00006783  0.83127796  1
  I  I75  1  0.83505967  0.33351765  0.16723830  1
  I  I76  1  0.82892851  0.33638627  0.50183731  1
  I  I77  1  0.83135620  0.33362858  0.83135330  1
  I  I78  1  0.83019858  0.66935945  0.16953117  1
  I  I79  1  0.82868515  0.66616841  0.49683489  1
  I  I80  1  0.83287555  0.66630841  0.83513623  1
  I  I81  1  0.17072614  0.17052048  -0.00366097  1
  I  I82  1  0.17062440  0.17017010  0.33661104  1
  I  I83  1  0.17483140  0.16997016  0.66585825  1
  I  I84  1  0.17127882  0.49571151  -0.00364861  1
  I  I85  1  0.16750587  0.49686473  0.33696868  1
  I  I86  1  0.17134397  0.49710265  0.66534289  1
  I  I87  1  0.16557449  0.83377165  -0.00015045  1
  I  I88  1  0.16994332  0.83340737  0.33396727  1
  I  I89  1  0.16359643  0.83359419  0.66625920  1
  I  I90  1  0.49713030  0.17370549  -0.00080411  1
  I  I91  1  0.49728320  0.16942010  0.33485736  1
  I  I92  1  0.49708076  0.16862569  0.66591738  1
  I  I93  1  0.49570529  0.49277555  -0.00081961  1
  I  I94  1  0.50084080  0.49763376  0.33513107  1
  I  I95  1  0.50037264  0.49856194  0.66549453  1
  I  I96  1  0.50285812  0.83336272  0.00003736  1
  I  I97  1  0.50213364  0.83298617  0.33725301  1
  I  I98  1  0.50700915  0.83278074  0.66200301  1
  I  I99  1  0.83383949  0.16344186  0.00011867  1
  I  I100  1  0.83370998  0.16861722  0.33364799  1
  I  I101  1  0.82764498  0.16291846  0.66627612  1
  I  I102  1  0.83360650  0.50283379  0.00023086  1
  I  I103  1  0.83347748  0.50172703  0.33767575  1
  I  I104  1  0.82759715  0.50689884  0.66247091  1
  I  I105  1  0.83241017  0.83466656  0.00273915  1
  I  I106  1  0.82782060  0.82926122  0.33526750  1
  I  I107  1  0.82905093  0.82941074  0.66256299  1
  I  I108  1  0.00000606  0.16394761  0.16676474  1
  I  I109  1  0.00359690  0.16882642  0.50603228  1
  I  I110  1  0.00411979  0.16929699  0.82570446  1
  I  I111  1  -0.00025438  0.50273544  0.16627146  1
  I  I112  1  0.00083762  0.50152384  0.50588624  1
  I  I113  1  0.00365512  0.49676803  0.82756957  1
  I  I114  1  -0.00448532  0.83290056  0.17587132  1
  I  I115  1  -0.00301224  0.82942883  0.49588913  1
  I  I116  1  0.00008634  0.83417888  0.83155254  1
  I  I117  1  0.33755105  0.17000403  0.16868238  1
  I  I118  1  0.33489797  0.16895962  0.50052720  1
  I  I119  1  0.33460701  0.17108497  0.83101187  1
  I  I120  1  0.33757966  0.49671579  0.17313890  1
  I  I121  1  0.33458885  0.50021419  0.50044348  1
  I  I122  1  0.33446910  0.49585433  0.82698200  1
  I  I123  1  0.33386184  0.83360155  0.16746626  1
  I  I124  1  0.33631378  0.83082977  0.50040513  1
  I  I125  1  0.33366273  0.83308903  0.83261113  1
  I  I126  1  0.66159418  0.17147746  0.16889907  1
  I  I127  1  0.66310211  0.16885139  0.50035682  1
  I  I128  1  0.66249072  0.17033605  0.83169947  1
  I  I129  1  0.66215276  0.49598557  0.16636682  1
  I  I130  1  0.66477429  0.50082503  0.49973073  1
  I  I131  1  0.66295438  0.49615015  0.83237158  1
  I  I132  1  0.66892536  0.83341777  0.17093909  1
  I  I133  1  0.66588611  0.83011309  0.49665722  1
  I  I134  1  0.66627937  0.83402413  0.83458681  1
