# generated using pymatgen
data_Cs27Sn13Pb14I81
_symmetry_space_group_name_H-M   'P 1'
_cell_length_a   18.97927125
_cell_length_b   18.98015897
_cell_length_c   18.96926620
_cell_angle_alpha   90.00267124
_cell_angle_beta   90.00138146
_cell_angle_gamma   90.00106686
_symmetry_Int_Tables_number   1
_chemical_formula_structural   Cs27Sn13Pb14I81
_chemical_formula_sum   'Cs27 Sn13 Pb14 I81'
_cell_volume   6833.29088989
_cell_formula_units_Z   1
loop_
 _symmetry_equiv_pos_site_id
 _symmetry_equiv_pos_as_xyz
  1  'x, y, z'
loop_
 _atom_site_type_symbol
 _atom_site_label
 _atom_site_symmetry_multiplicity
 _atom_site_fract_x
 _atom_site_fract_y
 _atom_site_fract_z
 _atom_site_occupancy
  Cs  Cs0  1  0.00230131  0.00226686  0.00298676  1
  Cs  Cs1  1  -0.00323750  0.00008678  0.33093005  1
  Cs  Cs2  1  0.00184276  -0.00289343  0.66499859  1
  Cs  Cs3  1  0.00090254  0.33329083  0.00085628  1
  Cs  Cs4  1  -0.00333025  0.33119711  0.32915572  1
  Cs  Cs5  1  0.00023172  0.33704600  0.66897655  1
  Cs  Cs6  1  -0.00070727  0.66531087  0.00043966  1
  Cs  Cs7  1  0.00175122  0.66841487  0.33555714  1
  Cs  Cs8  1  -0.00483255  0.66713500  0.65973936  1
  Cs  Cs9  1  0.33316710  0.00020650  -0.00062685  1
  Cs  Cs10  1  0.33324404  -0.00053338  0.33505334  1
  Cs  Cs11  1  0.33312166  0.00084476  0.66733016  1
  Cs  Cs12  1  0.33181041  0.33302522  -0.00131670  1
  Cs  Cs13  1  0.33734215  0.33543719  0.33640181  1
  Cs  Cs14  1  0.33348450  0.33143380  0.66835204  1
  Cs  Cs15  1  0.33485302  0.66681010  0.00119491  1
  Cs  Cs16  1  0.33481149  0.66452710  0.33445786  1
  Cs  Cs17  1  0.32997638  0.66703530  0.66477428  1
  Cs  Cs18  1  0.66380693  -0.00246612  -0.00139135  1
  Cs  Cs19  1  0.66762072  0.00380498  0.33721796  1
  Cs  Cs20  1  0.66743745  -0.00197915  0.66454178  1
  Cs  Cs21  1  0.66594686  0.33388738  -0.00085544  1
  Cs  Cs22  1  0.66342672  0.33145298  0.34215824  1
  Cs  Cs23  1  0.66719741  0.33356783  0.66187550  1
  Cs  Cs24  1  0.66660358  0.66958770  0.00150080  1
  Cs  Cs25  1  0.66161104  0.66300700  0.32867768  1
  Cs  Cs26  1  0.67936909  0.66999503  0.66920514  1
  Sn  Sn27  1  0.50029015  0.16739430  0.83414290  1
  Sn  Sn28  1  0.16663744  0.83286705  0.83393934  1
  Sn  Sn29  1  0.83391634  0.83276698  0.16621835  1
  Sn  Sn30  1  0.49984346  0.16676775  0.16606325  1
  Sn  Sn31  1  0.16732443  0.50051357  0.83404564  1
  Sn  Sn32  1  0.16654913  0.16664666  0.83241417  1
  Sn  Sn33  1  0.49982559  0.83278057  0.50043681  1
  Sn  Sn34  1  0.16619794  0.83253291  0.16587486  1
  Sn  Sn35  1  0.49965275  0.49983864  0.83317911  1
  Sn  Sn36  1  0.16607329  0.50080297  0.16591352  1
  Sn  Sn37  1  0.16639347  0.16694039  0.50058678  1
  Sn  Sn38  1  0.83390156  0.50040844  0.16626207  1
  Sn  Sn39  1  0.83334704  0.16652825  0.83354046  1
  Pb  Pb40  1  0.49825276  0.16545251  0.50117125  1
  Pb  Pb41  1  0.16825709  0.16701117  0.16642926  1
  Pb  Pb42  1  0.16660598  0.49757482  0.49976397  1
  Pb  Pb43  1  0.49802148  0.83302751  0.83161370  1
  Pb  Pb44  1  0.49967632  0.49785065  0.16476380  1
  Pb  Pb45  1  0.83642767  0.83563673  0.83559757  1
  Pb  Pb46  1  0.49949058  0.83533881  0.16806583  1
  Pb  Pb47  1  0.83644949  0.16662492  0.50313501  1
  Pb  Pb48  1  0.83077805  0.83327788  0.49658517  1
  Pb  Pb49  1  0.83364654  0.49828430  0.83513403  1
  Pb  Pb50  1  0.16768616  0.83500991  0.49943862  1
  Pb  Pb51  1  0.49990525  0.50296334  0.50422836  1
  Pb  Pb52  1  0.83069144  0.16688591  0.16477241  1
  Pb  Pb53  1  0.83354470  0.49998200  0.49632203  1
  I  I54  1  0.16438786  -0.00234773  0.16361417  1
  I  I55  1  0.16917289  0.00278673  0.50530248  1
  I  I56  1  0.16718229  0.00065866  0.83386861  1
  I  I57  1  0.16339565  0.33602925  0.16305242  1
  I  I58  1  0.16922977  0.32974087  0.50491540  1
  I  I59  1  0.16766840  0.33304007  0.83380676  1
  I  I60  1  0.16398469  0.66674607  0.15905456  1
  I  I61  1  0.16811705  0.66671771  0.50264880  1
  I  I62  1  0.17326380  0.66610165  0.83917202  1
  I  I63  1  0.49876351  0.00302949  0.16007511  1
  I  I64  1  0.49770451  -0.00195727  0.50078370  1
  I  I65  1  0.49807716  0.00304817  0.83564031  1
  I  I66  1  0.49865388  0.33010010  0.16440179  1
  I  I67  1  0.49901315  0.33339337  0.49740892  1
  I  I68  1  0.49432221  0.33201603  0.83780384  1
  I  I69  1  0.50056918  0.66652779  0.16671123  1
  I  I70  1  0.49644096  0.67007576  0.49699097  1
  I  I71  1  0.49395623  0.66388275  0.83254157  1
  I  I72  1  0.83792004  -0.00235412  0.16507029  1
  I  I73  1  0.83301505  0.00007516  0.49717805  1
  I  I74  1  0.83214222  0.00349117  0.83630644  1
  I  I75  1  0.83903397  0.33584837  0.16367472  1
  I  I76  1  0.83212513  0.33298056  0.49706285  1
  I  I77  1  0.83795510  0.33041752  0.83721315  1
  I  I78  1  0.83685149  0.66668793  0.16524599  1
  I  I79  1  0.83397930  0.66687476  0.50537862  1
  I  I80  1  0.83182645  0.66675042  0.83275030  1
  I  I81  1  0.16602365  0.16643099  -0.00323906  1
  I  I82  1  0.17056268  0.16556778  0.33488911  1
  I  I83  1  0.16943958  0.16574752  0.66960925  1
  I  I84  1  0.16669622  0.49791560  -0.00074092  1
  I  I85  1  0.16285442  0.50331429  0.32967771  1
  I  I86  1  0.17145721  0.50094328  0.67040673  1
  I  I87  1  0.16480373  0.83601479  -0.00008698  1
  I  I88  1  0.16477136  0.83130522  0.32987848  1
  I  I89  1  0.17010150  0.83309191  0.66960557  1
  I  I90  1  0.49679641  0.16819617  -0.00199892  1
  I  I91  1  0.49771847  0.16468907  0.33150605  1
  I  I92  1  0.49999632  0.16916627  0.67052206  1
  I  I93  1  0.49726222  0.49788829  -0.00327126  1
  I  I94  1  0.50015147  0.49782175  0.33330502  1
  I  I95  1  0.49175868  0.49088678  0.67193327  1
  I  I96  1  0.50097065  0.83351677  -0.00016585  1
  I  I97  1  0.49776074  0.83742034  0.33547425  1
  I  I98  1  0.49567212  0.83670208  0.66436766  1
  I  I99  1  0.83932543  0.16685750  -0.00300309  1
  I  I100  1  0.83283101  0.16665621  0.33307773  1
  I  I101  1  0.82774122  0.16712672  0.67130805  1
  I  I102  1  0.83552693  0.50289586  0.00304825  1
  I  I103  1  0.83992420  0.50263166  0.32793261  1
  I  I104  1  0.83305596  0.49845625  0.66710739  1
  I  I105  1  0.83332840  0.83007993  0.00344445  1
  I  I106  1  0.84138603  0.83175334  0.32870012  1
  I  I107  1  0.83360982  0.83485865  0.66690424  1
  I  I108  1  0.00005194  0.16629288  0.16636007  1
  I  I109  1  0.00433185  0.16499602  0.50369437  1
  I  I110  1  0.00164726  0.16673725  0.82954028  1
  I  I111  1  0.00144896  0.50227702  0.16043558  1
  I  I112  1  0.00035678  0.49995399  0.50586912  1
  I  I113  1  0.00339513  0.49738932  0.83612975  1
  I  I114  1  0.00139118  0.83130181  0.16269113  1
  I  I115  1  -0.00001747  0.83504809  0.50167113  1
  I  I116  1  0.00470680  0.83357691  0.83408809  1
  I  I117  1  0.33580568  0.16579793  0.16087243  1
  I  I118  1  0.33066302  0.16520225  0.50546722  1
  I  I119  1  0.33263979  0.16721537  0.83339681  1
  I  I120  1  0.33025468  0.50310811  0.16407450  1
  I  I121  1  0.33329495  0.49996098  0.49449831  1
  I  I122  1  0.33170354  0.49463656  0.83916731  1
  I  I123  1  0.33009018  0.83098032  0.16383476  1
  I  I124  1  0.33520960  0.83606411  0.49825204  1
  I  I125  1  0.32966888  0.83826025  0.83909178  1
  I  I126  1  0.66315703  0.16561997  0.16072274  1
  I  I127  1  0.66660388  0.16519052  0.49946585  1
  I  I128  1  0.66547570  0.17110096  0.83970632  1
  I  I129  1  0.66888073  0.50410390  0.16414502  1
  I  I130  1  0.66642752  0.49875806  0.49954989  1
  I  I131  1  0.66421696  0.49420170  0.83473437  1
  I  I132  1  0.66898902  0.83024991  0.16852067  1
  I  I133  1  0.66333441  0.83639395  0.50100048  1
  I  I134  1  0.66685505  0.83407760  0.83332549  1
