# generated using pymatgen
data_Cs27Sn13Pb14I81
_symmetry_space_group_name_H-M   'P 1'
_cell_length_a   18.97500111
_cell_length_b   18.97931325
_cell_length_c   18.97506251
_cell_angle_alpha   90.00043206
_cell_angle_beta   89.99982414
_cell_angle_gamma   89.99798888
_symmetry_Int_Tables_number   1
_chemical_formula_structural   Cs27Sn13Pb14I81
_chemical_formula_sum   'Cs27 Sn13 Pb14 I81'
_cell_volume   6833.53650703
_cell_formula_units_Z   1
loop_
 _symmetry_equiv_pos_site_id
 _symmetry_equiv_pos_as_xyz
  1  'x, y, z'
loop_
 _atom_site_type_symbol
 _atom_site_label
 _atom_site_symmetry_multiplicity
 _atom_site_fract_x
 _atom_site_fract_y
 _atom_site_fract_z
 _atom_site_occupancy
  Cs  Cs0  1  -0.00031486  0.00171269  0.00248460  1
  Cs  Cs1  1  -0.00185252  0.00131403  0.33236726  1
  Cs  Cs2  1  -0.00034702  -0.00129280  0.66717756  1
  Cs  Cs3  1  0.00147772  0.32943826  0.00373226  1
  Cs  Cs4  1  0.00322672  0.33463017  0.33380712  1
  Cs  Cs5  1  0.00203702  0.33065569  0.66380793  1
  Cs  Cs6  1  0.00004902  0.66780482  -0.00217775  1
  Cs  Cs7  1  0.00030103  0.66507981  0.33286061  1
  Cs  Cs8  1  -0.00028376  0.66871114  0.66883829  1
  Cs  Cs9  1  0.33519523  0.00472288  0.00439765  1
  Cs  Cs10  1  0.33720645  -0.00491667  0.32505601  1
  Cs  Cs11  1  0.33191245  -0.00128240  0.66786538  1
  Cs  Cs12  1  0.33575376  0.32519764  -0.00425645  1
  Cs  Cs13  1  0.32493268  0.33751218  0.33565820  1
  Cs  Cs14  1  0.33174389  0.32964198  0.66834732  1
  Cs  Cs15  1  0.33028241  0.66766270  0.00008578  1
  Cs  Cs16  1  0.33388128  0.66722843  0.32932441  1
  Cs  Cs17  1  0.33246116  0.66862302  0.66769147  1
  Cs  Cs18  1  0.66654947  0.00404535  0.00331344  1
  Cs  Cs19  1  0.66589116  -0.00000417  0.33377390  1
  Cs  Cs20  1  0.66890523  -0.00131381  0.66363316  1
  Cs  Cs21  1  0.66293943  0.33382661  0.00000502  1
  Cs  Cs22  1  0.66846185  0.33512372  0.33432344  1
  Cs  Cs23  1  0.66601285  0.33472173  0.66619956  1
  Cs  Cs24  1  0.66977104  0.66295473  -0.00414480  1
  Cs  Cs25  1  0.66594874  0.66553018  0.33476678  1
  Cs  Cs26  1  0.66723246  0.66588652  0.66769584  1
  Sn  Sn27  1  0.83253775  0.50106723  0.16741632  1
  Sn  Sn28  1  0.16773505  0.83274332  0.83269639  1
  Sn  Sn29  1  0.83261577  0.16692127  0.50098181  1
  Sn  Sn30  1  0.83416912  0.83298172  0.49929253  1
  Sn  Sn31  1  0.50033262  0.16746251  0.49989237  1
  Sn  Sn32  1  0.50050958  0.50008298  0.16721302  1
  Sn  Sn33  1  0.16657392  0.50021154  0.83314610  1
  Sn  Sn34  1  0.83308264  0.16692482  0.83252432  1
  Sn  Sn35  1  0.50038127  0.49919284  0.49952657  1
  Sn  Sn36  1  0.49948987  0.83327107  0.83334929  1
  Sn  Sn37  1  0.16615803  0.83326258  0.50024032  1
  Sn  Sn38  1  0.83291338  0.50013121  0.49965198  1
  Sn  Sn39  1  0.83315987  0.83219334  0.16760313  1
  Pb  Pb40  1  0.16423223  0.83318855  0.16641966  1
  Pb  Pb41  1  0.16706741  0.16339469  0.49972911  1
  Pb  Pb42  1  0.16447845  0.16566560  0.83309431  1
  Pb  Pb43  1  0.83521583  0.49770483  0.83323684  1
  Pb  Pb44  1  0.50232587  0.16412347  0.83081350  1
  Pb  Pb45  1  0.83363029  0.83496284  0.83349190  1
  Pb  Pb46  1  0.50018633  0.83289804  0.50096731  1
  Pb  Pb47  1  0.16704298  0.16664754  0.16710120  1
  Pb  Pb48  1  0.50295022  0.83083592  0.16381552  1
  Pb  Pb49  1  0.49796122  0.50133512  0.83290932  1
  Pb  Pb50  1  0.50030196  0.16995637  0.17023148  1
  Pb  Pb51  1  0.16675557  0.50224299  0.50175504  1
  Pb  Pb52  1  0.83318286  0.16750385  0.16783811  1
  Pb  Pb53  1  0.16665979  0.50003504  0.16388344  1
  I  I54  1  0.16414789  -0.00062916  0.16491158  1
  I  I55  1  0.16146553  -0.00442320  0.50775678  1
  I  I56  1  0.16834931  -0.00359442  0.82829118  1
  I  I57  1  0.16281742  0.33396253  0.16509140  1
  I  I58  1  0.16433623  0.33350856  0.50182997  1
  I  I59  1  0.16487149  0.33550724  0.83385425  1
  I  I60  1  0.16751101  0.66661931  0.16768654  1
  I  I61  1  0.16199490  0.67003266  0.50325424  1
  I  I62  1  0.16846569  0.66803880  0.82942958  1
  I  I63  1  0.50034783  -0.00009554  0.16658329  1
  I  I64  1  0.50417842  0.00184970  0.50442373  1
  I  I65  1  0.49426460  -0.00357293  0.83091726  1
  I  I66  1  0.50859587  0.33779855  0.16515467  1
  I  I67  1  0.50896514  0.33425096  0.49777914  1
  I  I68  1  0.49847718  0.33327418  0.83534776  1
  I  I69  1  0.50192307  0.66321473  0.17473038  1
  I  I70  1  0.50360853  0.66376532  0.49830624  1
  I  I71  1  0.49998320  0.66920904  0.83020327  1
  I  I72  1  0.83553439  -0.00247580  0.16878856  1
  I  I73  1  0.83330801  -0.00038838  0.50094401  1
  I  I74  1  0.83451076  0.00249678  0.82840667  1
  I  I75  1  0.83028904  0.33691791  0.16884842  1
  I  I76  1  0.82873761  0.33389142  0.50054547  1
  I  I77  1  0.83493881  0.33027140  0.82866561  1
  I  I78  1  0.83049695  0.66610724  0.17384154  1
  I  I79  1  0.83293962  0.66653057  0.49593087  1
  I  I80  1  0.83257391  0.66667301  0.83154198  1
  I  I81  1  0.16322897  0.16565314  -0.00049777  1
  I  I82  1  0.16279602  0.16668161  0.33409973  1
  I  I83  1  0.16685001  0.16842577  0.66642137  1
  I  I84  1  0.16499887  0.50768923  -0.00370366  1
  I  I85  1  0.16668986  0.50109334  0.33349428  1
  I  I86  1  0.16586062  0.50347151  0.66935901  1
  I  I87  1  0.16809897  0.82913560  -0.00324160  1
  I  I88  1  0.16400140  0.83396171  0.33629544  1
  I  I89  1  0.16361749  0.82956129  0.66681714  1
  I  I90  1  0.50106096  0.16702246  0.00000139  1
  I  I91  1  0.50884359  0.16426325  0.33801114  1
  I  I92  1  0.50302181  0.17359773  0.66305104  1
  I  I93  1  0.50481213  0.50394268  0.00237703  1
  I  I94  1  0.50480056  0.49739977  0.33456307  1
  I  I95  1  0.50470373  0.49826293  0.66340366  1
  I  I96  1  0.49524949  0.83159912  -0.00368594  1
  I  I97  1  0.49715200  0.83564765  0.33328269  1
  I  I98  1  0.50099815  0.83116890  0.66875144  1
  I  I99  1  0.83581462  0.16486130  -0.00197172  1
  I  I100  1  0.82966486  0.16531422  0.33721722  1
  I  I101  1  0.83071257  0.16564756  0.66444485  1
  I  I102  1  0.83067587  0.50377058  0.00281377  1
  I  I103  1  0.83029971  0.49953067  0.33459441  1
  I  I104  1  0.82982375  0.50310048  0.66325606  1
  I  I105  1  0.83276480  0.83014910  0.00230446  1
  I  I106  1  0.83832892  0.83481633  0.33514843  1
  I  I107  1  0.83409319  0.83145837  0.66374703  1
  I  I108  1  -0.00077694  0.16807157  0.16693096  1
  I  I109  1  -0.00350133  0.16874890  0.50329153  1
  I  I110  1  -0.00342129  0.16480896  0.82668702  1
  I  I111  1  -0.00353126  0.50298903  0.17056845  1
  I  I112  1  -0.00329452  0.49765543  0.49689765  1
  I  I113  1  0.00267932  0.50754467  0.83256551  1
  I  I114  1  -0.00399751  0.82742657  0.16611031  1
  I  I115  1  -0.00168471  0.83299270  0.50294001  1
  I  I116  1  0.00232391  0.83099153  0.83161299  1
  I  I117  1  0.33412674  0.16723192  0.16686356  1
  I  I118  1  0.33651425  0.17193128  0.50033744  1
  I  I119  1  0.33352512  0.16818354  0.83228662  1
  I  I120  1  0.33636702  0.49986921  0.17214888  1
  I  I121  1  0.33632668  0.49691179  0.49716896  1
  I  I122  1  0.33026860  0.50304268  0.83255019  1
  I  I123  1  0.33361780  0.83226461  0.16921174  1
  I  I124  1  0.33119024  0.83314696  0.50471859  1
  I  I125  1  0.33222873  0.82885354  0.82582149  1
  I  I126  1  0.66692011  0.16320095  0.16289397  1
  I  I127  1  0.66829640  0.16506229  0.50416759  1
  I  I128  1  0.67007778  0.16510739  0.83091197  1
  I  I129  1  0.66784996  0.50421937  0.17031905  1
  I  I130  1  0.66783222  0.50144555  0.49731561  1
  I  I131  1  0.66674454  0.50155187  0.83347102  1
  I  I132  1  0.67074211  0.83244463  0.17233357  1
  I  I133  1  0.66980441  0.83372702  0.49886806  1
  I  I134  1  0.66515148  0.83445352  0.83213405  1
