# generated using pymatgen
data_Cs27Sn13Pb14I81
_symmetry_space_group_name_H-M   'P 1'
_cell_length_a   18.99908772
_cell_length_b   18.98452355
_cell_length_c   18.98915980
_cell_angle_alpha   90.00129058
_cell_angle_beta   89.99955443
_cell_angle_gamma   89.99867129
_symmetry_Int_Tables_number   1
_chemical_formula_structural   Cs27Sn13Pb14I81
_chemical_formula_sum   'Cs27 Sn13 Pb14 I81'
_cell_volume   6849.17399516
_cell_formula_units_Z   1
loop_
 _symmetry_equiv_pos_site_id
 _symmetry_equiv_pos_as_xyz
  1  'x, y, z'
loop_
 _atom_site_type_symbol
 _atom_site_label
 _atom_site_symmetry_multiplicity
 _atom_site_fract_x
 _atom_site_fract_y
 _atom_site_fract_z
 _atom_site_occupancy
  Cs  Cs0  1  -0.00023897  0.00009592  -0.00288847  1
  Cs  Cs1  1  -0.00147244  -0.00400593  0.33207871  1
  Cs  Cs2  1  0.00164478  -0.00077447  0.67094641  1
  Cs  Cs3  1  -0.00191532  0.33353403  -0.00011390  1
  Cs  Cs4  1  -0.00170108  0.33637095  0.34565815  1
  Cs  Cs5  1  0.00100587  0.33345598  0.65895318  1
  Cs  Cs6  1  0.00004689  0.66719269  0.00163728  1
  Cs  Cs7  1  0.00105943  0.66611735  0.33256327  1
  Cs  Cs8  1  0.00127969  0.66780876  0.66527984  1
  Cs  Cs9  1  0.32567232  0.00552551  0.00266807  1
  Cs  Cs10  1  0.33769092  0.00366115  0.33195925  1
  Cs  Cs11  1  0.33307301  -0.00098071  0.66656668  1
  Cs  Cs12  1  0.33396466  0.33282598  0.00046635  1
  Cs  Cs13  1  0.33286755  0.32799942  0.33434840  1
  Cs  Cs14  1  0.32865911  0.33552238  0.66565760  1
  Cs  Cs15  1  0.33400608  0.66448191  0.00079594  1
  Cs  Cs16  1  0.33212591  0.66725880  0.33221126  1
  Cs  Cs17  1  0.33975147  0.66618413  0.66765154  1
  Cs  Cs18  1  0.67054561  0.00308569  0.00066360  1
  Cs  Cs19  1  0.66463014  0.00027979  0.33519970  1
  Cs  Cs20  1  0.66461213  -0.00082721  0.66354624  1
  Cs  Cs21  1  0.66766303  0.33329686  -0.00198144  1
  Cs  Cs22  1  0.66958198  0.33235355  0.33651284  1
  Cs  Cs23  1  0.66841051  0.33143360  0.67110555  1
  Cs  Cs24  1  0.66563137  0.66477004  0.00012197  1
  Cs  Cs25  1  0.66724196  0.66662184  0.33102296  1
  Cs  Cs26  1  0.65781256  0.67022945  0.67202837  1
  Sn  Sn27  1  0.50023905  0.49977617  0.49849540  1
  Sn  Sn28  1  0.83380685  0.83280296  0.49936460  1
  Sn  Sn29  1  0.16527710  0.50033491  0.83422529  1
  Sn  Sn30  1  0.49988000  0.83306267  0.16617905  1
  Sn  Sn31  1  0.16678284  0.83262973  0.16741554  1
  Sn  Sn32  1  0.83453061  0.49967079  0.83348136  1
  Sn  Sn33  1  0.50032337  0.16643183  0.83364260  1
  Sn  Sn34  1  0.16712396  0.50008438  0.16623045  1
  Sn  Sn35  1  0.16628478  0.83306157  0.49905342  1
  Sn  Sn36  1  0.83323244  0.83405545  0.16717309  1
  Sn  Sn37  1  0.49933755  0.50011670  0.16781713  1
  Sn  Sn38  1  0.83268891  0.16763766  0.83407441  1
  Sn  Sn39  1  0.83388806  0.16646414  0.16656516  1
  Pb  Pb40  1  0.16684674  0.83072524  0.83376478  1
  Pb  Pb41  1  0.83340290  0.16394105  0.50042342  1
  Pb  Pb42  1  0.83081619  0.50324909  0.50329867  1
  Pb  Pb43  1  0.49982081  0.49841754  0.83422765  1
  Pb  Pb44  1  0.83352536  0.50004802  0.16565530  1
  Pb  Pb45  1  0.16338346  0.16735314  0.16697962  1
  Pb  Pb46  1  0.49976422  0.83658719  0.83702579  1
  Pb  Pb47  1  0.16850637  0.50223825  0.49937583  1
  Pb  Pb48  1  0.16664778  0.16289677  0.49969740  1
  Pb  Pb49  1  0.49980753  0.83188331  0.49755866  1
  Pb  Pb50  1  0.16579445  0.16959228  0.83344052  1
  Pb  Pb51  1  0.83319858  0.83347024  0.83347371  1
  Pb  Pb52  1  0.50219055  0.16725922  0.16525908  1
  Pb  Pb53  1  0.50012753  0.16947968  0.50270651  1
  I  I54  1  0.17010561  -0.00335888  0.17087716  1
  I  I55  1  0.16326437  -0.00539082  0.49375603  1
  I  I56  1  0.16649175  0.00002288  0.83301906  1
  I  I57  1  0.17193989  0.33694531  0.16030964  1
  I  I58  1  0.16793193  0.33391824  0.50034493  1
  I  I59  1  0.16682457  0.33751057  0.84037261  1
  I  I60  1  0.16508735  0.66719220  0.16603425  1
  I  I61  1  0.16200119  0.66986005  0.49765857  1
  I  I62  1  0.16076644  0.66283914  0.83570178  1
  I  I63  1  0.49751449  -0.00285334  0.16470745  1
  I  I64  1  0.49982419  -0.00025496  0.50037422  1
  I  I65  1  0.50895235  0.00398420  0.83354896  1
  I  I66  1  0.49601960  0.33657261  0.16795241  1
  I  I67  1  0.49928551  0.33743418  0.49186549  1
  I  I68  1  0.50308403  0.33098709  0.83586795  1
  I  I69  1  0.50183796  0.66656374  0.16939436  1
  I  I70  1  0.50030508  0.66400836  0.50100796  1
  I  I71  1  0.50093748  0.66646677  0.83105353  1
  I  I72  1  0.83301246  -0.00133128  0.16389805  1
  I  I73  1  0.83618436  -0.00400749  0.49997473  1
  I  I74  1  0.82880031  0.00278518  0.83492292  1
  I  I75  1  0.83172877  0.33122969  0.16136967  1
  I  I76  1  0.83221560  0.33363729  0.49730552  1
  I  I77  1  0.83201968  0.33305470  0.84080106  1
  I  I78  1  0.83333662  0.66954071  0.16851512  1
  I  I79  1  0.83773128  0.67052355  0.49254973  1
  I  I80  1  0.83706839  0.66403934  0.83407413  1
  I  I81  1  0.16803412  0.16117883  0.00019991  1
  I  I82  1  0.16557132  0.17339247  0.33298070  1
  I  I83  1  0.16535002  0.16722105  0.66688343  1
  I  I84  1  0.16910361  0.50617169  0.00121439  1
  I  I85  1  0.16860019  0.50300743  0.33006006  1
  I  I86  1  0.16492296  0.50017040  0.66891649  1
  I  I87  1  0.16561725  0.83178795  0.00384913  1
  I  I88  1  0.16440614  0.82642812  0.33142172  1
  I  I89  1  0.16020862  0.83293187  0.66384902  1
  I  I90  1  0.50361587  0.16903424  -0.00246212  1
  I  I91  1  0.50137014  0.16499678  0.33308959  1
  I  I92  1  0.50814420  0.16848739  0.67056425  1
  I  I93  1  0.49906236  0.50346653  0.00297733  1
  I  I94  1  0.49468266  0.50492843  0.33135823  1
  I  I95  1  0.50046245  0.49914470  0.66529653  1
  I  I96  1  0.50124767  0.82409564  0.00504758  1
  I  I97  1  0.50073463  0.83214790  0.32944387  1
  I  I98  1  0.50055652  0.83140207  0.66656335  1
  I  I99  1  0.82958210  0.16402040  -0.00023549  1
  I  I100  1  0.83338998  0.16416252  0.33049532  1
  I  I101  1  0.82932022  0.16999900  0.67003699  1
  I  I102  1  0.83184284  0.50093056  -0.00235689  1
  I  I103  1  0.83537035  0.49667698  0.33346637  1
  I  I104  1  0.83824798  0.49393477  0.67096158  1
  I  I105  1  0.83429079  0.83433492  0.00333613  1
  I  I106  1  0.83390780  0.83860236  0.33138226  1
  I  I107  1  0.83886467  0.83234112  0.66401007  1
  I  I108  1  -0.00433054  0.16140782  0.15830446  1
  I  I109  1  -0.00028843  0.17145580  0.50210611  1
  I  I110  1  -0.00354053  0.16732555  0.83807443  1
  I  I111  1  0.00254639  0.50395551  0.16235916  1
  I  I112  1  -0.00007757  0.49890111  0.49867985  1
  I  I113  1  -0.00008747  0.49558291  0.83996765  1
  I  I114  1  0.00004266  0.83279200  0.17048622  1
  I  I115  1  -0.00017843  0.83231799  0.49124958  1
  I  I116  1  -0.00009436  0.83701675  0.83689937  1
  I  I117  1  0.33326998  0.16359279  0.16404858  1
  I  I118  1  0.33360306  0.16458062  0.50251959  1
  I  I119  1  0.33556755  0.16774590  0.83382841  1
  I  I120  1  0.33316746  0.50888635  0.16333012  1
  I  I121  1  0.33603079  0.50347054  0.50242246  1
  I  I122  1  0.33123182  0.49941522  0.83441397  1
  I  I123  1  0.33287724  0.82753642  0.16990469  1
  I  I124  1  0.33073396  0.83110861  0.49645479  1
  I  I125  1  0.33337523  0.83279708  0.83071131  1
  I  I126  1  0.66996814  0.16229077  0.16358091  1
  I  I127  1  0.66682783  0.16382986  0.49843819  1
  I  I128  1  0.66827179  0.17391849  0.83789985  1
  I  I129  1  0.66431978  0.50386546  0.16759583  1
  I  I130  1  0.66354063  0.50251747  0.49364119  1
  I  I131  1  0.66876627  0.49784726  0.83353825  1
  I  I132  1  0.66710178  0.83277317  0.16997630  1
  I  I133  1  0.66904915  0.83236314  0.49609401  1
  I  I134  1  0.66664990  0.82700284  0.83260391  1
