# generated using pymatgen
data_Cs27Sn14Pb13I81
_symmetry_space_group_name_H-M   'P 1'
_cell_length_a   18.97585233
_cell_length_b   18.98928950
_cell_length_c   18.96403091
_cell_angle_alpha   90.00113681
_cell_angle_beta   89.99858822
_cell_angle_gamma   89.99984276
_symmetry_Int_Tables_number   1
_chemical_formula_structural   Cs27Sn14Pb13I81
_chemical_formula_sum   'Cs27 Sn14 Pb13 I81'
_cell_volume   6833.46008604
_cell_formula_units_Z   1
loop_
 _symmetry_equiv_pos_site_id
 _symmetry_equiv_pos_as_xyz
  1  'x, y, z'
loop_
 _atom_site_type_symbol
 _atom_site_label
 _atom_site_symmetry_multiplicity
 _atom_site_fract_x
 _atom_site_fract_y
 _atom_site_fract_z
 _atom_site_occupancy
  Cs  Cs0  1  0.00576227  -0.00575830  0.00180816  1
  Cs  Cs1  1  0.00394096  0.00016388  0.33317227  1
  Cs  Cs2  1  -0.00256257  -0.00169887  0.66390513  1
  Cs  Cs3  1  0.00014936  0.33196466  -0.00170626  1
  Cs  Cs4  1  -0.00170057  0.33495116  0.33417974  1
  Cs  Cs5  1  -0.00394807  0.33363448  0.66663131  1
  Cs  Cs6  1  -0.00304374  0.67601106  0.00035642  1
  Cs  Cs7  1  -0.00087794  0.66443090  0.33114752  1
  Cs  Cs8  1  0.00193265  0.66722870  0.66716628  1
  Cs  Cs9  1  0.32451707  0.00287609  -0.00368115  1
  Cs  Cs10  1  0.33446042  -0.00002887  0.33371373  1
  Cs  Cs11  1  0.33491554  0.00112851  0.66644650  1
  Cs  Cs12  1  0.33096107  0.33316880  -0.00505902  1
  Cs  Cs13  1  0.33505412  0.33463224  0.33315577  1
  Cs  Cs14  1  0.33278746  0.33527838  0.67065215  1
  Cs  Cs15  1  0.33211348  0.66319262  -0.00683168  1
  Cs  Cs16  1  0.33568769  0.66507154  0.33527506  1
  Cs  Cs17  1  0.33256138  0.66389082  0.66665315  1
  Cs  Cs18  1  0.66757906  0.00110963  -0.00251206  1
  Cs  Cs19  1  0.66271043  0.00237540  0.33387047  1
  Cs  Cs20  1  0.66706911  -0.00035584  0.66750186  1
  Cs  Cs21  1  0.66709148  0.33235684  0.00033362  1
  Cs  Cs22  1  0.66730385  0.33304335  0.33225960  1
  Cs  Cs23  1  0.67080239  0.33166184  0.66858574  1
  Cs  Cs24  1  0.67027839  0.66992367  -0.00012197  1
  Cs  Cs25  1  0.66423044  0.66447756  0.33198453  1
  Cs  Cs26  1  0.66544340  0.66956748  0.66810880  1
  Sn  Sn27  1  0.49912321  0.49990097  0.16710821  1
  Sn  Sn28  1  0.83322250  0.49984266  0.83362183  1
  Sn  Sn29  1  0.83334495  0.16705908  0.83483825  1
  Sn  Sn30  1  0.49920136  0.16717552  0.49951381  1
  Sn  Sn31  1  0.49952405  0.83358626  0.16688322  1
  Sn  Sn32  1  0.50030121  0.16650783  0.16703083  1
  Sn  Sn33  1  0.49967352  0.49955033  0.49966065  1
  Sn  Sn34  1  0.83289315  0.83304199  0.49904443  1
  Sn  Sn35  1  0.16777567  0.16730256  0.49970815  1
  Sn  Sn36  1  0.16735614  0.49984853  0.16732203  1
  Sn  Sn37  1  0.83314187  0.16661956  0.16594059  1
  Sn  Sn38  1  0.16739815  0.49963419  0.49907697  1
  Sn  Sn39  1  0.16706389  0.83299568  0.49942008  1
  Sn  Sn40  1  0.49990127  0.83326021  0.49938759  1
  Pb  Pb41  1  0.16981011  0.83055611  0.16902674  1
  Pb  Pb42  1  0.16414735  0.49999590  0.83340795  1
  Pb  Pb43  1  0.16705106  0.83331608  0.83052159  1
  Pb  Pb44  1  0.83295267  0.50219027  0.50130037  1
  Pb  Pb45  1  0.16372096  0.16674927  0.83010889  1
  Pb  Pb46  1  0.49970770  0.83350130  0.83376828  1
  Pb  Pb47  1  0.83297044  0.16502720  0.49946967  1
  Pb  Pb48  1  0.50213604  0.49989951  0.83360170  1
  Pb  Pb49  1  0.83320199  0.83395091  0.83132745  1
  Pb  Pb50  1  0.83101445  0.83621037  0.16925578  1
  Pb  Pb51  1  0.16735327  0.16876164  0.16873099  1
  Pb  Pb52  1  0.50160141  0.16669947  0.83353613  1
  Pb  Pb53  1  0.83316399  0.49837129  0.16479149  1
  I  I54  1  0.16587411  -0.00005478  0.16762205  1
  I  I55  1  0.16855660  -0.00002358  0.50161173  1
  I  I56  1  0.16390968  0.00023166  0.83317284  1
  I  I57  1  0.17119352  0.33642861  0.17377250  1
  I  I58  1  0.17244683  0.33391557  0.49665459  1
  I  I59  1  0.16728319  0.33340298  0.82969727  1
  I  I60  1  0.16986657  0.66275222  0.17290539  1
  I  I61  1  0.16909126  0.66622231  0.49727395  1
  I  I62  1  0.16325518  0.66634944  0.83126061  1
  I  I63  1  0.50734084  0.00053892  0.17539280  1
  I  I64  1  0.49826829  0.00008970  0.49516175  1
  I  I65  1  0.50464626  0.00016431  0.83072981  1
  I  I66  1  0.50145888  0.33328774  0.17368325  1
  I  I67  1  0.49409679  0.33335748  0.49431197  1
  I  I68  1  0.50046082  0.33335773  0.83139268  1
  I  I69  1  0.49636705  0.66615470  0.17455325  1
  I  I70  1  0.49850422  0.66655224  0.49513845  1
  I  I71  1  0.50400479  0.66651943  0.83200777  1
  I  I72  1  0.82834751  0.00406174  0.16129878  1
  I  I73  1  0.83308635  -0.00272244  0.50203446  1
  I  I74  1  0.83184488  0.00299614  0.83485763  1
  I  I75  1  0.82724785  0.33050320  0.16736635  1
  I  I76  1  0.83388249  0.33326380  0.50003503  1
  I  I77  1  0.83237947  0.33250214  0.83418788  1
  I  I78  1  0.83289152  0.66684083  0.16477394  1
  I  I79  1  0.83253841  0.66991292  0.50279748  1
  I  I80  1  0.83316470  0.66454755  0.83086759  1
  I  I81  1  0.16916535  0.16912414  0.00021504  1
  I  I82  1  0.16480154  0.16399879  0.33715845  1
  I  I83  1  0.17183606  0.16852359  0.66152502  1
  I  I84  1  0.17255398  0.49803521  0.00315262  1
  I  I85  1  0.16979090  0.50018110  0.33500183  1
  I  I86  1  0.17045261  0.50124978  0.66286931  1
  I  I87  1  0.16689828  0.83173180  0.00076447  1
  I  I88  1  0.16426384  0.83632351  0.33757253  1
  I  I89  1  0.16897642  0.83026819  0.66117124  1
  I  I90  1  0.50354425  0.16731814  0.00368585  1
  I  I91  1  0.50307777  0.16662339  0.33394158  1
  I  I92  1  0.49781458  0.16584502  0.66289631  1
  I  I93  1  0.49624651  0.49957333  0.00384055  1
  I  I94  1  0.49747452  0.50028171  0.33408439  1
  I  I95  1  0.49639861  0.50093971  0.66297906  1
  I  I96  1  0.50273919  0.83218238  0.00386503  1
  I  I97  1  0.50050274  0.83346877  0.33496753  1
  I  I98  1  0.50021505  0.83335617  0.66215505  1
  I  I99  1  0.82553805  0.17160209  0.00069984  1
  I  I100  1  0.83080160  0.16536432  0.33101915  1
  I  I101  1  0.83417840  0.16872164  0.66821355  1
  I  I102  1  0.83238806  0.49758651  -0.00289322  1
  I  I103  1  0.83381729  0.49909720  0.33323253  1
  I  I104  1  0.83318129  0.49317289  0.66901040  1
  I  I105  1  0.83121307  0.83138980  0.00043782  1
  I  I106  1  0.83536827  0.83380155  0.33726111  1
  I  I107  1  0.83096428  0.83586993  0.66295215  1
  I  I108  1  -0.00208656  0.16968116  0.16531837  1
  I  I109  1  0.00232249  0.16608068  0.50081144  1
  I  I110  1  -0.00420075  0.17160581  0.83735828  1
  I  I111  1  0.00255284  0.49706242  0.17185900  1
  I  I112  1  0.00298775  0.49997021  0.49752077  1
  I  I113  1  -0.00334590  0.49449781  0.83088768  1
  I  I114  1  0.00028412  0.83288845  0.16818318  1
  I  I115  1  0.00076340  0.83448966  0.50302914  1
  I  I116  1  -0.00017511  0.83275059  0.83080795  1
  I  I117  1  0.33685261  0.16445635  0.17079276  1
  I  I118  1  0.33456388  0.16245258  0.49446815  1
  I  I119  1  0.33310712  0.16591354  0.83513636  1
  I  I120  1  0.33472575  0.49824784  0.17216802  1
  I  I121  1  0.33387775  0.50373893  0.49724170  1
  I  I122  1  0.33325868  0.50091654  0.83268473  1
  I  I123  1  0.33777289  0.83973059  0.17401040  1
  I  I124  1  0.33410506  0.83358348  0.49636174  1
  I  I125  1  0.33341635  0.83281060  0.83117888  1
  I  I126  1  0.66507733  0.16913254  0.16974831  1
  I  I127  1  0.66354737  0.16653417  0.49938409  1
  I  I128  1  0.66962802  0.17050810  0.83100928  1
  I  I129  1  0.66315196  0.50120772  0.17101986  1
  I  I130  1  0.66319709  0.49959113  0.49644012  1
  I  I131  1  0.66968428  0.49566574  0.83180203  1
  I  I132  1  0.66297672  0.82740018  0.17369917  1
  I  I133  1  0.66503151  0.83395666  0.49787166  1
  I  I134  1  0.66674133  0.83249085  0.82846657  1
