# generated using pymatgen
data_Cs27Sn14Pb13I81
_symmetry_space_group_name_H-M   'P 1'
_cell_length_a   18.98112532
_cell_length_b   18.97520305
_cell_length_c   18.96908882
_cell_angle_alpha   89.99810213
_cell_angle_beta   89.99958976
_cell_angle_gamma   89.99844133
_symmetry_Int_Tables_number   1
_chemical_formula_structural   Cs27Sn14Pb13I81
_chemical_formula_sum   'Cs27 Sn14 Pb13 I81'
_cell_volume   6832.11012621
_cell_formula_units_Z   1
loop_
 _symmetry_equiv_pos_site_id
 _symmetry_equiv_pos_as_xyz
  1  'x, y, z'
loop_
 _atom_site_type_symbol
 _atom_site_label
 _atom_site_symmetry_multiplicity
 _atom_site_fract_x
 _atom_site_fract_y
 _atom_site_fract_z
 _atom_site_occupancy
  Cs  Cs0  1  0.00455742  -0.00008883  0.00612765  1
  Cs  Cs1  1  -0.00077596  0.00283375  0.33222485  1
  Cs  Cs2  1  0.00069461  -0.00049999  0.66536358  1
  Cs  Cs3  1  -0.00282239  0.33354134  -0.00033715  1
  Cs  Cs4  1  0.00055468  0.33574068  0.33318828  1
  Cs  Cs5  1  0.00012273  0.33258902  0.66842754  1
  Cs  Cs6  1  0.00045626  0.66688395  -0.00236873  1
  Cs  Cs7  1  -0.00309505  0.66316151  0.33426806  1
  Cs  Cs8  1  0.00015630  0.66697686  0.66769044  1
  Cs  Cs9  1  0.33049314  -0.00021673  0.01043373  1
  Cs  Cs10  1  0.33222667  0.00027025  0.33082470  1
  Cs  Cs11  1  0.33327529  0.00078766  0.66544450  1
  Cs  Cs12  1  0.34463764  0.33258112  -0.00183493  1
  Cs  Cs13  1  0.33106428  0.33509338  0.33519495  1
  Cs  Cs14  1  0.33214089  0.33123954  0.66559768  1
  Cs  Cs15  1  0.33303596  0.66699553  0.00108955  1
  Cs  Cs16  1  0.33483919  0.66536882  0.33432063  1
  Cs  Cs17  1  0.33126244  0.66740762  0.66570665  1
  Cs  Cs18  1  0.66476666  0.00510244  -0.00135925  1
  Cs  Cs19  1  0.66944251  -0.00058928  0.33334970  1
  Cs  Cs20  1  0.66660861  -0.00245917  0.66612602  1
  Cs  Cs21  1  0.65727862  0.32592653  -0.01049120  1
  Cs  Cs22  1  0.66921116  0.33477339  0.33278996  1
  Cs  Cs23  1  0.66741705  0.32939449  0.67291294  1
  Cs  Cs24  1  0.66686409  0.66562761  0.00206836  1
  Cs  Cs25  1  0.66832753  0.66656711  0.33384074  1
  Cs  Cs26  1  0.66801417  0.67027239  0.66500327  1
  Sn  Sn27  1  0.16617460  0.49997279  0.16700470  1
  Sn  Sn28  1  0.83283431  0.83339255  0.83353290  1
  Sn  Sn29  1  0.50007253  0.83321581  0.83273528  1
  Sn  Sn30  1  0.83323877  0.50056439  0.49990373  1
  Sn  Sn31  1  0.16728752  0.16670222  0.50069396  1
  Sn  Sn32  1  0.49987577  0.83342377  0.50045813  1
  Sn  Sn33  1  0.16655170  0.16655824  0.83294142  1
  Sn  Sn34  1  0.16638864  0.50003247  0.49977023  1
  Sn  Sn35  1  0.83357992  0.83257251  0.49988532  1
  Sn  Sn36  1  0.83371341  0.50036641  0.16685140  1
  Sn  Sn37  1  0.83330492  0.83262030  0.16673586  1
  Sn  Sn38  1  0.49949398  0.16645658  0.49989354  1
  Sn  Sn39  1  0.50047528  0.49980157  0.50022618  1
  Sn  Sn40  1  0.16655080  0.83327159  0.49992175  1
  Pb  Pb41  1  0.16661477  0.17006875  0.16718139  1
  Pb  Pb42  1  0.49748753  0.16329870  0.83073598  1
  Pb  Pb43  1  0.49993464  0.50297303  0.83015021  1
  Pb  Pb44  1  0.50260580  0.83324927  0.16711997  1
  Pb  Pb45  1  0.50082786  0.50007706  0.16870687  1
  Pb  Pb46  1  0.16428891  0.83065205  0.16966560  1
  Pb  Pb47  1  0.50002479  0.16665100  0.17005489  1
  Pb  Pb48  1  0.83592408  0.16330027  0.83324283  1
  Pb  Pb49  1  0.83350521  0.16710609  0.49997598  1
  Pb  Pb50  1  0.83321204  0.16792337  0.16661592  1
  Pb  Pb51  1  0.16700217  0.83504810  0.83165897  1
  Pb  Pb52  1  0.83329669  0.50200511  0.83351079  1
  Pb  Pb53  1  0.16672744  0.49786524  0.83347752  1
  I  I54  1  0.16534821  -0.00005095  0.16744235  1
  I  I55  1  0.16859131  -0.00028776  0.50520414  1
  I  I56  1  0.16573675  0.00269176  0.82466190  1
  I  I57  1  0.15830844  0.33754060  0.17537311  1
  I  I58  1  0.16953582  0.33390934  0.49970068  1
  I  I59  1  0.16630119  0.33018498  0.82504777  1
  I  I60  1  0.16549481  0.66300073  0.17279306  1
  I  I61  1  0.16854551  0.66656010  0.49635000  1
  I  I62  1  0.16637346  0.66695714  0.83188808  1
  I  I63  1  0.50132785  -0.00038287  0.16924604  1
  I  I64  1  0.49765425  -0.00102248  0.50406390  1
  I  I65  1  0.50589912  -0.00401987  0.82481684  1
  I  I66  1  0.50189673  0.33361599  0.16787415  1
  I  I67  1  0.49600989  0.33383224  0.49720049  1
  I  I68  1  0.49948614  0.33286393  0.83314964  1
  I  I69  1  0.49697966  0.66668574  0.16860053  1
  I  I70  1  0.49793472  0.66708260  0.50310494  1
  I  I71  1  0.50306524  0.67080788  0.82654455  1
  I  I72  1  0.83244070  -0.00326448  0.16905560  1
  I  I73  1  0.83332880  -0.00352387  0.49982286  1
  I  I74  1  0.82869010  -0.00492791  0.82993896  1
  I  I75  1  0.83949117  0.33771962  0.17641186  1
  I  I76  1  0.83371994  0.33692753  0.49382054  1
  I  I77  1  0.83429752  0.33318386  0.83301741  1
  I  I78  1  0.83700275  0.66676040  0.16941018  1
  I  I79  1  0.83348093  0.66757032  0.49973007  1
  I  I80  1  0.83159872  0.67040884  0.83088710  1
  I  I81  1  0.16418835  0.16526470  -0.00233167  1
  I  I82  1  0.17069915  0.16448655  0.33716419  1
  I  I83  1  0.16999475  0.16828870  0.66368522  1
  I  I84  1  0.15918605  0.49933117  0.00319613  1
  I  I85  1  0.16577698  0.49849638  0.33606386  1
  I  I86  1  0.16607310  0.50210263  0.66256158  1
  I  I87  1  0.16681395  0.83472701  0.00032032  1
  I  I88  1  0.16906273  0.83888238  0.33834759  1
  I  I89  1  0.16246196  0.82855666  0.66253032  1
  I  I90  1  0.49860778  0.16565500  -0.00061467  1
  I  I91  1  0.49290193  0.16310598  0.33871955  1
  I  I92  1  0.49788448  0.16918654  0.66250660  1
  I  I93  1  0.49903464  0.50083096  -0.00014413  1
  I  I94  1  0.49929749  0.50369108  0.33793666  1
  I  I95  1  0.49917744  0.49794885  0.66131855  1
  I  I96  1  0.50445892  0.83401253  -0.00286267  1
  I  I97  1  0.49991491  0.83297136  0.33758929  1
  I  I98  1  0.50543172  0.83300992  0.66406543  1
  I  I99  1  0.83621107  0.16650432  -0.00016830  1
  I  I100  1  0.83430970  0.16059690  0.33372460  1
  I  I101  1  0.83232164  0.16756351  0.66630383  1
  I  I102  1  0.84154984  0.50596219  0.00343641  1
  I  I103  1  0.83446038  0.50827596  0.33504572  1
  I  I104  1  0.83458124  0.50424321  0.66305373  1
  I  I105  1  0.82889654  0.82896704  0.00012895  1
  I  I106  1  0.83324148  0.82955768  0.33491546  1
  I  I107  1  0.83259968  0.82998776  0.66486959  1
  I  I108  1  0.00015592  0.16318735  0.16945895  1
  I  I109  1  0.00329939  0.16573821  0.50277681  1
  I  I110  1  0.00342728  0.16570764  0.82403396  1
  I  I111  1  -0.00053624  0.50408557  0.17721535  1
  I  I112  1  0.00005500  0.50279354  0.49639415  1
  I  I113  1  -0.00000783  0.50222199  0.82776760  1
  I  I114  1  -0.00376700  0.83247318  0.16589916  1
  I  I115  1  -0.00061720  0.83136587  0.50057715  1
  I  I116  1  -0.00271461  0.83433549  0.83108847  1
  I  I117  1  0.33295201  0.16714831  0.16458698  1
  I  I118  1  0.33257300  0.16666477  0.50380557  1
  I  I119  1  0.33015979  0.16584470  0.82863938  1
  I  I120  1  0.33077546  0.49850473  0.17249305  1
  I  I121  1  0.33282459  0.50238129  0.49675959  1
  I  I122  1  0.33333429  0.50290867  0.83393280  1
  I  I123  1  0.33313058  0.83288512  0.16596410  1
  I  I124  1  0.33359164  0.83097005  0.50539331  1
  I  I125  1  0.33591752  0.83409447  0.82534524  1
  I  I126  1  0.66668858  0.16786178  0.16829540  1
  I  I127  1  0.66375556  0.16585374  0.49930140  1
  I  I128  1  0.66625746  0.16827757  0.83291606  1
  I  I129  1  0.67041583  0.50648346  0.17380170  1
  I  I130  1  0.66720597  0.50394186  0.49576859  1
  I  I131  1  0.66663301  0.49691450  0.83361284  1
  I  I132  1  0.67070759  0.82609193  0.17274851  1
  I  I133  1  0.66715510  0.83120505  0.50038896  1
  I  I134  1  0.66720114  0.83257862  0.82626217  1
