# generated using pymatgen
data_Cs27Sn14Pb13I81
_symmetry_space_group_name_H-M   'P 1'
_cell_length_a   18.97049809
_cell_length_b   18.97057001
_cell_length_c   18.99261750
_cell_angle_alpha   90.00043334
_cell_angle_beta   89.99966325
_cell_angle_gamma   90.00036049
_symmetry_Int_Tables_number   1
_chemical_formula_structural   Cs27Sn14Pb13I81
_chemical_formula_sum   'Cs27 Sn14 Pb13 I81'
_cell_volume   6835.08525734
_cell_formula_units_Z   1
loop_
 _symmetry_equiv_pos_site_id
 _symmetry_equiv_pos_as_xyz
  1  'x, y, z'
loop_
 _atom_site_type_symbol
 _atom_site_label
 _atom_site_symmetry_multiplicity
 _atom_site_fract_x
 _atom_site_fract_y
 _atom_site_fract_z
 _atom_site_occupancy
  Cs  Cs0  1  0.00057263  -0.00046935  0.00095270  1
  Cs  Cs1  1  0.00020224  0.00140347  0.33150602  1
  Cs  Cs2  1  0.00209301  0.00055064  0.66657890  1
  Cs  Cs3  1  0.00105778  0.33429289  0.00004419  1
  Cs  Cs4  1  0.00103308  0.33248617  0.33277994  1
  Cs  Cs5  1  -0.00040225  0.33114471  0.66735076  1
  Cs  Cs6  1  -0.00140490  0.66619103  -0.00039218  1
  Cs  Cs7  1  -0.00371313  0.66551693  0.33190193  1
  Cs  Cs8  1  -0.00013325  0.66793778  0.66853826  1
  Cs  Cs9  1  0.33394876  -0.00005861  0.00077043  1
  Cs  Cs10  1  0.33350815  -0.00058653  0.33352606  1
  Cs  Cs11  1  0.33124896  -0.00211630  0.66317186  1
  Cs  Cs12  1  0.33344741  0.33450672  -0.00008361  1
  Cs  Cs13  1  0.33254549  0.33590624  0.33651609  1
  Cs  Cs14  1  0.33447029  0.33427409  0.66303143  1
  Cs  Cs15  1  0.33691177  0.66671286  -0.00026984  1
  Cs  Cs16  1  0.33528047  0.66499459  0.33865566  1
  Cs  Cs17  1  0.32977843  0.66771983  0.65997839  1
  Cs  Cs18  1  0.66457643  0.00001057  -0.00010354  1
  Cs  Cs19  1  0.66524025  0.00391850  0.33299180  1
  Cs  Cs20  1  0.66522203  0.00542280  0.66781860  1
  Cs  Cs21  1  0.66475999  0.33286041  -0.00143835  1
  Cs  Cs22  1  0.66547957  0.32893677  0.33404779  1
  Cs  Cs23  1  0.66521158  0.32981373  0.66808233  1
  Cs  Cs24  1  0.66701418  0.66718434  0.00000572  1
  Cs  Cs25  1  0.66855094  0.66720060  0.33191127  1
  Cs  Cs26  1  0.66825707  0.66566221  0.66914977  1
  Sn  Sn27  1  0.83256561  0.83290568  0.83342729  1
  Sn  Sn28  1  0.50064066  0.50141906  0.83396670  1
  Sn  Sn29  1  0.16667444  0.16613544  0.16639455  1
  Sn  Sn30  1  0.83297695  0.83291878  0.16658708  1
  Sn  Sn31  1  0.83308477  0.83306707  0.50010334  1
  Sn  Sn32  1  0.83311776  0.50047674  0.50005905  1
  Sn  Sn33  1  0.16652688  0.16653393  0.49966659  1
  Sn  Sn34  1  0.16684210  0.16659150  0.83374223  1
  Sn  Sn35  1  0.50116516  0.50102117  0.16597846  1
  Sn  Sn36  1  0.16681484  0.83340461  0.16637812  1
  Sn  Sn37  1  0.83217148  0.50051830  0.16653900  1
  Sn  Sn38  1  0.50028367  0.83233974  0.16607736  1
  Sn  Sn39  1  0.50058675  0.83223357  0.83375570  1
  Sn  Sn40  1  0.83256756  0.50069068  0.83352852  1
  Pb  Pb41  1  0.49730224  0.16654249  0.49998004  1
  Pb  Pb42  1  0.16359585  0.49830160  0.50005519  1
  Pb  Pb43  1  0.49755185  0.16695970  0.16656000  1
  Pb  Pb44  1  0.16393390  0.83469904  0.49713247  1
  Pb  Pb45  1  0.16710714  0.49841407  0.83340273  1
  Pb  Pb46  1  0.16695201  0.83459159  0.83528715  1
  Pb  Pb47  1  0.16707519  0.50086932  0.16650417  1
  Pb  Pb48  1  0.83505257  0.16687837  0.16637919  1
  Pb  Pb49  1  0.83500273  0.16649925  0.83366230  1
  Pb  Pb50  1  0.49755226  0.16649137  0.83351561  1
  Pb  Pb51  1  0.50287844  0.83317470  0.50011715  1
  Pb  Pb52  1  0.83475279  0.16651968  0.49997180  1
  Pb  Pb53  1  0.50291211  0.50031211  0.50010367  1
  I  I54  1  0.16539059  -0.00074540  0.16657653  1
  I  I55  1  0.16337021  0.00282279  0.50227426  1
  I  I56  1  0.16559035  0.00280384  0.83214734  1
  I  I57  1  0.16558754  0.33081283  0.16726549  1
  I  I58  1  0.16449110  0.32987328  0.49641018  1
  I  I59  1  0.16521612  0.33001998  0.83652449  1
  I  I60  1  0.16474165  0.66999829  0.16533830  1
  I  I61  1  0.16854727  0.66694198  0.49864010  1
  I  I62  1  0.16554816  0.66685551  0.83580135  1
  I  I63  1  0.50285232  -0.00361792  0.16259261  1
  I  I64  1  0.50358219  -0.00046184  0.50003741  1
  I  I65  1  0.50431664  -0.00359221  0.83824690  1
  I  I66  1  0.50389812  0.33693501  0.16252578  1
  I  I67  1  0.50226175  0.33372572  0.49972419  1
  I  I68  1  0.50388412  0.33677712  0.83756602  1
  I  I69  1  0.49868817  0.66737656  0.16212555  1
  I  I70  1  0.49343922  0.66673835  0.49944427  1
  I  I71  1  0.50447802  0.66685675  0.83937648  1
  I  I72  1  0.83158558  -0.00378449  0.16700837  1
  I  I73  1  0.83513879  -0.00337913  0.49919951  1
  I  I74  1  0.83048732  -0.00382437  0.83376949  1
  I  I75  1  0.83089509  0.33712596  0.16688878  1
  I  I76  1  0.83541690  0.33665481  0.49984104  1
  I  I77  1  0.83078482  0.33697705  0.83306640  1
  I  I78  1  0.83608631  0.66742169  0.16700203  1
  I  I79  1  0.83442345  0.66681623  0.49901373  1
  I  I80  1  0.83113050  0.66694164  0.83359300  1
  I  I81  1  0.16599459  0.16263021  0.00081452  1
  I  I82  1  0.16520302  0.16209292  0.33262396  1
  I  I83  1  0.16497162  0.16828634  0.66662814  1
  I  I84  1  0.16112036  0.49495454  0.00016085  1
  I  I85  1  0.16699874  0.49639102  0.33303895  1
  I  I86  1  0.16694484  0.49676359  0.66677604  1
  I  I87  1  0.16160381  0.84001207  0.00332666  1
  I  I88  1  0.16732408  0.83939090  0.32896675  1
  I  I89  1  0.16654783  0.83663508  0.66663650  1
  I  I90  1  0.49565606  0.16693499  0.00005023  1
  I  I91  1  0.49788852  0.16670018  0.33292110  1
  I  I92  1  0.49711677  0.16696404  0.66706840  1
  I  I93  1  0.50748399  0.50296692  0.00028049  1
  I  I94  1  0.50221230  0.50369789  0.32998609  1
  I  I95  1  0.50313460  0.50280055  0.67014070  1
  I  I96  1  0.50397896  0.83045032  0.00069734  1
  I  I97  1  0.49917436  0.82999685  0.32968360  1
  I  I98  1  0.50354909  0.82997165  0.67022512  1
  I  I99  1  0.83931711  0.16680920  0.00002511  1
  I  I100  1  0.83751320  0.16696424  0.33316711  1
  I  I101  1  0.83833287  0.16647390  0.66681014  1
  I  I102  1  0.83101887  0.50525422  0.00015266  1
  I  I103  1  0.83171602  0.50602520  0.33224890  1
  I  I104  1  0.83146379  0.50554575  0.66755723  1
  I  I105  1  0.83427258  0.82854272  0.00042710  1
  I  I106  1  0.83519752  0.82774235  0.33206393  1
  I  I107  1  0.83028827  0.82754598  0.66762568  1
  I  I108  1  0.00343444  0.16257396  0.16699732  1
  I  I109  1  0.00292009  0.16694056  0.49915543  1
  I  I110  1  0.00316220  0.16655738  0.83371450  1
  I  I111  1  -0.00331387  0.50230550  0.16627715  1
  I  I112  1  -0.00476495  0.50383528  0.49903357  1
  I  I113  1  -0.00371036  0.50305072  0.83428770  1
  I  I114  1  -0.00131065  0.83426505  0.16689632  1
  I  I115  1  -0.00417654  0.82980294  0.50124329  1
  I  I116  1  -0.00330575  0.83045643  0.83411060  1
  I  I117  1  0.32930637  0.16215895  0.16659402  1
  I  I118  1  0.32881232  0.16623684  0.49950659  1
  I  I119  1  0.32956650  0.16652947  0.83428413  1
  I  I120  1  0.33666664  0.50171686  0.16058009  1
  I  I121  1  0.33359265  0.49635246  0.49983212  1
  I  I122  1  0.33710388  0.50220849  0.84030810  1
  I  I123  1  0.33417183  0.83477804  0.16060195  1
  I  I124  1  0.33325168  0.83674511  0.50048465  1
  I  I125  1  0.33648032  0.83112336  0.83923769  1
  I  I126  1  0.66645159  0.16420458  0.16718013  1
  I  I127  1  0.66697061  0.16688557  0.50010782  1
  I  I128  1  0.66643141  0.16666442  0.83263089  1
  I  I129  1  0.66757073  0.50799580  0.16623952  1
  I  I130  1  0.67096381  0.50439032  0.49930306  1
  I  I131  1  0.66765566  0.50336959  0.83423133  1
  I  I132  1  0.66722441  0.82816017  0.16625207  1
  I  I133  1  0.67102402  0.82899493  0.49478356  1
  I  I134  1  0.66752020  0.83015696  0.83812571  1
