# generated using pymatgen
data_Cs27Sn13Pb14I81
_symmetry_space_group_name_H-M   'P 1'
_cell_length_a   18.99698759
_cell_length_b   18.99523544
_cell_length_c   18.98376595
_cell_angle_alpha   89.99844343
_cell_angle_beta   89.99960324
_cell_angle_gamma   90.00082651
_symmetry_Int_Tables_number   1
_chemical_formula_structural   Cs27Sn13Pb14I81
_chemical_formula_sum   'Cs27 Sn13 Pb14 I81'
_cell_volume   6850.33468818
_cell_formula_units_Z   1
loop_
 _symmetry_equiv_pos_site_id
 _symmetry_equiv_pos_as_xyz
  1  'x, y, z'
loop_
 _atom_site_type_symbol
 _atom_site_label
 _atom_site_symmetry_multiplicity
 _atom_site_fract_x
 _atom_site_fract_y
 _atom_site_fract_z
 _atom_site_occupancy
  Cs  Cs0  1  0.00074462  0.00059111  -0.00064558  1
  Cs  Cs1  1  0.00143636  -0.00597413  0.33402831  1
  Cs  Cs2  1  0.00059276  0.00083023  0.66900380  1
  Cs  Cs3  1  -0.00118637  0.33087854  0.00054060  1
  Cs  Cs4  1  0.00033236  0.33511729  0.33325417  1
  Cs  Cs5  1  0.00074130  0.33290264  0.66565551  1
  Cs  Cs6  1  0.00214809  0.67143044  0.00147926  1
  Cs  Cs7  1  -0.00982638  0.67423825  0.33773260  1
  Cs  Cs8  1  0.00855448  0.66521852  0.66249689  1
  Cs  Cs9  1  0.33579981  0.00034269  0.00072456  1
  Cs  Cs10  1  0.33385563  -0.00059202  0.33907265  1
  Cs  Cs11  1  0.33299398  -0.00047885  0.65818620  1
  Cs  Cs12  1  0.33417553  0.33408630  0.00145385  1
  Cs  Cs13  1  0.33238701  0.33143178  0.33207243  1
  Cs  Cs14  1  0.33192319  0.34113952  0.65888309  1
  Cs  Cs15  1  0.33220094  0.66584178  -0.00125526  1
  Cs  Cs16  1  0.33310322  0.66953992  0.33636326  1
  Cs  Cs17  1  0.32539575  0.65583503  0.66168564  1
  Cs  Cs18  1  0.66458648  0.00137570  -0.00244016  1
  Cs  Cs19  1  0.66448950  -0.00131958  0.33558728  1
  Cs  Cs20  1  0.66670960  0.00033018  0.67059143  1
  Cs  Cs21  1  0.66641619  0.33202112  0.00023345  1
  Cs  Cs22  1  0.66756084  0.33497406  0.33219380  1
  Cs  Cs23  1  0.66568168  0.33463071  0.66842230  1
  Cs  Cs24  1  0.66545395  0.66733763  0.00019926  1
  Cs  Cs25  1  0.67568826  0.66750813  0.33992192  1
  Cs  Cs26  1  0.66497512  0.66551279  0.66222644  1
  Sn  Sn27  1  0.49982299  0.16650677  0.16582585  1
  Sn  Sn28  1  0.16688501  0.16716388  0.16548381  1
  Sn  Sn29  1  0.16775434  0.16670817  0.83395944  1
  Sn  Sn30  1  0.83327136  0.16668644  0.83354224  1
  Sn  Sn31  1  0.16667631  0.49971518  0.16636643  1
  Sn  Sn32  1  0.83300546  0.16662655  0.49994661  1
  Sn  Sn33  1  0.50014353  0.83362100  0.83356653  1
  Sn  Sn34  1  0.83329155  0.16644261  0.16686647  1
  Sn  Sn35  1  0.83269651  0.83286293  0.83364941  1
  Sn  Sn36  1  0.50023707  0.83327190  0.16582382  1
  Sn  Sn37  1  0.49902726  0.16629450  0.83364923  1
  Sn  Sn38  1  0.83339773  0.50056270  0.83388546  1
  Sn  Sn39  1  0.49960528  0.50030711  0.16633949  1
  Pb  Pb40  1  0.16661480  0.83353139  0.50007183  1
  Pb  Pb41  1  0.83330535  0.49741934  0.50317277  1
  Pb  Pb42  1  0.16935895  0.83368179  0.16645887  1
  Pb  Pb43  1  0.16427276  0.49723651  0.83591092  1
  Pb  Pb44  1  0.83360031  0.49846645  0.16484319  1
  Pb  Pb45  1  0.50013194  0.83334945  0.50125441  1
  Pb  Pb46  1  0.50024371  0.49977762  0.49616063  1
  Pb  Pb47  1  0.83304728  0.83610409  0.50386137  1
  Pb  Pb48  1  0.16410898  0.16669526  0.49944889  1
  Pb  Pb49  1  0.83080800  0.83613632  0.16435133  1
  Pb  Pb50  1  0.16620208  0.49952758  0.49559091  1
  Pb  Pb51  1  0.16792340  0.83576177  0.83343491  1
  Pb  Pb52  1  0.50223278  0.16687404  0.50036074  1
  Pb  Pb53  1  0.50144892  0.50009593  0.83502781  1
  I  I54  1  0.16527963  0.00384454  0.16260032  1
  I  I55  1  0.16657846  0.00075595  0.49771133  1
  I  I56  1  0.16020457  0.00438059  0.84069144  1
  I  I57  1  0.17148195  0.33130706  0.16260277  1
  I  I58  1  0.16586771  0.33296092  0.50317699  1
  I  I59  1  0.16614700  0.32894457  0.83600981  1
  I  I60  1  0.17242256  0.66380088  0.16605336  1
  I  I61  1  0.16646368  0.66617476  0.50044108  1
  I  I62  1  0.16512908  0.66639091  0.83401962  1
  I  I63  1  0.50129455  0.00146063  0.16218631  1
  I  I64  1  0.50005781  0.00022696  0.49476836  1
  I  I65  1  0.50664115  0.00151503  0.84249233  1
  I  I66  1  0.49988578  0.33160173  0.16270159  1
  I  I67  1  0.50145299  0.33308413  0.50172840  1
  I  I68  1  0.50285396  0.32994015  0.83823935  1
  I  I69  1  0.49396488  0.66686914  0.16045684  1
  I  I70  1  0.50095505  0.66664882  0.50094000  1
  I  I71  1  0.50783685  0.66957561  0.83965048  1
  I  I72  1  0.83523880  0.00485715  0.16437547  1
  I  I73  1  0.83312562  0.00391152  0.50051743  1
  I  I74  1  0.83257875  0.00198310  0.83325601  1
  I  I75  1  0.82880574  0.32943895  0.16311271  1
  I  I76  1  0.83308422  0.32937823  0.50166947  1
  I  I77  1  0.83296683  0.33084789  0.83359553  1
  I  I78  1  0.83368065  0.66696094  0.16443067  1
  I  I79  1  0.83359608  0.66684351  0.49941414  1
  I  I80  1  0.82620322  0.66721801  0.83626171  1
  I  I81  1  0.16198670  0.16971406  0.00054834  1
  I  I82  1  0.16764282  0.17062758  0.32930618  1
  I  I83  1  0.16518402  0.16441736  0.66989342  1
  I  I84  1  0.17140333  0.49657376  0.00347535  1
  I  I85  1  0.17163487  0.48943885  0.32785607  1
  I  I86  1  0.16570791  0.49925409  0.66674734  1
  I  I87  1  0.16297155  0.83167311  -0.00005046  1
  I  I88  1  0.16853402  0.83647890  0.33267848  1
  I  I89  1  0.16760715  0.83646090  0.66728584  1
  I  I90  1  0.50440328  0.16638560  0.00054625  1
  I  I91  1  0.49982261  0.16623519  0.32941217  1
  I  I92  1  0.50141265  0.16060998  0.67054762  1
  I  I93  1  0.49745505  0.49793149  0.00326909  1
  I  I94  1  0.49685069  0.49678305  0.32751452  1
  I  I95  1  0.50191947  0.49940956  0.66693092  1
  I  I96  1  0.50443582  0.83615297  -0.00017843  1
  I  I97  1  0.49782619  0.83581224  0.33006644  1
  I  I98  1  0.50658059  0.84249766  0.67112632  1
  I  I99  1  0.83312940  0.16708534  -0.00079609  1
  I  I100  1  0.83245263  0.16831329  0.33204995  1
  I  I101  1  0.83343048  0.16620885  0.66895468  1
  I  I102  1  0.83233150  0.49480909  -0.00300797  1
  I  I103  1  0.83299104  0.49763395  0.33314590  1
  I  I104  1  0.83154649  0.49645648  0.67136825  1
  I  I105  1  0.83212695  0.83714355  -0.00361726  1
  I  I106  1  0.83262988  0.83424891  0.33332692  1
  I  I107  1  0.82560776  0.83708787  0.67183345  1
  I  I108  1  -0.00013013  0.17262118  0.16271756  1
  I  I109  1  -0.00372463  0.16693744  0.50204993  1
  I  I110  1  -0.00126149  0.16682686  0.83607882  1
  I  I111  1  0.00241298  0.49155122  0.16381182  1
  I  I112  1  -0.00029524  0.49857999  0.49867858  1
  I  I113  1  -0.00358993  0.49832477  0.83598954  1
  I  I114  1  -0.00025585  0.83323804  0.16623573  1
  I  I115  1  -0.00067867  0.83449901  0.49982301  1
  I  I116  1  -0.00269451  0.83617691  0.83275753  1
  I  I117  1  0.33409360  0.16772794  0.15924426  1
  I  I118  1  0.33330246  0.16623754  0.50037382  1
  I  I119  1  0.33426860  0.16084531  0.84319457  1
  I  I120  1  0.33407562  0.49323950  0.16489893  1
  I  I121  1  0.33314077  0.49946130  0.50556287  1
  I  I122  1  0.33319235  0.50040791  0.83218264  1
  I  I123  1  0.33752383  0.83846991  0.15916824  1
  I  I124  1  0.33371087  0.83551559  0.50063826  1
  I  I125  1  0.33741899  0.83961528  0.83959222  1
  I  I126  1  0.66620586  0.16725388  0.16361891  1
  I  I127  1  0.67001860  0.16639980  0.50054760  1
  I  I128  1  0.66720287  0.16605962  0.83593503  1
  I  I129  1  0.66402902  0.49715343  0.16424241  1
  I  I130  1  0.66702906  0.49936020  0.49712060  1
  I  I131  1  0.66928867  0.49309863  0.83681146  1
  I  I132  1  0.66288220  0.83329417  0.16436955  1
  I  I133  1  0.66677623  0.83396943  0.49639667  1
  I  I134  1  0.66658789  0.84059278  0.83810153  1
