# generated using pymatgen
data_Cs27Sn13Pb14I81
_symmetry_space_group_name_H-M   'P 1'
_cell_length_a   18.98984036
_cell_length_b   18.97565624
_cell_length_c   18.96996166
_cell_angle_alpha   90.00092653
_cell_angle_beta   90.00107834
_cell_angle_gamma   90.00087011
_symmetry_Int_Tables_number   1
_chemical_formula_structural   Cs27Sn13Pb14I81
_chemical_formula_sum   'Cs27 Sn13 Pb14 I81'
_cell_volume   6835.72481355
_cell_formula_units_Z   1
loop_
 _symmetry_equiv_pos_site_id
 _symmetry_equiv_pos_as_xyz
  1  'x, y, z'
loop_
 _atom_site_type_symbol
 _atom_site_label
 _atom_site_symmetry_multiplicity
 _atom_site_fract_x
 _atom_site_fract_y
 _atom_site_fract_z
 _atom_site_occupancy
  Cs  Cs0  1  -0.00315885  -0.00030529  -0.00067714  1
  Cs  Cs1  1  0.00005453  -0.00426384  0.33305514  1
  Cs  Cs2  1  0.00084218  0.00073503  0.66791709  1
  Cs  Cs3  1  0.00221288  0.33277680  0.00048685  1
  Cs  Cs4  1  0.00078601  0.33460397  0.33314946  1
  Cs  Cs5  1  -0.00172301  0.33223085  0.66582201  1
  Cs  Cs6  1  0.00112939  0.66696601  -0.00363237  1
  Cs  Cs7  1  -0.00203962  0.66742665  0.33392347  1
  Cs  Cs8  1  0.00033681  0.66702709  0.66620295  1
  Cs  Cs9  1  0.33296456  0.00240607  -0.00070667  1
  Cs  Cs10  1  0.33549180  -0.00058292  0.33362343  1
  Cs  Cs11  1  0.33442253  0.00058684  0.66716977  1
  Cs  Cs12  1  0.33042453  0.33226804  -0.00003617  1
  Cs  Cs13  1  0.33308646  0.33411132  0.33109753  1
  Cs  Cs14  1  0.33282067  0.33182881  0.66796199  1
  Cs  Cs15  1  0.33315424  0.66504210  -0.00418041  1
  Cs  Cs16  1  0.33419587  0.66688684  0.33365231  1
  Cs  Cs17  1  0.33566253  0.66824505  0.67098175  1
  Cs  Cs18  1  0.67143094  0.00151861  0.00081895  1
  Cs  Cs19  1  0.66444735  0.00330260  0.33409348  1
  Cs  Cs20  1  0.66381823  0.00202258  0.66654718  1
  Cs  Cs21  1  0.66870824  0.33255412  -0.00212161  1
  Cs  Cs22  1  0.66619281  0.33314413  0.33433147  1
  Cs  Cs23  1  0.66970818  0.33250487  0.66759224  1
  Cs  Cs24  1  0.66595117  0.66662702  0.00082988  1
  Cs  Cs25  1  0.66824257  0.66590414  0.33178587  1
  Cs  Cs26  1  0.66377076  0.66641999  0.67141535  1
  Sn  Sn27  1  0.83281996  0.50083545  0.16750983  1
  Sn  Sn28  1  0.83309971  0.50117752  0.49917741  1
  Sn  Sn29  1  0.16679637  0.16645214  0.50019889  1
  Sn  Sn30  1  0.50006010  0.83264894  0.16698197  1
  Sn  Sn31  1  0.16734799  0.16653976  0.83261410  1
  Sn  Sn32  1  0.83323623  0.83214272  0.16789475  1
  Sn  Sn33  1  0.49953785  0.16671569  0.83335860  1
  Sn  Sn34  1  0.50047244  0.50084015  0.16749459  1
  Sn  Sn35  1  0.50010327  0.50026676  0.49946076  1
  Sn  Sn36  1  0.16683500  0.50041659  0.49978323  1
  Sn  Sn37  1  0.83348584  0.83253530  0.49949419  1
  Sn  Sn38  1  0.16671490  0.83304573  0.16728932  1
  Sn  Sn39  1  0.16642330  0.83314676  0.49929996  1
  Pb  Pb40  1  0.50008658  0.83557207  0.83661076  1
  Pb  Pb41  1  0.83384785  0.16664870  0.83313485  1
  Pb  Pb42  1  0.49763654  0.16941522  0.50138200  1
  Pb  Pb43  1  0.83330531  0.83307755  0.83278608  1
  Pb  Pb44  1  0.83561730  0.16640880  0.49972501  1
  Pb  Pb45  1  0.16664973  0.83536450  0.83278738  1
  Pb  Pb46  1  0.50002681  0.16740190  0.16479414  1
  Pb  Pb47  1  0.50028154  0.83138757  0.49841618  1
  Pb  Pb48  1  0.83337352  0.16702578  0.16715505  1
  Pb  Pb49  1  0.16650823  0.50234878  0.16849795  1
  Pb  Pb50  1  0.16654920  0.49770878  0.83032342  1
  Pb  Pb51  1  0.83339066  0.50029333  0.83350558  1
  Pb  Pb52  1  0.50001922  0.49808876  0.83397150  1
  Pb  Pb53  1  0.16656935  0.16397441  0.16722485  1
  I  I54  1  0.16636129  -0.00441100  0.17191516  1
  I  I55  1  0.16163356  -0.00102992  0.50020810  1
  I  I56  1  0.17104769  0.00323354  0.82749941  1
  I  I57  1  0.16698809  0.33360356  0.16696948  1
  I  I58  1  0.16668397  0.33394809  0.50525197  1
  I  I59  1  0.17061070  0.32954715  0.82938905  1
  I  I60  1  0.16680033  0.67048165  0.17247193  1
  I  I61  1  0.16507070  0.66696160  0.49410258  1
  I  I62  1  0.16625964  0.66682646  0.83297696  1
  I  I63  1  0.50046495  -0.00314530  0.16505436  1
  I  I64  1  0.50014336  -0.00007943  0.49942739  1
  I  I65  1  0.49460188  0.00334675  0.83306108  1
  I  I66  1  0.50461243  0.33720049  0.16986519  1
  I  I67  1  0.50104737  0.33774552  0.49389242  1
  I  I68  1  0.49422975  0.33041050  0.83442419  1
  I  I69  1  0.50098975  0.66640826  0.17075488  1
  I  I70  1  0.49503835  0.66312456  0.49892073  1
  I  I71  1  0.50049185  0.66649654  0.83177654  1
  I  I72  1  0.83299377  -0.00405561  0.17001476  1
  I  I73  1  0.83829360  -0.00367463  0.49550815  1
  I  I74  1  0.83322724  -0.00009426  0.83459113  1
  I  I75  1  0.82812349  0.33744539  0.17081157  1
  I  I76  1  0.83392223  0.33694387  0.49643367  1
  I  I77  1  0.83357199  0.33343935  0.83347910  1
  I  I78  1  0.83218671  0.66710428  0.17161129  1
  I  I79  1  0.83953278  0.66629236  0.49531659  1
  I  I80  1  0.83328587  0.66666509  0.83283530  1
  I  I81  1  0.17077047  0.16503948  -0.00258914  1
  I  I82  1  0.16542379  0.16876391  0.33685823  1
  I  I83  1  0.17060614  0.16557018  0.66532673  1
  I  I84  1  0.16665430  0.49940003  0.00028451  1
  I  I85  1  0.16713151  0.49438180  0.33711005  1
  I  I86  1  0.16660391  0.50539762  0.66131384  1
  I  I87  1  0.16559525  0.83511337  0.00321246  1
  I  I88  1  0.16551322  0.83580820  0.33438057  1
  I  I89  1  0.16154847  0.83147702  0.66267008  1
  I  I90  1  0.49143010  0.16768425  -0.00299655  1
  I  I91  1  0.49871278  0.16543179  0.33334126  1
  I  I92  1  0.49766821  0.16782575  0.66929648  1
  I  I93  1  0.50529893  0.50305762  0.00386575  1
  I  I94  1  0.50028396  0.50265678  0.33331355  1
  I  I95  1  0.50009733  0.49831225  0.66345371  1
  I  I96  1  0.49979566  0.82642834  0.00521885  1
  I  I97  1  0.49891778  0.83295658  0.33003392  1
  I  I98  1  0.49975603  0.83231614  0.66646919  1
  I  I99  1  0.83584240  0.16631954  0.00008767  1
  I  I100  1  0.83484335  0.16675169  0.33364078  1
  I  I101  1  0.83165636  0.16701733  0.66625426  1
  I  I102  1  0.82765880  0.50403657  0.00401904  1
  I  I103  1  0.83282627  0.50394580  0.33409510  1
  I  I104  1  0.83332075  0.50319790  0.66246578  1
  I  I105  1  0.83423729  0.83003425  0.00405386  1
  I  I106  1  0.83586153  0.82922728  0.33312237  1
  I  I107  1  0.83976296  0.82941237  0.66248479  1
  I  I108  1  0.00022687  0.16785000  0.16317219  1
  I  I109  1  0.00398796  0.17049037  0.50652033  1
  I  I110  1  0.00349790  0.16611294  0.82839410  1
  I  I111  1  -0.00286600  0.50290251  0.17069252  1
  I  I112  1  -0.00014329  0.49955830  0.49666361  1
  I  I113  1  0.00007613  0.49634033  0.83473646  1
  I  I114  1  -0.00042477  0.83112786  0.17107033  1
  I  I115  1  0.00063819  0.82997413  0.49276587  1
  I  I116  1  0.00013595  0.83726339  0.83803682  1
  I  I117  1  0.33320972  0.16631916  0.16812507  1
  I  I118  1  0.32941400  0.16516147  0.50147157  1
  I  I119  1  0.33232719  0.16670611  0.82890372  1
  I  I120  1  0.33591282  0.50346999  0.17087616  1
  I  I121  1  0.33315055  0.49882466  0.49607894  1
  I  I122  1  0.33329500  0.50078800  0.83370235  1
  I  I123  1  0.33319502  0.83095663  0.17085954  1
  I  I124  1  0.33044561  0.83324480  0.49577511  1
  I  I125  1  0.33329694  0.83234150  0.83334039  1
  I  I126  1  0.66653963  0.16191091  0.16295381  1
  I  I127  1  0.66647362  0.16622134  0.50265460  1
  I  I128  1  0.66389350  0.16739244  0.83550744  1
  I  I129  1  0.66667802  0.50751128  0.17444803  1
  I  I130  1  0.66722244  0.50408647  0.49611175  1
  I  I131  1  0.66655975  0.49526739  0.82833657  1
  I  I132  1  0.66724558  0.82960891  0.16953874  1
  I  I133  1  0.66966226  0.82924947  0.49620394  1
  I  I134  1  0.66659000  0.83755380  0.83173377  1
