# generated using pymatgen
data_Cs27Sn13Pb14I81
_symmetry_space_group_name_H-M   'P 1'
_cell_length_a   18.98387468
_cell_length_b   18.97915617
_cell_length_c   18.97003483
_cell_angle_alpha   89.99799330
_cell_angle_beta   89.99919588
_cell_angle_gamma   90.00037143
_symmetry_Int_Tables_number   1
_chemical_formula_structural   Cs27Sn13Pb14I81
_chemical_formula_sum   'Cs27 Sn13 Pb14 I81'
_cell_volume   6834.86413076
_cell_formula_units_Z   1
loop_
 _symmetry_equiv_pos_site_id
 _symmetry_equiv_pos_as_xyz
  1  'x, y, z'
loop_
 _atom_site_type_symbol
 _atom_site_label
 _atom_site_symmetry_multiplicity
 _atom_site_fract_x
 _atom_site_fract_y
 _atom_site_fract_z
 _atom_site_occupancy
  Cs  Cs0  1  -0.00316837  -0.00050754  -0.00096052  1
  Cs  Cs1  1  0.00252098  -0.00113749  0.33570602  1
  Cs  Cs2  1  0.00058294  0.00048094  0.66453440  1
  Cs  Cs3  1  0.00172836  0.33856249  0.00040961  1
  Cs  Cs4  1  0.00463952  0.33334872  0.33433120  1
  Cs  Cs5  1  -0.00155310  0.33379591  0.66536551  1
  Cs  Cs6  1  -0.00638653  0.65988642  -0.00574365  1
  Cs  Cs7  1  -0.00113461  0.66724359  0.33391445  1
  Cs  Cs8  1  0.00112260  0.66522060  0.66761270  1
  Cs  Cs9  1  0.33455229  0.00114328  0.00030103  1
  Cs  Cs10  1  0.32991972  -0.00141299  0.33215748  1
  Cs  Cs11  1  0.33494554  -0.00268470  0.66803044  1
  Cs  Cs12  1  0.33455949  0.33293498  0.00097648  1
  Cs  Cs13  1  0.33157888  0.33269366  0.33244965  1
  Cs  Cs14  1  0.33606327  0.33246476  0.66679608  1
  Cs  Cs15  1  0.33200239  0.66598640  -0.00162191  1
  Cs  Cs16  1  0.33326127  0.66840554  0.33510564  1
  Cs  Cs17  1  0.33251360  0.67065804  0.66560357  1
  Cs  Cs18  1  0.66697988  0.00132516  0.00063248  1
  Cs  Cs19  1  0.66743110  0.00061837  0.33176621  1
  Cs  Cs20  1  0.66427420  0.00062415  0.66631585  1
  Cs  Cs21  1  0.66507866  0.33165337  -0.00056002  1
  Cs  Cs22  1  0.66461649  0.33271144  0.33486925  1
  Cs  Cs23  1  0.66587677  0.33163156  0.66618081  1
  Cs  Cs24  1  0.67319741  0.66674204  0.00094890  1
  Cs  Cs25  1  0.66826126  0.66632098  0.33372721  1
  Cs  Cs26  1  0.66521964  0.66892676  0.66495832  1
  Sn  Sn27  1  0.16669485  0.16669546  0.83354052  1
  Sn  Sn28  1  0.83394072  0.83268220  0.49989715  1
  Sn  Sn29  1  0.16656917  0.83280422  0.16616602  1
  Sn  Sn30  1  0.49998193  0.50012269  0.16580284  1
  Sn  Sn31  1  0.83392728  0.50061782  0.49981918  1
  Sn  Sn32  1  0.50057148  0.16668621  0.16614263  1
  Sn  Sn33  1  0.49995834  0.16743061  0.83429043  1
  Sn  Sn34  1  0.50001498  0.49978544  0.83410925  1
  Sn  Sn35  1  0.16571114  0.83228742  0.49925945  1
  Sn  Sn36  1  0.49939847  0.83318736  0.16653552  1
  Sn  Sn37  1  0.83341890  0.16679878  0.83431223  1
  Sn  Sn38  1  0.83326801  0.16689531  0.16621686  1
  Sn  Sn39  1  0.16618001  0.50057350  0.49987982  1
  Pb  Pb40  1  0.83085739  0.49769485  0.83101067  1
  Pb  Pb41  1  0.50015251  0.83321611  0.83636142  1
  Pb  Pb42  1  0.16649544  0.83490978  0.83363384  1
  Pb  Pb43  1  0.83123803  0.49735226  0.16883140  1
  Pb  Pb44  1  0.16900899  0.49793941  0.83102151  1
  Pb  Pb45  1  0.49978490  0.16649431  0.49967369  1
  Pb  Pb46  1  0.16682317  0.16629175  0.50230056  1
  Pb  Pb47  1  0.49981648  0.83342403  0.49746666  1
  Pb  Pb48  1  0.83375113  0.83508180  0.16825963  1
  Pb  Pb49  1  0.49974041  0.50004462  0.50015541  1
  Pb  Pb50  1  0.83331776  0.83562151  0.83046626  1
  Pb  Pb51  1  0.83332502  0.16660516  0.49960759  1
  Pb  Pb52  1  0.16873861  0.50265773  0.16837373  1
  Pb  Pb53  1  0.16660637  0.16486651  0.16462667  1
  I  I54  1  0.17295981  -0.00293217  0.17391302  1
  I  I55  1  0.16245897  -0.00336515  0.49714015  1
  I  I56  1  0.17047638  0.00338895  0.83096297  1
  I  I57  1  0.16773465  0.33338737  0.16870628  1
  I  I58  1  0.16256015  0.33604472  0.50166463  1
  I  I59  1  0.16535904  0.32977775  0.83217343  1
  I  I60  1  0.17310861  0.67067453  0.16940517  1
  I  I61  1  0.16310985  0.66742004  0.49632317  1
  I  I62  1  0.16943266  0.66639477  0.83387010  1
  I  I63  1  0.50011271  0.00083742  0.16385958  1
  I  I64  1  0.50051765  -0.00021835  0.50108646  1
  I  I65  1  0.50020674  0.00352702  0.83617246  1
  I  I66  1  0.50466609  0.33263933  0.16300478  1
  I  I67  1  0.50015550  0.33354464  0.49597381  1
  I  I68  1  0.49967042  0.33198304  0.84033710  1
  I  I69  1  0.49459046  0.66660579  0.16449801  1
  I  I70  1  0.50074838  0.66664466  0.50063591  1
  I  I71  1  0.49912062  0.66367710  0.83586736  1
  I  I72  1  0.82692544  0.00307850  0.16520704  1
  I  I73  1  0.83811235  -0.00253465  0.49994763  1
  I  I74  1  0.82935494  0.00427542  0.83490109  1
  I  I75  1  0.82777814  0.32936569  0.16484165  1
  I  I76  1  0.83694558  0.33583655  0.50050971  1
  I  I77  1  0.83442476  0.32945759  0.83430098  1
  I  I78  1  0.83106535  0.66654114  0.16740021  1
  I  I79  1  0.83674636  0.66680974  0.49859847  1
  I  I80  1  0.83183089  0.66623556  0.83411986  1
  I  I81  1  0.16793769  0.16443377  -0.00323158  1
  I  I82  1  0.16686194  0.16768788  0.33317108  1
  I  I83  1  0.16722484  0.16527418  0.67034750  1
  I  I84  1  0.16631794  0.50079389  -0.00005760  1
  I  I85  1  0.16547847  0.49975931  0.33663142  1
  I  I86  1  0.16531504  0.50599132  0.66298427  1
  I  I87  1  0.17370185  0.83772597  0.00310046  1
  I  I88  1  0.16811819  0.83191569  0.33397639  1
  I  I89  1  0.16273857  0.83132598  0.66335803  1
  I  I90  1  0.50078099  0.16697547  0.00024118  1
  I  I91  1  0.50545888  0.16791945  0.32919170  1
  I  I92  1  0.50143236  0.17197213  0.67050487  1
  I  I93  1  0.49913721  0.49748748  0.00063868  1
  I  I94  1  0.50034814  0.49852420  0.33026873  1
  I  I95  1  0.50051017  0.49247938  0.66939391  1
  I  I96  1  0.49378225  0.83521107  0.00449147  1
  I  I97  1  0.49887028  0.83400479  0.32926824  1
  I  I98  1  0.49941640  0.83416622  0.66674930  1
  I  I99  1  0.83080186  0.16507990  -0.00020076  1
  I  I100  1  0.82652203  0.16623561  0.33051416  1
  I  I101  1  0.83153846  0.16667752  0.66953393  1
  I  I102  1  0.83425734  0.50112867  0.00000714  1
  I  I103  1  0.83411232  0.50120618  0.33674110  1
  I  I104  1  0.83462807  0.50124112  0.66311501  1
  I  I105  1  0.83341704  0.83368434  0.00023337  1
  I  I106  1  0.83393782  0.83283534  0.33633868  1
  I  I107  1  0.83946992  0.83172565  0.66223604  1
  I  I108  1  -0.00246274  0.16368516  0.16317483  1
  I  I109  1  -0.00002701  0.16683043  0.50040203  1
  I  I110  1  -0.00068026  0.16375102  0.83576590  1
  I  I111  1  -0.00007043  0.49924187  0.16680180  1
  I  I112  1  0.00006493  0.50357539  0.50030913  1
  I  I113  1  -0.00011851  0.49751483  0.83324215  1
  I  I114  1  0.00258158  0.83816896  0.17110458  1
  I  I115  1  0.00084924  0.83064944  0.49378993  1
  I  I116  1  -0.00003690  0.83731485  0.83787085  1
  I  I117  1  0.33646554  0.16780157  0.16288990  1
  I  I118  1  0.33313203  0.16733926  0.50047094  1
  I  I119  1  0.33483588  0.16996950  0.83627613  1
  I  I120  1  0.33710376  0.49383174  0.16591962  1
  I  I121  1  0.33072140  0.50453929  0.50012945  1
  I  I122  1  0.33687759  0.49314561  0.83519249  1
  I  I123  1  0.33395858  0.83610856  0.17301964  1
  I  I124  1  0.33014376  0.82929518  0.49846192  1
  I  I125  1  0.33343818  0.83669433  0.82808934  1
  I  I126  1  0.66530815  0.16442158  0.16009002  1
  I  I127  1  0.66683280  0.16663038  0.50374041  1
  I  I128  1  0.66589363  0.17024073  0.83696699  1
  I  I129  1  0.66287735  0.50417949  0.16565359  1
  I  I130  1  0.66909072  0.50353878  0.49972412  1
  I  I131  1  0.66303910  0.49369457  0.83508359  1
  I  I132  1  0.66392958  0.83335667  0.16812076  1
  I  I133  1  0.66941055  0.82976309  0.49953593  1
  I  I134  1  0.66657780  0.83575492  0.83163799  1
