# generated using pymatgen
data_Cs27Sn14Pb13I81
_symmetry_space_group_name_H-M   'P 1'
_cell_length_a   18.98278878
_cell_length_b   18.96832773
_cell_length_c   18.97817577
_cell_angle_alpha   89.99832455
_cell_angle_beta   89.99936362
_cell_angle_gamma   90.00090590
_symmetry_Int_Tables_number   1
_chemical_formula_structural   Cs27Sn14Pb13I81
_chemical_formula_sum   'Cs27 Sn14 Pb13 I81'
_cell_volume   6833.50512379
_cell_formula_units_Z   1
loop_
 _symmetry_equiv_pos_site_id
 _symmetry_equiv_pos_as_xyz
  1  'x, y, z'
loop_
 _atom_site_type_symbol
 _atom_site_label
 _atom_site_symmetry_multiplicity
 _atom_site_fract_x
 _atom_site_fract_y
 _atom_site_fract_z
 _atom_site_occupancy
  Cs  Cs0  1  -0.00016553  -0.00082002  -0.00605416  1
  Cs  Cs1  1  -0.00095060  -0.00218655  0.33640667  1
  Cs  Cs2  1  -0.00174830  -0.00014493  0.66984539  1
  Cs  Cs3  1  0.00564072  0.33112095  0.00044860  1
  Cs  Cs4  1  -0.00212199  0.33540141  0.33426664  1
  Cs  Cs5  1  -0.00133136  0.33076412  0.66440397  1
  Cs  Cs6  1  0.00212129  0.66802527  0.00221707  1
  Cs  Cs7  1  -0.00011516  0.66642192  0.33372096  1
  Cs  Cs8  1  -0.00170077  0.66927855  0.66323312  1
  Cs  Cs9  1  0.33326373  0.00066653  0.00249339  1
  Cs  Cs10  1  0.33717017  -0.00119601  0.33074300  1
  Cs  Cs11  1  0.33473566  -0.00229507  0.66570393  1
  Cs  Cs12  1  0.32515252  0.33288039  0.00071351  1
  Cs  Cs13  1  0.33325691  0.33165026  0.33286465  1
  Cs  Cs14  1  0.33588863  0.33440718  0.66700865  1
  Cs  Cs15  1  0.32899907  0.66509420  -0.00522302  1
  Cs  Cs16  1  0.33328625  0.66927594  0.33482992  1
  Cs  Cs17  1  0.33405485  0.66831977  0.66943569  1
  Cs  Cs18  1  0.66688160  -0.00283712  0.00086129  1
  Cs  Cs19  1  0.66330886  -0.00342752  0.32874155  1
  Cs  Cs20  1  0.66648740  0.00129367  0.66947684  1
  Cs  Cs21  1  0.66671744  0.33538422  0.00223988  1
  Cs  Cs22  1  0.66807744  0.33388447  0.33440932  1
  Cs  Cs23  1  0.66555728  0.33374945  0.66517235  1
  Cs  Cs24  1  0.66796155  0.66570589  0.00159510  1
  Cs  Cs25  1  0.66718803  0.66732157  0.33113551  1
  Cs  Cs26  1  0.66589828  0.66452631  0.66720355  1
  Sn  Sn27  1  0.16730003  0.83354839  0.83396950  1
  Sn  Sn28  1  0.83381341  0.49958649  0.83345675  1
  Sn  Sn29  1  0.50004039  0.16639559  0.83327846  1
  Sn  Sn30  1  0.83307916  0.49936971  0.49990631  1
  Sn  Sn31  1  0.49994091  0.49934118  0.49897713  1
  Sn  Sn32  1  0.16668466  0.83356788  0.16623299  1
  Sn  Sn33  1  0.16697120  0.49924283  0.50015935  1
  Sn  Sn34  1  0.83285622  0.16718000  0.49896442  1
  Sn  Sn35  1  0.49987746  0.49964488  0.16727103  1
  Sn  Sn36  1  0.83284030  0.49896345  0.16661985  1
  Sn  Sn37  1  0.49964378  0.83417396  0.83329428  1
  Sn  Sn38  1  0.50021157  0.16732264  0.50048668  1
  Sn  Sn39  1  0.83333001  0.16730051  0.16728315  1
  Sn  Sn40  1  0.16686968  0.16727788  0.49998491  1
  Pb  Pb41  1  0.16384318  0.16448329  0.16931687  1
  Pb  Pb42  1  0.83123457  0.16887738  0.83337350  1
  Pb  Pb43  1  0.50025651  0.83333849  0.50186722  1
  Pb  Pb44  1  0.49796100  0.83022048  0.16397760  1
  Pb  Pb45  1  0.83279688  0.83386833  0.49985089  1
  Pb  Pb46  1  0.16909308  0.16475852  0.83080555  1
  Pb  Pb47  1  0.16650494  0.50119708  0.16901003  1
  Pb  Pb48  1  0.16386889  0.50167068  0.83037365  1
  Pb  Pb49  1  0.50124422  0.49951080  0.83351451  1
  Pb  Pb50  1  0.50179195  0.16877371  0.16680441  1
  Pb  Pb51  1  0.83297800  0.83087567  0.83333262  1
  Pb  Pb52  1  0.16678168  0.83373818  0.50032269  1
  Pb  Pb53  1  0.83525251  0.83339524  0.16673493  1
  I  I54  1  0.16572679  -0.00313100  0.16469405  1
  I  I55  1  0.16601389  0.00323131  0.50017347  1
  I  I56  1  0.16656282  -0.00329634  0.83460892  1
  I  I57  1  0.16828218  0.33324209  0.16522389  1
  I  I58  1  0.16585569  0.33363248  0.49965670  1
  I  I59  1  0.16798388  0.33329818  0.83480435  1
  I  I60  1  0.16500218  0.66902963  0.16509499  1
  I  I61  1  0.16546866  0.66371633  0.49996560  1
  I  I62  1  0.17360643  0.66957037  0.83437115  1
  I  I63  1  0.50123007  0.00004330  0.16921950  1
  I  I64  1  0.49934086  0.00357394  0.50237615  1
  I  I65  1  0.49731455  0.00048543  0.82627199  1
  I  I66  1  0.50170586  0.33686543  0.16628500  1
  I  I67  1  0.50053764  0.33354710  0.50315536  1
  I  I68  1  0.50370588  0.33098354  0.82967097  1
  I  I69  1  0.50767903  0.66244948  0.17271448  1
  I  I70  1  0.50023193  0.66297145  0.49804735  1
  I  I71  1  0.49728393  0.66848491  0.83326184  1
  I  I72  1  0.83433537  0.00317434  0.17289242  1
  I  I73  1  0.83459320  0.00426195  0.49579372  1
  I  I74  1  0.83474307  0.00028645  0.83283172  1
  I  I75  1  0.82972806  0.33476073  0.16886078  1
  I  I76  1  0.83355805  0.33416899  0.49969337  1
  I  I77  1  0.83018337  0.33679233  0.83163896  1
  I  I78  1  0.83058588  0.66300135  0.16799175  1
  I  I79  1  0.83435005  0.66256828  0.49950304  1
  I  I80  1  0.83081219  0.66271688  0.83200389  1
  I  I81  1  0.16660245  0.16693923  0.00000304  1
  I  I82  1  0.17185546  0.16843058  0.33742855  1
  I  I83  1  0.16057592  0.16866008  0.66263666  1
  I  I84  1  0.16677545  0.50099191  -0.00007915  1
  I  I85  1  0.16247003  0.49942041  0.33708734  1
  I  I86  1  0.16804363  0.49873532  0.66223640  1
  I  I87  1  0.17028730  0.83131568  -0.00067167  1
  I  I88  1  0.16427196  0.83221105  0.33152304  1
  I  I89  1  0.17094643  0.83242388  0.66916230  1
  I  I90  1  0.50328923  0.16371946  -0.00232848  1
  I  I91  1  0.49822661  0.16949530  0.33667117  1
  I  I92  1  0.50206321  0.16852652  0.66491352  1
  I  I93  1  0.50698359  0.50146268  0.00224357  1
  I  I94  1  0.50450360  0.49510234  0.33493955  1
  I  I95  1  0.50135394  0.49956505  0.66366787  1
  I  I96  1  0.49899077  0.83846939  -0.00372063  1
  I  I97  1  0.49795220  0.83537716  0.33297015  1
  I  I98  1  0.49269353  0.83169846  0.66974720  1
  I  I99  1  0.83105074  0.17144873  0.00251132  1
  I  I100  1  0.83249667  0.17488176  0.33477598  1
  I  I101  1  0.83498515  0.17079758  0.66336518  1
  I  I102  1  0.82643683  0.49783599  0.00131514  1
  I  I103  1  0.83292563  0.49625621  0.33408168  1
  I  I104  1  0.83270437  0.49760460  0.66481928  1
  I  I105  1  0.83214933  0.83274899  -0.00000970  1
  I  I106  1  0.83703749  0.82910999  0.33316470  1
  I  I107  1  0.83721393  0.83201916  0.66681848  1
  I  I108  1  -0.00398374  0.17407524  0.17140009  1
  I  I109  1  -0.00065350  0.17253897  0.49543891  1
  I  I110  1  -0.00007600  0.16507557  0.83218080  1
  I  I111  1  -0.00319212  0.49857830  0.16796880  1
  I  I112  1  -0.00090881  0.49552478  0.50044461  1
  I  I113  1  -0.00398325  0.50137767  0.83410105  1
  I  I114  1  0.00292487  0.83091820  0.16048275  1
  I  I115  1  0.00010434  0.83245806  0.50265540  1
  I  I116  1  0.00264234  0.83102997  0.83646140  1
  I  I117  1  0.33331674  0.16708255  0.16739085  1
  I  I118  1  0.33401770  0.17279877  0.50533986  1
  I  I119  1  0.33709127  0.16702216  0.82787117  1
  I  I120  1  0.33575298  0.50236246  0.17128769  1
  I  I121  1  0.33419243  0.49463985  0.49552457  1
  I  I122  1  0.33317914  0.49977820  0.83331227  1
  I  I123  1  0.33040495  0.83214354  0.16647743  1
  I  I124  1  0.33336245  0.83202858  0.49856648  1
  I  I125  1  0.33356940  0.83546232  0.83624991  1
  I  I126  1  0.66976263  0.16855593  0.17246187  1
  I  I127  1  0.66662304  0.17339814  0.50132099  1
  I  I128  1  0.66352027  0.16070105  0.82648428  1
  I  I129  1  0.66774932  0.49763996  0.17121895  1
  I  I130  1  0.66691902  0.49486279  0.50025444  1
  I  I131  1  0.66912530  0.50201024  0.82875907  1
  I  I132  1  0.66647434  0.83404772  0.16544609  1
  I  I133  1  0.66643792  0.83211988  0.50274832  1
  I  I134  1  0.66373987  0.83620452  0.83101141  1
