# generated using pymatgen
data_Cs27Sn13Pb14I81
_symmetry_space_group_name_H-M   'P 1'
_cell_length_a   18.97317457
_cell_length_b   18.97198492
_cell_length_c   18.98526397
_cell_angle_alpha   90.00052473
_cell_angle_beta   89.99977043
_cell_angle_gamma   90.00136643
_symmetry_Int_Tables_number   1
_chemical_formula_structural   Cs27Sn13Pb14I81
_chemical_formula_sum   'Cs27 Sn13 Pb14 I81'
_cell_volume   6833.91249141
_cell_formula_units_Z   1
loop_
 _symmetry_equiv_pos_site_id
 _symmetry_equiv_pos_as_xyz
  1  'x, y, z'
loop_
 _atom_site_type_symbol
 _atom_site_label
 _atom_site_symmetry_multiplicity
 _atom_site_fract_x
 _atom_site_fract_y
 _atom_site_fract_z
 _atom_site_occupancy
  Cs  Cs0  1  -0.00510995  -0.00235327  0.00028813  1
  Cs  Cs1  1  0.00142560  -0.00217666  0.33424004  1
  Cs  Cs2  1  0.00261092  -0.00119584  0.66592378  1
  Cs  Cs3  1  -0.00119215  0.33509749  -0.00077040  1
  Cs  Cs4  1  -0.00208401  0.33409391  0.33720302  1
  Cs  Cs5  1  -0.00042991  0.33515096  0.66443965  1
  Cs  Cs6  1  0.00364158  0.66654857  0.00339969  1
  Cs  Cs7  1  0.00002927  0.66675589  0.33442128  1
  Cs  Cs8  1  0.00007844  0.66571428  0.66474937  1
  Cs  Cs9  1  0.33245150  0.00162499  0.00009582  1
  Cs  Cs10  1  0.33259231  0.00253715  0.33203546  1
  Cs  Cs11  1  0.33041962  0.00170657  0.66664802  1
  Cs  Cs12  1  0.33275314  0.33546513  -0.00104142  1
  Cs  Cs13  1  0.33512117  0.32931072  0.33160175  1
  Cs  Cs14  1  0.33250269  0.33154749  0.66952436  1
  Cs  Cs15  1  0.33592408  0.66022688  0.00637271  1
  Cs  Cs16  1  0.34022865  0.66754290  0.32618923  1
  Cs  Cs17  1  0.33888822  0.66679291  0.66904060  1
  Cs  Cs18  1  0.67424030  -0.00367009  -0.00194511  1
  Cs  Cs19  1  0.66620326  -0.00007207  0.33195561  1
  Cs  Cs20  1  0.66630569  -0.00202814  0.66934717  1
  Cs  Cs21  1  0.66926967  0.33032938  0.00101596  1
  Cs  Cs22  1  0.66813610  0.33330288  0.33387499  1
  Cs  Cs23  1  0.66831878  0.33351331  0.66565754  1
  Cs  Cs24  1  0.66128540  0.67504513  -0.00176984  1
  Cs  Cs25  1  0.66049775  0.66571857  0.33500490  1
  Cs  Cs26  1  0.66133086  0.66832279  0.66661679  1
  Sn  Sn27  1  0.49970453  0.16668290  0.83359910  1
  Sn  Sn28  1  0.83245618  0.16611241  0.50026212  1
  Sn  Sn29  1  0.83388812  0.50070761  0.50014599  1
  Sn  Sn30  1  0.50114001  0.16674591  0.50034344  1
  Sn  Sn31  1  0.83326308  0.50047658  0.83330907  1
  Sn  Sn32  1  0.83319606  0.50038308  0.16665488  1
  Sn  Sn33  1  0.16694454  0.50156066  0.49997274  1
  Sn  Sn34  1  0.49971592  0.16668797  0.16604101  1
  Sn  Sn35  1  0.16681739  0.83334475  0.83285498  1
  Sn  Sn36  1  0.16651182  0.83147158  0.50070229  1
  Sn  Sn37  1  0.16675280  0.16608222  0.83453387  1
  Sn  Sn38  1  0.83389280  0.83298447  0.50017236  1
  Sn  Sn39  1  0.16648601  0.16681006  0.16530984  1
  Pb  Pb40  1  0.83583678  0.83048168  0.83103862  1
  Pb  Pb41  1  0.49673680  0.83584615  0.83333248  1
  Pb  Pb42  1  0.16663166  0.83540828  0.16685154  1
  Pb  Pb43  1  0.50275322  0.49757381  0.83337012  1
  Pb  Pb44  1  0.83395465  0.16777798  0.83106110  1
  Pb  Pb45  1  0.50283639  0.49742386  0.16652227  1
  Pb  Pb46  1  0.16531835  0.50013699  0.83150109  1
  Pb  Pb47  1  0.49999415  0.83646650  0.16647800  1
  Pb  Pb48  1  0.16656143  0.16663817  0.50026889  1
  Pb  Pb49  1  0.83360498  0.16782475  0.16891196  1
  Pb  Pb50  1  0.49925161  0.83608208  0.50002210  1
  Pb  Pb51  1  0.83345589  0.83016488  0.16947242  1
  Pb  Pb52  1  0.49971040  0.49769192  0.50008654  1
  Pb  Pb53  1  0.16502700  0.49743815  0.16955473  1
  I  I54  1  0.17019806  0.00392373  0.16932673  1
  I  I55  1  0.16316201  -0.00194980  0.50079198  1
  I  I56  1  0.17007325  0.00123161  0.82938713  1
  I  I57  1  0.17035161  0.32934098  0.16299654  1
  I  I58  1  0.16205230  0.33501907  0.49975920  1
  I  I59  1  0.16944935  0.33032585  0.83442272  1
  I  I60  1  0.16481942  0.66636364  0.16458379  1
  I  I61  1  0.15516093  0.66706448  0.50611058  1
  I  I62  1  0.16178782  0.66923149  0.82861597  1
  I  I63  1  0.49648303  0.00521086  0.16922231  1
  I  I64  1  0.50344190  0.00451202  0.49963112  1
  I  I65  1  0.50012485  0.00458353  0.83199232  1
  I  I66  1  0.49617616  0.32901540  0.16825859  1
  I  I67  1  0.50359068  0.32916616  0.49967878  1
  I  I68  1  0.49286994  0.32883869  0.83196415  1
  I  I69  1  0.50067616  0.66641416  0.16744732  1
  I  I70  1  0.50258531  0.66678856  0.50000896  1
  I  I71  1  0.50016850  0.66679791  0.83242881  1
  I  I72  1  0.83251675  -0.00000360  0.16876597  1
  I  I73  1  0.83436682  0.00022230  0.50004447  1
  I  I74  1  0.83138238  -0.00020855  0.83136484  1
  I  I75  1  0.83344398  0.33575623  0.17097724  1
  I  I76  1  0.83404491  0.33399279  0.49974698  1
  I  I77  1  0.83509068  0.33570778  0.82909038  1
  I  I78  1  0.83618063  0.66218722  0.16878080  1
  I  I79  1  0.84021430  0.66586441  0.49966833  1
  I  I80  1  0.83614551  0.66266120  0.83057089  1
  I  I81  1  0.17415054  0.16282448  -0.00096167  1
  I  I82  1  0.16936321  0.16763877  0.33191775  1
  I  I83  1  0.16931440  0.16615754  0.66870536  1
  I  I84  1  0.16322388  0.50114298  0.00008761  1
  I  I85  1  0.15940181  0.50234333  0.33759001  1
  I  I86  1  0.15901825  0.49670854  0.66339703  1
  I  I87  1  0.16652746  0.83754594  -0.00302629  1
  I  I88  1  0.16144991  0.83229608  0.33688331  1
  I  I89  1  0.16209589  0.83768147  0.66564187  1
  I  I90  1  0.49354989  0.16827152  -0.00016056  1
  I  I91  1  0.49910915  0.16739637  0.33350159  1
  I  I92  1  0.49915556  0.16721504  0.66665365  1
  I  I93  1  0.50083589  0.49674261  -0.00001436  1
  I  I94  1  0.50184582  0.49621918  0.33346718  1
  I  I95  1  0.50266204  0.49563626  0.66653709  1
  I  I96  1  0.49982792  0.83522319  -0.00028201  1
  I  I97  1  0.49874707  0.83622062  0.33365519  1
  I  I98  1  0.50233626  0.83659656  0.66656344  1
  I  I99  1  0.83112760  0.17015145  -0.00010103  1
  I  I100  1  0.83104058  0.16971372  0.33723921  1
  I  I101  1  0.83085184  0.17004641  0.66277250  1
  I  I102  1  0.83376872  0.49468931  -0.00010127  1
  I  I103  1  0.83756464  0.49800797  0.33519580  1
  I  I104  1  0.83767396  0.49780099  0.66483256  1
  I  I105  1  0.83415645  0.83285540  -0.00025955  1
  I  I106  1  0.84053858  0.83404333  0.33806327  1
  I  I107  1  0.83556013  0.83291495  0.66273679  1
  I  I108  1  0.00258098  0.16818599  0.16418114  1
  I  I109  1  -0.00232530  0.16819841  0.49986593  1
  I  I110  1  0.00313439  0.16468132  0.83564714  1
  I  I111  1  -0.00300537  0.49573086  0.16668782  1
  I  I112  1  -0.00153860  0.49658623  0.50016403  1
  I  I113  1  -0.00282100  0.49565040  0.83255582  1
  I  I114  1  0.00001007  0.83787362  0.16560141  1
  I  I115  1  -0.00010508  0.83571455  0.50330093  1
  I  I116  1  0.00347136  0.84217933  0.83045938  1
  I  I117  1  0.33342594  0.16675666  0.17016273  1
  I  I118  1  0.33534508  0.16697215  0.49955719  1
  I  I119  1  0.33286456  0.16371905  0.83056140  1
  I  I120  1  0.33331426  0.50039910  0.16861761  1
  I  I121  1  0.33019804  0.50163136  0.50133108  1
  I  I122  1  0.33317730  0.50041368  0.83039800  1
  I  I123  1  0.33303305  0.83147569  0.17053390  1
  I  I124  1  0.32969381  0.83146818  0.50410712  1
  I  I125  1  0.32879938  0.83562832  0.82406828  1
  I  I126  1  0.66410932  0.16950189  0.16595120  1
  I  I127  1  0.66721460  0.16827370  0.49947853  1
  I  I128  1  0.66433087  0.17042012  0.83455254  1
  I  I129  1  0.67084375  0.49618413  0.17229699  1
  I  I130  1  0.67037276  0.50102517  0.49952112  1
  I  I131  1  0.67103024  0.49703777  0.82822139  1
  I  I132  1  0.66696615  0.83568883  0.16827269  1
  I  I133  1  0.66969630  0.83065494  0.49900850  1
  I  I134  1  0.66684697  0.83394918  0.83223211  1
