# generated using pymatgen
data_Cs27Sn13Pb14I81
_symmetry_space_group_name_H-M   'P 1'
_cell_length_a   18.97889572
_cell_length_b   18.97862418
_cell_length_c   18.97629013
_cell_angle_alpha   90.00018467
_cell_angle_beta   90.00046109
_cell_angle_gamma   89.99958779
_symmetry_Int_Tables_number   1
_chemical_formula_structural   Cs27Sn13Pb14I81
_chemical_formula_sum   'Cs27 Sn13 Pb14 I81'
_cell_volume   6835.13311780
_cell_formula_units_Z   1
loop_
 _symmetry_equiv_pos_site_id
 _symmetry_equiv_pos_as_xyz
  1  'x, y, z'
loop_
 _atom_site_type_symbol
 _atom_site_label
 _atom_site_symmetry_multiplicity
 _atom_site_fract_x
 _atom_site_fract_y
 _atom_site_fract_z
 _atom_site_occupancy
  Cs  Cs0  1  -0.00086399  -0.00016600  0.00023416  1
  Cs  Cs1  1  -0.00081484  -0.00023653  0.33388224  1
  Cs  Cs2  1  -0.00058856  -0.00024428  0.66570112  1
  Cs  Cs3  1  -0.00055718  0.33227526  -0.00228228  1
  Cs  Cs4  1  -0.00259850  0.33479711  0.33627677  1
  Cs  Cs5  1  0.00063608  0.33387197  0.66662191  1
  Cs  Cs6  1  0.00177690  0.66654104  -0.00041854  1
  Cs  Cs7  1  -0.00042586  0.66318113  0.33370681  1
  Cs  Cs8  1  -0.00014281  0.66636849  0.66656006  1
  Cs  Cs9  1  0.33081145  0.00026029  0.00426263  1
  Cs  Cs10  1  0.33375414  -0.00017140  0.33245194  1
  Cs  Cs11  1  0.33491591  -0.00048467  0.66349065  1
  Cs  Cs12  1  0.33487085  0.33410979  -0.00069007  1
  Cs  Cs13  1  0.33427218  0.33628446  0.33536321  1
  Cs  Cs14  1  0.33673779  0.33338343  0.66581819  1
  Cs  Cs15  1  0.33197437  0.66367100  0.00246568  1
  Cs  Cs16  1  0.33187666  0.66042544  0.33214159  1
  Cs  Cs17  1  0.33853382  0.66777238  0.66565840  1
  Cs  Cs18  1  0.66927654  -0.00044739  -0.00103480  1
  Cs  Cs19  1  0.66803400  -0.00032164  0.33250994  1
  Cs  Cs20  1  0.66184120  -0.00192885  0.67068399  1
  Cs  Cs21  1  0.66406111  0.33416745  -0.00077207  1
  Cs  Cs22  1  0.66967691  0.33825141  0.33309464  1
  Cs  Cs23  1  0.65727206  0.33247489  0.66821916  1
  Cs  Cs24  1  0.66416607  0.66606461  -0.00140515  1
  Cs  Cs25  1  0.66915551  0.66228129  0.33433769  1
  Cs  Cs26  1  0.65773738  0.66968799  0.66749860  1
  Sn  Sn27  1  0.50044058  0.16571543  0.16701207  1
  Sn  Sn28  1  0.16624783  0.16642746  0.83289283  1
  Sn  Sn29  1  0.16626516  0.83350678  0.83240852  1
  Sn  Sn30  1  0.50109647  0.83404012  0.16709411  1
  Sn  Sn31  1  0.16575367  0.16574387  0.49991775  1
  Sn  Sn32  1  0.16566063  0.50004070  0.83301678  1
  Sn  Sn33  1  0.16634338  0.16662216  0.16723186  1
  Sn  Sn34  1  0.83408554  0.83433900  0.49952372  1
  Sn  Sn35  1  0.16571976  0.83408203  0.50049601  1
  Sn  Sn36  1  0.83274812  0.83393442  0.16730344  1
  Sn  Sn37  1  0.83333816  0.16590958  0.16722394  1
  Sn  Sn38  1  0.83376055  0.50003390  0.83280123  1
  Sn  Sn39  1  0.83379678  0.16564104  0.49985016  1
  Pb  Pb40  1  0.49689804  0.16615820  0.83606864  1
  Pb  Pb41  1  0.16654501  0.49997927  0.50247761  1
  Pb  Pb42  1  0.16604222  0.83475580  0.16747859  1
  Pb  Pb43  1  0.83331641  0.50007339  0.50297905  1
  Pb  Pb44  1  0.16625099  0.49638975  0.16442538  1
  Pb  Pb45  1  0.50021636  0.50003898  0.16675424  1
  Pb  Pb46  1  0.83508060  0.83168247  0.83309846  1
  Pb  Pb47  1  0.50040940  0.16644720  0.49728691  1
  Pb  Pb48  1  0.83489527  0.16805596  0.83276802  1
  Pb  Pb49  1  0.83358164  0.50003527  0.16451121  1
  Pb  Pb50  1  0.49659628  0.83373570  0.83644178  1
  Pb  Pb51  1  0.49961429  0.50008304  0.83348413  1
  Pb  Pb52  1  0.50017405  0.50006515  0.49979292  1
  Pb  Pb53  1  0.50004334  0.83356973  0.49708194  1
  I  I54  1  0.16682134  0.00320843  0.16128616  1
  I  I55  1  0.16313420  0.00075416  0.50484723  1
  I  I56  1  0.16712364  0.00049815  0.83387367  1
  I  I57  1  0.16684772  0.32766186  0.16752131  1
  I  I58  1  0.16283385  0.32957689  0.49924600  1
  I  I59  1  0.16243595  0.33246555  0.83547841  1
  I  I60  1  0.16786502  0.66675258  0.16583359  1
  I  I61  1  0.16280145  0.67021399  0.50351948  1
  I  I62  1  0.16229145  0.66720912  0.82973422  1
  I  I63  1  0.49960421  0.00090114  0.16620912  1
  I  I64  1  0.49798499  0.00004978  0.50206288  1
  I  I65  1  0.50005286  -0.00003660  0.83202575  1
  I  I66  1  0.49931990  0.32963617  0.16586119  1
  I  I67  1  0.49928874  0.33269184  0.49797756  1
  I  I68  1  0.49831761  0.33309108  0.83596142  1
  I  I69  1  0.50430994  0.67013038  0.16610022  1
  I  I70  1  0.49939049  0.66733194  0.49767999  1
  I  I71  1  0.49791225  0.66692906  0.83613660  1
  I  I72  1  0.83319740  0.00079641  0.16889644  1
  I  I73  1  0.83940568  0.00023050  0.49517047  1
  I  I74  1  0.83547129  -0.00005318  0.83485303  1
  I  I75  1  0.83360973  0.32954504  0.16992466  1
  I  I76  1  0.83884859  0.32974306  0.49471305  1
  I  I77  1  0.84108089  0.33575870  0.83475107  1
  I  I78  1  0.82883735  0.67024883  0.17003647  1
  I  I79  1  0.83836609  0.67028288  0.49518396  1
  I  I80  1  0.84143116  0.66405156  0.83475818  1
  I  I81  1  0.16710297  0.16678271  0.00017384  1
  I  I82  1  0.16661240  0.16040701  0.33361587  1
  I  I83  1  0.16083370  0.16656329  0.66619471  1
  I  I84  1  0.16347839  0.50198292  -0.00396608  1
  I  I85  1  0.16832910  0.50080911  0.33355350  1
  I  I86  1  0.16194972  0.49520599  0.67056006  1
  I  I87  1  0.16705517  0.83414945  -0.00205753  1
  I  I88  1  0.16635739  0.83935058  0.33624222  1
  I  I89  1  0.16073614  0.83772816  0.66620517  1
  I  I90  1  0.50091057  0.16346879  0.00441669  1
  I  I91  1  0.49418038  0.16192384  0.32924583  1
  I  I92  1  0.50021131  0.16895051  0.66649459  1
  I  I93  1  0.49889717  0.49949870  0.00005512  1
  I  I94  1  0.49923333  0.49971599  0.33284987  1
  I  I95  1  0.50020281  0.49972034  0.66709572  1
  I  I96  1  0.50535274  0.83797653  0.00424083  1
  I  I97  1  0.49824227  0.83968692  0.32936927  1
  I  I98  1  0.50216422  0.83124981  0.66655022  1
  I  I99  1  0.83467414  0.16387667  0.00311385  1
  I  I100  1  0.83838239  0.16357314  0.33265381  1
  I  I101  1  0.84011588  0.16375884  0.66334212  1
  I  I102  1  0.83894543  0.49944164  -0.00311828  1
  I  I103  1  0.83212129  0.49968749  0.33356277  1
  I  I104  1  0.84113987  0.49931964  0.67033300  1
  I  I105  1  0.83158185  0.83691218  0.00291904  1
  I  I106  1  0.83569446  0.83735480  0.33319283  1
  I  I107  1  0.83742333  0.83679974  0.66353603  1
  I  I108  1  -0.00015728  0.16268589  0.16593720  1
  I  I109  1  0.00082603  0.16335221  0.49533669  1
  I  I110  1  0.00360485  0.16515631  0.83868576  1
  I  I111  1  -0.00001529  0.50119335  0.16635680  1
  I  I112  1  0.00000171  0.49963396  0.49879425  1
  I  I113  1  0.00160203  0.49918328  0.83441022  1
  I  I114  1  -0.00278603  0.83790311  0.16638846  1
  I  I115  1  0.00017429  0.83768412  0.49812705  1
  I  I116  1  0.00347257  0.83575708  0.83547970  1
  I  I117  1  0.33259860  0.16253193  0.16457898  1
  I  I118  1  0.32975571  0.16341420  0.50046455  1
  I  I119  1  0.32799778  0.16975345  0.83252351  1
  I  I120  1  0.33313450  0.50141340  0.16383697  1
  I  I121  1  0.33275970  0.49976717  0.50199307  1
  I  I122  1  0.32954031  0.49895366  0.83411453  1
  I  I123  1  0.33484407  0.83833093  0.16465941  1
  I  I124  1  0.32987556  0.83745760  0.50382454  1
  I  I125  1  0.32815741  0.83154755  0.82862368  1
  I  I126  1  0.66786816  0.16285289  0.17093170  1
  I  I127  1  0.67047683  0.16331527  0.49578399  1
  I  I128  1  0.66672830  0.17044899  0.83329801  1
  I  I129  1  0.66697654  0.49550229  0.16270006  1
  I  I130  1  0.66732437  0.49934733  0.50306488  1
  I  I131  1  0.66937617  0.49956854  0.83417238  1
  I  I132  1  0.66806406  0.84156667  0.17081421  1
  I  I133  1  0.67026133  0.83727192  0.49822300  1
  I  I134  1  0.66671580  0.82986771  0.83106141  1
