# generated using pymatgen
data_Cs27Sn13Pb14I81
_symmetry_space_group_name_H-M   'P 1'
_cell_length_a   18.97799231
_cell_length_b   18.99612431
_cell_length_c   19.00073544
_cell_angle_alpha   89.99990128
_cell_angle_beta   90.00176969
_cell_angle_gamma   90.00102913
_symmetry_Int_Tables_number   1
_chemical_formula_structural   Cs27Sn13Pb14I81
_chemical_formula_sum   'Cs27 Sn13 Pb14 I81'
_cell_volume   6849.92284981
_cell_formula_units_Z   1
loop_
 _symmetry_equiv_pos_site_id
 _symmetry_equiv_pos_as_xyz
  1  'x, y, z'
loop_
 _atom_site_type_symbol
 _atom_site_label
 _atom_site_symmetry_multiplicity
 _atom_site_fract_x
 _atom_site_fract_y
 _atom_site_fract_z
 _atom_site_occupancy
  Cs  Cs0  1  0.00228074  -0.00140734  -0.00126608  1
  Cs  Cs1  1  0.00047905  -0.00085146  0.33298873  1
  Cs  Cs2  1  0.00090993  0.00234007  0.66898742  1
  Cs  Cs3  1  -0.00486175  0.33502750  -0.00628910  1
  Cs  Cs4  1  -0.00294602  0.33569020  0.33950517  1
  Cs  Cs5  1  -0.00731098  0.34105140  0.66806952  1
  Cs  Cs6  1  -0.00028944  0.66729554  -0.00152778  1
  Cs  Cs7  1  -0.00475697  0.66613601  0.33512604  1
  Cs  Cs8  1  0.00064294  0.65678664  0.66826610  1
  Cs  Cs9  1  0.33182777  -0.00032356  -0.00054159  1
  Cs  Cs10  1  0.33151632  0.00176651  0.33336368  1
  Cs  Cs11  1  0.33422859  0.00055334  0.66687411  1
  Cs  Cs12  1  0.33498086  0.33221314  0.00111948  1
  Cs  Cs13  1  0.33526663  0.33190300  0.33376954  1
  Cs  Cs14  1  0.33344612  0.33358501  0.66552388  1
  Cs  Cs15  1  0.33253938  0.66824210  0.00047910  1
  Cs  Cs16  1  0.33209488  0.66664998  0.33186203  1
  Cs  Cs17  1  0.33657090  0.66468759  0.66658884  1
  Cs  Cs18  1  0.67030584  0.00206846  0.00082379  1
  Cs  Cs19  1  0.67840174  -0.00141747  0.33323352  1
  Cs  Cs20  1  0.66534877  -0.00178564  0.66432632  1
  Cs  Cs21  1  0.67015517  0.33436302  0.00596125  1
  Cs  Cs22  1  0.66760814  0.33360343  0.32450404  1
  Cs  Cs23  1  0.66766791  0.33188561  0.66803373  1
  Cs  Cs24  1  0.66676237  0.66531379  0.00344098  1
  Cs  Cs25  1  0.67648900  0.66856461  0.33224759  1
  Cs  Cs26  1  0.65995527  0.67137469  0.66294846  1
  Sn  Sn27  1  0.16773410  0.83319694  0.16690910  1
  Sn  Sn28  1  0.49925650  0.83385873  0.16710972  1
  Sn  Sn29  1  0.16706188  0.16719262  0.16656186  1
  Sn  Sn30  1  0.83434479  0.83338692  0.83285844  1
  Sn  Sn31  1  0.49944894  0.49897862  0.49997694  1
  Sn  Sn32  1  0.16698634  0.49972113  0.16654575  1
  Sn  Sn33  1  0.49909952  0.16753048  0.83292749  1
  Sn  Sn34  1  0.16604701  0.83363037  0.83268836  1
  Sn  Sn35  1  0.49932897  0.49879573  0.83314454  1
  Sn  Sn36  1  0.16753463  0.16646032  0.83281116  1
  Sn  Sn37  1  0.16709275  0.83358714  0.50049796  1
  Sn  Sn38  1  0.16721869  0.16618597  0.50066400  1
  Sn  Sn39  1  0.49940234  0.16731394  0.50032529  1
  Pb  Pb40  1  0.83303917  0.16485748  0.83313661  1
  Pb  Pb41  1  0.83748953  0.16657235  0.16652346  1
  Pb  Pb42  1  0.16842417  0.49951334  0.49807915  1
  Pb  Pb43  1  0.83450933  0.83348816  0.16445950  1
  Pb  Pb44  1  0.49806542  0.83416645  0.49724420  1
  Pb  Pb45  1  0.16869866  0.49963821  0.83504870  1
  Pb  Pb46  1  0.83706569  0.50002298  0.16644007  1
  Pb  Pb47  1  0.82904633  0.49977244  0.50023043  1
  Pb  Pb48  1  0.82931326  0.50296147  0.83316702  1
  Pb  Pb49  1  0.49836831  0.50206965  0.16702315  1
  Pb  Pb50  1  0.83317146  0.16669378  0.50027405  1
  Pb  Pb51  1  0.83730452  0.83347740  0.50322128  1
  Pb  Pb52  1  0.49846881  0.16434938  0.16694498  1
  Pb  Pb53  1  0.49934408  0.83409199  0.83498795  1
  I  I54  1  0.17068958  -0.00037132  0.16611924  1
  I  I55  1  0.17244176  0.00053707  0.49621598  1
  I  I56  1  0.16853165  0.00006955  0.83742469  1
  I  I57  1  0.16811390  0.33235712  0.16665445  1
  I  I58  1  0.16917068  0.32996568  0.49878818  1
  I  I59  1  0.16978294  0.33003509  0.83429344  1
  I  I60  1  0.17159212  0.66811010  0.16586676  1
  I  I61  1  0.16842426  0.66924757  0.49933242  1
  I  I62  1  0.16462735  0.66952377  0.83458533  1
  I  I63  1  0.49166479  -0.00308680  0.16451026  1
  I  I64  1  0.49626732  0.00320087  0.50543279  1
  I  I65  1  0.49801212  0.00293682  0.82983206  1
  I  I66  1  0.49782970  0.33308473  0.16632436  1
  I  I67  1  0.49190310  0.33218800  0.50429138  1
  I  I68  1  0.49246073  0.33212619  0.82999387  1
  I  I69  1  0.49171758  0.66965500  0.16451503  1
  I  I70  1  0.49742775  0.66487250  0.50465841  1
  I  I71  1  0.49981768  0.66505786  0.83049732  1
  I  I72  1  0.83272375  -0.00026581  0.16630820  1
  I  I73  1  0.82731876  -0.00021407  0.49949861  1
  I  I74  1  0.83437058  -0.00288479  0.83488384  1
  I  I75  1  0.83151197  0.33337154  0.16534827  1
  I  I76  1  0.84140790  0.33329794  0.50164686  1
  I  I77  1  0.83689211  0.33352314  0.83318603  1
  I  I78  1  0.83396709  0.66697508  0.16577113  1
  I  I79  1  0.83357037  0.66685059  0.49973117  1
  I  I80  1  0.84199398  0.67037706  0.83462337  1
  I  I81  1  0.17115724  0.16239979  -0.00059864  1
  I  I82  1  0.17126318  0.16275844  0.33368875  1
  I  I83  1  0.17195244  0.15677685  0.66694295  1
  I  I84  1  0.17076133  0.50158186  0.00277115  1
  I  I85  1  0.17055945  0.50126392  0.33035376  1
  I  I86  1  0.16615114  0.50199021  0.66664568  1
  I  I87  1  0.16667061  0.83609519  0.00000185  1
  I  I88  1  0.17318508  0.83639465  0.33282813  1
  I  I89  1  0.16289121  0.84110157  0.66714692  1
  I  I90  1  0.49499128  0.16880672  -0.00280358  1
  I  I91  1  0.49359979  0.17081691  0.33628074  1
  I  I92  1  0.49121826  0.16964173  0.66701305  1
  I  I93  1  0.49790114  0.49749907  -0.00236328  1
  I  I94  1  0.49633472  0.49559515  0.33593755  1
  I  I95  1  0.49744448  0.49822618  0.66692042  1
  I  I96  1  0.49296301  0.83263267  0.00242608  1
  I  I97  1  0.49125767  0.83264510  0.32994591  1
  I  I98  1  0.50006900  0.83174074  0.66649766  1
  I  I99  1  0.83199583  0.16563771  -0.00025721  1
  I  I100  1  0.83197062  0.16560466  0.33340672  1
  I  I101  1  0.83858845  0.16487546  0.66678300  1
  I  I102  1  0.83058005  0.50045479  -0.00033080  1
  I  I103  1  0.83176953  0.50155260  0.33328461  1
  I  I104  1  0.83993710  0.50076466  0.66693156  1
  I  I105  1  0.83974043  0.83411931  -0.00290377  1
  I  I106  1  0.83250410  0.83267463  0.33351261  1
  I  I107  1  0.83591114  0.83475069  0.67066601  1
  I  I108  1  0.00638971  0.16144301  0.16615551  1
  I  I109  1  0.00426772  0.16078744  0.49852387  1
  I  I110  1  0.00380090  0.16339920  0.83468552  1
  I  I111  1  0.00535349  0.50360342  0.16637425  1
  I  I112  1  0.00019320  0.50042601  0.49747505  1
  I  I113  1  0.00005450  0.49785941  0.83563539  1
  I  I114  1  0.00453942  0.83422594  0.16853741  1
  I  I115  1  0.00557580  0.84001982  0.49209087  1
  I  I116  1  0.00307973  0.83960855  0.83641038  1
  I  I117  1  0.32963070  0.16687375  0.16618550  1
  I  I118  1  0.33224172  0.16636725  0.50083686  1
  I  I119  1  0.33216404  0.16356655  0.83314778  1
  I  I120  1  0.33036765  0.49975605  0.16619760  1
  I  I121  1  0.33612553  0.49898051  0.50389096  1
  I  I122  1  0.33638420  0.50196027  0.83036297  1
  I  I123  1  0.33046299  0.83308792  0.16309519  1
  I  I124  1  0.32971169  0.83483606  0.50478100  1
  I  I125  1  0.32992940  0.83457477  0.83335617  1
  I  I126  1  0.66643710  0.16397179  0.16653064  1
  I  I127  1  0.66273967  0.17005409  0.50630634  1
  I  I128  1  0.66291972  0.16769294  0.82797902  1
  I  I129  1  0.66638651  0.50335321  0.16683951  1
  I  I130  1  0.66094254  0.49514428  0.50425352  1
  I  I131  1  0.66148185  0.49519332  0.83040780  1
  I  I132  1  0.66428535  0.83233275  0.16434782  1
  I  I133  1  0.66667180  0.83272758  0.49912666  1
  I  I134  1  0.66808493  0.83238222  0.83718517  1
