# generated using pymatgen
data_Cs27Sn14Pb13I81
_symmetry_space_group_name_H-M   'P 1'
_cell_length_a   18.96053591
_cell_length_b   18.96035654
_cell_length_c   18.96040644
_cell_angle_alpha   90.00109155
_cell_angle_beta   89.99857938
_cell_angle_gamma   89.99993618
_symmetry_Int_Tables_number   1
_chemical_formula_structural   Cs27Sn14Pb13I81
_chemical_formula_sum   'Cs27 Sn14 Pb13 I81'
_cell_volume   6816.23807048
_cell_formula_units_Z   1
loop_
 _symmetry_equiv_pos_site_id
 _symmetry_equiv_pos_as_xyz
  1  'x, y, z'
loop_
 _atom_site_type_symbol
 _atom_site_label
 _atom_site_symmetry_multiplicity
 _atom_site_fract_x
 _atom_site_fract_y
 _atom_site_fract_z
 _atom_site_occupancy
  Cs  Cs0  1  -0.00029344  -0.00173117  0.00228424  1
  Cs  Cs1  1  -0.00111765  0.00188431  0.33048854  1
  Cs  Cs2  1  -0.00106884  0.00532825  0.66687175  1
  Cs  Cs3  1  -0.00099016  0.33197601  -0.00092720  1
  Cs  Cs4  1  -0.00071936  0.33206288  0.33432240  1
  Cs  Cs5  1  -0.00075777  0.33264147  0.66565722  1
  Cs  Cs6  1  -0.00308260  0.67136194  -0.00091842  1
  Cs  Cs7  1  0.00774162  0.66763903  0.33101820  1
  Cs  Cs8  1  0.00037794  0.66416626  0.66975820  1
  Cs  Cs9  1  0.33588375  0.00353327  -0.00438238  1
  Cs  Cs10  1  0.33301854  -0.00355722  0.33569968  1
  Cs  Cs11  1  0.33379553  -0.00187729  0.66932869  1
  Cs  Cs12  1  0.33665203  0.33122922  0.00060748  1
  Cs  Cs13  1  0.33324110  0.33627541  0.33004345  1
  Cs  Cs14  1  0.33247048  0.33317574  0.66914162  1
  Cs  Cs15  1  0.33375473  0.66568632  0.00045367  1
  Cs  Cs16  1  0.32531836  0.66681525  0.33368828  1
  Cs  Cs17  1  0.33430054  0.66776788  0.66516250  1
  Cs  Cs18  1  0.66526102  -0.00179336  0.00107965  1
  Cs  Cs19  1  0.66755115  0.00010373  0.33643043  1
  Cs  Cs20  1  0.66618366  -0.00023638  0.66168646  1
  Cs  Cs21  1  0.66431986  0.33359917  0.00298814  1
  Cs  Cs22  1  0.66739501  0.33294828  0.33307352  1
  Cs  Cs23  1  0.66832867  0.33609391  0.66399528  1
  Cs  Cs24  1  0.66873208  0.66842553  -0.00231164  1
  Cs  Cs25  1  0.66538843  0.66617522  0.33466969  1
  Cs  Cs26  1  0.66569403  0.66551243  0.66827842  1
  Sn  Sn27  1  0.83374612  0.16738914  0.16551502  1
  Sn  Sn28  1  0.16647882  0.16690256  0.16742276  1
  Sn  Sn29  1  0.83307620  0.50148987  0.49883271  1
  Sn  Sn30  1  0.49987934  0.83298048  0.16623603  1
  Sn  Sn31  1  0.83333430  0.49977600  0.16758589  1
  Sn  Sn32  1  0.50024392  0.49927329  0.50039958  1
  Sn  Sn33  1  0.16713166  0.83250753  0.83328446  1
  Sn  Sn34  1  0.49914736  0.50060481  0.83276581  1
  Sn  Sn35  1  0.83259244  0.16664194  0.83457798  1
  Sn  Sn36  1  0.16833576  0.16693485  0.49910312  1
  Sn  Sn37  1  0.49935722  0.83243663  0.83415185  1
  Sn  Sn38  1  0.83397136  0.83155800  0.49991280  1
  Sn  Sn39  1  0.49840093  0.16777494  0.50001616  1
  Sn  Sn40  1  0.16744348  0.50065350  0.83344419  1
  Pb  Pb41  1  0.83289511  0.83564652  0.83137024  1
  Pb  Pb42  1  0.83328220  0.16741468  0.49924696  1
  Pb  Pb43  1  0.16676970  0.49817560  0.50166782  1
  Pb  Pb44  1  0.50174716  0.50208822  0.16687687  1
  Pb  Pb45  1  0.83285070  0.49839375  0.83335312  1
  Pb  Pb46  1  0.16911997  0.83578475  0.16414839  1
  Pb  Pb47  1  0.50021415  0.16488923  0.16925837  1
  Pb  Pb48  1  0.16520856  0.16674739  0.83360674  1
  Pb  Pb49  1  0.50090028  0.83241919  0.50039518  1
  Pb  Pb50  1  0.83186767  0.83327585  0.16881907  1
  Pb  Pb51  1  0.16386896  0.83574981  0.50235575  1
  Pb  Pb52  1  0.50250450  0.16691595  0.83116377  1
  Pb  Pb53  1  0.16407298  0.49795347  0.16370953  1
  I  I54  1  0.15920618  0.00370261  0.16876291  1
  I  I55  1  0.16993027  0.00382852  0.49943675  1
  I  I56  1  0.16983907  -0.00209332  0.83265622  1
  I  I57  1  0.16544393  0.32983478  0.16815860  1
  I  I58  1  0.16452452  0.33008278  0.50017654  1
  I  I59  1  0.16926490  0.33556498  0.83261264  1
  I  I60  1  0.16570911  0.66667771  0.16744033  1
  I  I61  1  0.16819284  0.66661066  0.49982037  1
  I  I62  1  0.16925527  0.66650775  0.83199176  1
  I  I63  1  0.50189095  -0.00281060  0.16181492  1
  I  I64  1  0.50016870  0.00186043  0.50000109  1
  I  I65  1  0.49713884  -0.00251284  0.83494063  1
  I  I66  1  0.49947678  0.33338390  0.16455222  1
  I  I67  1  0.50371804  0.33430874  0.50524598  1
  I  I68  1  0.49705204  0.33620781  0.83052394  1
  I  I69  1  0.50339321  0.66968387  0.16639476  1
  I  I70  1  0.50473989  0.66365801  0.50220817  1
  I  I71  1  0.49748396  0.66630292  0.83077375  1
  I  I72  1  0.83588483  0.00285180  0.16518480  1
  I  I73  1  0.83216272  -0.00111622  0.50159057  1
  I  I74  1  0.83461229  0.00333481  0.83560792  1
  I  I75  1  0.83542763  0.33263833  0.16871927  1
  I  I76  1  0.83169410  0.33585036  0.49992021  1
  I  I77  1  0.83461341  0.33065833  0.83160694  1
  I  I78  1  0.83024562  0.66409657  0.16849112  1
  I  I79  1  0.82613880  0.66495795  0.49699191  1
  I  I80  1  0.83403665  0.66662103  0.83475765  1
  I  I81  1  0.16237739  0.16635260  0.00220087  1
  I  I82  1  0.16296034  0.16694765  0.33342540  1
  I  I83  1  0.16702583  0.16656700  0.66468472  1
  I  I84  1  0.17136536  0.50071106  -0.00419748  1
  I  I85  1  0.16843738  0.49978045  0.33317785  1
  I  I86  1  0.16524370  0.50014429  0.66973061  1
  I  I87  1  0.16617432  0.83193886  -0.00383874  1
  I  I88  1  0.16789409  0.83346904  0.33329595  1
  I  I89  1  0.17335737  0.83257314  0.67020953  1
  I  I90  1  0.49881006  0.16793943  -0.00002019  1
  I  I91  1  0.50234501  0.17021243  0.33718041  1
  I  I92  1  0.49735035  0.16543518  0.66322692  1
  I  I93  1  0.49837383  0.50197716  -0.00286910  1
  I  I94  1  0.50433614  0.49689080  0.33627190  1
  I  I95  1  0.50304522  0.50143536  0.66664106  1
  I  I96  1  0.49837675  0.82966703  -0.00166125  1
  I  I97  1  0.50460638  0.83571927  0.33181537  1
  I  I98  1  0.49803324  0.83289934  0.66939830  1
  I  I99  1  0.83870899  0.17127502  0.00130254  1
  I  I100  1  0.83431960  0.16740514  0.33086864  1
  I  I101  1  0.83406284  0.16626461  0.66777918  1
  I  I102  1  0.83350573  0.49590267  0.00214229  1
  I  I103  1  0.82708975  0.49656959  0.33430790  1
  I  I104  1  0.83184355  0.50058837  0.66417107  1
  I  I105  1  0.83401606  0.83248294  -0.00007915  1
  I  I106  1  0.82925065  0.83578571  0.33654501  1
  I  I107  1  0.83062381  0.83065724  0.66366426  1
  I  I108  1  -0.00092802  0.16945911  0.16891778  1
  I  I109  1  0.00170170  0.16595169  0.50043845  1
  I  I110  1  -0.00260874  0.16721472  0.83111414  1
  I  I111  1  -0.00398507  0.49812347  0.17183691  1
  I  I112  1  -0.00278136  0.50069892  0.49890450  1
  I  I113  1  0.00190975  0.50178859  0.83303615  1
  I  I114  1  0.00013801  0.83286834  0.16593895  1
  I  I115  1  -0.00385230  0.82995249  0.50113644  1
  I  I116  1  0.00219062  0.83065897  0.83066725  1
  I  I117  1  0.33104480  0.16444779  0.16849152  1
  I  I118  1  0.33354774  0.17091892  0.49628254  1
  I  I119  1  0.33360590  0.16647188  0.83461021  1
  I  I120  1  0.33325334  0.49929039  0.16850389  1
  I  I121  1  0.33620324  0.49726041  0.50319516  1
  I  I122  1  0.33444121  0.50279935  0.82740353  1
  I  I123  1  0.33685132  0.83423874  0.16697615  1
  I  I124  1  0.33311631  0.83296130  0.49858389  1
  I  I125  1  0.33422051  0.83136159  0.83588602  1
  I  I126  1  0.66950367  0.16900346  0.16478899  1
  I  I127  1  0.66483730  0.16685002  0.50124768  1
  I  I128  1  0.67011665  0.16681331  0.83653595  1
  I  I129  1  0.66985689  0.49325467  0.16643065  1
  I  I130  1  0.66647166  0.49720276  0.50285379  1
  I  I131  1  0.66387449  0.50308569  0.83138696  1
  I  I132  1  0.66409486  0.83553265  0.16054001  1
  I  I133  1  0.66887163  0.83605166  0.50202941  1
  I  I134  1  0.66370609  0.82987206  0.83509923  1
