# generated using pymatgen
data_Cs27Sn14Pb13I81
_symmetry_space_group_name_H-M   'P 1'
_cell_length_a   18.97978378
_cell_length_b   18.98165599
_cell_length_c   18.96948699
_cell_angle_alpha   89.99997321
_cell_angle_beta   89.99881675
_cell_angle_gamma   90.00098668
_symmetry_Int_Tables_number   1
_chemical_formula_structural   Cs27Sn14Pb13I81
_chemical_formula_sum   'Cs27 Sn14 Pb13 I81'
_cell_volume   6834.09395087
_cell_formula_units_Z   1
loop_
 _symmetry_equiv_pos_site_id
 _symmetry_equiv_pos_as_xyz
  1  'x, y, z'
loop_
 _atom_site_type_symbol
 _atom_site_label
 _atom_site_symmetry_multiplicity
 _atom_site_fract_x
 _atom_site_fract_y
 _atom_site_fract_z
 _atom_site_occupancy
  Cs  Cs0  1  0.00291013  0.00327355  0.00083297  1
  Cs  Cs1  1  0.00104777  -0.00259697  0.33214685  1
  Cs  Cs2  1  -0.00213446  -0.00001502  0.66741248  1
  Cs  Cs3  1  0.00682497  0.33862392  -0.00496055  1
  Cs  Cs4  1  -0.00130868  0.33328308  0.33407260  1
  Cs  Cs5  1  -0.00171142  0.32967692  0.67162407  1
  Cs  Cs6  1  -0.00296833  0.65716767  0.00676313  1
  Cs  Cs7  1  0.00112944  0.66834394  0.32840294  1
  Cs  Cs8  1  0.00074254  0.66943777  0.66653672  1
  Cs  Cs9  1  0.33347272  0.00379763  0.00597791  1
  Cs  Cs10  1  0.33038035  0.00062107  0.32768088  1
  Cs  Cs11  1  0.33407656  -0.00295141  0.66646677  1
  Cs  Cs12  1  0.32651648  0.33034017  0.00182580  1
  Cs  Cs13  1  0.33472377  0.33272391  0.33452408  1
  Cs  Cs14  1  0.33495767  0.33407686  0.66511680  1
  Cs  Cs15  1  0.33338562  0.66572560  -0.00173693  1
  Cs  Cs16  1  0.33068599  0.66768280  0.33613157  1
  Cs  Cs17  1  0.33511443  0.66813881  0.66581688  1
  Cs  Cs18  1  0.66475456  -0.00273576  0.00386170  1
  Cs  Cs19  1  0.66781841  0.00219786  0.32972071  1
  Cs  Cs20  1  0.66731231  -0.00073570  0.66653106  1
  Cs  Cs21  1  0.66826874  0.33479107  0.00023417  1
  Cs  Cs22  1  0.66608395  0.33208768  0.33548440  1
  Cs  Cs23  1  0.66661454  0.33194924  0.66512169  1
  Cs  Cs24  1  0.66922196  0.66798844  0.00122571  1
  Cs  Cs25  1  0.66704567  0.66570285  0.33361801  1
  Cs  Cs26  1  0.66461278  0.66764059  0.66667669  1
  Sn  Sn27  1  0.83340020  0.16728945  0.16615550  1
  Sn  Sn28  1  0.16627449  0.49913942  0.50055847  1
  Sn  Sn29  1  0.16660625  0.83302065  0.83349601  1
  Sn  Sn30  1  0.50008593  0.83368884  0.83253821  1
  Sn  Sn31  1  0.50020716  0.16647400  0.83263377  1
  Sn  Sn32  1  0.50087501  0.83372589  0.50013216  1
  Sn  Sn33  1  0.49914357  0.16610378  0.50059156  1
  Sn  Sn34  1  0.50010442  0.49981139  0.83342729  1
  Sn  Sn35  1  0.83342694  0.83316161  0.83288260  1
  Sn  Sn36  1  0.16745600  0.16713646  0.50051255  1
  Sn  Sn37  1  0.83231175  0.83248987  0.50066153  1
  Sn  Sn38  1  0.50013275  0.50015321  0.50023643  1
  Sn  Sn39  1  0.49997450  0.50008409  0.16670894  1
  Sn  Sn40  1  0.83356719  0.50083928  0.50044471  1
  Pb  Pb41  1  0.16385898  0.16698981  0.16944680  1
  Pb  Pb42  1  0.16935833  0.49992944  0.16946905  1
  Pb  Pb43  1  0.16664965  0.83339257  0.50108349  1
  Pb  Pb44  1  0.83121990  0.50202206  0.83095831  1
  Pb  Pb45  1  0.50113785  0.16900039  0.16677087  1
  Pb  Pb46  1  0.83314985  0.83479839  0.16678842  1
  Pb  Pb47  1  0.83134867  0.49787945  0.16910846  1
  Pb  Pb48  1  0.16898301  0.50200591  0.83066425  1
  Pb  Pb49  1  0.16920435  0.16468198  0.83080396  1
  Pb  Pb50  1  0.83315370  0.16621156  0.49923753  1
  Pb  Pb51  1  0.49992588  0.83088168  0.16694496  1
  Pb  Pb52  1  0.16674433  0.83311494  0.16272454  1
  Pb  Pb53  1  0.83095967  0.16441857  0.83568946  1
  I  I54  1  0.16752665  0.00024509  0.17048078  1
  I  I55  1  0.17006904  0.00219292  0.50193015  1
  I  I56  1  0.16892898  -0.00319765  0.82883497  1
  I  I57  1  0.16662023  0.33344458  0.16373979  1
  I  I58  1  0.17152599  0.33383117  0.49926442  1
  I  I59  1  0.16787522  0.33340763  0.83469632  1
  I  I60  1  0.16623029  0.66635769  0.17066423  1
  I  I61  1  0.17066128  0.66423563  0.50190297  1
  I  I62  1  0.17055723  0.66982055  0.82867406  1
  I  I63  1  0.50107130  0.00020190  0.16674540  1
  I  I64  1  0.50053249  -0.00024343  0.50747895  1
  I  I65  1  0.50057275  -0.00092526  0.82535318  1
  I  I66  1  0.50227615  0.33658677  0.16920779  1
  I  I67  1  0.50001470  0.33407394  0.50220786  1
  I  I68  1  0.50076237  0.33364877  0.82862329  1
  I  I69  1  0.50135833  0.66304943  0.16837805  1
  I  I70  1  0.50023070  0.66617461  0.50226333  1
  I  I71  1  0.49965578  0.66721045  0.82970290  1
  I  I72  1  0.83042284  0.00232949  0.17036154  1
  I  I73  1  0.83005895  -0.00298698  0.50236167  1
  I  I74  1  0.83037950  -0.00384700  0.82522342  1
  I  I75  1  0.82967540  0.33070363  0.17100001  1
  I  I76  1  0.82961673  0.33564055  0.49646221  1
  I  I77  1  0.83101873  0.33342637  0.83257927  1
  I  I78  1  0.83256296  0.66637937  0.16527763  1
  I  I79  1  0.82875079  0.66698106  0.50339036  1
  I  I80  1  0.82990735  0.67036563  0.83174320  1
  I  I81  1  0.16791465  0.16384312  -0.00033550  1
  I  I82  1  0.17490257  0.16881854  0.33767633  1
  I  I83  1  0.16733911  0.17124229  0.66285822  1
  I  I84  1  0.16820232  0.50211401  -0.00036425  1
  I  I85  1  0.16958407  0.49799538  0.33801200  1
  I  I86  1  0.17008921  0.49672283  0.66253135  1
  I  I87  1  0.16973394  0.83456068  -0.00544472  1
  I  I88  1  0.16656937  0.83356761  0.33368073  1
  I  I89  1  0.16861834  0.83288916  0.66886476  1
  I  I90  1  0.50313849  0.16494769  -0.00297912  1
  I  I91  1  0.49827853  0.16728004  0.33686675  1
  I  I92  1  0.49763606  0.17004738  0.66543606  1
  I  I93  1  0.50115893  0.50131288  -0.00107653  1
  I  I94  1  0.50040610  0.49930352  0.33579094  1
  I  I95  1  0.49972968  0.50080345  0.66539950  1
  I  I96  1  0.50082055  0.83365013  -0.00382723  1
  I  I97  1  0.50494742  0.83325941  0.33721016  1
  I  I98  1  0.50067569  0.82970269  0.66642075  1
  I  I99  1  0.82867366  0.16389320  0.00295255  1
  I  I100  1  0.83007260  0.16537098  0.33199329  1
  I  I101  1  0.83469478  0.16805103  0.66666095  1
  I  I102  1  0.83039262  0.50145930  -0.00018346  1
  I  I103  1  0.83014451  0.50594820  0.33764315  1
  I  I104  1  0.82993603  0.49966082  0.66253742  1
  I  I105  1  0.83016435  0.83630760  -0.00330841  1
  I  I106  1  0.82801722  0.83073197  0.33699607  1
  I  I107  1  0.83079280  0.83048908  0.66579483  1
  I  I108  1  -0.00349026  0.16462689  0.16993005  1
  I  I109  1  0.00215508  0.16958202  0.49649644  1
  I  I110  1  0.00013124  0.16365963  0.83271654  1
  I  I111  1  -0.00005211  0.49973033  0.16819367  1
  I  I112  1  -0.00022415  0.50029627  0.49946808  1
  I  I113  1  0.00000699  0.50208089  0.83204025  1
  I  I114  1  -0.00019171  0.83427904  0.16972714  1
  I  I115  1  -0.00265636  0.83118344  0.50437581  1
  I  I116  1  -0.00071904  0.83508731  0.82579120  1
  I  I117  1  0.33332490  0.16739361  0.16515862  1
  I  I118  1  0.33528322  0.17004298  0.50334846  1
  I  I119  1  0.33769173  0.16505591  0.83233681  1
  I  I120  1  0.33752429  0.49883546  0.16836542  1
  I  I121  1  0.33524787  0.49991950  0.50000926  1
  I  I122  1  0.33775757  0.50289166  0.83020578  1
  I  I123  1  0.33366258  0.83431563  0.16900021  1
  I  I124  1  0.33650600  0.83028243  0.50467841  1
  I  I125  1  0.33546213  0.83211774  0.82744163  1
  I  I126  1  0.66840561  0.16652401  0.17056223  1
  I  I127  1  0.66344705  0.16925760  0.50209014  1
  I  I128  1  0.66247852  0.16563716  0.82541803  1
  I  I129  1  0.66338045  0.49976813  0.16947007  1
  I  I130  1  0.66494327  0.50040501  0.49989029  1
  I  I131  1  0.66240801  0.50201273  0.83019813  1
  I  I132  1  0.66642954  0.83381747  0.16298205  1
  I  I133  1  0.66551554  0.83034337  0.50726798  1
  I  I134  1  0.66523688  0.83309260  0.82870399  1
