# generated using pymatgen
data_Cs27Sn13Pb14I81
_symmetry_space_group_name_H-M   'P 1'
_cell_length_a   18.97366827
_cell_length_b   18.97724719
_cell_length_c   18.97821162
_cell_angle_alpha   90.00412563
_cell_angle_beta   89.99704284
_cell_angle_gamma   89.99606191
_symmetry_Int_Tables_number   1
_chemical_formula_structural   Cs27Sn13Pb14I81
_chemical_formula_sum   'Cs27 Sn13 Pb14 I81'
_cell_volume   6833.44652187
_cell_formula_units_Z   1
loop_
 _symmetry_equiv_pos_site_id
 _symmetry_equiv_pos_as_xyz
  1  'x, y, z'
loop_
 _atom_site_type_symbol
 _atom_site_label
 _atom_site_symmetry_multiplicity
 _atom_site_fract_x
 _atom_site_fract_y
 _atom_site_fract_z
 _atom_site_occupancy
  Cs  Cs0  1  -0.00060440  -0.00375192  0.00176043  1
  Cs  Cs1  1  0.00190701  -0.00364969  0.32732826  1
  Cs  Cs2  1  -0.00210402  0.00630266  0.67041512  1
  Cs  Cs3  1  0.00025099  0.33380494  -0.00049033  1
  Cs  Cs4  1  -0.00143857  0.33583748  0.33259811  1
  Cs  Cs5  1  0.00077582  0.33334380  0.66715241  1
  Cs  Cs6  1  -0.00149221  0.66642803  0.00132814  1
  Cs  Cs7  1  -0.00011211  0.66684748  0.33407152  1
  Cs  Cs8  1  0.00222748  0.66333292  0.66364803  1
  Cs  Cs9  1  0.32987960  0.00430801  0.00206933  1
  Cs  Cs10  1  0.33569008  -0.00078224  0.33155022  1
  Cs  Cs11  1  0.33527518  -0.00063482  0.66588927  1
  Cs  Cs12  1  0.33513923  0.33254908  0.00071416  1
  Cs  Cs13  1  0.33573933  0.33054464  0.32976730  1
  Cs  Cs14  1  0.32883729  0.33303878  0.66971525  1
  Cs  Cs15  1  0.33861478  0.66427637  -0.00291972  1
  Cs  Cs16  1  0.33180543  0.66995404  0.33864086  1
  Cs  Cs17  1  0.33415644  0.67032318  0.66462586  1
  Cs  Cs18  1  0.67171129  -0.00729153  -0.00331322  1
  Cs  Cs19  1  0.66313533  0.00153087  0.33735087  1
  Cs  Cs20  1  0.66605654  0.00092941  0.66520338  1
  Cs  Cs21  1  0.66458477  0.33624657  0.00242771  1
  Cs  Cs22  1  0.66564552  0.33218450  0.33332028  1
  Cs  Cs23  1  0.66925896  0.33130644  0.66423510  1
  Cs  Cs24  1  0.66331804  0.66853409  -0.00063421  1
  Cs  Cs25  1  0.66882805  0.66555087  0.33297642  1
  Cs  Cs26  1  0.66368019  0.66779843  0.66635580  1
  Sn  Sn27  1  0.50040221  0.49961696  0.50017659  1
  Sn  Sn28  1  0.16738757  0.16658814  0.83270539  1
  Sn  Sn29  1  0.83361669  0.49997104  0.83344510  1
  Sn  Sn30  1  0.83375436  0.83308662  0.50035817  1
  Sn  Sn31  1  0.50008514  0.16695788  0.83339532  1
  Sn  Sn32  1  0.16599026  0.50042584  0.83432486  1
  Sn  Sn33  1  0.83236005  0.50069185  0.50012375  1
  Sn  Sn34  1  0.16639443  0.83305714  0.83328569  1
  Sn  Sn35  1  0.49978100  0.83324677  0.16668600  1
  Sn  Sn36  1  0.83327998  0.16712279  0.16658490  1
  Sn  Sn37  1  0.16651856  0.16669235  0.49980136  1
  Sn  Sn38  1  0.16641139  0.50000677  0.16599042  1
  Sn  Sn39  1  0.83392626  0.49924507  0.16637924  1
  Pb  Pb40  1  0.16436421  0.83621798  0.50217136  1
  Pb  Pb41  1  0.50275193  0.16451521  0.16426461  1
  Pb  Pb42  1  0.49769488  0.16880320  0.50190676  1
  Pb  Pb43  1  0.16508012  0.16862332  0.16609565  1
  Pb  Pb44  1  0.83193486  0.83255552  0.16844211  1
  Pb  Pb45  1  0.83531228  0.16709154  0.49799026  1
  Pb  Pb46  1  0.16868471  0.83025158  0.16456483  1
  Pb  Pb47  1  0.16635073  0.49861477  0.49997733  1
  Pb  Pb48  1  0.50192890  0.83153421  0.49847883  1
  Pb  Pb49  1  0.49979683  0.49847844  0.83128392  1
  Pb  Pb50  1  0.83374983  0.16879949  0.83533369  1
  Pb  Pb51  1  0.49772775  0.83584373  0.83480441  1
  Pb  Pb52  1  0.49994867  0.50129721  0.16866878  1
  Pb  Pb53  1  0.83535048  0.83044642  0.83094472  1
  I  I54  1  0.16483749  0.00000905  0.16587074  1
  I  I55  1  0.16472068  0.00382875  0.50537416  1
  I  I56  1  0.17163270  0.00101643  0.82800750  1
  I  I57  1  0.16501885  0.33672613  0.16193968  1
  I  I58  1  0.16452233  0.33109311  0.50655656  1
  I  I59  1  0.16630563  0.33379926  0.83252452  1
  I  I60  1  0.15964438  0.66228341  0.16335331  1
  I  I61  1  0.16830408  0.66652452  0.50081326  1
  I  I62  1  0.16132109  0.66512160  0.83799496  1
  I  I63  1  0.50105747  -0.00281580  0.16699716  1
  I  I64  1  0.50142222  0.00013899  0.49973682  1
  I  I65  1  0.49507091  0.00364205  0.83370514  1
  I  I66  1  0.49893366  0.33337689  0.16718880  1
  I  I67  1  0.50759311  0.33653597  0.49859734  1
  I  I68  1  0.49340475  0.33086715  0.83355299  1
  I  I69  1  0.50188186  0.66875128  0.16596928  1
  I  I70  1  0.50048261  0.66342332  0.50080126  1
  I  I71  1  0.49907654  0.66659536  0.83326355  1
  I  I72  1  0.83225416  0.00193213  0.16807177  1
  I  I73  1  0.83585206  -0.00195790  0.49765163  1
  I  I74  1  0.83417947  0.00002942  0.83388200  1
  I  I75  1  0.83671846  0.33561654  0.16857832  1
  I  I76  1  0.83154679  0.33671242  0.50126419  1
  I  I77  1  0.83906720  0.33706643  0.82871610  1
  I  I78  1  0.83606173  0.66302948  0.16578686  1
  I  I79  1  0.83092895  0.66431638  0.49791188  1
  I  I80  1  0.83781875  0.66212844  0.83824944  1
  I  I81  1  0.16925391  0.16636570  -0.00329391  1
  I  I82  1  0.16350664  0.17036824  0.33512583  1
  I  I83  1  0.16846828  0.16991268  0.66850837  1
  I  I84  1  0.15918822  0.49808822  -0.00120756  1
  I  I85  1  0.16332896  0.49737422  0.33112552  1
  I  I86  1  0.16340657  0.49983005  0.66970217  1
  I  I87  1  0.16552185  0.83873693  -0.00339761  1
  I  I88  1  0.16702946  0.83355708  0.33331214  1
  I  I89  1  0.16697412  0.82673045  0.67012806  1
  I  I90  1  0.49159399  0.16895085  -0.00324410  1
  I  I91  1  0.49858850  0.16637057  0.33325794  1
  I  I92  1  0.49877605  0.16695739  0.66983434  1
  I  I93  1  0.50203875  0.50033845  -0.00009556  1
  I  I94  1  0.50384910  0.50039907  0.33632459  1
  I  I95  1  0.50434815  0.49963049  0.66363682  1
  I  I96  1  0.50242752  0.83082881  0.00239712  1
  I  I97  1  0.49991217  0.83281270  0.33079560  1
  I  I98  1  0.49998403  0.83323617  0.66668508  1
  I  I99  1  0.83498589  0.17227999  0.00302076  1
  I  I100  1  0.83545382  0.17292801  0.33040151  1
  I  I101  1  0.83263104  0.16769862  0.66685529  1
  I  I102  1  0.83899696  0.49482783  0.00021773  1
  I  I103  1  0.83410564  0.50001967  0.33312106  1
  I  I104  1  0.83456165  0.50379173  0.66662066  1
  I  I105  1  0.83276129  0.83327681  -0.00014161  1
  I  I106  1  0.83358855  0.82715903  0.33607067  1
  I  I107  1  0.83338865  0.82821977  0.66331066  1
  I  I108  1  -0.00282958  0.16883868  0.16538794  1
  I  I109  1  0.00288563  0.16977259  0.50812717  1
  I  I110  1  0.00318904  0.16664703  0.83034360  1
  I  I111  1  -0.00106136  0.49688663  0.16764631  1
  I  I112  1  -0.00289424  0.50192828  0.49987464  1
  I  I113  1  0.00060083  0.49765412  0.83189692  1
  I  I114  1  0.00002557  0.83484593  0.16692185  1
  I  I115  1  -0.00315000  0.82422608  0.49818870  1
  I  I116  1  0.00330172  0.83882077  0.83424461  1
  I  I117  1  0.33324345  0.16774442  0.16817408  1
  I  I118  1  0.32981364  0.16942769  0.50166324  1
  I  I119  1  0.33125631  0.16936428  0.83024474  1
  I  I120  1  0.33067661  0.50099304  0.16263599  1
  I  I121  1  0.33499191  0.49760477  0.49994370  1
  I  I122  1  0.32992441  0.50028061  0.83635700  1
  I  I123  1  0.33601682  0.83226920  0.16694753  1
  I  I124  1  0.33315987  0.83153332  0.49969483  1
  I  I125  1  0.32968976  0.82709943  0.83310352  1
  I  I126  1  0.67032436  0.17489100  0.16660780  1
  I  I127  1  0.66686614  0.16538172  0.50101789  1
  I  I128  1  0.66481387  0.16939726  0.83555605  1
  I  I129  1  0.66994403  0.49793228  0.16473367  1
  I  I130  1  0.66876052  0.50291418  0.49979974  1
  I  I131  1  0.66953561  0.49739418  0.83569497  1
  I  I132  1  0.66445417  0.83149044  0.16626791  1
  I  I133  1  0.66998574  0.83152254  0.49977366  1
  I  I134  1  0.66679741  0.83401492  0.83375079  1
