# generated using pymatgen
data_Cs27Sn13Pb14I81
_symmetry_space_group_name_H-M   'P 1'
_cell_length_a   18.98155949
_cell_length_b   18.97734903
_cell_length_c   18.97492938
_cell_angle_alpha   89.99961429
_cell_angle_beta   89.99972624
_cell_angle_gamma   89.99969017
_symmetry_Int_Tables_number   1
_chemical_formula_structural   Cs27Sn13Pb14I81
_chemical_formula_sum   'Cs27 Sn13 Pb14 I81'
_cell_volume   6835.14298194
_cell_formula_units_Z   1
loop_
 _symmetry_equiv_pos_site_id
 _symmetry_equiv_pos_as_xyz
  1  'x, y, z'
loop_
 _atom_site_type_symbol
 _atom_site_label
 _atom_site_symmetry_multiplicity
 _atom_site_fract_x
 _atom_site_fract_y
 _atom_site_fract_z
 _atom_site_occupancy
  Cs  Cs0  1  -0.00006304  -0.00174570  -0.00028750  1
  Cs  Cs1  1  0.00146276  0.00056966  0.33298145  1
  Cs  Cs2  1  -0.00136881  0.00022727  0.66897899  1
  Cs  Cs3  1  0.00303962  0.33281028  -0.00116301  1
  Cs  Cs4  1  0.00099297  0.33315083  0.33354313  1
  Cs  Cs5  1  -0.00342106  0.33154088  0.67117723  1
  Cs  Cs6  1  -0.00044064  0.66822737  0.00091759  1
  Cs  Cs7  1  0.00163462  0.66629081  0.33215133  1
  Cs  Cs8  1  -0.00181695  0.66777087  0.66936664  1
  Cs  Cs9  1  0.34303638  0.00147398  0.00106058  1
  Cs  Cs10  1  0.33343650  -0.00249745  0.33459877  1
  Cs  Cs11  1  0.33527578  -0.00098040  0.66409748  1
  Cs  Cs12  1  0.33235670  0.33191203  -0.00531027  1
  Cs  Cs13  1  0.33285287  0.33387740  0.33394619  1
  Cs  Cs14  1  0.33081292  0.33365857  0.66665317  1
  Cs  Cs15  1  0.33528694  0.66694460  -0.00118686  1
  Cs  Cs16  1  0.33151556  0.66725980  0.33476832  1
  Cs  Cs17  1  0.33705645  0.66706793  0.66545840  1
  Cs  Cs18  1  0.65972451  0.00145358  0.00095313  1
  Cs  Cs19  1  0.66539764  0.00169481  0.33251242  1
  Cs  Cs20  1  0.66768670  -0.00062526  0.66789854  1
  Cs  Cs21  1  0.66299717  0.33127456  -0.00222688  1
  Cs  Cs22  1  0.66536797  0.33406059  0.33437746  1
  Cs  Cs23  1  0.67436328  0.33322936  0.66802061  1
  Cs  Cs24  1  0.66706448  0.66655375  -0.00188871  1
  Cs  Cs25  1  0.66724816  0.66368537  0.33388420  1
  Cs  Cs26  1  0.66618275  0.66659475  0.66947503  1
  Sn  Sn27  1  0.16711523  0.16749117  0.49922185  1
  Sn  Sn28  1  0.49941714  0.49874567  0.49919470  1
  Sn  Sn29  1  0.49950730  0.49988164  0.16734366  1
  Sn  Sn30  1  0.16620224  0.16713576  0.16741592  1
  Sn  Sn31  1  0.83355682  0.83357492  0.16692735  1
  Sn  Sn32  1  0.16667936  0.83353260  0.83358514  1
  Sn  Sn33  1  0.16682437  0.49925923  0.49953518  1
  Sn  Sn34  1  0.83357559  0.83323928  0.49947722  1
  Sn  Sn35  1  0.83404815  0.16688010  0.16698325  1
  Sn  Sn36  1  0.83425497  0.83341673  0.83388012  1
  Sn  Sn37  1  0.49939592  0.16784193  0.49960699  1
  Sn  Sn38  1  0.16693915  0.49930855  0.16733424  1
  Sn  Sn39  1  0.83343913  0.49943628  0.16689472  1
  Pb  Pb40  1  0.83381816  0.50159992  0.49832387  1
  Pb  Pb41  1  0.16666698  0.50200399  0.83310474  1
  Pb  Pb42  1  0.49929989  0.16911594  0.16851279  1
  Pb  Pb43  1  0.16471913  0.83323375  0.50164597  1
  Pb  Pb44  1  0.50247713  0.83286537  0.49972397  1
  Pb  Pb45  1  0.49981262  0.49971950  0.83248294  1
  Pb  Pb46  1  0.49979352  0.16710449  0.82931254  1
  Pb  Pb47  1  0.50275296  0.83034225  0.16705788  1
  Pb  Pb48  1  0.16679761  0.16423657  0.83341862  1
  Pb  Pb49  1  0.83383385  0.16486393  0.49801713  1
  Pb  Pb50  1  0.83345931  0.16426144  0.83679224  1
  Pb  Pb51  1  0.83355555  0.50185518  0.83658785  1
  Pb  Pb52  1  0.50007174  0.83330659  0.83328468  1
  Pb  Pb53  1  0.16530814  0.83358559  0.16505663  1
  I  I54  1  0.16062614  0.00309528  0.17039537  1
  I  I55  1  0.16963570  0.00299685  0.49617393  1
  I  I56  1  0.15951785  -0.00340063  0.83283105  1
  I  I57  1  0.16077533  0.33389120  0.17032289  1
  I  I58  1  0.17039645  0.33359319  0.49528288  1
  I  I59  1  0.16746421  0.33321021  0.83380830  1
  I  I60  1  0.16551830  0.66343666  0.16989982  1
  I  I61  1  0.16957477  0.66355578  0.49586482  1
  I  I62  1  0.16059205  0.66973173  0.83398496  1
  I  I63  1  0.50065760  0.00040089  0.16731957  1
  I  I64  1  0.49624529  0.00285085  0.50025005  1
  I  I65  1  0.50058940  0.00002565  0.83319292  1
  I  I66  1  0.50611505  0.33700826  0.16923162  1
  I  I67  1  0.49646768  0.33416174  0.49445272  1
  I  I68  1  0.49974370  0.33345594  0.83773423  1
  I  I69  1  0.49847777  0.66198319  0.17304715  1
  I  I70  1  0.49630581  0.66305978  0.49609691  1
  I  I71  1  0.50087937  0.66663433  0.83172242  1
  I  I72  1  0.83917763  0.00000516  0.16696374  1
  I  I73  1  0.83358585  -0.00313106  0.49752435  1
  I  I74  1  0.83806904  -0.00410645  0.83399164  1
  I  I75  1  0.83433240  0.33369944  0.16914864  1
  I  I76  1  0.83236253  0.33328399  0.49811711  1
  I  I77  1  0.83245971  0.33314133  0.83300302  1
  I  I78  1  0.83315378  0.66654231  0.16643731  1
  I  I79  1  0.83360487  0.66965513  0.49741939  1
  I  I80  1  0.83699254  0.67039668  0.83496994  1
  I  I81  1  0.16096438  0.17078709  0.00363031  1
  I  I82  1  0.16549396  0.16961761  0.33308320  1
  I  I83  1  0.17095732  0.16976295  0.66307049  1
  I  I84  1  0.16596632  0.49715941  0.00381732  1
  I  I85  1  0.16667840  0.49793369  0.33257343  1
  I  I86  1  0.17198477  0.49762676  0.66290958  1
  I  I87  1  0.15891870  0.83207813  -0.00256002  1
  I  I88  1  0.16392745  0.83302425  0.33330281  1
  I  I89  1  0.15880213  0.83303177  0.66927838  1
  I  I90  1  0.50052129  0.16647292  0.00040541  1
  I  I91  1  0.49983026  0.16827914  0.33630909  1
  I  I92  1  0.49386977  0.17185529  0.66114748  1
  I  I93  1  0.50071212  0.50211438  0.00351186  1
  I  I94  1  0.50045435  0.49713366  0.33328574  1
  I  I95  1  0.49436518  0.49803289  0.66242906  1
  I  I96  1  0.50159273  0.83206499  0.00027888  1
  I  I97  1  0.50220498  0.83490456  0.33339067  1
  I  I98  1  0.50351007  0.83151071  0.66637055  1
  I  I99  1  0.83941233  0.16639036  0.00529130  1
  I  I100  1  0.83458220  0.16371620  0.32976116  1
  I  I101  1  0.83270735  0.16380346  0.66648790  1
  I  I102  1  0.83382072  0.50240756  0.00541981  1
  I  I103  1  0.83334820  0.50383617  0.32974899  1
  I  I104  1  0.83247022  0.50321443  0.66651934  1
  I  I105  1  0.83830231  0.83177897  0.00084849  1
  I  I106  1  0.83251258  0.83260803  0.33202241  1
  I  I107  1  0.83718114  0.83316014  0.66685809  1
  I  I108  1  0.00031773  0.17019217  0.17231281  1
  I  I109  1  0.00310275  0.16948122  0.49726135  1
  I  I110  1  0.00004395  0.16730600  0.82860773  1
  I  I111  1  0.00029191  0.50085757  0.17047509  1
  I  I112  1  0.00311929  0.49790231  0.49511105  1
  I  I113  1  0.00006647  0.50022023  0.83235938  1
  I  I114  1  -0.00334481  0.82879587  0.16817294  1
  I  I115  1  -0.00319371  0.83291861  0.49719747  1
  I  I116  1  -0.00138204  0.83262326  0.83377016  1
  I  I117  1  0.33005596  0.17032136  0.16791586  1
  I  I118  1  0.33217425  0.16905744  0.49436699  1
  I  I119  1  0.33309723  0.16197157  0.83975017  1
  I  I120  1  0.33237310  0.49589812  0.17064998  1
  I  I121  1  0.33280187  0.49792517  0.49193694  1
  I  I122  1  0.33313387  0.50501430  0.83863895  1
  I  I123  1  0.33329795  0.83365955  0.16386497  1
  I  I124  1  0.33314115  0.83337528  0.50312130  1
  I  I125  1  0.33054771  0.83257772  0.83275985  1
  I  I126  1  0.66911688  0.16553871  0.16774431  1
  I  I127  1  0.66449657  0.16925156  0.49815317  1
  I  I128  1  0.66679431  0.16353321  0.83400836  1
  I  I129  1  0.66702316  0.50227532  0.17074480  1
  I  I130  1  0.66413837  0.49801200  0.49515612  1
  I  I131  1  0.66677689  0.50389069  0.83289199  1
  I  I132  1  0.67164918  0.83485036  0.16382332  1
  I  I133  1  0.67062772  0.83316990  0.50134218  1
  I  I134  1  0.67031605  0.83257900  0.83400472  1
