# generated using pymatgen
data_Cs27Sn14Pb13I81
_symmetry_space_group_name_H-M   'P 1'
_cell_length_a   18.96158501
_cell_length_b   18.96083398
_cell_length_c   18.96081574
_cell_angle_alpha   90.00328140
_cell_angle_beta   90.00068538
_cell_angle_gamma   90.00004633
_symmetry_Int_Tables_number   1
_chemical_formula_structural   Cs27Sn14Pb13I81
_chemical_formula_sum   'Cs27 Sn14 Pb13 I81'
_cell_volume   6816.93401261
_cell_formula_units_Z   1
loop_
 _symmetry_equiv_pos_site_id
 _symmetry_equiv_pos_as_xyz
  1  'x, y, z'
loop_
 _atom_site_type_symbol
 _atom_site_label
 _atom_site_symmetry_multiplicity
 _atom_site_fract_x
 _atom_site_fract_y
 _atom_site_fract_z
 _atom_site_occupancy
  Cs  Cs0  1  0.00127292  -0.00020420  0.00123639  1
  Cs  Cs1  1  -0.00049523  0.00235027  0.33234348  1
  Cs  Cs2  1  -0.00465960  -0.00052386  0.66682931  1
  Cs  Cs3  1  -0.00265873  0.33405856  -0.00131006  1
  Cs  Cs4  1  -0.00084105  0.33142119  0.33271532  1
  Cs  Cs5  1  0.00603258  0.33579908  0.66829815  1
  Cs  Cs6  1  -0.00360427  0.66803303  -0.00085797  1
  Cs  Cs7  1  0.00570303  0.66714222  0.33384457  1
  Cs  Cs8  1  -0.00243205  0.66443980  0.66864368  1
  Cs  Cs9  1  0.33215594  -0.00027014  0.00030754  1
  Cs  Cs10  1  0.33361386  -0.00081471  0.33250194  1
  Cs  Cs11  1  0.33484532  0.00118322  0.66710825  1
  Cs  Cs12  1  0.33514151  0.33238274  -0.00690245  1
  Cs  Cs13  1  0.33303878  0.33256735  0.33488990  1
  Cs  Cs14  1  0.33020486  0.33253885  0.67099700  1
  Cs  Cs15  1  0.33557571  0.66989109  0.00361760  1
  Cs  Cs16  1  0.33296977  0.66759050  0.33389836  1
  Cs  Cs17  1  0.33197905  0.66680203  0.66317384  1
  Cs  Cs18  1  0.66630660  0.00009183  0.00016465  1
  Cs  Cs19  1  0.66657937  0.00147990  0.33463810  1
  Cs  Cs20  1  0.66852694  -0.00156195  0.66559221  1
  Cs  Cs21  1  0.66769713  0.34236064  0.00046778  1
  Cs  Cs22  1  0.66915265  0.33273746  0.33130891  1
  Cs  Cs23  1  0.66445858  0.33240525  0.66692059  1
  Cs  Cs24  1  0.66886893  0.66014454  -0.00044295  1
  Cs  Cs25  1  0.66491359  0.66536691  0.33380914  1
  Cs  Cs26  1  0.67033682  0.66950958  0.66667823  1
  Sn  Sn27  1  0.16753302  0.16550133  0.49929094  1
  Sn  Sn28  1  0.16773130  0.16797218  0.16716117  1
  Sn  Sn29  1  0.83301570  0.16664993  0.83341171  1
  Sn  Sn30  1  0.50086863  0.49976825  0.49982562  1
  Sn  Sn31  1  0.16722445  0.83447294  0.50111927  1
  Sn  Sn32  1  0.49925847  0.16629007  0.16708487  1
  Sn  Sn33  1  0.49915635  0.16676338  0.49924319  1
  Sn  Sn34  1  0.50148878  0.83401801  0.16669827  1
  Sn  Sn35  1  0.16720434  0.49842782  0.16644524  1
  Sn  Sn36  1  0.83274409  0.49987153  0.49966372  1
  Sn  Sn37  1  0.83191157  0.83362709  0.16721299  1
  Sn  Sn38  1  0.16736645  0.83357545  0.83196881  1
  Sn  Sn39  1  0.49939581  0.83356565  0.50005051  1
  Sn  Sn40  1  0.49935295  0.83346148  0.83325167  1
  Pb  Pb41  1  0.49973586  0.50323641  0.83018046  1
  Pb  Pb42  1  0.83283940  0.16537436  0.16498096  1
  Pb  Pb43  1  0.16697177  0.50331393  0.83661974  1
  Pb  Pb44  1  0.50175313  0.16480909  0.83355202  1
  Pb  Pb45  1  0.16741867  0.83410151  0.16705264  1
  Pb  Pb46  1  0.83350056  0.83186841  0.49805247  1
  Pb  Pb47  1  0.49820744  0.49955891  0.16858401  1
  Pb  Pb48  1  0.16517199  0.16457192  0.83330524  1
  Pb  Pb49  1  0.83330903  0.49720413  0.83070891  1
  Pb  Pb50  1  0.16729315  0.49979295  0.49885748  1
  Pb  Pb51  1  0.83343759  0.16866142  0.50156487  1
  Pb  Pb52  1  0.83569710  0.50243381  0.16883844  1
  Pb  Pb53  1  0.83298614  0.83451565  0.83549991  1
  I  I54  1  0.16745148  0.00257388  0.16774954  1
  I  I55  1  0.17334696  -0.00010189  0.49737084  1
  I  I56  1  0.17025415  -0.00338543  0.83463941  1
  I  I57  1  0.17033799  0.33134111  0.17396575  1
  I  I58  1  0.16891426  0.33039056  0.49722366  1
  I  I59  1  0.16417019  0.33309338  0.83092601  1
  I  I60  1  0.16610372  0.66564972  0.16776272  1
  I  I61  1  0.16966097  0.66938966  0.50030646  1
  I  I62  1  0.16936595  0.67146569  0.82799687  1
  I  I63  1  0.49776471  -0.00054618  0.17117931  1
  I  I64  1  0.49534464  -0.00048466  0.49907269  1
  I  I65  1  0.49697772  -0.00353599  0.82976227  1
  I  I66  1  0.49781212  0.33009271  0.17187543  1
  I  I67  1  0.50038256  0.33204464  0.49445890  1
  I  I68  1  0.50233193  0.33317779  0.83348108  1
  I  I69  1  0.50070624  0.66974781  0.16762778  1
  I  I70  1  0.49932644  0.66830424  0.49970011  1
  I  I71  1  0.49713090  0.67176714  0.83558029  1
  I  I72  1  0.83433093  -0.00271846  0.16724169  1
  I  I73  1  0.83210168  0.00010969  0.50032745  1
  I  I74  1  0.83372134  0.00194407  0.83206878  1
  I  I75  1  0.83202893  0.33338919  0.16559898  1
  I  I76  1  0.82938827  0.33624800  0.50002461  1
  I  I77  1  0.83370591  0.32974539  0.83490289  1
  I  I78  1  0.82922374  0.67037582  0.16582094  1
  I  I79  1  0.82974178  0.66412796  0.49873803  1
  I  I80  1  0.83388059  0.66673391  0.83407904  1
  I  I81  1  0.16953861  0.16748603  0.00299999  1
  I  I82  1  0.16935096  0.16384315  0.33379029  1
  I  I83  1  0.16995884  0.16492964  0.66347758  1
  I  I84  1  0.16639153  0.49548044  0.00445384  1
  I  I85  1  0.16677674  0.50238165  0.33116623  1
  I  I86  1  0.16596031  0.49843845  0.66652243  1
  I  I87  1  0.16924265  0.83304331  -0.00158200  1
  I  I88  1  0.16939547  0.83318579  0.33596672  1
  I  I89  1  0.17381075  0.83782824  0.66512378  1
  I  I90  1  0.49627857  0.16046813  0.00317642  1
  I  I91  1  0.49685889  0.16145914  0.33395573  1
  I  I92  1  0.49739066  0.16603413  0.66321073  1
  I  I93  1  0.49898134  0.50023908  0.00018088  1
  I  I94  1  0.50187098  0.50518252  0.33679405  1
  I  I95  1  0.50207842  0.49854971  0.66168303  1
  I  I96  1  0.49829247  0.83895966  0.00093198  1
  I  I97  1  0.49922821  0.83358175  0.33398299  1
  I  I98  1  0.49528354  0.83331135  0.66534704  1
  I  I99  1  0.83449156  0.16320150  -0.00239702  1
  I  I100  1  0.83402495  0.16665483  0.33337466  1
  I  I101  1  0.83305726  0.16498579  0.66897522  1
  I  I102  1  0.83493143  0.50072497  0.00023772  1
  I  I103  1  0.82896332  0.49921118  0.33640896  1
  I  I104  1  0.83047635  0.50265514  0.66284360  1
  I  I105  1  0.83164062  0.83438647  0.00334357  1
  I  I106  1  0.83040754  0.83405725  0.33030042  1
  I  I107  1  0.83194642  0.83281563  0.66652199  1
  I  I108  1  0.00289968  0.16704307  0.17012408  1
  I  I109  1  0.00324567  0.16348681  0.49678485  1
  I  I110  1  -0.00219075  0.16296955  0.83301083  1
  I  I111  1  0.00345609  0.49702361  0.17055664  1
  I  I112  1  -0.00144216  0.50064278  0.49776692  1
  I  I113  1  0.00016493  0.50280275  0.83031664  1
  I  I114  1  -0.00111344  0.83284982  0.16654889  1
  I  I115  1  0.00318698  0.83545457  0.50153739  1
  I  I116  1  0.00255164  0.83515801  0.83118798  1
  I  I117  1  0.33365353  0.16322602  0.17082992  1
  I  I118  1  0.33388412  0.16684999  0.49650644  1
  I  I119  1  0.33345617  0.16675030  0.83346758  1
  I  I120  1  0.33055064  0.50286542  0.17096868  1
  I  I121  1  0.33613500  0.50197517  0.49756001  1
  I  I122  1  0.33334964  0.49611375  0.83050877  1
  I  I123  1  0.33630379  0.83375392  0.16699535  1
  I  I124  1  0.33432481  0.83152312  0.49829417  1
  I  I125  1  0.33394018  0.83474144  0.83466333  1
  I  I126  1  0.66325660  0.16246567  0.17099713  1
  I  I127  1  0.66316854  0.16364600  0.49732345  1
  I  I128  1  0.66896269  0.16241521  0.83220073  1
  I  I129  1  0.66645574  0.49873864  0.16650749  1
  I  I130  1  0.66502850  0.50111208  0.49899120  1
  I  I131  1  0.66648665  0.50193103  0.83606044  1
  I  I132  1  0.66412177  0.83865226  0.16730344  1
  I  I133  1  0.66323056  0.83565205  0.50199794  1
  I  I134  1  0.66354120  0.83579347  0.83002068  1
