# generated using pymatgen
data_Cs27Sn14Pb13I81
_symmetry_space_group_name_H-M   'P 1'
_cell_length_a   18.97677683
_cell_length_b   18.97861620
_cell_length_c   18.97204593
_cell_angle_alpha   90.00025778
_cell_angle_beta   90.00329765
_cell_angle_gamma   90.00065463
_symmetry_Int_Tables_number   1
_chemical_formula_structural   Cs27Sn14Pb13I81
_chemical_formula_sum   'Cs27 Sn14 Pb13 I81'
_cell_volume   6832.83856796
_cell_formula_units_Z   1
loop_
 _symmetry_equiv_pos_site_id
 _symmetry_equiv_pos_as_xyz
  1  'x, y, z'
loop_
 _atom_site_type_symbol
 _atom_site_label
 _atom_site_symmetry_multiplicity
 _atom_site_fract_x
 _atom_site_fract_y
 _atom_site_fract_z
 _atom_site_occupancy
  Cs  Cs0  1  -0.00029948  -0.00052068  0.00003402  1
  Cs  Cs1  1  -0.00066812  -0.00172875  0.33571296  1
  Cs  Cs2  1  0.00021207  -0.00098031  0.66467183  1
  Cs  Cs3  1  0.00612215  0.33245686  0.00256481  1
  Cs  Cs4  1  -0.00294697  0.34332751  0.33405951  1
  Cs  Cs5  1  0.00052339  0.33406275  0.66349485  1
  Cs  Cs6  1  -0.00053790  0.66724941  -0.00018354  1
  Cs  Cs7  1  -0.00051164  0.66619852  0.33230470  1
  Cs  Cs8  1  0.00443824  0.66937039  0.66783363  1
  Cs  Cs9  1  0.33150269  0.00385775  0.00379830  1
  Cs  Cs10  1  0.33337912  -0.00065283  0.33404749  1
  Cs  Cs11  1  0.33405534  0.00009905  0.66504452  1
  Cs  Cs12  1  0.32378955  0.32823820  0.00756956  1
  Cs  Cs13  1  0.33252038  0.33871624  0.32619697  1
  Cs  Cs14  1  0.33463572  0.33394342  0.66631154  1
  Cs  Cs15  1  0.33286039  0.66651221  -0.00092964  1
  Cs  Cs16  1  0.33601905  0.66284723  0.33403197  1
  Cs  Cs17  1  0.33283670  0.66636041  0.66675551  1
  Cs  Cs18  1  0.66671057  -0.00034878  -0.00029490  1
  Cs  Cs19  1  0.66698453  -0.00039129  0.33364630  1
  Cs  Cs20  1  0.66623940  0.00091936  0.66706653  1
  Cs  Cs21  1  0.66707301  0.33226728  -0.00414052  1
  Cs  Cs22  1  0.66911148  0.34348375  0.33349686  1
  Cs  Cs23  1  0.66627245  0.33104688  0.66809623  1
  Cs  Cs24  1  0.66706683  0.66757361  -0.00229621  1
  Cs  Cs25  1  0.66460153  0.66241253  0.33037767  1
  Cs  Cs26  1  0.66413967  0.66803342  0.67069380  1
  Sn  Sn27  1  0.16706700  0.83412578  0.49894971  1
  Sn  Sn28  1  0.50021059  0.83426091  0.50068148  1
  Sn  Sn29  1  0.83268564  0.83364201  0.83320999  1
  Sn  Sn30  1  0.49928791  0.16611985  0.50007796  1
  Sn  Sn31  1  0.83283904  0.16587850  0.16643751  1
  Sn  Sn32  1  0.83274056  0.83348198  0.50003330  1
  Sn  Sn33  1  0.16770855  0.16614583  0.49978806  1
  Sn  Sn34  1  0.16609387  0.83384546  0.16753963  1
  Sn  Sn35  1  0.83307779  0.16652804  0.83403223  1
  Sn  Sn36  1  0.50029993  0.16655139  0.83286617  1
  Sn  Sn37  1  0.50024772  0.49942807  0.83343967  1
  Sn  Sn38  1  0.83389463  0.83433946  0.16657691  1
  Sn  Sn39  1  0.50048169  0.83389368  0.83273645  1
  Sn  Sn40  1  0.83313349  0.49983758  0.83314739  1
  Pb  Pb41  1  0.50030865  0.83346571  0.16670047  1
  Pb  Pb42  1  0.16714073  0.83358955  0.83325073  1
  Pb  Pb43  1  0.16353741  0.16446365  0.17018558  1
  Pb  Pb44  1  0.16641540  0.50357898  0.16663746  1
  Pb  Pb45  1  0.50003239  0.49972325  0.50217263  1
  Pb  Pb46  1  0.50021034  0.49975576  0.16270830  1
  Pb  Pb47  1  0.16688815  0.49976151  0.83323545  1
  Pb  Pb48  1  0.83321213  0.50033839  0.16368275  1
  Pb  Pb49  1  0.83272801  0.16531167  0.49986443  1
  Pb  Pb50  1  0.16659372  0.16644992  0.83102688  1
  Pb  Pb51  1  0.83312783  0.50376955  0.50327799  1
  Pb  Pb52  1  0.16689990  0.50015418  0.50017024  1
  Pb  Pb53  1  0.50265102  0.16655208  0.16735905  1
  I  I54  1  0.16442143  -0.00345186  0.16759157  1
  I  I55  1  0.16732842  -0.00172496  0.49757132  1
  I  I56  1  0.16556815  -0.00018395  0.83521533  1
  I  I57  1  0.16575585  0.33292377  0.16723395  1
  I  I58  1  0.17090965  0.32998643  0.50329564  1
  I  I59  1  0.16577984  0.33302255  0.83070898  1
  I  I60  1  0.15946463  0.67173444  0.17251035  1
  I  I61  1  0.16646036  0.67088228  0.49696990  1
  I  I62  1  0.16645015  0.66707341  0.83179665  1
  I  I63  1  0.49869314  -0.00017911  0.16095791  1
  I  I64  1  0.49935297  -0.00118994  0.50852762  1
  I  I65  1  0.50720186  -0.00022855  0.82837058  1
  I  I66  1  0.50206969  0.33301494  0.16849853  1
  I  I67  1  0.49559816  0.32976265  0.50492826  1
  I  I68  1  0.50862835  0.33218705  0.82794699  1
  I  I69  1  0.50114188  0.66704593  0.16749781  1
  I  I70  1  0.49951940  0.67033142  0.50361059  1
  I  I71  1  0.50656027  0.66795015  0.82957368  1
  I  I72  1  0.83629734  -0.00162425  0.16086375  1
  I  I73  1  0.83396124  -0.00336957  0.50447142  1
  I  I74  1  0.82800562  -0.00076213  0.83407246  1
  I  I75  1  0.83185088  0.33036388  0.16293143  1
  I  I76  1  0.83457226  0.33337516  0.49907434  1
  I  I77  1  0.82628824  0.33226161  0.83770129  1
  I  I78  1  0.83736902  0.67043773  0.16656641  1
  I  I79  1  0.83381859  0.67246395  0.49833102  1
  I  I80  1  0.82769224  0.66828926  0.83279899  1
  I  I81  1  0.16927509  0.16620296  0.00051128  1
  I  I82  1  0.17276748  0.16226534  0.33774278  1
  I  I83  1  0.16500127  0.15818774  0.66326247  1
  I  I84  1  0.16754209  0.50139280  -0.00002838  1
  I  I85  1  0.16606829  0.49768230  0.33341017  1
  I  I86  1  0.16489122  0.50423044  0.66666707  1
  I  I87  1  0.16246060  0.83186507  0.00249107  1
  I  I88  1  0.16235848  0.83765750  0.33453560  1
  I  I89  1  0.16355417  0.83605186  0.66343204  1
  I  I90  1  0.50320957  0.16542044  -0.00352307  1
  I  I91  1  0.49722154  0.15832099  0.33698963  1
  I  I92  1  0.50252919  0.16534753  0.66762873  1
  I  I93  1  0.50650559  0.50333472  -0.00563111  1
  I  I94  1  0.49875161  0.50062729  0.33339695  1
  I  I95  1  0.50543704  0.50126884  0.67036470  1
  I  I96  1  0.50358770  0.83284253  -0.00356724  1
  I  I97  1  0.50230691  0.83888454  0.33677063  1
  I  I98  1  0.50294677  0.83337410  0.66707273  1
  I  I99  1  0.82768482  0.16145728  -0.00175399  1
  I  I100  1  0.83406854  0.15906660  0.33115848  1
  I  I101  1  0.83241030  0.16578689  0.66968014  1
  I  I102  1  0.82778901  0.50576615  -0.00422413  1
  I  I103  1  0.83490680  0.49884449  0.33330313  1
  I  I104  1  0.82864671  0.49774935  0.67124894  1
  I  I105  1  0.83358478  0.83310976  -0.00103761  1
  I  I106  1  0.83436535  0.83960103  0.33338701  1
  I  I107  1  0.83333195  0.83343573  0.66728596  1
  I  I108  1  -0.00405875  0.16346296  0.15920982  1
  I  I109  1  0.00169918  0.16062997  0.50090856  1
  I  I110  1  -0.00358921  0.16571442  0.83571057  1
  I  I111  1  -0.00040404  0.49782970  0.16350711  1
  I  I112  1  -0.00018025  0.49854289  0.50339998  1
  I  I113  1  -0.00354663  0.50199711  0.83352813  1
  I  I114  1  -0.00150989  0.83682524  0.16919503  1
  I  I115  1  -0.00026246  0.83712671  0.50068336  1
  I  I116  1  -0.00335653  0.83287107  0.83090826  1
  I  I117  1  0.33304137  0.16583154  0.16294747  1
  I  I118  1  0.33444857  0.15654473  0.50788694  1
  I  I119  1  0.33687151  0.16581529  0.83075352  1
  I  I120  1  0.33320085  0.50110815  0.16410627  1
  I  I121  1  0.33356639  0.50553339  0.50437006  1
  I  I122  1  0.33711515  0.50291609  0.83140253  1
  I  I123  1  0.33078685  0.83252796  0.16937474  1
  I  I124  1  0.33381483  0.83708142  0.50084941  1
  I  I125  1  0.33695398  0.83220637  0.83029565  1
  I  I126  1  0.67055002  0.15786130  0.16591155  1
  I  I127  1  0.66383925  0.16115977  0.50266587  1
  I  I128  1  0.66681896  0.16609853  0.83103243  1
  I  I129  1  0.66705767  0.50337698  0.17095332  1
  I  I130  1  0.66670468  0.49886863  0.49689529  1
  I  I131  1  0.66689956  0.50147505  0.83288852  1
  I  I132  1  0.67012484  0.83634420  0.16790508  1
  I  I133  1  0.66644904  0.83782038  0.50194458  1
  I  I134  1  0.66735836  0.83291672  0.83082200  1
