# generated using pymatgen
data_Cs27Sn14Pb13I81
_symmetry_space_group_name_H-M   'P 1'
_cell_length_a   18.96902849
_cell_length_b   18.97837043
_cell_length_c   18.97787968
_cell_angle_alpha   90.00093639
_cell_angle_beta   90.00164356
_cell_angle_gamma   90.00370281
_symmetry_Int_Tables_number   1
_chemical_formula_structural   Cs27Sn14Pb13I81
_chemical_formula_sum   'Cs27 Sn14 Pb13 I81'
_cell_volume   6832.06037789
_cell_formula_units_Z   1
loop_
 _symmetry_equiv_pos_site_id
 _symmetry_equiv_pos_as_xyz
  1  'x, y, z'
loop_
 _atom_site_type_symbol
 _atom_site_label
 _atom_site_symmetry_multiplicity
 _atom_site_fract_x
 _atom_site_fract_y
 _atom_site_fract_z
 _atom_site_occupancy
  Cs  Cs0  1  -0.00086870  0.00146288  0.00286732  1
  Cs  Cs1  1  -0.00000598  0.00041396  0.33203790  1
  Cs  Cs2  1  -0.00226913  0.00207235  0.66607728  1
  Cs  Cs3  1  0.00001457  0.33094562  0.00278860  1
  Cs  Cs4  1  -0.00210919  0.32997439  0.33341233  1
  Cs  Cs5  1  0.00228155  0.33242450  0.66562180  1
  Cs  Cs6  1  -0.00011813  0.66705341  -0.00581571  1
  Cs  Cs7  1  0.00257290  0.66991095  0.33594265  1
  Cs  Cs8  1  -0.00136119  0.66499979  0.66988019  1
  Cs  Cs9  1  0.33534667  -0.00053987  0.00095401  1
  Cs  Cs10  1  0.33338740  -0.00589608  0.33260542  1
  Cs  Cs11  1  0.33598588  0.00135686  0.66598197  1
  Cs  Cs12  1  0.33246376  0.33535664  -0.00302009  1
  Cs  Cs13  1  0.33421262  0.33686530  0.33353293  1
  Cs  Cs14  1  0.33096843  0.33098661  0.67002041  1
  Cs  Cs15  1  0.33353312  0.66610545  -0.00075013  1
  Cs  Cs16  1  0.33444521  0.66950213  0.33529302  1
  Cs  Cs17  1  0.33166623  0.66796538  0.66813840  1
  Cs  Cs18  1  0.66474976  -0.00214594  0.00056921  1
  Cs  Cs19  1  0.66765377  -0.00073007  0.33261724  1
  Cs  Cs20  1  0.66683128  0.00294778  0.66563185  1
  Cs  Cs21  1  0.66602924  0.33414200  0.00586889  1
  Cs  Cs22  1  0.66607572  0.34419133  0.33086050  1
  Cs  Cs23  1  0.66597523  0.32905671  0.66195170  1
  Cs  Cs24  1  0.66737166  0.66917112  -0.00000544  1
  Cs  Cs25  1  0.66418468  0.66025371  0.33319055  1
  Cs  Cs26  1  0.67237696  0.66541174  0.66624523  1
  Sn  Sn27  1  0.16722074  0.49988353  0.83335481  1
  Sn  Sn28  1  0.16654258  0.49929787  0.50010070  1
  Sn  Sn29  1  0.16584112  0.16627125  0.83297555  1
  Sn  Sn30  1  0.83283522  0.83331878  0.16766108  1
  Sn  Sn31  1  0.83324007  0.83394349  0.49898875  1
  Sn  Sn32  1  0.50085474  0.83409211  0.16607930  1
  Sn  Sn33  1  0.16733754  0.83397407  0.83342800  1
  Sn  Sn34  1  0.83378299  0.16684129  0.83317883  1
  Sn  Sn35  1  0.49996656  0.50082549  0.83308163  1
  Sn  Sn36  1  0.49939917  0.83244894  0.83356487  1
  Sn  Sn37  1  0.49971447  0.16619378  0.16705352  1
  Sn  Sn38  1  0.83388694  0.16591487  0.50031857  1
  Sn  Sn39  1  0.16633363  0.50011179  0.16661070  1
  Sn  Sn40  1  0.16638601  0.16693716  0.50040820  1
  Pb  Pb41  1  0.49985284  0.16665145  0.49689905  1
  Pb  Pb42  1  0.16470180  0.83394066  0.50268250  1
  Pb  Pb43  1  0.83623881  0.50336911  0.16644843  1
  Pb  Pb44  1  0.49699860  0.50001102  0.50353365  1
  Pb  Pb45  1  0.16872980  0.16824285  0.16697387  1
  Pb  Pb46  1  0.16690374  0.83135005  0.16433472  1
  Pb  Pb47  1  0.83578532  0.49940969  0.50009446  1
  Pb  Pb48  1  0.50277994  0.83329863  0.50051068  1
  Pb  Pb49  1  0.49798545  0.50100117  0.16461214  1
  Pb  Pb50  1  0.83318848  0.49657924  0.83331843  1
  Pb  Pb51  1  0.83296068  0.83533276  0.83323889  1
  Pb  Pb52  1  0.83128836  0.16510197  0.16727255  1
  Pb  Pb53  1  0.49992556  0.16660759  0.83467109  1
  I  I54  1  0.16587966  -0.00029259  0.16593738  1
  I  I55  1  0.16437164  0.00304938  0.50498345  1
  I  I56  1  0.16694152  0.00062689  0.82908527  1
  I  I57  1  0.16975225  0.33612758  0.16138586  1
  I  I58  1  0.16143698  0.33274554  0.50513956  1
  I  I59  1  0.16759571  0.33352692  0.83242561  1
  I  I60  1  0.16785543  0.66346484  0.16675286  1
  I  I61  1  0.16556009  0.66433029  0.50114060  1
  I  I62  1  0.17111878  0.66621851  0.83389524  1
  I  I63  1  0.50207556  -0.00156281  0.15980482  1
  I  I64  1  0.49491530  0.00000334  0.50445066  1
  I  I65  1  0.49666618  -0.00264450  0.83647958  1
  I  I66  1  0.49841570  0.33184583  0.16483540  1
  I  I67  1  0.50522318  0.33325359  0.49850599  1
  I  I68  1  0.49534893  0.33538414  0.83537350  1
  I  I69  1  0.50311277  0.66983909  0.16360530  1
  I  I70  1  0.49996466  0.66670563  0.49507124  1
  I  I71  1  0.49087242  0.66753285  0.83950760  1
  I  I72  1  0.83284497  -0.00291921  0.16684641  1
  I  I73  1  0.83964630  0.00096575  0.50050428  1
  I  I74  1  0.83783814  0.00300880  0.83220179  1
  I  I75  1  0.83107186  0.33325422  0.16678028  1
  I  I76  1  0.83576148  0.32985977  0.50546045  1
  I  I77  1  0.83736426  0.32867883  0.82690625  1
  I  I78  1  0.82584664  0.67128565  0.17142005  1
  I  I79  1  0.83403343  0.66930373  0.49620586  1
  I  I80  1  0.83618387  0.66684528  0.83329865  1
  I  I81  1  0.16363313  0.16795732  -0.00317234  1
  I  I82  1  0.16287328  0.17179487  0.33635745  1
  I  I83  1  0.16344150  0.17133865  0.66763235  1
  I  I84  1  0.17083115  0.50011817  -0.00176895  1
  I  I85  1  0.16496172  0.49505548  0.33399783  1
  I  I86  1  0.17035946  0.49884209  0.66771449  1
  I  I87  1  0.16545634  0.83354252  -0.00390313  1
  I  I88  1  0.16845808  0.83200443  0.33339567  1
  I  I89  1  0.17062824  0.82906109  0.67080504  1
  I  I90  1  0.49987736  0.16493474  0.00225679  1
  I  I91  1  0.49899575  0.15943417  0.32926971  1
  I  I92  1  0.50055650  0.16686713  0.66669928  1
  I  I93  1  0.49217355  0.50026968  -0.00314992  1
  I  I94  1  0.49810862  0.49979151  0.33323470  1
  I  I95  1  0.49447059  0.50527398  0.67151262  1
  I  I96  1  0.50201656  0.83364846  -0.00034597  1
  I  I97  1  0.50123873  0.83803566  0.33030204  1
  I  I98  1  0.49596793  0.82948309  0.67025328  1
  I  I99  1  0.83773005  0.16562480  -0.00229880  1
  I  I100  1  0.83864067  0.16339325  0.33636655  1
  I  I101  1  0.83681965  0.16044636  0.66629616  1
  I  I102  1  0.83704220  0.49924697  -0.00019484  1
  I  I103  1  0.83475146  0.49556269  0.33326940  1
  I  I104  1  0.83420224  0.50670270  0.66678536  1
  I  I105  1  0.83216444  0.83478658  0.00181174  1
  I  I106  1  0.83011855  0.83955468  0.33332447  1
  I  I107  1  0.83456750  0.83571522  0.66466809  1
  I  I108  1  0.00010771  0.16640224  0.16567525  1
  I  I109  1  0.00047580  0.16702368  0.50428045  1
  I  I110  1  0.00156759  0.16631894  0.83034105  1
  I  I111  1  0.00431830  0.49927711  0.16238556  1
  I  I112  1  0.00405672  0.49928674  0.50448462  1
  I  I113  1  0.00380113  0.50401542  0.83255527  1
  I  I114  1  -0.00226112  0.83174293  0.16871296  1
  I  I115  1  -0.00309456  0.83485017  0.49514749  1
  I  I116  1  0.00253029  0.82997031  0.83325842  1
  I  I117  1  0.33629126  0.15985558  0.16488169  1
  I  I118  1  0.32985152  0.17162157  0.50542220  1
  I  I119  1  0.33018241  0.16743699  0.83029921  1
  I  I120  1  0.33005302  0.50128511  0.16758839  1
  I  I121  1  0.32868014  0.49405106  0.49784036  1
  I  I122  1  0.33147923  0.49855761  0.83356695  1
  I  I123  1  0.33604269  0.83580338  0.16347873  1
  I  I124  1  0.33306438  0.83337539  0.49729099  1
  I  I125  1  0.33316396  0.83409216  0.83872864  1
  I  I126  1  0.66357653  0.16487782  0.16386764  1
  I  I127  1  0.66994254  0.16093551  0.50595348  1
  I  I128  1  0.66898745  0.16526732  0.82981635  1
  I  I129  1  0.66639458  0.49744544  0.16486939  1
  I  I130  1  0.66669403  0.49922254  0.50059656  1
  I  I131  1  0.66371852  0.50522065  0.83568443  1
  I  I132  1  0.66581410  0.83793864  0.16313987  1
  I  I133  1  0.67077076  0.84095592  0.50198784  1
  I  I134  1  0.66393262  0.83003688  0.83513023  1
