# generated using pymatgen
data_Cs27Sn13Pb14I81
_symmetry_space_group_name_H-M   'P 1'
_cell_length_a   18.98583688
_cell_length_b   18.97632463
_cell_length_c   18.96843440
_cell_angle_alpha   90.00128112
_cell_angle_beta   90.00102563
_cell_angle_gamma   90.00021949
_symmetry_Int_Tables_number   1
_chemical_formula_structural   Cs27Sn13Pb14I81
_chemical_formula_sum   'Cs27 Sn13 Pb14 I81'
_cell_volume   6833.97417392
_cell_formula_units_Z   1
loop_
 _symmetry_equiv_pos_site_id
 _symmetry_equiv_pos_as_xyz
  1  'x, y, z'
loop_
 _atom_site_type_symbol
 _atom_site_label
 _atom_site_symmetry_multiplicity
 _atom_site_fract_x
 _atom_site_fract_y
 _atom_site_fract_z
 _atom_site_occupancy
  Cs  Cs0  1  0.00170044  -0.00099963  0.00086077  1
  Cs  Cs1  1  -0.00250304  0.00074146  0.33077108  1
  Cs  Cs2  1  0.00059808  0.00043308  0.66848740  1
  Cs  Cs3  1  -0.00130503  0.33364647  -0.00343578  1
  Cs  Cs4  1  0.00128771  0.33463879  0.33403572  1
  Cs  Cs5  1  0.00002855  0.32995968  0.66853238  1
  Cs  Cs6  1  0.00055034  0.66806245  0.00007436  1
  Cs  Cs7  1  -0.00047057  0.66271311  0.33292443  1
  Cs  Cs8  1  0.00152590  0.66860866  0.66655525  1
  Cs  Cs9  1  0.33210947  -0.00192381  0.00170157  1
  Cs  Cs10  1  0.33553739  -0.00005215  0.33412746  1
  Cs  Cs11  1  0.33489131  0.00417565  0.66035465  1
  Cs  Cs12  1  0.33711532  0.33549159  0.00046449  1
  Cs  Cs13  1  0.33008299  0.33568243  0.33262166  1
  Cs  Cs14  1  0.33369214  0.32359029  0.66676167  1
  Cs  Cs15  1  0.33312204  0.66722546  -0.00145178  1
  Cs  Cs16  1  0.33051265  0.66388073  0.33617350  1
  Cs  Cs17  1  0.33052380  0.66973780  0.66595761  1
  Cs  Cs18  1  0.66574767  -0.00162645  0.00290799  1
  Cs  Cs19  1  0.66690801  0.00029930  0.33231281  1
  Cs  Cs20  1  0.66554994  0.00023072  0.66532263  1
  Cs  Cs21  1  0.66428393  0.34071794  -0.00818199  1
  Cs  Cs22  1  0.66695006  0.33347090  0.33390501  1
  Cs  Cs23  1  0.66602099  0.33511750  0.67141440  1
  Cs  Cs24  1  0.66654454  0.66366702  0.00040731  1
  Cs  Cs25  1  0.66897294  0.66508687  0.33428079  1
  Cs  Cs26  1  0.66658811  0.66640348  0.66546606  1
  Sn  Sn27  1  0.16753059  0.83387643  0.16632551  1
  Sn  Sn28  1  0.83314039  0.16679773  0.49956002  1
  Sn  Sn29  1  0.49968348  0.83352949  0.83366337  1
  Sn  Sn30  1  0.83315943  0.83347830  0.83275427  1
  Sn  Sn31  1  0.83343468  0.83340686  0.50056137  1
  Sn  Sn32  1  0.50009558  0.50006307  0.50011266  1
  Sn  Sn33  1  0.16684116  0.50040719  0.83313767  1
  Sn  Sn34  1  0.83294528  0.16691792  0.16667288  1
  Sn  Sn35  1  0.50034187  0.16637240  0.16657967  1
  Sn  Sn36  1  0.16716795  0.83293977  0.83383775  1
  Sn  Sn37  1  0.83269067  0.49978875  0.50020640  1
  Sn  Sn38  1  0.49919837  0.83355432  0.16626669  1
  Sn  Sn39  1  0.16669421  0.16592158  0.16643137  1
  Pb  Pb40  1  0.50208176  0.83202588  0.49936976  1
  Pb  Pb41  1  0.16682850  0.16577607  0.83582521  1
  Pb  Pb42  1  0.83306942  0.16428183  0.83358997  1
  Pb  Pb43  1  0.16427352  0.83354867  0.49946327  1
  Pb  Pb44  1  0.83514857  0.50269563  0.83086178  1
  Pb  Pb45  1  0.16665364  0.50039530  0.16435725  1
  Pb  Pb46  1  0.49998414  0.50067753  0.16844166  1
  Pb  Pb47  1  0.16655937  0.49985740  0.50284292  1
  Pb  Pb48  1  0.16420896  0.16645043  0.49706506  1
  Pb  Pb49  1  0.50240045  0.16886320  0.49754324  1
  Pb  Pb50  1  0.83327106  0.83445045  0.16656738  1
  Pb  Pb51  1  0.50007554  0.16392729  0.83593846  1
  Pb  Pb52  1  0.83332967  0.49666988  0.16853905  1
  Pb  Pb53  1  0.49764142  0.50264616  0.83071115  1
  I  I54  1  0.16627838  -0.00086371  0.16104526  1
  I  I55  1  0.16522212  -0.00011779  0.50504173  1
  I  I56  1  0.16507360  -0.00391203  0.83627310  1
  I  I57  1  0.16651691  0.33017714  0.16679844  1
  I  I58  1  0.16461102  0.33326414  0.50033420  1
  I  I59  1  0.16502326  0.33556613  0.83342755  1
  I  I60  1  0.17111390  0.67027975  0.16487724  1
  I  I61  1  0.16331628  0.66676994  0.49516125  1
  I  I62  1  0.16573550  0.66910287  0.83858376  1
  I  I63  1  0.49962880  -0.00063527  0.16367276  1
  I  I64  1  0.50167672  0.00002913  0.50174143  1
  I  I65  1  0.49762187  -0.00462648  0.83309885  1
  I  I66  1  0.49921972  0.33031161  0.17021996  1
  I  I67  1  0.50537633  0.33652173  0.49861006  1
  I  I68  1  0.49863578  0.33359353  0.83418593  1
  I  I69  1  0.49525478  0.67045760  0.16363354  1
  I  I70  1  0.50718917  0.66435784  0.49813716  1
  I  I71  1  0.50294868  0.67083164  0.84026141  1
  I  I72  1  0.83349967  0.00252519  0.17228552  1
  I  I73  1  0.83471414  -0.00008682  0.49936097  1
  I  I74  1  0.83672668  -0.00416084  0.82799999  1
  I  I75  1  0.83458551  0.32813999  0.17240467  1
  I  I76  1  0.83040330  0.33314502  0.49292064  1
  I  I77  1  0.83597043  0.33350540  0.83328714  1
  I  I78  1  0.83375294  0.66682359  0.16813938  1
  I  I79  1  0.82981358  0.66697812  0.50488825  1
  I  I80  1  0.83185247  0.67097223  0.82922236  1
  I  I81  1  0.16276050  0.16424046  0.00415469  1
  I  I82  1  0.16862142  0.16063023  0.32879550  1
  I  I83  1  0.16461316  0.16673059  0.66677542  1
  I  I84  1  0.16665529  0.50295877  -0.00326620  1
  I  I85  1  0.16600047  0.50036301  0.33345496  1
  I  I86  1  0.16552168  0.50950768  0.67033567  1
  I  I87  1  0.16447386  0.83348776  -0.00007891  1
  I  I88  1  0.17017404  0.83790807  0.32966746  1
  I  I89  1  0.16777860  0.82832500  0.66986413  1
  I  I90  1  0.50271113  0.16594210  0.00452864  1
  I  I91  1  0.49837203  0.15905581  0.32941480  1
  I  I92  1  0.50124023  0.16615392  0.66645419  1
  I  I93  1  0.49892032  0.49771126  -0.00032246  1
  I  I94  1  0.50461569  0.50217220  0.33627645  1
  I  I95  1  0.50624423  0.50209807  0.66324470  1
  I  I96  1  0.50141975  0.83711793  0.00026390  1
  I  I97  1  0.49704824  0.83652393  0.33000552  1
  I  I98  1  0.49819710  0.82987765  0.66928035  1
  I  I99  1  0.83481933  0.16259878  0.00332439  1
  I  I100  1  0.83387480  0.16358653  0.33330478  1
  I  I101  1  0.83361341  0.16806295  0.66357179  1
  I  I102  1  0.83422047  0.49973564  -0.00051141  1
  I  I103  1  0.83127676  0.50661807  0.33717862  1
  I  I104  1  0.82975570  0.49513547  0.66271466  1
  I  I105  1  0.83419184  0.83609681  -0.00246989  1
  I  I106  1  0.83302100  0.83229626  0.33578752  1
  I  I107  1  0.83364536  0.83466444  0.66672799  1
  I  I108  1  -0.00000288  0.16185442  0.17102040  1
  I  I109  1  -0.00423872  0.16886046  0.49473163  1
  I  I110  1  -0.00007145  0.16468139  0.83527952  1
  I  I111  1  0.00003792  0.50106583  0.16938963  1
  I  I112  1  -0.00329860  0.50025651  0.50032065  1
  I  I113  1  0.00278254  0.50614066  0.83258451  1
  I  I114  1  0.00237738  0.83774384  0.16371925  1
  I  I115  1  -0.00419588  0.83104982  0.50316040  1
  I  I116  1  0.00043034  0.82989405  0.83339610  1
  I  I117  1  0.33338680  0.16163681  0.16482884  1
  I  I118  1  0.33363870  0.16881353  0.49956912  1
  I  I119  1  0.33336448  0.16623632  0.83354897  1
  I  I120  1  0.33330374  0.49532774  0.17074908  1
  I  I121  1  0.33578974  0.50226916  0.49925067  1
  I  I122  1  0.33018926  0.50688464  0.83258930  1
  I  I123  1  0.33322324  0.84131750  0.15863773  1
  I  I124  1  0.33352835  0.83037686  0.50213738  1
  I  I125  1  0.33297182  0.82826235  0.83978919  1
  I  I126  1  0.66663091  0.16029426  0.17243188  1
  I  I127  1  0.67048842  0.16327927  0.49340247  1
  I  I128  1  0.66667182  0.16507313  0.83589563  1
  I  I129  1  0.66665658  0.50133282  0.16490881  1
  I  I130  1  0.66809826  0.50089007  0.49904494  1
  I  I131  1  0.66657809  0.50107615  0.83413313  1
  I  I132  1  0.66423344  0.83795101  0.16422615  1
  I  I133  1  0.67028179  0.83518155  0.50303550  1
  I  I134  1  0.66658053  0.83540194  0.83355212  1
