# generated using pymatgen
data_Cs27Sn14Pb13I81
_symmetry_space_group_name_H-M   'P 1'
_cell_length_a   18.97428173
_cell_length_b   18.96426209
_cell_length_c   18.99151992
_cell_angle_alpha   90.00048128
_cell_angle_beta   90.00005791
_cell_angle_gamma   90.00074076
_symmetry_Int_Tables_number   1
_chemical_formula_structural   Cs27Sn14Pb13I81
_chemical_formula_sum   'Cs27 Sn14 Pb13 I81'
_cell_volume   6833.78036836
_cell_formula_units_Z   1
loop_
 _symmetry_equiv_pos_site_id
 _symmetry_equiv_pos_as_xyz
  1  'x, y, z'
loop_
 _atom_site_type_symbol
 _atom_site_label
 _atom_site_symmetry_multiplicity
 _atom_site_fract_x
 _atom_site_fract_y
 _atom_site_fract_z
 _atom_site_occupancy
  Cs  Cs0  1  0.00171806  0.00168378  0.00080835  1
  Cs  Cs1  1  0.00151452  0.00034868  0.33219387  1
  Cs  Cs2  1  0.00416030  0.00130355  0.66752045  1
  Cs  Cs3  1  -0.00148182  0.33148414  0.00078053  1
  Cs  Cs4  1  -0.00066060  0.33401281  0.33327693  1
  Cs  Cs5  1  -0.00189524  0.33879332  0.66448953  1
  Cs  Cs6  1  0.00149269  0.66442594  -0.00332901  1
  Cs  Cs7  1  -0.00040819  0.66570990  0.33677193  1
  Cs  Cs8  1  -0.00789269  0.65894026  0.66583397  1
  Cs  Cs9  1  0.33075944  -0.00012778  -0.00087260  1
  Cs  Cs10  1  0.33179551  -0.00047839  0.33726050  1
  Cs  Cs11  1  0.33182924  -0.00037882  0.66451581  1
  Cs  Cs12  1  0.33638133  0.33412781  0.00065497  1
  Cs  Cs13  1  0.33490512  0.33445542  0.33490208  1
  Cs  Cs14  1  0.33545856  0.33282745  0.66430051  1
  Cs  Cs15  1  0.33271114  0.66565659  0.00011523  1
  Cs  Cs16  1  0.33269945  0.66526513  0.33154295  1
  Cs  Cs17  1  0.33377654  0.66757473  0.66885257  1
  Cs  Cs18  1  0.66770946  -0.00071638  0.00062387  1
  Cs  Cs19  1  0.66680215  -0.00542901  0.33444499  1
  Cs  Cs20  1  0.66507112  -0.00485442  0.66521681  1
  Cs  Cs21  1  0.66454474  0.33160053  0.00229592  1
  Cs  Cs22  1  0.66481401  0.33223009  0.33060952  1
  Cs  Cs23  1  0.66532371  0.33358394  0.66672145  1
  Cs  Cs24  1  0.66618795  0.67402492  -0.00029589  1
  Cs  Cs25  1  0.66790405  0.67181528  0.33370451  1
  Cs  Cs26  1  0.67459028  0.67093081  0.66605484  1
  Sn  Sn27  1  0.83301286  0.16709746  0.16681666  1
  Sn  Sn28  1  0.16651504  0.83368039  0.83320583  1
  Sn  Sn29  1  0.16649904  0.83300882  0.50038626  1
  Sn  Sn30  1  0.16686478  0.16668285  0.83396318  1
  Sn  Sn31  1  0.50139623  0.49945581  0.16643154  1
  Sn  Sn32  1  0.16670190  0.83399286  0.16651247  1
  Sn  Sn33  1  0.83318964  0.16682250  0.83303594  1
  Sn  Sn34  1  0.49990439  0.16707783  0.83398378  1
  Sn  Sn35  1  0.83220700  0.49942784  0.16625442  1
  Sn  Sn36  1  0.50019320  0.50018981  0.49997795  1
  Sn  Sn37  1  0.49981429  0.16679452  0.16622155  1
  Sn  Sn38  1  0.50033628  0.49956207  0.83353402  1
  Sn  Sn39  1  0.16712549  0.16623745  0.16618645  1
  Sn  Sn40  1  0.83319083  0.16660850  0.49993003  1
  Pb  Pb41  1  0.83611487  0.83347049  0.16648354  1
  Pb  Pb42  1  0.16864311  0.50253528  0.50010794  1
  Pb  Pb43  1  0.16485049  0.16582741  0.50008407  1
  Pb  Pb44  1  0.49755889  0.83382235  0.16658519  1
  Pb  Pb45  1  0.83590793  0.83592830  0.49999225  1
  Pb  Pb46  1  0.16664884  0.49913890  0.16655878  1
  Pb  Pb47  1  0.49801726  0.83037751  0.50005228  1
  Pb  Pb48  1  0.83035419  0.49749566  0.83603227  1
  Pb  Pb49  1  0.16866514  0.49885806  0.83338389  1
  Pb  Pb50  1  0.50207314  0.16772930  0.49995117  1
  Pb  Pb51  1  0.83636335  0.83612732  0.83353819  1
  Pb  Pb52  1  0.49798181  0.83406157  0.83347816  1
  Pb  Pb53  1  0.83075374  0.49775247  0.49737031  1
  I  I54  1  0.16651359  0.00167752  0.16594296  1
  I  I55  1  0.16652479  -0.00240505  0.49946925  1
  I  I56  1  0.16846278  0.00155889  0.83432841  1
  I  I57  1  0.16641655  0.32948966  0.16106928  1
  I  I58  1  0.16606690  0.33333693  0.49967106  1
  I  I59  1  0.16497248  0.32915693  0.83987767  1
  I  I60  1  0.16753671  0.66932753  0.16631569  1
  I  I61  1  0.16804329  0.67095393  0.49825998  1
  I  I62  1  0.17041336  0.66938674  0.83511725  1
  I  I63  1  0.50297188  0.00394373  0.16118617  1
  I  I64  1  0.50083661  0.00003591  0.49993719  1
  I  I65  1  0.50194349  0.00412091  0.83885082  1
  I  I66  1  0.49804113  0.33245069  0.16594322  1
  I  I67  1  0.49930877  0.33584553  0.49937533  1
  I  I68  1  0.49709529  0.33193980  0.83462602  1
  I  I69  1  0.50286583  0.66325438  0.16621220  1
  I  I70  1  0.49854420  0.66211150  0.49838319  1
  I  I71  1  0.49618741  0.66369202  0.83505238  1
  I  I72  1  0.83086906  0.00406912  0.16608584  1
  I  I73  1  0.83151455  0.00409061  0.49645858  1
  I  I74  1  0.82750541  0.00503114  0.83752202  1
  I  I75  1  0.83507969  0.33120477  0.16651071  1
  I  I76  1  0.83590227  0.32984441  0.50225311  1
  I  I77  1  0.84035907  0.32896024  0.83160441  1
  I  I78  1  0.82875389  0.66370241  0.16775164  1
  I  I79  1  0.83377083  0.66640721  0.49838155  1
  I  I80  1  0.83381756  0.66634377  0.83411511  1
  I  I81  1  0.16352865  0.15898863  0.00036877  1
  I  I82  1  0.16683827  0.16290541  0.33010170  1
  I  I83  1  0.16772552  0.16219167  0.66988044  1
  I  I84  1  0.16869056  0.50590390  0.00013821  1
  I  I85  1  0.16958719  0.50015431  0.33303972  1
  I  I86  1  0.16925521  0.49943970  0.66685844  1
  I  I87  1  0.16733690  0.83901773  0.00002044  1
  I  I88  1  0.16728337  0.83799756  0.33243462  1
  I  I89  1  0.16894815  0.83997157  0.66764533  1
  I  I90  1  0.50217802  0.17406737  0.00032670  1
  I  I91  1  0.49883760  0.17097069  0.32999820  1
  I  I92  1  0.49886606  0.17080286  0.66980969  1
  I  I93  1  0.50197897  0.49428384  0.00068807  1
  I  I94  1  0.50215455  0.49541506  0.33172511  1
  I  I95  1  0.49559204  0.49434513  0.66756820  1
  I  I96  1  0.49703281  0.82834599  0.00010277  1
  I  I97  1  0.49579459  0.83412976  0.33315121  1
  I  I98  1  0.49534883  0.83457256  0.66682405  1
  I  I99  1  0.83430551  0.17021796  0.00051698  1
  I  I100  1  0.83447928  0.17061037  0.33161302  1
  I  I101  1  0.83412182  0.16488997  0.66767665  1
  I  I102  1  0.82990178  0.49360429  0.00370317  1
  I  I103  1  0.82909365  0.49333627  0.32966747  1
  I  I104  1  0.83260095  0.49877625  0.66682914  1
  I  I105  1  0.83490399  0.83422387  0.00008298  1
  I  I106  1  0.83671514  0.83589866  0.33311005  1
  I  I107  1  0.83574842  0.83449752  0.66679688  1
  I  I108  1  -0.00008868  0.16639739  0.16423301  1
  I  I109  1  -0.00311373  0.16530741  0.49884560  1
  I  I110  1  0.00031004  0.16032270  0.83704245  1
  I  I111  1  -0.00263331  0.49602231  0.16741768  1
  I  I112  1  -0.00062520  0.50086362  0.49848216  1
  I  I113  1  -0.00043718  0.50050339  0.83431764  1
  I  I114  1  0.00422696  0.83861788  0.16612537  1
  I  I115  1  0.00398674  0.83415292  0.49874455  1
  I  I116  1  0.00467981  0.83933775  0.83513181  1
  I  I117  1  0.33349863  0.16699606  0.15995118  1
  I  I118  1  0.33344691  0.16653115  0.49972793  1
  I  I119  1  0.33336098  0.16649814  0.84034241  1
  I  I120  1  0.33671877  0.49730418  0.16651793  1
  I  I121  1  0.33690988  0.49774309  0.49605829  1
  I  I122  1  0.33698157  0.49472561  0.83722841  1
  I  I123  1  0.32941195  0.83712311  0.16601069  1
  I  I124  1  0.32977350  0.83605693  0.49955394  1
  I  I125  1  0.32973209  0.83934669  0.83413915  1
  I  I126  1  0.66651466  0.17273241  0.16367160  1
  I  I127  1  0.66995571  0.16873273  0.49932303  1
  I  I128  1  0.66625975  0.17290880  0.83658083  1
  I  I129  1  0.66553507  0.48985288  0.16689699  1
  I  I130  1  0.66299414  0.49832657  0.50244145  1
  I  I131  1  0.66230472  0.49353280  0.83122411  1
  I  I132  1  0.66672967  0.83553327  0.16799103  1
  I  I133  1  0.66693425  0.83322551  0.49983700  1
  I  I134  1  0.66677252  0.83364099  0.83213200  1
