# generated using pymatgen
data_Cs27Sn14Pb13I81
_symmetry_space_group_name_H-M   'P 1'
_cell_length_a   18.98022875
_cell_length_b   18.96718670
_cell_length_c   18.97894320
_cell_angle_alpha   90.00000002
_cell_angle_beta   90.00000004
_cell_angle_gamma   89.99841208
_symmetry_Int_Tables_number   1
_chemical_formula_structural   Cs27Sn14Pb13I81
_chemical_formula_sum   'Cs27 Sn14 Pb13 I81'
_cell_volume   6832.44882133
_cell_formula_units_Z   1
loop_
 _symmetry_equiv_pos_site_id
 _symmetry_equiv_pos_as_xyz
  1  'x, y, z'
loop_
 _atom_site_type_symbol
 _atom_site_label
 _atom_site_symmetry_multiplicity
 _atom_site_fract_x
 _atom_site_fract_y
 _atom_site_fract_z
 _atom_site_occupancy
  Cs  Cs0  1  0.00236197  -0.00074947  -0.00000005  1
  Cs  Cs1  1  0.00034653  0.00259587  0.33134430  1
  Cs  Cs2  1  0.00034644  0.00259586  0.66865568  1
  Cs  Cs3  1  0.00148318  0.33520121  -0.00000003  1
  Cs  Cs4  1  0.00026616  0.32982123  0.33439175  1
  Cs  Cs5  1  0.00026613  0.32982122  0.66560823  1
  Cs  Cs6  1  -0.00803472  0.66215774  0.00000004  1
  Cs  Cs7  1  0.00152217  0.66268637  0.33218408  1
  Cs  Cs8  1  0.00152208  0.66268639  0.66781592  1
  Cs  Cs9  1  0.33266058  -0.00016077  -0.00000008  1
  Cs  Cs10  1  0.33263485  -0.00295096  0.33122474  1
  Cs  Cs11  1  0.33263489  -0.00295093  0.66877525  1
  Cs  Cs12  1  0.34247809  0.34052071  -0.00000013  1
  Cs  Cs13  1  0.33449747  0.33451955  0.33105821  1
  Cs  Cs14  1  0.33449750  0.33451968  0.66894166  1
  Cs  Cs15  1  0.33345335  0.66634946  0.00000010  1
  Cs  Cs16  1  0.32952060  0.67006546  0.33485717  1
  Cs  Cs17  1  0.32952065  0.67006530  0.66514292  1
  Cs  Cs18  1  0.66439336  -0.00202944  0.00000003  1
  Cs  Cs19  1  0.66728750  0.00031816  0.33433833  1
  Cs  Cs20  1  0.66728743  0.00031808  0.66566180  1
  Cs  Cs21  1  0.65495758  0.33960502  0.00000002  1
  Cs  Cs22  1  0.66571871  0.33292730  0.33581626  1
  Cs  Cs23  1  0.66571874  0.33292739  0.66418374  1
  Cs  Cs24  1  0.67509315  0.66370102  0.00000011  1
  Cs  Cs25  1  0.66823860  0.66658434  0.33374575  1
  Cs  Cs26  1  0.66823848  0.66658436  0.66625433  1
  Sn  Sn27  1  0.49981151  0.83363662  0.83437363  1
  Sn  Sn28  1  0.16703567  0.83399449  0.83471305  1
  Sn  Sn29  1  0.83411088  0.83354355  0.50000002  1
  Sn  Sn30  1  0.16632861  0.16646686  0.83408214  1
  Sn  Sn31  1  0.16703566  0.83399449  0.16528694  1
  Sn  Sn32  1  0.49960060  0.16690139  0.50000000  1
  Sn  Sn33  1  0.16632862  0.16646687  0.16591782  1
  Sn  Sn34  1  0.83324649  0.16648531  0.50000001  1
  Sn  Sn35  1  0.50026073  0.49960891  0.49999997  1
  Sn  Sn36  1  0.83331914  0.16658712  0.16576117  1
  Sn  Sn37  1  0.16735039  0.16621867  0.50000001  1
  Sn  Sn38  1  0.83331913  0.16658716  0.83423883  1
  Sn  Sn39  1  0.83275484  0.49958651  0.50000003  1
  Sn  Sn40  1  0.49981150  0.83363661  0.16562640  1
  Pb  Pb41  1  0.16397022  0.83548689  0.50000003  1
  Pb  Pb42  1  0.50160233  0.83328857  0.49999997  1
  Pb  Pb43  1  0.49995930  0.50383074  0.83050005  1
  Pb  Pb44  1  0.83328819  0.49610406  0.16904770  1
  Pb  Pb45  1  0.83328819  0.49610407  0.83095234  1
  Pb  Pb46  1  0.83402278  0.83525649  0.83143415  1
  Pb  Pb47  1  0.49963280  0.16499641  0.16880905  1
  Pb  Pb48  1  0.16666681  0.49987236  0.83351761  1
  Pb  Pb49  1  0.49963283  0.16499643  0.83119095  1
  Pb  Pb50  1  0.83402279  0.83525650  0.16856585  1
  Pb  Pb51  1  0.16677744  0.49694045  0.50000003  1
  Pb  Pb52  1  0.16666684  0.49987234  0.16648239  1
  Pb  Pb53  1  0.49995928  0.50383073  0.16950000  1
  I  I54  1  0.16661372  0.00098185  0.16730528  1
  I  I55  1  0.16674481  0.00398209  0.49999990  1
  I  I56  1  0.16661377  0.00098185  0.83269485  1
  I  I57  1  0.16083449  0.32901984  0.16863505  1
  I  I58  1  0.16132486  0.32822908  0.50000014  1
  I  I59  1  0.16083456  0.32901984  0.83136506  1
  I  I60  1  0.17153816  0.67052436  0.16401296  1
  I  I61  1  0.16605236  0.66691733  0.49999995  1
  I  I62  1  0.17153806  0.67052436  0.83598707  1
  I  I63  1  0.49868227  -0.00284120  0.16720243  1
  I  I64  1  0.50220568  0.00255587  0.49999997  1
  I  I65  1  0.49868221  -0.00284117  0.83279757  1
  I  I66  1  0.50005463  0.33328736  0.16648340  1
  I  I67  1  0.50539790  0.33180233  0.50000003  1
  I  I68  1  0.50005446  0.33328736  0.83351660  1
  I  I69  1  0.49324577  0.67174710  0.16593996  1
  I  I70  1  0.50699445  0.66454845  0.50000009  1
  I  I71  1  0.49324620  0.67174711  0.83405979  1
  I  I72  1  0.83470215  0.00352028  0.17205533  1
  I  I73  1  0.83220921  0.00229795  0.49999989  1
  I  I74  1  0.83470229  0.00352027  0.82794469  1
  I  I75  1  0.84058596  0.32784551  0.16992344  1
  I  I76  1  0.83274525  0.33135601  0.50000004  1
  I  I77  1  0.84058609  0.32784552  0.83007643  1
  I  I78  1  0.83365667  0.66666458  0.16987832  1
  I  I79  1  0.82669014  0.66646072  0.50000009  1
  I  I80  1  0.83365649  0.66666460  0.83012158  1
  I  I81  1  0.15663315  0.16062279  0.00000002  1
  I  I82  1  0.16303860  0.16316919  0.33330566  1
  I  I83  1  0.16303876  0.16316903  0.66669438  1
  I  I84  1  0.16728670  0.49448147  0.00000000  1
  I  I85  1  0.16656409  0.50124938  0.33355339  1
  I  I86  1  0.16656425  0.50124945  0.66644657  1
  I  I87  1  0.17189397  0.84367536  0.00000000  1
  I  I88  1  0.17072727  0.83808024  0.33078018  1
  I  I89  1  0.17072716  0.83808028  0.66921981  1
  I  I90  1  0.50201188  0.16676321  -0.00000003  1
  I  I91  1  0.50144610  0.16704817  0.33710382  1
  I  I92  1  0.50144592  0.16704812  0.66289618  1
  I  I93  1  0.49904417  0.49733101  -0.00000003  1
  I  I94  1  0.50508544  0.49608098  0.33733746  1
  I  I95  1  0.50508533  0.49608088  0.66266254  1
  I  I96  1  0.49594302  0.83712857  -0.00000002  1
  I  I97  1  0.49627769  0.83407574  0.33139481  1
  I  I98  1  0.49627786  0.83407587  0.66860523  1
  I  I99  1  0.84242877  0.16305168  -0.00000002  1
  I  I100  1  0.83623429  0.16662351  0.33482793  1
  I  I101  1  0.83623426  0.16662337  0.66517207  1
  I  I102  1  0.83400227  0.50058475  0.00000001  1
  I  I103  1  0.82944400  0.49826238  0.33754410  1
  I  I104  1  0.82944400  0.49826237  0.66245589  1
  I  I105  1  0.83156512  0.83564588  0.00000002  1
  I  I106  1  0.83165393  0.83708644  0.33661351  1
  I  I107  1  0.83165388  0.83708663  0.66338647  1
  I  I108  1  0.00061452  0.16067762  0.17296526  1
  I  I109  1  -0.00078134  0.16624816  0.50000008  1
  I  I110  1  0.00061459  0.16067768  0.82703467  1
  I  I111  1  -0.00018474  0.50512533  0.17006260  1
  I  I112  1  -0.00309215  0.49912426  0.50000003  1
  I  I113  1  -0.00018474  0.50512535  0.82993732  1
  I  I114  1  0.00319331  0.83693473  0.16408896  1
  I  I115  1  -0.00379951  0.83431107  0.50000002  1
  I  I116  1  0.00319332  0.83693477  0.83591101  1
  I  I117  1  0.33012902  0.16385674  0.16838217  1
  I  I118  1  0.33298692  0.17061577  0.49999987  1
  I  I119  1  0.33012903  0.16385671  0.83161808  1
  I  I120  1  0.33348654  0.49412107  0.17044002  1
  I  I121  1  0.33623068  0.49553155  0.49999996  1
  I  I122  1  0.33348654  0.49412130  0.82955992  1
  I  I123  1  0.33236481  0.83990653  0.16531202  1
  I  I124  1  0.33295341  0.83342828  0.50000004  1
  I  I125  1  0.33236481  0.83990645  0.83468794  1
  I  I126  1  0.66909006  0.16421123  0.16981376  1
  I  I127  1  0.66809103  0.16691177  0.50000004  1
  I  I128  1  0.66909007  0.16421122  0.83018625  1
  I  I129  1  0.66664637  0.50016392  0.16603074  1
  I  I130  1  0.66747218  0.49390652  0.50000002  1
  I  I131  1  0.66664634  0.50016344  0.83396919  1
  I  I132  1  0.66461575  0.83556301  0.16545128  1
  I  I133  1  0.66936798  0.83923549  0.49999993  1
  I  I134  1  0.66461573  0.83556329  0.83454874  1
