# generated using pymatgen
data_Cs27Sn13Pb14I81
_symmetry_space_group_name_H-M   'P 1'
_cell_length_a   18.97847676
_cell_length_b   18.97907499
_cell_length_c   18.97429648
_cell_angle_alpha   89.99889523
_cell_angle_beta   90.00062589
_cell_angle_gamma   90.00063141
_symmetry_Int_Tables_number   1
_chemical_formula_structural   Cs27Sn13Pb14I81
_chemical_formula_sum   'Cs27 Sn13 Pb14 I81'
_cell_volume   6834.42648345
_cell_formula_units_Z   1
loop_
 _symmetry_equiv_pos_site_id
 _symmetry_equiv_pos_as_xyz
  1  'x, y, z'
loop_
 _atom_site_type_symbol
 _atom_site_label
 _atom_site_symmetry_multiplicity
 _atom_site_fract_x
 _atom_site_fract_y
 _atom_site_fract_z
 _atom_site_occupancy
  Cs  Cs0  1  -0.00872558  0.00359043  0.00537850  1
  Cs  Cs1  1  0.00078282  0.00109712  0.33268994  1
  Cs  Cs2  1  0.00016962  -0.00038720  0.66456903  1
  Cs  Cs3  1  0.00097950  0.33057778  0.00212923  1
  Cs  Cs4  1  -0.00024964  0.33293709  0.33293404  1
  Cs  Cs5  1  0.00073892  0.33369663  0.66514940  1
  Cs  Cs6  1  -0.00323103  0.66572493  -0.00257729  1
  Cs  Cs7  1  0.00202722  0.66568266  0.33581822  1
  Cs  Cs8  1  -0.00008191  0.66690176  0.66620451  1
  Cs  Cs9  1  0.33312755  -0.00136575  0.00179717  1
  Cs  Cs10  1  0.33253035  -0.00351885  0.33145935  1
  Cs  Cs11  1  0.33400086  -0.00066257  0.66612036  1
  Cs  Cs12  1  0.33237602  0.33419151  0.00057985  1
  Cs  Cs13  1  0.33498805  0.33306045  0.33245035  1
  Cs  Cs14  1  0.33618315  0.33129812  0.66688039  1
  Cs  Cs15  1  0.33409101  0.66598547  -0.00028836  1
  Cs  Cs16  1  0.33228118  0.66969674  0.33177284  1
  Cs  Cs17  1  0.33179832  0.66924058  0.66828186  1
  Cs  Cs18  1  0.67645316  -0.00099720  0.00056772  1
  Cs  Cs19  1  0.66644477  -0.00133098  0.33377211  1
  Cs  Cs20  1  0.66561213  0.00170283  0.66631275  1
  Cs  Cs21  1  0.66583481  0.33114986  -0.00512225  1
  Cs  Cs22  1  0.66325796  0.33539000  0.33604255  1
  Cs  Cs23  1  0.65985598  0.33670844  0.67057055  1
  Cs  Cs24  1  0.66910464  0.66971491  -0.00026023  1
  Cs  Cs25  1  0.66621666  0.66584551  0.33318919  1
  Cs  Cs26  1  0.66888920  0.66232486  0.66667569  1
  Sn  Sn27  1  0.83322471  0.49978137  0.16667861  1
  Sn  Sn28  1  0.50095612  0.83319849  0.50097776  1
  Sn  Sn29  1  0.16671148  0.16623353  0.83290017  1
  Sn  Sn30  1  0.16621910  0.16739526  0.50051621  1
  Sn  Sn31  1  0.16659550  0.50003983  0.16667652  1
  Sn  Sn32  1  0.49999713  0.16695443  0.16649191  1
  Sn  Sn33  1  0.16695963  0.83397610  0.83364509  1
  Sn  Sn34  1  0.83334007  0.16667807  0.50030136  1
  Sn  Sn35  1  0.50021312  0.49911614  0.16649867  1
  Sn  Sn36  1  0.83239520  0.83387389  0.50019669  1
  Sn  Sn37  1  0.16695299  0.49979713  0.83317111  1
  Sn  Sn38  1  0.16705185  0.49903545  0.50014364  1
  Sn  Sn39  1  0.49962125  0.83355695  0.83262914  1
  Pb  Pb40  1  0.49723742  0.50244498  0.49828734  1
  Pb  Pb41  1  0.83073660  0.16917391  0.16943397  1
  Pb  Pb42  1  0.16628719  0.83092151  0.16322621  1
  Pb  Pb43  1  0.50006560  0.83331311  0.16611101  1
  Pb  Pb44  1  0.16666211  0.83376115  0.50154107  1
  Pb  Pb45  1  0.83510112  0.49952115  0.49863513  1
  Pb  Pb46  1  0.16798540  0.16840852  0.16696537  1
  Pb  Pb47  1  0.83573861  0.16692279  0.83040091  1
  Pb  Pb48  1  0.49949891  0.16479206  0.49865601  1
  Pb  Pb49  1  0.83344903  0.83343323  0.83074753  1
  Pb  Pb50  1  0.83573997  0.49970060  0.83559343  1
  Pb  Pb51  1  0.49791681  0.50209622  0.83562075  1
  Pb  Pb52  1  0.83359558  0.83111786  0.16972213  1
  Pb  Pb53  1  0.49774829  0.16405004  0.83571609  1
  I  I54  1  0.17013167  0.00024101  0.16771291  1
  I  I55  1  0.16605511  0.00263239  0.50464018  1
  I  I56  1  0.17188121  0.00017115  0.82577493  1
  I  I57  1  0.16539686  0.33697599  0.16288125  1
  I  I58  1  0.16124378  0.33321611  0.50335753  1
  I  I59  1  0.16507696  0.33368591  0.83330233  1
  I  I60  1  0.17045776  0.66195481  0.16957770  1
  I  I61  1  0.16673457  0.66425613  0.49945067  1
  I  I62  1  0.17077170  0.66628126  0.83379581  1
  I  I63  1  0.49773535  0.00227966  0.16791830  1
  I  I64  1  0.49821733  -0.00315154  0.50018612  1
  I  I65  1  0.49235949  -0.00364859  0.83129274  1
  I  I66  1  0.49809228  0.33458830  0.16843665  1
  I  I67  1  0.50196653  0.33345949  0.49938101  1
  I  I68  1  0.49871710  0.33327726  0.83301792  1
  I  I69  1  0.49824800  0.66364290  0.16708784  1
  I  I70  1  0.50387795  0.67032284  0.50132434  1
  I  I71  1  0.49307525  0.66989444  0.83144304  1
  I  I72  1  0.83125339  0.00040863  0.16535251  1
  I  I73  1  0.83664465  0.00007797  0.49997808  1
  I  I74  1  0.83626670  0.00004393  0.83671053  1
  I  I75  1  0.83806035  0.33687219  0.16950174  1
  I  I76  1  0.83843244  0.33074383  0.49678923  1
  I  I77  1  0.83464250  0.33330501  0.83136664  1
  I  I78  1  0.83189337  0.66296448  0.16825464  1
  I  I79  1  0.83150238  0.66894412  0.49810562  1
  I  I80  1  0.83644507  0.66667037  0.83181206  1
  I  I81  1  0.17027888  0.16773513  -0.00262981  1
  I  I82  1  0.16431167  0.17115540  0.33639960  1
  I  I83  1  0.16358364  0.17162515  0.66629941  1
  I  I84  1  0.16747490  0.50101367  0.00002811  1
  I  I85  1  0.16638131  0.49557990  0.33331178  1
  I  I86  1  0.16579416  0.50029007  0.66674827  1
  I  I87  1  0.17477256  0.83347535  -0.00503730  1
  I  I88  1  0.16789340  0.83236019  0.33353720  1
  I  I89  1  0.16784474  0.82814267  0.66946503  1
  I  I90  1  0.49663020  0.17075162  0.00335779  1
  I  I91  1  0.49743363  0.16923760  0.33082429  1
  I  I92  1  0.50110374  0.16649130  0.66674108  1
  I  I93  1  0.49668974  0.49873771  0.00379088  1
  I  I94  1  0.49676057  0.49906947  0.33007442  1
  I  I95  1  0.49861353  0.49954105  0.66672745  1
  I  I96  1  0.49274027  0.83168981  -0.00280323  1
  I  I97  1  0.50345938  0.83272988  0.33582344  1
  I  I98  1  0.49810404  0.83432855  0.66646606  1
  I  I99  1  0.83418570  0.16689626  0.00027602  1
  I  I100  1  0.84157599  0.16236677  0.33696566  1
  I  I101  1  0.83523304  0.16283944  0.66232074  1
  I  I102  1  0.83520116  0.50090279  0.00394559  1
  I  I103  1  0.83667435  0.50088509  0.33049696  1
  I  I104  1  0.83625885  0.50128407  0.66639489  1
  I  I105  1  0.83286348  0.83207456  -0.00008893  1
  I  I106  1  0.82774860  0.83671492  0.33758854  1
  I  I107  1  0.83329826  0.83544528  0.66286373  1
  I  I108  1  -0.00006913  0.16804144  0.16483587  1
  I  I109  1  0.00126931  0.16441194  0.50284188  1
  I  I110  1  0.00466858  0.16479484  0.83381736  1
  I  I111  1  0.00132682  0.50175632  0.16666967  1
  I  I112  1  0.00370861  0.50177215  0.49777522  1
  I  I113  1  0.00492975  0.50379617  0.83504540  1
  I  I114  1  0.00005190  0.83180447  0.16719061  1
  I  I115  1  -0.00178153  0.83331044  0.50075918  1
  I  I116  1  0.00332176  0.83101781  0.83172957  1
  I  I117  1  0.33566395  0.17245103  0.16878090  1
  I  I118  1  0.33011139  0.16965115  0.50246838  1
  I  I119  1  0.32933576  0.16962486  0.82691471  1
  I  I120  1  0.33261928  0.49657838  0.16630902  1
  I  I121  1  0.32890928  0.49578293  0.49826477  1
  I  I122  1  0.32924068  0.49877694  0.83539286  1
  I  I123  1  0.33330724  0.83106870  0.17208814  1
  I  I124  1  0.33523651  0.83248898  0.50150063  1
  I  I125  1  0.33250489  0.83215494  0.82697736  1
  I  I126  1  0.66318121  0.17176816  0.16837953  1
  I  I127  1  0.66887450  0.16278824  0.49531100  1
  I  I128  1  0.66639389  0.16482456  0.83371258  1
  I  I129  1  0.66602470  0.49721284  0.16940204  1
  I  I130  1  0.66643281  0.49900542  0.49665237  1
  I  I131  1  0.66634621  0.50234698  0.83488874  1
  I  I132  1  0.66657778  0.83032567  0.16264597  1
  I  I133  1  0.66648080  0.83872685  0.50422723  1
  I  I134  1  0.66378694  0.83269515  0.83249774  1
