# generated using pymatgen
data_Cs27Sn13Pb14I81
_symmetry_space_group_name_H-M   'P 1'
_cell_length_a   18.98226292
_cell_length_b   18.97682836
_cell_length_c   18.97357970
_cell_angle_alpha   89.99928360
_cell_angle_beta   89.99908112
_cell_angle_gamma   89.99977309
_symmetry_Int_Tables_number   1
_chemical_formula_structural   Cs27Sn13Pb14I81
_chemical_formula_sum   'Cs27 Sn13 Pb14 I81'
_cell_volume   6834.72255386
_cell_formula_units_Z   1
loop_
 _symmetry_equiv_pos_site_id
 _symmetry_equiv_pos_as_xyz
  1  'x, y, z'
loop_
 _atom_site_type_symbol
 _atom_site_label
 _atom_site_symmetry_multiplicity
 _atom_site_fract_x
 _atom_site_fract_y
 _atom_site_fract_z
 _atom_site_occupancy
  Cs  Cs0  1  0.00169977  -0.00068176  0.00000922  1
  Cs  Cs1  1  -0.00362334  0.00561356  0.33540397  1
  Cs  Cs2  1  0.00027571  0.00537113  0.66563126  1
  Cs  Cs3  1  0.00190029  0.33272048  -0.00026882  1
  Cs  Cs4  1  -0.00261053  0.32971289  0.33686564  1
  Cs  Cs5  1  0.00124928  0.32938026  0.66392006  1
  Cs  Cs6  1  0.00022422  0.66698063  0.00058194  1
  Cs  Cs7  1  -0.00049367  0.66589604  0.33107083  1
  Cs  Cs8  1  0.00024984  0.66604331  0.66789233  1
  Cs  Cs9  1  0.33149903  0.00821096  -0.00121829  1
  Cs  Cs10  1  0.33382030  -0.00293727  0.33431385  1
  Cs  Cs11  1  0.33490144  -0.00271009  0.66665084  1
  Cs  Cs12  1  0.33355776  0.32733722  -0.00259230  1
  Cs  Cs13  1  0.33602529  0.33564264  0.33345910  1
  Cs  Cs14  1  0.33258080  0.33139151  0.66827444  1
  Cs  Cs15  1  0.32954606  0.66570018  0.00329353  1
  Cs  Cs16  1  0.33361738  0.66646282  0.33323205  1
  Cs  Cs17  1  0.33329793  0.67023107  0.66347053  1
  Cs  Cs18  1  0.66473645  0.00122887  -0.00189693  1
  Cs  Cs19  1  0.66888735  0.00190308  0.33334998  1
  Cs  Cs20  1  0.66591064  -0.00477062  0.66776525  1
  Cs  Cs21  1  0.66315016  0.33355429  -0.00259541  1
  Cs  Cs22  1  0.66706133  0.33293547  0.33432453  1
  Cs  Cs23  1  0.66673070  0.33557043  0.66586006  1
  Cs  Cs24  1  0.66878587  0.66570808  -0.00270780  1
  Cs  Cs25  1  0.66689127  0.66526590  0.33223196  1
  Cs  Cs26  1  0.66739850  0.66779302  0.67228642  1
  Sn  Sn27  1  0.50015393  0.83256487  0.16641581  1
  Sn  Sn28  1  0.16650961  0.83275147  0.16606743  1
  Sn  Sn29  1  0.83355657  0.83205414  0.49936067  1
  Sn  Sn30  1  0.83325383  0.83259088  0.16732943  1
  Sn  Sn31  1  0.16654259  0.50024752  0.16599743  1
  Sn  Sn32  1  0.16672832  0.50099090  0.83391388  1
  Sn  Sn33  1  0.16654875  0.83229953  0.83398345  1
  Sn  Sn34  1  0.50018676  0.50090533  0.16707837  1
  Sn  Sn35  1  0.83249731  0.50123791  0.49942155  1
  Sn  Sn36  1  0.50096586  0.49959595  0.49950795  1
  Sn  Sn37  1  0.50008542  0.16733054  0.49971466  1
  Sn  Sn38  1  0.83298884  0.16690771  0.83370815  1
  Sn  Sn39  1  0.83329818  0.50053903  0.16719657  1
  Pb  Pb40  1  0.50013233  0.16699065  0.16852206  1
  Pb  Pb41  1  0.16509465  0.16654301  0.83346518  1
  Pb  Pb42  1  0.50240006  0.83222380  0.49786895  1
  Pb  Pb43  1  0.16663747  0.50004930  0.49936463  1
  Pb  Pb44  1  0.49693206  0.83294385  0.83682687  1
  Pb  Pb45  1  0.17002755  0.16660347  0.49978259  1
  Pb  Pb46  1  0.16376779  0.83318438  0.49909357  1
  Pb  Pb47  1  0.83315075  0.16701827  0.16470845  1
  Pb  Pb48  1  0.50242540  0.16668838  0.83050271  1
  Pb  Pb49  1  0.83148114  0.16697677  0.50173140  1
  Pb  Pb50  1  0.83541831  0.83476067  0.83390987  1
  Pb  Pb51  1  0.49718742  0.50038366  0.83346431  1
  Pb  Pb52  1  0.16662687  0.16683761  0.16708647  1
  Pb  Pb53  1  0.83549418  0.49856740  0.83341749  1
  I  I54  1  0.16692267  -0.00399760  0.16197512  1
  I  I55  1  0.16588357  -0.00039797  0.50052057  1
  I  I56  1  0.16508974  -0.00313636  0.83890980  1
  I  I57  1  0.16695079  0.33755707  0.16229728  1
  I  I58  1  0.16091644  0.33379224  0.50061128  1
  I  I59  1  0.16570517  0.33637045  0.83815996  1
  I  I60  1  0.16632661  0.66634812  0.16241890  1
  I  I61  1  0.17151650  0.66657026  0.50222090  1
  I  I62  1  0.16479638  0.66655260  0.83856723  1
  I  I63  1  0.49972436  -0.00328152  0.16793355  1
  I  I64  1  0.50159284  0.00141650  0.49890251  1
  I  I65  1  0.49809087  -0.00022971  0.83272703  1
  I  I66  1  0.50017414  0.33721103  0.16854172  1
  I  I67  1  0.50566476  0.33550480  0.49412985  1
  I  I68  1  0.49722972  0.33363453  0.83801026  1
  I  I69  1  0.49907525  0.66564970  0.17286822  1
  I  I70  1  0.50107327  0.66333943  0.49691068  1
  I  I71  1  0.50426552  0.66663250  0.82708669  1
  I  I72  1  0.83418241  -0.00362161  0.17024103  1
  I  I73  1  0.83295355  -0.00258203  0.49624845  1
  I  I74  1  0.83589552  0.00224369  0.83229955  1
  I  I75  1  0.83374605  0.33731417  0.17035419  1
  I  I76  1  0.83222578  0.33664399  0.49634348  1
  I  I77  1  0.83628805  0.33114117  0.83275856  1
  I  I78  1  0.83381146  0.66638949  0.17011398  1
  I  I79  1  0.82835511  0.66567368  0.49619075  1
  I  I80  1  0.83321561  0.66662854  0.83230563  1
  I  I81  1  0.16703719  0.16708164  0.00010642  1
  I  I82  1  0.16364438  0.16623009  0.33331476  1
  I  I83  1  0.16511653  0.16728437  0.66689454  1
  I  I84  1  0.16556044  0.50427618  0.00167573  1
  I  I85  1  0.16736995  0.50550124  0.32964650  1
  I  I86  1  0.16586292  0.50328956  0.66925607  1
  I  I87  1  0.16409454  0.82859090  0.00157409  1
  I  I88  1  0.16934970  0.82767260  0.32928619  1
  I  I89  1  0.16455179  0.82958517  0.66928593  1
  I  I90  1  0.49989165  0.16671571  -0.00003302  1
  I  I91  1  0.50284175  0.16918125  0.33621798  1
  I  I92  1  0.50038640  0.17382829  0.66266554  1
  I  I93  1  0.50369094  0.50452313  0.00380737  1
  I  I94  1  0.49838333  0.49949668  0.33235345  1
  I  I95  1  0.50373198  0.49527279  0.66340900  1
  I  I96  1  0.50686647  0.82681639  0.00512290  1
  I  I97  1  0.49420973  0.83201196  0.32963797  1
  I  I98  1  0.49996880  0.83439329  0.66652164  1
  I  I99  1  0.83462991  0.16635095  -0.00274522  1
  I  I100  1  0.83276554  0.16601022  0.33352251  1
  I  I101  1  0.83366524  0.16653645  0.66907945  1
  I  I102  1  0.83105680  0.50342604  0.00353571  1
  I  I103  1  0.83476181  0.50305067  0.33255226  1
  I  I104  1  0.82989231  0.50256057  0.66360800  1
  I  I105  1  0.83203850  0.82985912  0.00371718  1
  I  I106  1  0.83537544  0.83032671  0.33198399  1
  I  I107  1  0.83408119  0.83078838  0.66414156  1
  I  I108  1  -0.00023372  0.16680803  0.16682120  1
  I  I109  1  -0.00057084  0.16682421  0.50178645  1
  I  I110  1  -0.00242824  0.16670874  0.83143478  1
  I  I111  1  -0.00033874  0.50583904  0.16623293  1
  I  I112  1  -0.00323553  0.50392725  0.49709775  1
  I  I113  1  0.00320662  0.50320350  0.83783969  1
  I  I114  1  -0.00018327  0.82715089  0.16586797  1
  I  I115  1  -0.00423008  0.82751880  0.49504921  1
  I  I116  1  0.00307008  0.82998596  0.83925811  1
  I  I117  1  0.33345627  0.16626196  0.16709878  1
  I  I118  1  0.33796611  0.17369973  0.49931767  1
  I  I119  1  0.33333353  0.16647515  0.83216352  1
  I  I120  1  0.33353650  0.50587365  0.16791602  1
  I  I121  1  0.33632855  0.49541032  0.49675256  1
  I  I122  1  0.32921469  0.50289395  0.83738194  1
  I  I123  1  0.33303510  0.82701868  0.16302508  1
  I  I124  1  0.33350742  0.83453307  0.49998185  1
  I  I125  1  0.32886275  0.82993158  0.83638193  1
  I  I126  1  0.66670112  0.16534788  0.16506575  1
  I  I127  1  0.66403600  0.16925603  0.50030107  1
  I  I128  1  0.66986186  0.16672227  0.83478958  1
  I  I129  1  0.66688766  0.50551700  0.17202323  1
  I  I130  1  0.66710089  0.49881944  0.49205071  1
  I  I131  1  0.66681645  0.49714538  0.83560029  1
  I  I132  1  0.66729332  0.82819991  0.17219174  1
  I  I133  1  0.67027060  0.83323936  0.49499844  1
  I  I134  1  0.66687575  0.83631964  0.83373794  1
