# generated using pymatgen
data_Cs27Sn14Pb13I81
_symmetry_space_group_name_H-M   'P 1'
_cell_length_a   18.97700994
_cell_length_b   18.96944147
_cell_length_c   18.97991369
_cell_angle_alpha   90.00116159
_cell_angle_beta   90.00022126
_cell_angle_gamma   90.00242617
_symmetry_Int_Tables_number   1
_chemical_formula_structural   Cs27Sn14Pb13I81
_chemical_formula_sum   'Cs27 Sn14 Pb13 I81'
_cell_volume   6832.45156291
_cell_formula_units_Z   1
loop_
 _symmetry_equiv_pos_site_id
 _symmetry_equiv_pos_as_xyz
  1  'x, y, z'
loop_
 _atom_site_type_symbol
 _atom_site_label
 _atom_site_symmetry_multiplicity
 _atom_site_fract_x
 _atom_site_fract_y
 _atom_site_fract_z
 _atom_site_occupancy
  Cs  Cs0  1  0.00085328  -0.00194244  -0.00078411  1
  Cs  Cs1  1  0.00068022  -0.00117719  0.33238748  1
  Cs  Cs2  1  0.00039442  0.00057487  0.66825882  1
  Cs  Cs3  1  0.00010561  0.33167732  -0.01068744  1
  Cs  Cs4  1  -0.00131399  0.33451795  0.33774993  1
  Cs  Cs5  1  -0.00550843  0.34119973  0.67240026  1
  Cs  Cs6  1  0.00145452  0.67120829  0.00260150  1
  Cs  Cs7  1  0.00281819  0.66687816  0.33364355  1
  Cs  Cs8  1  -0.00009217  0.66388781  0.66460769  1
  Cs  Cs9  1  0.33196395  0.00175962  0.00109271  1
  Cs  Cs10  1  0.33272067  0.00120198  0.33451238  1
  Cs  Cs11  1  0.33471836  -0.00082686  0.66508807  1
  Cs  Cs12  1  0.33357979  0.33743984  -0.00260237  1
  Cs  Cs13  1  0.33556315  0.33213304  0.33412847  1
  Cs  Cs14  1  0.32945343  0.33258560  0.66527191  1
  Cs  Cs15  1  0.33354236  0.65665825  0.00175093  1
  Cs  Cs16  1  0.32922748  0.66211609  0.33227319  1
  Cs  Cs17  1  0.33715454  0.66739631  0.66782194  1
  Cs  Cs18  1  0.66718259  0.00015802  0.00318075  1
  Cs  Cs19  1  0.66656514  0.00093158  0.33265663  1
  Cs  Cs20  1  0.66501423  -0.00209110  0.66560982  1
  Cs  Cs21  1  0.66502987  0.33636264  0.00152594  1
  Cs  Cs22  1  0.66576337  0.33200134  0.33291758  1
  Cs  Cs23  1  0.67478311  0.33400754  0.66489914  1
  Cs  Cs24  1  0.66560246  0.66480482  -0.00086971  1
  Cs  Cs25  1  0.66730957  0.66869041  0.33233852  1
  Cs  Cs26  1  0.66287501  0.66951846  0.67118284  1
  Sn  Sn27  1  0.83251746  0.83336146  0.16684327  1
  Sn  Sn28  1  0.83387275  0.49990868  0.16690639  1
  Sn  Sn29  1  0.16663009  0.16664059  0.16727340  1
  Sn  Sn30  1  0.49953516  0.16588664  0.16640808  1
  Sn  Sn31  1  0.49958625  0.16763305  0.50025338  1
  Sn  Sn32  1  0.16659993  0.83370975  0.83242247  1
  Sn  Sn33  1  0.83380898  0.16696112  0.16681765  1
  Sn  Sn34  1  0.16591310  0.83433893  0.50091072  1
  Sn  Sn35  1  0.16655402  0.16615317  0.49967378  1
  Sn  Sn36  1  0.83409377  0.83372166  0.49990717  1
  Sn  Sn37  1  0.50023452  0.16644416  0.83315189  1
  Sn  Sn38  1  0.49998610  0.83368534  0.16676460  1
  Sn  Sn39  1  0.83398037  0.83385838  0.83337378  1
  Sn  Sn40  1  0.50024895  0.49893427  0.49989088  1
  Pb  Pb41  1  0.83375953  0.16489741  0.49846822  1
  Pb  Pb42  1  0.49943848  0.83498269  0.83637559  1
  Pb  Pb43  1  0.49938419  0.83387895  0.49779603  1
  Pb  Pb44  1  0.16846018  0.49964287  0.49998223  1
  Pb  Pb45  1  0.83320501  0.50326150  0.83598780  1
  Pb  Pb46  1  0.50154730  0.49953516  0.16832093  1
  Pb  Pb47  1  0.16343789  0.49569034  0.16687585  1
  Pb  Pb48  1  0.16836035  0.16495326  0.83261044  1
  Pb  Pb49  1  0.16669011  0.50359160  0.83315411  1
  Pb  Pb50  1  0.50023935  0.49655013  0.83022573  1
  Pb  Pb51  1  0.16698095  0.83472363  0.16693071  1
  Pb  Pb52  1  0.83099459  0.50316169  0.49806969  1
  Pb  Pb53  1  0.83101318  0.16432218  0.83587042  1
  I  I54  1  0.16390115  0.00295472  0.16788575  1
  I  I55  1  0.16965309  0.00007685  0.49893352  1
  I  I56  1  0.16239802  -0.00298613  0.83262930  1
  I  I57  1  0.17050071  0.32761348  0.17360780  1
  I  I58  1  0.17081258  0.32962041  0.49346774  1
  I  I59  1  0.16824698  0.33294566  0.83401063  1
  I  I60  1  0.16760329  0.66664746  0.16630101  1
  I  I61  1  0.16408938  0.67007121  0.50331280  1
  I  I62  1  0.16323075  0.67206786  0.82829932  1
  I  I63  1  0.50548810  0.00144833  0.16917913  1
  I  I64  1  0.49902754  0.00300163  0.49994989  1
  I  I65  1  0.50027601  0.00274675  0.82911848  1
  I  I66  1  0.50129265  0.32950517  0.16561683  1
  I  I67  1  0.49465426  0.33064370  0.49660542  1
  I  I68  1  0.49895057  0.32864196  0.84199102  1
  I  I69  1  0.50520208  0.66921334  0.16858764  1
  I  I70  1  0.50130732  0.66540537  0.49651296  1
  I  I71  1  0.49998773  0.66686107  0.83323695  1
  I  I72  1  0.83127270  -0.00049237  0.16676068  1
  I  I73  1  0.83156308  -0.00346338  0.49647170  1
  I  I74  1  0.83658636  -0.00380266  0.83634588  1
  I  I75  1  0.83123095  0.33203925  0.16854001  1
  I  I76  1  0.83482651  0.33324884  0.49751186  1
  I  I77  1  0.83230407  0.33313242  0.83472079  1
  I  I78  1  0.82729463  0.66870973  0.16639929  1
  I  I79  1  0.83748644  0.67140121  0.49652156  1
  I  I80  1  0.83551265  0.67157258  0.83526642  1
  I  I81  1  0.16701428  0.16418621  0.00267438  1
  I  I82  1  0.17174746  0.15962773  0.33356754  1
  I  I83  1  0.17401124  0.16260358  0.66341907  1
  I  I84  1  0.16824103  0.50051964  0.00029844  1
  I  I85  1  0.16658578  0.50665642  0.33330049  1
  I  I86  1  0.16657199  0.49496869  0.66640045  1
  I  I87  1  0.16281065  0.83618311  -0.00162892  1
  I  I88  1  0.16393474  0.83580821  0.33586491  1
  I  I89  1  0.15931862  0.83952563  0.66548364  1
  I  I90  1  0.50075665  0.15995325  0.00184952  1
  I  I91  1  0.49968917  0.16650783  0.33277067  1
  I  I92  1  0.49400108  0.16965315  0.66533528  1
  I  I93  1  0.50102647  0.50052561  0.00008320  1
  I  I94  1  0.50083844  0.49459720  0.33584838  1
  I  I95  1  0.49993852  0.49806305  0.66245136  1
  I  I96  1  0.50471701  0.83964308  0.00417615  1
  I  I97  1  0.50529910  0.83910618  0.33007507  1
  I  I98  1  0.50333729  0.83393928  0.66657066  1
  I  I99  1  0.83395257  0.16369403  0.00459324  1
  I  I100  1  0.82866978  0.16311868  0.32980376  1
  I  I101  1  0.83184255  0.16419515  0.66674587  1
  I  I102  1  0.83052625  0.50042267  0.00404931  1
  I  I103  1  0.83187132  0.50184420  0.33016171  1
  I  I104  1  0.83244156  0.50060952  0.66658161  1
  I  I105  1  0.83367920  0.83399105  0.00123274  1
  I  I106  1  0.83277666  0.83395206  0.33223182  1
  I  I107  1  0.83716576  0.83438028  0.66633843  1
  I  I108  1  -0.00026648  0.16437267  0.17222732  1
  I  I109  1  0.00283917  0.16204406  0.49317938  1
  I  I110  1  -0.00015007  0.16682967  0.83469494  1
  I  I111  1  -0.00431742  0.50552547  0.16839416  1
  I  I112  1  -0.00032718  0.49812762  0.49888369  1
  I  I113  1  -0.00030752  0.49490981  0.83279623  1
  I  I114  1  -0.00298089  0.83457996  0.16631390  1
  I  I115  1  0.00010001  0.83865328  0.49757152  1
  I  I116  1  -0.00075315  0.83500671  0.83627450  1
  I  I117  1  0.33444251  0.15978692  0.16802720  1
  I  I118  1  0.33381306  0.16409668  0.49472548  1
  I  I119  1  0.33619523  0.16269733  0.83821872  1
  I  I120  1  0.33325719  0.50250279  0.16751377  1
  I  I121  1  0.33642010  0.50066931  0.49731727  1
  I  I122  1  0.33374377  0.50348950  0.83546666  1
  I  I123  1  0.33573156  0.83969009  0.16759946  1
  I  I124  1  0.33069632  0.83484628  0.50329635  1
  I  I125  1  0.33083304  0.83654825  0.82819106  1
  I  I126  1  0.66630341  0.16477578  0.16701831  1
  I  I127  1  0.66381222  0.16818692  0.49813457  1
  I  I128  1  0.66315081  0.16332141  0.83248690  1
  I  I129  1  0.66943241  0.49755315  0.16832124  1
  I  I130  1  0.66347496  0.49294274  0.49805815  1
  I  I131  1  0.66666338  0.50322144  0.83337943  1
  I  I132  1  0.66812277  0.83820241  0.16738014  1
  I  I133  1  0.66886952  0.83342306  0.50066864  1
  I  I134  1  0.66922319  0.83479605  0.83157623  1
