# generated using pymatgen
data_Cs27Sn14Pb13I81
_symmetry_space_group_name_H-M   'P 1'
_cell_length_a   18.97997666
_cell_length_b   18.97438407
_cell_length_c   18.97423650
_cell_angle_alpha   89.99936078
_cell_angle_beta   89.99932861
_cell_angle_gamma   90.00036832
_symmetry_Int_Tables_number   1
_chemical_formula_structural   Cs27Sn14Pb13I81
_chemical_formula_sum   'Cs27 Sn14 Pb13 I81'
_cell_volume   6833.25567242
_cell_formula_units_Z   1
loop_
 _symmetry_equiv_pos_site_id
 _symmetry_equiv_pos_as_xyz
  1  'x, y, z'
loop_
 _atom_site_type_symbol
 _atom_site_label
 _atom_site_symmetry_multiplicity
 _atom_site_fract_x
 _atom_site_fract_y
 _atom_site_fract_z
 _atom_site_occupancy
  Cs  Cs0  1  0.00072618  0.00071623  -0.00038648  1
  Cs  Cs1  1  -0.00064968  0.00039427  0.33274743  1
  Cs  Cs2  1  -0.00185300  -0.00079112  0.66880368  1
  Cs  Cs3  1  -0.00027785  0.33418957  -0.00074042  1
  Cs  Cs4  1  -0.00251847  0.33175731  0.33144786  1
  Cs  Cs5  1  0.00180174  0.33372115  0.66928520  1
  Cs  Cs6  1  -0.00242522  0.66804440  0.00141658  1
  Cs  Cs7  1  0.00122199  0.66845361  0.33524927  1
  Cs  Cs8  1  0.00326524  0.66825415  0.66178068  1
  Cs  Cs9  1  0.33188011  -0.00060944  0.00049500  1
  Cs  Cs10  1  0.33481546  0.00068131  0.33200837  1
  Cs  Cs11  1  0.33609222  0.00015563  0.66629385  1
  Cs  Cs12  1  0.33061067  0.33128034  0.00120450  1
  Cs  Cs13  1  0.33428334  0.33236166  0.33248628  1
  Cs  Cs14  1  0.33222044  0.34176831  0.66549432  1
  Cs  Cs15  1  0.33774101  0.67096677  0.00082077  1
  Cs  Cs16  1  0.33158497  0.66618877  0.33662859  1
  Cs  Cs17  1  0.33974274  0.65607069  0.66002265  1
  Cs  Cs18  1  0.66712817  0.00021693  -0.00011195  1
  Cs  Cs19  1  0.66649327  0.00107415  0.33507306  1
  Cs  Cs20  1  0.66845728  0.00058993  0.66584900  1
  Cs  Cs21  1  0.66912585  0.33369028  0.00149351  1
  Cs  Cs22  1  0.66784867  0.33175844  0.33288517  1
  Cs  Cs23  1  0.66521980  0.33312766  0.66464290  1
  Cs  Cs24  1  0.66513453  0.66566370  -0.00330672  1
  Cs  Cs25  1  0.66767999  0.67125195  0.33357194  1
  Cs  Cs26  1  0.65770089  0.66600907  0.66897675  1
  Sn  Sn27  1  0.83263911  0.16629930  0.83362592  1
  Sn  Sn28  1  0.83434908  0.83386496  0.83419913  1
  Sn  Sn29  1  0.16567794  0.83330295  0.16586534  1
  Sn  Sn30  1  0.16632052  0.83307779  0.83360017  1
  Sn  Sn31  1  0.16722513  0.50013771  0.16626752  1
  Sn  Sn32  1  0.83454653  0.16775650  0.50008489  1
  Sn  Sn33  1  0.50047466  0.16668879  0.83419556  1
  Sn  Sn34  1  0.16590315  0.16629895  0.49960768  1
  Sn  Sn35  1  0.83413727  0.83432007  0.16560291  1
  Sn  Sn36  1  0.83343761  0.49942635  0.50004404  1
  Sn  Sn37  1  0.83340178  0.16594677  0.16639569  1
  Sn  Sn38  1  0.16645032  0.16664214  0.16732988  1
  Sn  Sn39  1  0.49947559  0.49920819  0.16663793  1
  Sn  Sn40  1  0.50013394  0.16740301  0.16561591  1
  Pb  Pb41  1  0.50011891  0.83375681  0.16683941  1
  Pb  Pb42  1  0.49974229  0.83344066  0.50008903  1
  Pb  Pb43  1  0.50279811  0.49946801  0.49659235  1
  Pb  Pb44  1  0.16668574  0.16538494  0.83323106  1
  Pb  Pb45  1  0.50001326  0.49671325  0.83629730  1
  Pb  Pb46  1  0.49989263  0.16665816  0.49996371  1
  Pb  Pb47  1  0.16452998  0.49722808  0.49730502  1
  Pb  Pb48  1  0.83324334  0.83377404  0.50043344  1
  Pb  Pb49  1  0.16673368  0.83585098  0.50001066  1
  Pb  Pb50  1  0.16639792  0.50377084  0.83609539  1
  Pb  Pb51  1  0.83335001  0.50055036  0.16793397  1
  Pb  Pb52  1  0.83358256  0.50049664  0.83074331  1
  Pb  Pb53  1  0.49989973  0.83569635  0.83348064  1
  I  I54  1  0.16610564  0.00080127  0.16691161  1
  I  I55  1  0.15935978  0.00389380  0.49314351  1
  I  I56  1  0.16492577  -0.00240144  0.84000919  1
  I  I57  1  0.16707119  0.33187073  0.17177200  1
  I  I58  1  0.16476749  0.32921152  0.49506609  1
  I  I59  1  0.16678270  0.33317430  0.83359465  1
  I  I60  1  0.16598352  0.66742172  0.16152789  1
  I  I61  1  0.16492697  0.66646885  0.49894186  1
  I  I62  1  0.15811359  0.67186273  0.83918938  1
  I  I63  1  0.49801937  0.00363481  0.16338620  1
  I  I64  1  0.50229991  0.00093631  0.49673443  1
  I  I65  1  0.50163256  0.00369027  0.84127739  1
  I  I66  1  0.49735088  0.33143997  0.16338853  1
  I  I67  1  0.49863612  0.33289305  0.50233966  1
  I  I68  1  0.50677681  0.32862790  0.83499399  1
  I  I69  1  0.49739285  0.66412317  0.16887727  1
  I  I70  1  0.50245474  0.66597485  0.49845534  1
  I  I71  1  0.50132777  0.66664556  0.83366292  1
  I  I72  1  0.83563148  0.00146985  0.16835773  1
  I  I73  1  0.83658056  0.00361628  0.49920284  1
  I  I74  1  0.83319122  0.00129845  0.83261019  1
  I  I75  1  0.83528677  0.33011525  0.16495027  1
  I  I76  1  0.83635765  0.33059188  0.49777218  1
  I  I77  1  0.82953026  0.32971987  0.83680998  1
  I  I78  1  0.83586287  0.66968690  0.16478857  1
  I  I79  1  0.83269374  0.66455136  0.49680400  1
  I  I80  1  0.83779669  0.67037603  0.83863679  1
  I  I81  1  0.16507599  0.16822465  0.00342194  1
  I  I82  1  0.16366249  0.16501788  0.33107424  1
  I  I83  1  0.16264857  0.16341860  0.66443665  1
  I  I84  1  0.16790638  0.49185224  0.00460088  1
  I  I85  1  0.17023726  0.50498546  0.32912027  1
  I  I86  1  0.16595344  0.49951077  0.66630881  1
  I  I87  1  0.16235484  0.83650867  0.00183349  1
  I  I88  1  0.16198973  0.83184010  0.32953318  1
  I  I89  1  0.15995800  0.83828850  0.66973520  1
  I  I90  1  0.50335507  0.16999633  0.00159468  1
  I  I91  1  0.50213019  0.16996429  0.32974022  1
  I  I92  1  0.50408154  0.16270880  0.66953041  1
  I  I93  1  0.49817472  0.49860238  0.00421555  1
  I  I94  1  0.49576862  0.49174357  0.32898735  1
  I  I95  1  0.50057756  0.50046278  0.66650216  1
  I  I96  1  0.50019343  0.83094606  0.00034188  1
  I  I97  1  0.50174433  0.83638556  0.33250742  1
  I  I98  1  0.50137139  0.83685015  0.66732698  1
  I  I99  1  0.83263518  0.16236153  0.00092228  1
  I  I100  1  0.83355038  0.16667518  0.33206412  1
  I  I101  1  0.83293437  0.16593408  0.66700339  1
  I  I102  1  0.83291091  0.49762183  0.00024819  1
  I  I103  1  0.83324852  0.49401336  0.33547884  1
  I  I104  1  0.83437301  0.49395150  0.66298456  1
  I  I105  1  0.83752753  0.84146533  0.00085749  1
  I  I106  1  0.83694912  0.83616179  0.33018955  1
  I  I107  1  0.83785517  0.83823078  0.67000202  1
  I  I108  1  -0.00024068  0.16640966  0.16769909  1
  I  I109  1  -0.00117897  0.16989133  0.49538907  1
  I  I110  1  -0.00301713  0.16460351  0.83513112  1
  I  I111  1  0.00252733  0.49746089  0.16870353  1
  I  I112  1  -0.00299677  0.49740099  0.49667191  1
  I  I113  1  -0.00004526  0.49344950  0.83637994  1
  I  I114  1  -0.00007083  0.83648176  0.16334421  1
  I  I115  1  -0.00015064  0.83118763  0.49926920  1
  I  I116  1  -0.00107012  0.84089673  0.83858224  1
  I  I117  1  0.33262364  0.16682620  0.16706096  1
  I  I118  1  0.33041413  0.16411172  0.49539264  1
  I  I119  1  0.33538537  0.16421069  0.83793304  1
  I  I120  1  0.33267784  0.49564401  0.16633878  1
  I  I121  1  0.33322363  0.49942165  0.50155294  1
  I  I122  1  0.33324189  0.49919838  0.83008619  1
  I  I123  1  0.33001560  0.83641795  0.16279696  1
  I  I124  1  0.33265423  0.83663141  0.49885545  1
  I  I125  1  0.33030215  0.83686765  0.84050362  1
  I  I126  1  0.66764719  0.16705865  0.16673426  1
  I  I127  1  0.67008497  0.16926816  0.49716144  1
  I  I128  1  0.66834686  0.16130782  0.83648669  1
  I  I129  1  0.66463639  0.49532277  0.16891726  1
  I  I130  1  0.67032774  0.49217167  0.49775069  1
  I  I131  1  0.66680220  0.50486433  0.83563758  1
  I  I132  1  0.67009719  0.83607441  0.16367214  1
  I  I133  1  0.66739661  0.83562945  0.49797778  1
  I  I134  1  0.67012769  0.83562531  0.83798542  1
