# generated using pymatgen
data_Cs27Sn14Pb13I81
_symmetry_space_group_name_H-M   'P 1'
_cell_length_a   18.96459855
_cell_length_b   18.96065325
_cell_length_c   18.95494216
_cell_angle_alpha   90.00199641
_cell_angle_beta   89.99834679
_cell_angle_gamma   89.99651998
_symmetry_Int_Tables_number   1
_chemical_formula_structural   Cs27Sn14Pb13I81
_chemical_formula_sum   'Cs27 Sn14 Pb13 I81'
_cell_volume   6815.84039309
_cell_formula_units_Z   1
loop_
 _symmetry_equiv_pos_site_id
 _symmetry_equiv_pos_as_xyz
  1  'x, y, z'
loop_
 _atom_site_type_symbol
 _atom_site_label
 _atom_site_symmetry_multiplicity
 _atom_site_fract_x
 _atom_site_fract_y
 _atom_site_fract_z
 _atom_site_occupancy
  Cs  Cs0  1  0.00095327  -0.00059100  0.00384411  1
  Cs  Cs1  1  0.00049154  -0.00107729  0.33312516  1
  Cs  Cs2  1  0.00021970  -0.00032515  0.66624340  1
  Cs  Cs3  1  0.00126936  0.33515675  -0.00102727  1
  Cs  Cs4  1  0.00059683  0.33202829  0.33249788  1
  Cs  Cs5  1  -0.00324051  0.33383553  0.66916201  1
  Cs  Cs6  1  -0.00045831  0.66570917  -0.00701935  1
  Cs  Cs7  1  -0.00291176  0.67014985  0.33595482  1
  Cs  Cs8  1  -0.00017116  0.66685526  0.66686178  1
  Cs  Cs9  1  0.33448963  -0.00097953  -0.00512888  1
  Cs  Cs10  1  0.32843323  0.00193742  0.33527669  1
  Cs  Cs11  1  0.33447539  -0.00001918  0.66948645  1
  Cs  Cs12  1  0.32967640  0.33577576  0.00811435  1
  Cs  Cs13  1  0.33261047  0.33363054  0.33002776  1
  Cs  Cs14  1  0.33650153  0.33215658  0.66505679  1
  Cs  Cs15  1  0.33633173  0.66531840  -0.00336574  1
  Cs  Cs16  1  0.33558896  0.66466281  0.33549370  1
  Cs  Cs17  1  0.33277759  0.66761737  0.66596516  1
  Cs  Cs18  1  0.66327664  -0.00232138  0.00064532  1
  Cs  Cs19  1  0.66821678  0.00076504  0.33212861  1
  Cs  Cs20  1  0.66547384  0.00783502  0.66837344  1
  Cs  Cs21  1  0.66845238  0.33265053  -0.00225118  1
  Cs  Cs22  1  0.66673590  0.33270729  0.33385122  1
  Cs  Cs23  1  0.66707828  0.32864390  0.66945282  1
  Cs  Cs24  1  0.66477021  0.66924696  0.00483384  1
  Cs  Cs25  1  0.66778682  0.66665570  0.33199062  1
  Cs  Cs26  1  0.66748581  0.66430441  0.66519965  1
  Sn  Sn27  1  0.83276085  0.83309710  0.50128768  1
  Sn  Sn28  1  0.83296719  0.83347724  0.83209049  1
  Sn  Sn29  1  0.83248909  0.16746953  0.16701364  1
  Sn  Sn30  1  0.16639913  0.16681145  0.50118432  1
  Sn  Sn31  1  0.16648834  0.16700628  0.83249331  1
  Sn  Sn32  1  0.50036976  0.50053438  0.50091696  1
  Sn  Sn33  1  0.83366470  0.49921160  0.16737090  1
  Sn  Sn34  1  0.50081155  0.16642960  0.16696540  1
  Sn  Sn35  1  0.50033649  0.83320000  0.49987449  1
  Sn  Sn36  1  0.50004162  0.50003474  0.83277444  1
  Sn  Sn37  1  0.16688333  0.83322066  0.49927024  1
  Sn  Sn38  1  0.16642230  0.49983957  0.49991068  1
  Sn  Sn39  1  0.16707967  0.83246178  0.16692247  1
  Sn  Sn40  1  0.83320187  0.50027862  0.49940117  1
  Pb  Pb41  1  0.50244538  0.83152113  0.83059682  1
  Pb  Pb42  1  0.83516967  0.16429048  0.83616287  1
  Pb  Pb43  1  0.16411368  0.50303987  0.16888721  1
  Pb  Pb44  1  0.50203420  0.49860729  0.16744463  1
  Pb  Pb45  1  0.83475337  0.83299200  0.16711087  1
  Pb  Pb46  1  0.16878956  0.49793647  0.83066660  1
  Pb  Pb47  1  0.49724359  0.83527100  0.16924709  1
  Pb  Pb48  1  0.83146292  0.50163052  0.83288071  1
  Pb  Pb49  1  0.49775184  0.16911616  0.83596279  1
  Pb  Pb50  1  0.83547509  0.16668519  0.49852195  1
  Pb  Pb51  1  0.16531562  0.83463091  0.83251560  1
  Pb  Pb52  1  0.16638658  0.16521056  0.16683243  1
  Pb  Pb53  1  0.49781140  0.16696504  0.49850011  1
  I  I54  1  0.16365456  -0.00240100  0.17371088  1
  I  I55  1  0.16628562  -0.00094197  0.49867893  1
  I  I56  1  0.16612418  0.00253848  0.82852002  1
  I  I57  1  0.16763406  0.33356692  0.16770683  1
  I  I58  1  0.16686689  0.33380123  0.50380550  1
  I  I59  1  0.16604574  0.33008117  0.82963842  1
  I  I60  1  0.16477612  0.67060070  0.17286825  1
  I  I61  1  0.16637142  0.66704034  0.49493432  1
  I  I62  1  0.16625568  0.66651218  0.83408442  1
  I  I63  1  0.50626566  0.00303372  0.16822524  1
  I  I64  1  0.49964658  -0.00264596  0.49703353  1
  I  I65  1  0.49985408  0.00005444  0.83325308  1
  I  I66  1  0.49964149  0.33070092  0.16908526  1
  I  I67  1  0.49996534  0.33653430  0.50172022  1
  I  I68  1  0.50157279  0.33668606  0.82465318  1
  I  I69  1  0.50081784  0.66664121  0.16516470  1
  I  I70  1  0.49592803  0.66616493  0.50237115  1
  I  I71  1  0.49910009  0.66359863  0.83235755  1
  I  I72  1  0.83264825  0.00192417  0.16698795  1
  I  I73  1  0.83433753  -0.00295204  0.50108980  1
  I  I74  1  0.83421250  -0.00344655  0.82716254  1
  I  I75  1  0.83080245  0.33372298  0.17272038  1
  I  I76  1  0.83353760  0.33632780  0.49699005  1
  I  I77  1  0.83341841  0.33333788  0.83197196  1
  I  I78  1  0.83483879  0.66432496  0.16922514  1
  I  I79  1  0.83701972  0.66656961  0.49787634  1
  I  I80  1  0.83526210  0.66952290  0.83325989  1
  I  I81  1  0.16663123  0.16343790  -0.00173269  1
  I  I82  1  0.16675228  0.16710989  0.33612451  1
  I  I83  1  0.16684312  0.16411884  0.66480856  1
  I  I84  1  0.16711704  0.49920020  0.00005510  1
  I  I85  1  0.17168222  0.49504370  0.33764050  1
  I  I86  1  0.16161641  0.50555954  0.66192702  1
  I  I87  1  0.16271422  0.83789127  0.00187070  1
  I  I88  1  0.16368185  0.83659153  0.33607025  1
  I  I89  1  0.16752353  0.83174004  0.66268696  1
  I  I90  1  0.50151386  0.16781544  0.00352993  1
  I  I91  1  0.50104102  0.16828271  0.33082594  1
  I  I92  1  0.49958534  0.16533044  0.66653368  1
  I  I93  1  0.50186735  0.49731330  -0.00179425  1
  I  I94  1  0.49829775  0.50257412  0.33697766  1
  I  I95  1  0.50102874  0.50328279  0.66406143  1
  I  I96  1  0.49997023  0.83240872  -0.00003772  1
  I  I97  1  0.50449072  0.82666692  0.33762954  1
  I  I98  1  0.49384584  0.83238850  0.66215494  1
  I  I99  1  0.83304046  0.17094945  0.00404585  1
  I  I100  1  0.83318305  0.16568542  0.33056618  1
  I  I101  1  0.83357045  0.16830401  0.66660596  1
  I  I102  1  0.83133281  0.49833976  0.00239002  1
  I  I103  1  0.83176879  0.50230237  0.33518460  1
  I  I104  1  0.83578418  0.50328009  0.66302808  1
  I  I105  1  0.83706428  0.83363243  -0.00158050  1
  I  I106  1  0.83317910  0.83207655  0.33666112  1
  I  I107  1  0.83690320  0.82741963  0.66394482  1
  I  I108  1  -0.00220433  0.16831129  0.16748962  1
  I  I109  1  0.00368023  0.16585649  0.49976749  1
  I  I110  1  0.00297278  0.16677988  0.83043584  1
  I  I111  1  -0.00383626  0.49359914  0.17136474  1
  I  I112  1  -0.00027469  0.50277925  0.49494002  1
  I  I113  1  -0.00007244  0.49996671  0.83341115  1
  I  I114  1  0.00240203  0.83656964  0.17353691  1
  I  I115  1  0.00012322  0.83119174  0.49939637  1
  I  I116  1  -0.00263691  0.83254095  0.82840323  1
  I  I117  1  0.33482823  0.16542869  0.16765425  1
  I  I118  1  0.32959576  0.16588739  0.49974864  1
  I  I119  1  0.33006481  0.16449635  0.83035854  1
  I  I120  1  0.33326164  0.49785365  0.16746548  1
  I  I121  1  0.33333779  0.50288364  0.50435419  1
  I  I122  1  0.33658424  0.50045548  0.82843044  1
  I  I123  1  0.32955613  0.83641256  0.17262911  1
  I  I124  1  0.33256214  0.83085813  0.49468945  1
  I  I125  1  0.33356352  0.83404504  0.83372729  1
  I  I126  1  0.66751622  0.16946797  0.16831050  1
  I  I127  1  0.66674073  0.16602118  0.49908918  1
  I  I128  1  0.66661634  0.16632516  0.83323517  1
  I  I129  1  0.67002028  0.49988278  0.17262503  1
  I  I130  1  0.66696514  0.50741843  0.49877007  1
  I  I131  1  0.66386245  0.50009737  0.82690341  1
  I  I132  1  0.66664898  0.83304414  0.16718011  1
  I  I133  1  0.66736856  0.82572002  0.50317788  1
  I  I134  1  0.67026155  0.83316515  0.83003312  1
