# generated using pymatgen
data_Cs27Sn13Pb14I81
_symmetry_space_group_name_H-M   'P 1'
_cell_length_a   18.99474960
_cell_length_b   18.98477348
_cell_length_c   18.99495805
_cell_angle_alpha   89.99941173
_cell_angle_beta   90.00029913
_cell_angle_gamma   90.00084796
_symmetry_Int_Tables_number   1
_chemical_formula_structural   Cs27Sn13Pb14I81
_chemical_formula_sum   'Cs27 Sn13 Pb14 I81'
_cell_volume   6849.79116356
_cell_formula_units_Z   1
loop_
 _symmetry_equiv_pos_site_id
 _symmetry_equiv_pos_as_xyz
  1  'x, y, z'
loop_
 _atom_site_type_symbol
 _atom_site_label
 _atom_site_symmetry_multiplicity
 _atom_site_fract_x
 _atom_site_fract_y
 _atom_site_fract_z
 _atom_site_occupancy
  Cs  Cs0  1  0.00126736  -0.00166700  -0.00072311  1
  Cs  Cs1  1  -0.00225753  0.00245653  0.33692509  1
  Cs  Cs2  1  -0.00080129  -0.00052630  0.66565895  1
  Cs  Cs3  1  -0.00069051  0.33379747  -0.00163525  1
  Cs  Cs4  1  0.00119402  0.33580685  0.33461758  1
  Cs  Cs5  1  -0.00004209  0.33584565  0.66635413  1
  Cs  Cs6  1  0.00158235  0.66991775  0.01107509  1
  Cs  Cs7  1  -0.00029311  0.65732435  0.32773281  1
  Cs  Cs8  1  -0.00078030  0.66783187  0.66440373  1
  Cs  Cs9  1  0.33065364  -0.00609611  -0.00301804  1
  Cs  Cs10  1  0.33588857  0.00316805  0.33577476  1
  Cs  Cs11  1  0.33206058  -0.00282604  0.66557692  1
  Cs  Cs12  1  0.33485569  0.33260642  -0.00008579  1
  Cs  Cs13  1  0.33433420  0.33253593  0.33332613  1
  Cs  Cs14  1  0.33283599  0.33372655  0.66688535  1
  Cs  Cs15  1  0.33059951  0.67695371  -0.00329037  1
  Cs  Cs16  1  0.33589023  0.66403364  0.33121263  1
  Cs  Cs17  1  0.33489138  0.67067349  0.66994784  1
  Cs  Cs18  1  0.66763873  0.00061426  -0.00032659  1
  Cs  Cs19  1  0.66707532  -0.00032354  0.33441016  1
  Cs  Cs20  1  0.66994733  -0.00022587  0.66584130  1
  Cs  Cs21  1  0.66488447  0.33443182  -0.00876687  1
  Cs  Cs22  1  0.66220928  0.33156342  0.33365723  1
  Cs  Cs23  1  0.66692741  0.33569837  0.67463830  1
  Cs  Cs24  1  0.66857925  0.66451448  0.00300589  1
  Cs  Cs25  1  0.66579598  0.66822474  0.32990446  1
  Cs  Cs26  1  0.66626167  0.66520595  0.66900446  1
  Sn  Sn27  1  0.50003031  0.49901109  0.49962779  1
  Sn  Sn28  1  0.83328231  0.16673171  0.49951640  1
  Sn  Sn29  1  0.50029163  0.16767850  0.49994881  1
  Sn  Sn30  1  0.16673249  0.16670956  0.16679333  1
  Sn  Sn31  1  0.16649873  0.49979934  0.83322482  1
  Sn  Sn32  1  0.16649649  0.16637248  0.50003281  1
  Sn  Sn33  1  0.16672474  0.16744911  0.83298798  1
  Sn  Sn34  1  0.16552451  0.83349834  0.49933719  1
  Sn  Sn35  1  0.49946614  0.49882453  0.16707495  1
  Sn  Sn36  1  0.83354063  0.83327002  0.83272118  1
  Sn  Sn37  1  0.50006034  0.16721155  0.16712029  1
  Sn  Sn38  1  0.83461309  0.83361395  0.50050319  1
  Sn  Sn39  1  0.83314232  0.16698866  0.16733504  1
  Pb  Pb40  1  0.83339969  0.83578093  0.16792689  1
  Pb  Pb41  1  0.16660909  0.83610307  0.17053418  1
  Pb  Pb42  1  0.50046596  0.83363961  0.49999688  1
  Pb  Pb43  1  0.49771613  0.49998363  0.83377146  1
  Pb  Pb44  1  0.83067900  0.49968602  0.49995227  1
  Pb  Pb45  1  0.49742579  0.16623854  0.83318252  1
  Pb  Pb46  1  0.49993276  0.83416502  0.16681928  1
  Pb  Pb47  1  0.83062153  0.49623651  0.16685392  1
  Pb  Pb48  1  0.83655275  0.50319067  0.83341539  1
  Pb  Pb49  1  0.16884491  0.49994863  0.50127188  1
  Pb  Pb50  1  0.16927106  0.49741763  0.16444700  1
  Pb  Pb51  1  0.16458747  0.83357016  0.83107335  1
  Pb  Pb52  1  0.50339118  0.83351415  0.83317158  1
  Pb  Pb53  1  0.83590502  0.16549308  0.83299672  1
  I  I54  1  0.17016572  0.00491743  0.16010833  1
  I  I55  1  0.16868601  0.00239994  0.50216206  1
  I  I56  1  0.16613447  0.00298340  0.83558980  1
  I  I57  1  0.16446603  0.32882382  0.17294113  1
  I  I58  1  0.16435294  0.32951486  0.49826272  1
  I  I59  1  0.16694855  0.33136193  0.83077009  1
  I  I60  1  0.16843190  0.66657594  0.16492104  1
  I  I61  1  0.16377129  0.66927925  0.50463521  1
  I  I62  1  0.16754392  0.66461185  0.83009852  1
  I  I63  1  0.50023468  0.00453604  0.17233021  1
  I  I64  1  0.49929598  0.00366851  0.49519389  1
  I  I65  1  0.49552602  0.00026771  0.83381758  1
  I  I66  1  0.49935582  0.33141253  0.17260621  1
  I  I67  1  0.49857557  0.33127187  0.49525781  1
  I  I68  1  0.50289590  0.33303235  0.83234149  1
  I  I69  1  0.50021431  0.66348321  0.17205282  1
  I  I70  1  0.49898545  0.66381659  0.49591682  1
  I  I71  1  0.49532553  0.66648591  0.83218935  1
  I  I72  1  0.83039704  0.00423262  0.16816957  1
  I  I73  1  0.83204952  0.00161873  0.50013384  1
  I  I74  1  0.83651444  -0.00217469  0.83107051  1
  I  I75  1  0.83754920  0.32813551  0.17372174  1
  I  I76  1  0.83738194  0.32949637  0.49515782  1
  I  I77  1  0.83213869  0.33324637  0.83340831  1
  I  I78  1  0.83129969  0.66653917  0.16588449  1
  I  I79  1  0.83694046  0.66984364  0.50556280  1
  I  I80  1  0.83387041  0.67079524  0.82384915  1
  I  I81  1  0.16659533  0.17228396  0.00035412  1
  I  I82  1  0.16727271  0.16129636  0.33398579  1
  I  I83  1  0.16695104  0.16636123  0.66539182  1
  I  I84  1  0.16818682  0.49398440  -0.00324016  1
  I  I85  1  0.16579052  0.50094642  0.33316213  1
  I  I86  1  0.16963008  0.49291316  0.66885752  1
  I  I87  1  0.16574407  0.83379475  0.00005443  1
  I  I88  1  0.16066243  0.83898755  0.33826549  1
  I  I89  1  0.16593503  0.84025838  0.66344408  1
  I  I90  1  0.50159558  0.17168333  0.00347964  1
  I  I91  1  0.49598920  0.16997274  0.33409719  1
  I  I92  1  0.50047819  0.17043042  0.66300151  1
  I  I93  1  0.50016956  0.49268645  0.00325886  1
  I  I94  1  0.49887398  0.49463072  0.33373752  1
  I  I95  1  0.49917389  0.49510806  0.66378771  1
  I  I96  1  0.50034074  0.83345401  0.00008489  1
  I  I97  1  0.50206770  0.83288521  0.33368495  1
  I  I98  1  0.49665121  0.83307554  0.66611007  1
  I  I99  1  0.83263289  0.16498478  0.00268699  1
  I  I100  1  0.83652656  0.16068190  0.33451314  1
  I  I101  1  0.83286569  0.16409294  0.66330309  1
  I  I102  1  0.83020443  0.50013154  0.00008208  1
  I  I103  1  0.83754868  0.50576394  0.33345060  1
  I  I104  1  0.82960438  0.49470187  0.66659591  1
  I  I105  1  0.83305842  0.83497589  -0.00205998  1
  I  I106  1  0.83569195  0.83737385  0.33709732  1
  I  I107  1  0.83706053  0.84077151  0.66476859  1
  I  I108  1  0.00030099  0.16393614  0.16947634  1
  I  I109  1  0.00031833  0.16105810  0.49760817  1
  I  I110  1  0.00376974  0.16928602  0.83336829  1
  I  I111  1  0.00027183  0.49989473  0.16465278  1
  I  I112  1  0.00009569  0.49790214  0.50240939  1
  I  I113  1  0.00393129  0.49229069  0.83102224  1
  I  I114  1  0.00005371  0.83447873  0.16322000  1
  I  I115  1  -0.00024379  0.84458128  0.50543416  1
  I  I116  1  -0.00274448  0.83531065  0.82935907  1
  I  I117  1  0.33342904  0.17088558  0.17044628  1
  I  I118  1  0.33288793  0.16616915  0.49765851  1
  I  I119  1  0.32922537  0.16951009  0.83258307  1
  I  I120  1  0.33683119  0.49236459  0.17199033  1
  I  I121  1  0.33652862  0.49488307  0.49659298  1
  I  I122  1  0.33024064  0.49455002  0.83204508  1
  I  I123  1  0.33308819  0.83551191  0.16677759  1
  I  I124  1  0.33071856  0.83825271  0.50037898  1
  I  I125  1  0.33266231  0.83275162  0.83259159  1
  I  I126  1  0.66634479  0.16884464  0.17520431  1
  I  I127  1  0.66681435  0.16505697  0.49233318  1
  I  I128  1  0.66695593  0.16462611  0.83370473  1
  I  I129  1  0.66269074  0.49543211  0.17071673  1
  I  I130  1  0.66271752  0.49579049  0.49666995  1
  I  I131  1  0.66663323  0.50178101  0.83346345  1
  I  I132  1  0.66680677  0.83574474  0.16767806  1
  I  I133  1  0.66989276  0.83779554  0.50382264  1
  I  I134  1  0.67111145  0.83551125  0.82493958  1
