# generated using pymatgen
data_Cs27Sn14Pb13I81
_symmetry_space_group_name_H-M   'P 1'
_cell_length_a   18.96013711
_cell_length_b   18.97891438
_cell_length_c   18.98828850
_cell_angle_alpha   89.99991716
_cell_angle_beta   89.99943347
_cell_angle_gamma   89.99932417
_symmetry_Int_Tables_number   1
_chemical_formula_structural   Cs27Sn14Pb13I81
_chemical_formula_sum   'Cs27 Sn14 Pb13 I81'
_cell_volume   6832.79925677
_cell_formula_units_Z   1
loop_
 _symmetry_equiv_pos_site_id
 _symmetry_equiv_pos_as_xyz
  1  'x, y, z'
loop_
 _atom_site_type_symbol
 _atom_site_label
 _atom_site_symmetry_multiplicity
 _atom_site_fract_x
 _atom_site_fract_y
 _atom_site_fract_z
 _atom_site_occupancy
  Cs  Cs0  1  -0.00024430  -0.00142940  -0.00070590  1
  Cs  Cs1  1  -0.00231824  -0.00102600  0.33399377  1
  Cs  Cs2  1  0.00041957  -0.00077775  0.66653283  1
  Cs  Cs3  1  -0.00277845  0.33792687  0.00374646  1
  Cs  Cs4  1  0.00099501  0.33801090  0.33148170  1
  Cs  Cs5  1  0.00373684  0.33395656  0.66548721  1
  Cs  Cs6  1  -0.00567567  0.66385437  0.00299542  1
  Cs  Cs7  1  -0.00159325  0.66439934  0.33275125  1
  Cs  Cs8  1  0.00056764  0.66719585  0.66493931  1
  Cs  Cs9  1  0.33229763  -0.00316408  0.00124824  1
  Cs  Cs10  1  0.33353495  -0.00224246  0.33188144  1
  Cs  Cs11  1  0.33137081  -0.00305643  0.66700112  1
  Cs  Cs12  1  0.33392256  0.33289917  -0.00129221  1
  Cs  Cs13  1  0.33304143  0.33480646  0.33360140  1
  Cs  Cs14  1  0.33280092  0.33399590  0.66693090  1
  Cs  Cs15  1  0.33434566  0.66999999  0.00187182  1
  Cs  Cs16  1  0.33466742  0.66767702  0.33338313  1
  Cs  Cs17  1  0.33389568  0.66777383  0.66574681  1
  Cs  Cs18  1  0.67478114  0.00692562  0.00197348  1
  Cs  Cs19  1  0.67283803  0.00817098  0.33297858  1
  Cs  Cs20  1  0.67653234  0.00662270  0.66526979  1
  Cs  Cs21  1  0.67213009  0.32684227  -0.00829723  1
  Cs  Cs22  1  0.66485909  0.32497752  0.33351914  1
  Cs  Cs23  1  0.66633422  0.32909097  0.67373207  1
  Cs  Cs24  1  0.67029006  0.66477404  -0.00198389  1
  Cs  Cs25  1  0.66102196  0.66848380  0.33446175  1
  Cs  Cs26  1  0.66610005  0.66487699  0.66728599  1
  Sn  Sn27  1  0.49981527  0.50011378  0.16671533  1
  Sn  Sn28  1  0.16690179  0.83382818  0.16686742  1
  Sn  Sn29  1  0.49979945  0.83279732  0.16662554  1
  Sn  Sn30  1  0.16706174  0.83275942  0.83352371  1
  Sn  Sn31  1  0.16726810  0.50075544  0.83293255  1
  Sn  Sn32  1  0.49955020  0.83332921  0.50024442  1
  Sn  Sn33  1  0.16720935  0.83316371  0.49965054  1
  Sn  Sn34  1  0.83231604  0.50019181  0.49976473  1
  Sn  Sn35  1  0.16730901  0.16657634  0.83368364  1
  Sn  Sn36  1  0.16737716  0.16575739  0.16676695  1
  Sn  Sn37  1  0.16715504  0.50040128  0.50061055  1
  Sn  Sn38  1  0.49991315  0.83371161  0.83321291  1
  Sn  Sn39  1  0.16737365  0.16635921  0.49956914  1
  Sn  Sn40  1  0.50019004  0.50027964  0.49939220  1
  Pb  Pb41  1  0.83622672  0.50033536  0.83075030  1
  Pb  Pb42  1  0.49789249  0.16631299  0.16653905  1
  Pb  Pb43  1  0.16832964  0.50060179  0.16674528  1
  Pb  Pb44  1  0.49750632  0.16295926  0.83326404  1
  Pb  Pb45  1  0.83279053  0.83129717  0.49990603  1
  Pb  Pb46  1  0.49772905  0.16624047  0.50022239  1
  Pb  Pb47  1  0.83315039  0.83315205  0.83312730  1
  Pb  Pb48  1  0.83250377  0.83297869  0.16698838  1
  Pb  Pb49  1  0.83711281  0.16664140  0.83315170  1
  Pb  Pb50  1  0.83671832  0.16987905  0.49999436  1
  Pb  Pb51  1  0.83700575  0.16685898  0.16686496  1
  Pb  Pb52  1  0.49797931  0.50177402  0.83323800  1
  Pb  Pb53  1  0.82868865  0.50021479  0.16940132  1
  I  I54  1  0.17189834  -0.00134587  0.16691814  1
  I  I55  1  0.17121652  -0.00104152  0.50215165  1
  I  I56  1  0.17012989  -0.00085037  0.83089193  1
  I  I57  1  0.16813724  0.33141057  0.16705640  1
  I  I58  1  0.16614623  0.33423526  0.50281408  1
  I  I59  1  0.16573269  0.33351901  0.82921422  1
  I  I60  1  0.16884174  0.66980887  0.16664732  1
  I  I61  1  0.16673306  0.66664901  0.50279352  1
  I  I62  1  0.17017535  0.66751538  0.82927194  1
  I  I63  1  0.49587187  -0.00384132  0.16772408  1
  I  I64  1  0.49326674  -0.00386474  0.49895147  1
  I  I65  1  0.49169643  -0.00528224  0.83320635  1
  I  I66  1  0.49660975  0.33616808  0.17445201  1
  I  I67  1  0.49787150  0.33677088  0.49433462  1
  I  I68  1  0.49793726  0.33333645  0.83318582  1
  I  I69  1  0.49249069  0.66794848  0.16883998  1
  I  I70  1  0.49467001  0.66682944  0.49905994  1
  I  I71  1  0.49197119  0.66994890  0.83282288  1
  I  I72  1  0.82953770  -0.00001579  0.16773025  1
  I  I73  1  0.83329341  0.00029148  0.50012772  1
  I  I74  1  0.83462263  -0.00004533  0.83231485  1
  I  I75  1  0.83549443  0.33362519  0.16807429  1
  I  I76  1  0.83361758  0.33769448  0.49949925  1
  I  I77  1  0.83373427  0.33349522  0.83263868  1
  I  I78  1  0.84129702  0.66643743  0.16647684  1
  I  I79  1  0.84044048  0.66360358  0.50036156  1
  I  I80  1  0.83782568  0.66662335  0.83317076  1
  I  I81  1  0.16784779  0.16329959  -0.00016223  1
  I  I82  1  0.16721535  0.16462507  0.33377815  1
  I  I83  1  0.16661959  0.16513333  0.66640745  1
  I  I84  1  0.16946976  0.49937149  -0.00231338  1
  I  I85  1  0.16492556  0.49908070  0.33648683  1
  I  I86  1  0.16781551  0.49954463  0.66514412  1
  I  I87  1  0.17255980  0.83680654  -0.00006840  1
  I  I88  1  0.17142699  0.83575995  0.33384463  1
  I  I89  1  0.17112632  0.83489948  0.66629553  1
  I  I90  1  0.49571617  0.16887372  -0.00003831  1
  I  I91  1  0.49633402  0.16390383  0.33341865  1
  I  I92  1  0.49658121  0.16846243  0.66666179  1
  I  I93  1  0.49447906  0.50531669  0.00234522  1
  I  I94  1  0.49626722  0.50832057  0.33487861  1
  I  I95  1  0.50008356  0.50435582  0.66329799  1
  I  I96  1  0.48993203  0.82826434  0.00046365  1
  I  I97  1  0.49144121  0.82693228  0.33375077  1
  I  I98  1  0.49075463  0.82768505  0.66580614  1
  I  I99  1  0.83425674  0.16755295  -0.00002800  1
  I  I100  1  0.83534314  0.16628819  0.33366266  1
  I  I101  1  0.83500716  0.16644780  0.66639680  1
  I  I102  1  0.83490916  0.49963818  0.00005686  1
  I  I103  1  0.84331307  0.50094742  0.33706698  1
  I  I104  1  0.82983731  0.50118935  0.66280692  1
  I  I105  1  0.83533382  0.83256646  0.00003370  1
  I  I106  1  0.83653793  0.83248562  0.33349357  1
  I  I107  1  0.83498720  0.83265762  0.66649756  1
  I  I108  1  0.00576832  0.16119974  0.16666966  1
  I  I109  1  0.00554812  0.16463618  0.50101149  1
  I  I110  1  0.00585806  0.16313234  0.83200442  1
  I  I111  1  0.00017414  0.49911273  0.16663993  1
  I  I112  1  0.00230497  0.49923052  0.50519628  1
  I  I113  1  0.00522654  0.50192639  0.82909777  1
  I  I114  1  0.00398680  0.83787180  0.16634199  1
  I  I115  1  0.00402341  0.83340598  0.50090848  1
  I  I116  1  0.00472986  0.83470809  0.83239928  1
  I  I117  1  0.32921268  0.16465400  0.16729491  1
  I  I118  1  0.32885553  0.17128949  0.50038050  1
  I  I119  1  0.32865873  0.16925319  0.83232383  1
  I  I120  1  0.33589750  0.50200988  0.17328562  1
  I  I121  1  0.33245650  0.50077331  0.50005626  1
  I  I122  1  0.32939380  0.49789351  0.82672005  1
  I  I123  1  0.33225247  0.83346507  0.16699165  1
  I  I124  1  0.33188598  0.82914689  0.50004112  1
  I  I125  1  0.33145555  0.83326736  0.83283070  1
  I  I126  1  0.66656498  0.16586244  0.16728089  1
  I  I127  1  0.66675222  0.16563582  0.49937837  1
  I  I128  1  0.66667262  0.16581224  0.83351239  1
  I  I129  1  0.66090624  0.50932480  0.17161647  1
  I  I130  1  0.66508784  0.50797349  0.49416651  1
  I  I131  1  0.66636048  0.50242346  0.83273568  1
  I  I132  1  0.66227489  0.82739120  0.16723263  1
  I  I133  1  0.66268445  0.82741582  0.50001688  1
  I  I134  1  0.66287940  0.83031585  0.83286426  1
