# generated using pymatgen
data_Cs27Sn14Pb13I81
_symmetry_space_group_name_H-M   'P 1'
_cell_length_a   18.97709315
_cell_length_b   18.97201027
_cell_length_c   18.97804113
_cell_angle_alpha   90.00244965
_cell_angle_beta   90.00060197
_cell_angle_gamma   89.99706422
_symmetry_Int_Tables_number   1
_chemical_formula_structural   Cs27Sn14Pb13I81
_chemical_formula_sum   'Cs27 Sn14 Pb13 I81'
_cell_volume   6832.73256947
_cell_formula_units_Z   1
loop_
 _symmetry_equiv_pos_site_id
 _symmetry_equiv_pos_as_xyz
  1  'x, y, z'
loop_
 _atom_site_type_symbol
 _atom_site_label
 _atom_site_symmetry_multiplicity
 _atom_site_fract_x
 _atom_site_fract_y
 _atom_site_fract_z
 _atom_site_occupancy
  Cs  Cs0  1  -0.00095404  0.00329015  0.00479153  1
  Cs  Cs1  1  0.00070681  0.00140235  0.33075982  1
  Cs  Cs2  1  0.00017824  -0.00308829  0.66620674  1
  Cs  Cs3  1  -0.00419869  0.33287652  0.00136042  1
  Cs  Cs4  1  0.00268313  0.33649309  0.33138776  1
  Cs  Cs5  1  -0.00396043  0.33454321  0.66824768  1
  Cs  Cs6  1  0.00192967  0.66468571  -0.00156023  1
  Cs  Cs7  1  -0.00032294  0.66533037  0.33503746  1
  Cs  Cs8  1  0.00115747  0.66822857  0.66524051  1
  Cs  Cs9  1  0.33432799  0.00307163  -0.00259973  1
  Cs  Cs10  1  0.33126615  0.00025711  0.33313642  1
  Cs  Cs11  1  0.33368790  -0.00082696  0.66833407  1
  Cs  Cs12  1  0.33489751  0.32927900  -0.00023976  1
  Cs  Cs13  1  0.33240214  0.33422760  0.33418699  1
  Cs  Cs14  1  0.33654599  0.33200009  0.66589746  1
  Cs  Cs15  1  0.33335111  0.66415392  -0.00090630  1
  Cs  Cs16  1  0.33276548  0.66574670  0.33302723  1
  Cs  Cs17  1  0.33074165  0.66847905  0.66858376  1
  Cs  Cs18  1  0.66598260  -0.00183122  0.00163402  1
  Cs  Cs19  1  0.66963849  -0.00121322  0.33227789  1
  Cs  Cs20  1  0.66553766  0.00088590  0.66606825  1
  Cs  Cs21  1  0.66571440  0.33482787  -0.00715488  1
  Cs  Cs22  1  0.66391182  0.33479727  0.34075055  1
  Cs  Cs23  1  0.66647140  0.33113192  0.66731027  1
  Cs  Cs24  1  0.66393510  0.66692936  0.00476388  1
  Cs  Cs25  1  0.66801890  0.66733168  0.32913092  1
  Cs  Cs26  1  0.66834712  0.66849313  0.66643897  1
  Sn  Sn27  1  0.83339257  0.83279006  0.50047528  1
  Sn  Sn28  1  0.16667802  0.83328314  0.49916449  1
  Sn  Sn29  1  0.16688575  0.83254437  0.16717735  1
  Sn  Sn30  1  0.16642011  0.16674196  0.50115626  1
  Sn  Sn31  1  0.50085374  0.83376736  0.83262724  1
  Sn  Sn32  1  0.50039091  0.16666323  0.16657485  1
  Sn  Sn33  1  0.16606591  0.50095314  0.16712508  1
  Sn  Sn34  1  0.49998193  0.83324778  0.50031607  1
  Sn  Sn35  1  0.16611813  0.50000886  0.49969374  1
  Sn  Sn36  1  0.16671537  0.16666540  0.83232830  1
  Sn  Sn37  1  0.49920240  0.16554515  0.83395818  1
  Sn  Sn38  1  0.83260538  0.83342366  0.83305410  1
  Sn  Sn39  1  0.83408113  0.50090313  0.49930335  1
  Sn  Sn40  1  0.83385210  0.49984253  0.16748230  1
  Pb  Pb41  1  0.49752088  0.83481200  0.16650417  1
  Pb  Pb42  1  0.83574153  0.83169152  0.16687463  1
  Pb  Pb43  1  0.83616114  0.16664262  0.49984785  1
  Pb  Pb44  1  0.16771200  0.16722282  0.16679868  1
  Pb  Pb45  1  0.16667875  0.83499934  0.83353979  1
  Pb  Pb46  1  0.49997330  0.50308774  0.50015451  1
  Pb  Pb47  1  0.83338889  0.50289916  0.83279484  1
  Pb  Pb48  1  0.49969155  0.49740124  0.16682210  1
  Pb  Pb49  1  0.83005879  0.17016753  0.16689794  1
  Pb  Pb50  1  0.16668267  0.49692210  0.83312951  1
  Pb  Pb51  1  0.49793474  0.16421602  0.50036796  1
  Pb  Pb52  1  0.49991138  0.50044004  0.83303784  1
  Pb  Pb53  1  0.83304865  0.16384688  0.83319930  1
  I  I54  1  0.16850000  -0.00203025  0.17033659  1
  I  I55  1  0.16736546  -0.00124270  0.49963936  1
  I  I56  1  0.16859331  0.00276860  0.82947645  1
  I  I57  1  0.16458373  0.33618816  0.17025357  1
  I  I58  1  0.16277513  0.33412429  0.49888507  1
  I  I59  1  0.17380291  0.32893360  0.82978219  1
  I  I60  1  0.16454764  0.66642064  0.17430287  1
  I  I61  1  0.16617900  0.66732632  0.49524733  1
  I  I62  1  0.16747613  0.66684688  0.83214528  1
  I  I63  1  0.49597865  0.00249523  0.16489875  1
  I  I64  1  0.49991573  -0.00392801  0.50155159  1
  I  I65  1  0.49908315  -0.00035545  0.83295328  1
  I  I66  1  0.49713202  0.32964966  0.15977963  1
  I  I67  1  0.49988107  0.33314968  0.50034690  1
  I  I68  1  0.49530360  0.32977668  0.83801939  1
  I  I69  1  0.50053439  0.66669632  0.16592971  1
  I  I70  1  0.49482324  0.67127704  0.50569669  1
  I  I71  1  0.50348590  0.67072664  0.82890586  1
  I  I72  1  0.83514798  -0.00020517  0.16656575  1
  I  I73  1  0.83380491  -0.00363143  0.50477026  1
  I  I74  1  0.83261335  -0.00409563  0.82600970  1
  I  I75  1  0.84259885  0.33796291  0.17289327  1
  I  I76  1  0.83787923  0.33674687  0.49513616  1
  I  I77  1  0.83271284  0.33340377  0.83337731  1
  I  I78  1  0.83440507  0.66376098  0.16815507  1
  I  I79  1  0.83823506  0.66754261  0.50080081  1
  I  I80  1  0.82805965  0.67084517  0.83095416  1
  I  I81  1  0.16999303  0.16503270  -0.00211335  1
  I  I82  1  0.16869997  0.16573529  0.33604646  1
  I  I83  1  0.17275747  0.16528116  0.66590281  1
  I  I84  1  0.16296505  0.50440045  0.00324695  1
  I  I85  1  0.16297577  0.49882718  0.33435025  1
  I  I86  1  0.16238673  0.50400500  0.66292171  1
  I  I87  1  0.16673635  0.83048709  0.00240047  1
  I  I88  1  0.16705548  0.83560387  0.33531856  1
  I  I89  1  0.16664277  0.83111599  0.66355816  1
  I  I90  1  0.49242645  0.16135019  -0.00163047  1
  I  I91  1  0.49737347  0.16611634  0.33162637  1
  I  I92  1  0.49696690  0.16402016  0.66944526  1
  I  I93  1  0.50001901  0.50436308  0.00017282  1
  I  I94  1  0.49985787  0.49823067  0.33352473  1
  I  I95  1  0.49965674  0.49449091  0.66631113  1
  I  I96  1  0.50346452  0.83594815  -0.00285497  1
  I  I97  1  0.50157393  0.83497143  0.33613143  1
  I  I98  1  0.49852725  0.83881844  0.66651803  1
  I  I99  1  0.83957208  0.16627464  -0.00001911  1
  I  I100  1  0.83229033  0.16011235  0.33342546  1
  I  I101  1  0.82972875  0.17220981  0.66648543  1
  I  I102  1  0.83837399  0.50021053  0.00277927  1
  I  I103  1  0.83807397  0.50633555  0.33454651  1
  I  I104  1  0.83888737  0.50218648  0.66306239  1
  I  I105  1  0.82958912  0.83282159  -0.00228303  1
  I  I106  1  0.83069835  0.83148547  0.33664750  1
  I  I107  1  0.83518783  0.82816028  0.66496529  1
  I  I108  1  0.00016194  0.16456638  0.16579936  1
  I  I109  1  0.00456400  0.16158123  0.50491201  1
  I  I110  1  0.00275687  0.16556568  0.82903106  1
  I  I111  1  0.00120762  0.50337477  0.17147736  1
  I  I112  1  0.00088103  0.50474960  0.49604871  1
  I  I113  1  0.00011707  0.49974062  0.83406398  1
  I  I114  1  0.00373131  0.83395819  0.17001608  1
  I  I115  1  0.00046657  0.83256630  0.50132332  1
  I  I116  1  -0.00198626  0.83381060  0.82924271  1
  I  I117  1  0.33536536  0.16741090  0.16459256  1
  I  I118  1  0.32966466  0.16700630  0.50073340  1
  I  I119  1  0.33386934  0.16044246  0.83335863  1
  I  I120  1  0.32985419  0.50283842  0.17182385  1
  I  I121  1  0.32971522  0.50021657  0.49523250  1
  I  I122  1  0.33299748  0.50512690  0.83363798  1
  I  I123  1  0.32960093  0.82791412  0.17145597  1
  I  I124  1  0.33224547  0.83395009  0.50041892  1
  I  I125  1  0.33580801  0.83646758  0.82990329  1
  I  I126  1  0.66239981  0.16492594  0.15942699  1
  I  I127  1  0.66651290  0.16755475  0.50038349  1
  I  I128  1  0.66333404  0.16498525  0.83807281  1
  I  I129  1  0.66962863  0.49941956  0.17143650  1
  I  I130  1  0.67005089  0.50428390  0.49531714  1
  I  I131  1  0.66688221  0.49474724  0.83354701  1
  I  I132  1  0.66669437  0.83280512  0.16881691  1
  I  I133  1  0.66716927  0.82933104  0.50505933  1
  I  I134  1  0.66589822  0.83868101  0.82505165  1
