# generated using pymatgen
data_Cs27Sn14Pb13I81
_symmetry_space_group_name_H-M   'P 1'
_cell_length_a   18.96483368
_cell_length_b   18.95568076
_cell_length_c   18.96108345
_cell_angle_alpha   90.00117670
_cell_angle_beta   90.00090082
_cell_angle_gamma   90.00114398
_symmetry_Int_Tables_number   1
_chemical_formula_structural   Cs27Sn14Pb13I81
_chemical_formula_sum   'Cs27 Sn14 Pb13 I81'
_cell_volume   6816.34516232
_cell_formula_units_Z   1
loop_
 _symmetry_equiv_pos_site_id
 _symmetry_equiv_pos_as_xyz
  1  'x, y, z'
loop_
 _atom_site_type_symbol
 _atom_site_label
 _atom_site_symmetry_multiplicity
 _atom_site_fract_x
 _atom_site_fract_y
 _atom_site_fract_z
 _atom_site_occupancy
  Cs  Cs0  1  -0.00010316  -0.00012660  0.00234971  1
  Cs  Cs1  1  0.00066094  -0.00870263  0.33019884  1
  Cs  Cs2  1  0.00147389  0.00250634  0.66679558  1
  Cs  Cs3  1  -0.00009634  0.33210519  0.00061210  1
  Cs  Cs4  1  0.00092315  0.33505898  0.33378827  1
  Cs  Cs5  1  -0.00190212  0.33354625  0.66588592  1
  Cs  Cs6  1  0.00349187  0.66780608  0.00092519  1
  Cs  Cs7  1  -0.00083037  0.66707946  0.33178518  1
  Cs  Cs8  1  -0.00022398  0.66595434  0.66746646  1
  Cs  Cs9  1  0.33325657  -0.00212119  -0.00079168  1
  Cs  Cs10  1  0.33380501  0.00063447  0.34392365  1
  Cs  Cs11  1  0.33348217  0.00086708  0.66045589  1
  Cs  Cs12  1  0.33380817  0.33540387  0.00052789  1
  Cs  Cs13  1  0.33313665  0.33161765  0.33291000  1
  Cs  Cs14  1  0.33184291  0.33309124  0.66658914  1
  Cs  Cs15  1  0.33401939  0.66713806  -0.00221346  1
  Cs  Cs16  1  0.33307620  0.66693999  0.33271751  1
  Cs  Cs17  1  0.33148677  0.66610660  0.67005660  1
  Cs  Cs18  1  0.66668708  0.00074824  -0.00047051  1
  Cs  Cs19  1  0.66484209  -0.00219148  0.33092673  1
  Cs  Cs20  1  0.66561970  -0.00087246  0.66926967  1
  Cs  Cs21  1  0.66501982  0.33200155  0.00171062  1
  Cs  Cs22  1  0.66561108  0.33327872  0.33047559  1
  Cs  Cs23  1  0.67120515  0.33468207  0.66828195  1
  Cs  Cs24  1  0.66285796  0.66702424  -0.00147798  1
  Cs  Cs25  1  0.66783421  0.66702031  0.33623435  1
  Cs  Cs26  1  0.66739527  0.66680733  0.66561970  1
  Sn  Sn27  1  0.49997865  0.16620432  0.83340956  1
  Sn  Sn28  1  0.16601558  0.49910779  0.16716299  1
  Sn  Sn29  1  0.83346204  0.49906588  0.49963956  1
  Sn  Sn30  1  0.50075709  0.83429714  0.83411212  1
  Sn  Sn31  1  0.83339552  0.16696086  0.49992241  1
  Sn  Sn32  1  0.16668678  0.16702599  0.16627404  1
  Sn  Sn33  1  0.50005498  0.49955063  0.50019143  1
  Sn  Sn34  1  0.83333876  0.50019718  0.83397525  1
  Sn  Sn35  1  0.83297270  0.83350051  0.83339678  1
  Sn  Sn36  1  0.83329581  0.16649175  0.83289715  1
  Sn  Sn37  1  0.16668419  0.16688372  0.83419174  1
  Sn  Sn38  1  0.16653331  0.49968161  0.49927750  1
  Sn  Sn39  1  0.83372100  0.49975973  0.16649040  1
  Sn  Sn40  1  0.49985562  0.83360838  0.16640539  1
  Pb  Pb41  1  0.49968928  0.50150508  0.16858156  1
  Pb  Pb42  1  0.83339895  0.83355502  0.50233783  1
  Pb  Pb43  1  0.50209473  0.49994385  0.83153650  1
  Pb  Pb44  1  0.83139841  0.83056174  0.16401855  1
  Pb  Pb45  1  0.50015731  0.83120375  0.50094052  1
  Pb  Pb46  1  0.49725854  0.16450381  0.16475740  1
  Pb  Pb47  1  0.16436922  0.49795535  0.83367496  1
  Pb  Pb48  1  0.83495735  0.16818799  0.16680969  1
  Pb  Pb49  1  0.16633266  0.83002729  0.50009282  1
  Pb  Pb50  1  0.16412180  0.16845980  0.49969442  1
  Pb  Pb51  1  0.50285418  0.16893575  0.50239534  1
  Pb  Pb52  1  0.16679966  0.83637117  0.83322011  1
  Pb  Pb53  1  0.16922928  0.83323684  0.16661594  1
  I  I54  1  0.16646097  0.00290488  0.16048658  1
  I  I55  1  0.16558776  0.00056020  0.49959758  1
  I  I56  1  0.16141305  0.00458670  0.83918536  1
  I  I57  1  0.16334509  0.33438301  0.16605992  1
  I  I58  1  0.16710537  0.33681400  0.49929156  1
  I  I59  1  0.16708882  0.32978264  0.83412795  1
  I  I60  1  0.16316824  0.66318737  0.17141861  1
  I  I61  1  0.16342467  0.66127823  0.49485509  1
  I  I62  1  0.16660147  0.66637022  0.83292405  1
  I  I63  1  0.50037482  -0.00326787  0.16419669  1
  I  I64  1  0.50117233  0.00030549  0.49837801  1
  I  I65  1  0.50543359  0.00020199  0.83710347  1
  I  I66  1  0.50107720  0.33331580  0.16582272  1
  I  I67  1  0.49898576  0.33701807  0.50079191  1
  I  I68  1  0.50128236  0.33059554  0.83104086  1
  I  I69  1  0.49899196  0.66921527  0.15917489  1
  I  I70  1  0.50309048  0.66294471  0.50199358  1
  I  I71  1  0.50488420  0.66915992  0.83490558  1
  I  I72  1  0.83475990  -0.00012311  0.16726131  1
  I  I73  1  0.83367953  0.00318818  0.50588148  1
  I  I74  1  0.83244784  0.00116232  0.82848869  1
  I  I75  1  0.83400240  0.33690963  0.16292012  1
  I  I76  1  0.83349956  0.33501290  0.50626618  1
  I  I77  1  0.83342046  0.33307108  0.83142897  1
  I  I78  1  0.83910284  0.66204616  0.16839685  1
  I  I79  1  0.83338512  0.66282669  0.50107657  1
  I  I80  1  0.82839063  0.66599713  0.83272348  1
  I  I81  1  0.16445259  0.17261395  -0.00077201  1
  I  I82  1  0.16541706  0.17008744  0.33087037  1
  I  I83  1  0.16726310  0.16762666  0.66937011  1
  I  I84  1  0.16195710  0.49800091  0.00270714  1
  I  I85  1  0.16214701  0.49500153  0.33299594  1
  I  I86  1  0.16564077  0.49889243  0.66425333  1
  I  I87  1  0.16530291  0.82832301  -0.00018072  1
  I  I88  1  0.16926169  0.83827317  0.33306502  1
  I  I89  1  0.16887663  0.83271155  0.66704676  1
  I  I90  1  0.50582351  0.16701227  -0.00386919  1
  I  I91  1  0.49991456  0.16533416  0.33352391  1
  I  I92  1  0.49572227  0.16060785  0.67080820  1
  I  I93  1  0.50068332  0.49926617  -0.00024655  1
  I  I94  1  0.50486313  0.50236075  0.33649600  1
  I  I95  1  0.49992896  0.50121859  0.66362047  1
  I  I96  1  0.50405966  0.83507153  -0.00172699  1
  I  I97  1  0.49840479  0.82983440  0.33117709  1
  I  I98  1  0.50465708  0.83603244  0.67034108  1
  I  I99  1  0.83209802  0.16806772  -0.00340334  1
  I  I100  1  0.83501811  0.17374973  0.33584483  1
  I  I101  1  0.83483733  0.17176620  0.66853946  1
  I  I102  1  0.83743856  0.49967209  -0.00052203  1
  I  I103  1  0.83385786  0.49539685  0.33417631  1
  I  I104  1  0.83301620  0.49931851  0.66663323  1
  I  I105  1  0.83171750  0.83475546  -0.00429954  1
  I  I106  1  0.83183812  0.83327879  0.33301853  1
  I  I107  1  0.82661940  0.82903969  0.67084511  1
  I  I108  1  0.00296430  0.16922867  0.16049427  1
  I  I109  1  -0.00361868  0.17434578  0.50793665  1
  I  I110  1  -0.00117638  0.16789153  0.83282887  1
  I  I111  1  -0.00019528  0.49710628  0.17044062  1
  I  I112  1  -0.00109737  0.49615947  0.49989148  1
  I  I113  1  -0.00408274  0.50025972  0.82919037  1
  I  I114  1  -0.00005886  0.83393960  0.16576338  1
  I  I115  1  -0.00043874  0.83171904  0.50154557  1
  I  I116  1  -0.00324097  0.83248631  0.83178564  1
  I  I117  1  0.32935551  0.17418380  0.16121054  1
  I  I118  1  0.33318867  0.16867061  0.50149038  1
  I  I119  1  0.33337997  0.16300104  0.83787076  1
  I  I120  1  0.33032522  0.49782791  0.17131432  1
  I  I121  1  0.33257925  0.50116616  0.49561484  1
  I  I122  1  0.33324924  0.50012786  0.83218053  1
  I  I123  1  0.33677485  0.82999582  0.15811293  1
  I  I124  1  0.33352156  0.83206012  0.50222877  1
  I  I125  1  0.33664786  0.83577438  0.83669300  1
  I  I126  1  0.66665537  0.16804968  0.16584638  1
  I  I127  1  0.67078815  0.17331273  0.50573711  1
  I  I128  1  0.66774391  0.16618271  0.82864442  1
  I  I129  1  0.66947555  0.50149377  0.16720457  1
  I  I130  1  0.66835998  0.49769843  0.50100508  1
  I  I131  1  0.67061075  0.49624854  0.83315574  1
  I  I132  1  0.66371869  0.83167936  0.16433566  1
  I  I133  1  0.66678290  0.82939492  0.49821738  1
  I  I134  1  0.66700018  0.83704812  0.83657526  1
