# generated using pymatgen
data_Cs27Sn13Pb14I81
_symmetry_space_group_name_H-M   'P 1'
_cell_length_a   18.97804535
_cell_length_b   18.98227373
_cell_length_c   18.96787285
_cell_angle_alpha   89.99846320
_cell_angle_beta   90.00117327
_cell_angle_gamma   89.99833785
_symmetry_Int_Tables_number   1
_chemical_formula_structural   Cs27Sn13Pb14I81
_chemical_formula_sum   'Cs27 Sn13 Pb14 I81'
_cell_volume   6833.10888312
_cell_formula_units_Z   1
loop_
 _symmetry_equiv_pos_site_id
 _symmetry_equiv_pos_as_xyz
  1  'x, y, z'
loop_
 _atom_site_type_symbol
 _atom_site_label
 _atom_site_symmetry_multiplicity
 _atom_site_fract_x
 _atom_site_fract_y
 _atom_site_fract_z
 _atom_site_occupancy
  Cs  Cs0  1  0.00188882  -0.00120683  0.00090846  1
  Cs  Cs1  1  0.00638205  0.00045585  0.33853390  1
  Cs  Cs2  1  -0.00326603  0.00094391  0.66078026  1
  Cs  Cs3  1  -0.00216896  0.33673003  -0.00075137  1
  Cs  Cs4  1  -0.00199167  0.33269956  0.33536679  1
  Cs  Cs5  1  0.00336695  0.33544668  0.66456862  1
  Cs  Cs6  1  -0.00208156  0.66420746  -0.00003209  1
  Cs  Cs7  1  0.00238647  0.66654261  0.32997960  1
  Cs  Cs8  1  -0.00150876  0.66330578  0.66796973  1
  Cs  Cs9  1  0.33282667  -0.00019713  -0.00029191  1
  Cs  Cs10  1  0.32238625  -0.00121494  0.33159346  1
  Cs  Cs11  1  0.33704782  0.00030449  0.67089707  1
  Cs  Cs12  1  0.33646075  0.33098503  0.00054916  1
  Cs  Cs13  1  0.33417174  0.33427168  0.33247692  1
  Cs  Cs14  1  0.33223264  0.33497565  0.66751295  1
  Cs  Cs15  1  0.33351695  0.66978080  -0.00028740  1
  Cs  Cs16  1  0.33320768  0.66617976  0.34263807  1
  Cs  Cs17  1  0.33332375  0.66431565  0.66088598  1
  Cs  Cs18  1  0.66527764  -0.00032973  -0.00070444  1
  Cs  Cs19  1  0.66831540  -0.00052278  0.33620923  1
  Cs  Cs20  1  0.66703728  0.00026484  0.66542593  1
  Cs  Cs21  1  0.66590584  0.33246887  0.00139390  1
  Cs  Cs22  1  0.66716155  0.33577143  0.33041902  1
  Cs  Cs23  1  0.66628571  0.32946041  0.66836470  1
  Cs  Cs24  1  0.66838682  0.66809414  -0.00032878  1
  Cs  Cs25  1  0.66453137  0.66433011  0.33352003  1
  Cs  Cs26  1  0.66791801  0.67115142  0.66614619  1
  Sn  Sn27  1  0.83369304  0.16656308  0.83402108  1
  Sn  Sn28  1  0.50022926  0.50037088  0.83353423  1
  Sn  Sn29  1  0.50043074  0.83343706  0.16647738  1
  Sn  Sn30  1  0.83391417  0.50002177  0.16739543  1
  Sn  Sn31  1  0.50005301  0.16661443  0.83280811  1
  Sn  Sn32  1  0.49978433  0.16645188  0.49983621  1
  Sn  Sn33  1  0.49932389  0.83308258  0.83406697  1
  Sn  Sn34  1  0.83270475  0.83383797  0.16644959  1
  Sn  Sn35  1  0.16698249  0.83374222  0.83342939  1
  Sn  Sn36  1  0.16685600  0.49992118  0.16630390  1
  Sn  Sn37  1  0.16641250  0.16590536  0.83371073  1
  Sn  Sn38  1  0.83328102  0.16604991  0.16619422  1
  Sn  Sn39  1  0.83296790  0.50012117  0.49961108  1
  Pb  Pb40  1  0.50020440  0.50232103  0.16509906  1
  Pb  Pb41  1  0.83322212  0.83074254  0.49673214  1
  Pb  Pb42  1  0.16673237  0.83145587  0.16481182  1
  Pb  Pb43  1  0.16665387  0.83329991  0.50392070  1
  Pb  Pb44  1  0.83134067  0.49789956  0.83375371  1
  Pb  Pb45  1  0.16892738  0.50010500  0.83506006  1
  Pb  Pb46  1  0.16959266  0.16676658  0.50286760  1
  Pb  Pb47  1  0.50217984  0.49778598  0.50258334  1
  Pb  Pb48  1  0.16436898  0.49978261  0.49724021  1
  Pb  Pb49  1  0.16401606  0.16876700  0.16434990  1
  Pb  Pb50  1  0.50161090  0.16426907  0.16669168  1
  Pb  Pb51  1  0.49995117  0.83580277  0.49996141  1
  Pb  Pb52  1  0.83172662  0.16826488  0.49978492  1
  Pb  Pb53  1  0.83344554  0.83572901  0.83491391  1
  I  I54  1  0.16586683  -0.00003558  0.16698538  1
  I  I55  1  0.16510001  0.00024669  0.49538150  1
  I  I56  1  0.17246400  0.00059492  0.83559562  1
  I  I57  1  0.16167237  0.33647236  0.16356209  1
  I  I58  1  0.16683061  0.33327262  0.50303167  1
  I  I59  1  0.16779028  0.33047861  0.83493871  1
  I  I60  1  0.15991454  0.66396418  0.16243038  1
  I  I61  1  0.16732569  0.66637019  0.50218680  1
  I  I62  1  0.17152231  0.66925521  0.83596717  1
  I  I63  1  0.50554739  -0.00347054  0.15989277  1
  I  I64  1  0.50319096  0.00335374  0.50780643  1
  I  I65  1  0.49931374  0.00039909  0.83339145  1
  I  I66  1  0.50140943  0.33322309  0.16464622  1
  I  I67  1  0.50137497  0.33008978  0.50652321  1
  I  I68  1  0.50049431  0.33198615  0.82965482  1
  I  I69  1  0.50583868  0.67005806  0.15920934  1
  I  I70  1  0.50099007  0.66663661  0.50138763  1
  I  I71  1  0.49640870  0.66778473  0.83898365  1
  I  I72  1  0.82715355  0.00019000  0.15950176  1
  I  I73  1  0.83204160  0.00018007  0.49984025  1
  I  I74  1  0.82884134  0.00384602  0.83822046  1
  I  I75  1  0.83705383  0.33341888  0.16591334  1
  I  I76  1  0.83146083  0.33590307  0.49399068  1
  I  I77  1  0.83215570  0.32977603  0.83861951  1
  I  I78  1  0.83317581  0.66643110  0.17034315  1
  I  I79  1  0.83203493  0.66276353  0.49673411  1
  I  I80  1  0.83275279  0.66673296  0.83399072  1
  I  I81  1  0.17260726  0.16351494  -0.00389087  1
  I  I82  1  0.16727706  0.16768847  0.33309795  1
  I  I83  1  0.16137699  0.16420875  0.67157856  1
  I  I84  1  0.15807298  0.50013291  0.00257737  1
  I  I85  1  0.16584825  0.50089971  0.32912032  1
  I  I86  1  0.16553368  0.50022505  0.66694774  1
  I  I87  1  0.16935654  0.83735967  -0.00315355  1
  I  I88  1  0.16741347  0.83195651  0.33298297  1
  I  I89  1  0.17386877  0.83654775  0.67219740  1
  I  I90  1  0.49919881  0.16797234  -0.00344812  1
  I  I91  1  0.50485908  0.16639050  0.33532101  1
  I  I92  1  0.50260363  0.16521731  0.66974312  1
  I  I93  1  0.50235848  0.49441685  -0.00303341  1
  I  I94  1  0.49848444  0.49950680  0.33320864  1
  I  I95  1  0.50099548  0.50372252  0.67081110  1
  I  I96  1  0.50074869  0.83547425  -0.00146149  1
  I  I97  1  0.50608782  0.83362867  0.33024918  1
  I  I98  1  0.49597068  0.83217481  0.67045403  1
  I  I99  1  0.83048594  0.16951731  -0.00022059  1
  I  I100  1  0.82970802  0.16640165  0.33018817  1
  I  I101  1  0.83374213  0.16862953  0.66976412  1
  I  I102  1  0.83569977  0.50100120  0.00307929  1
  I  I103  1  0.83604663  0.49744268  0.33119736  1
  I  I104  1  0.83033811  0.49691506  0.66496700  1
  I  I105  1  0.83168438  0.82825405  0.00313971  1
  I  I106  1  0.82699141  0.83825868  0.32808604  1
  I  I107  1  0.83300522  0.83288986  0.66684215  1
  I  I108  1  -0.00438829  0.16288584  0.16147184  1
  I  I109  1  -0.00003433  0.16796976  0.50122866  1
  I  I110  1  -0.00030306  0.16296429  0.83963081  1
  I  I111  1  -0.00199116  0.50188185  0.16834587  1
  I  I112  1  -0.00371087  0.49774297  0.50017957  1
  I  I113  1  -0.00020650  0.49960941  0.83199488  1
  I  I114  1  -0.00289121  0.83350988  0.16431524  1
  I  I115  1  -0.00023412  0.83456790  0.50019335  1
  I  I116  1  0.00239606  0.83744835  0.83574605  1
  I  I117  1  0.33328529  0.16750703  0.16613501  1
  I  I118  1  0.33749855  0.16715947  0.50567554  1
  I  I119  1  0.33430573  0.16614252  0.82884408  1
  I  I120  1  0.33141602  0.50102278  0.16188798  1
  I  I121  1  0.33358843  0.49941092  0.49902697  1
  I  I122  1  0.33676522  0.49531922  0.83614705  1
  I  I123  1  0.33595489  0.83257234  0.16260214  1
  I  I124  1  0.33356603  0.83258983  0.49416418  1
  I  I125  1  0.33499066  0.83861661  0.83991368  1
  I  I126  1  0.66991560  0.17192081  0.16047043  1
  I  I127  1  0.66411722  0.16703788  0.50793366  1
  I  I128  1  0.66596517  0.16744143  0.83339475  1
  I  I129  1  0.66978837  0.49836328  0.16853014  1
  I  I130  1  0.66966489  0.49887269  0.49166678  1
  I  I131  1  0.66348242  0.49984108  0.83574897  1
  I  I132  1  0.66704850  0.83139650  0.15979464  1
  I  I133  1  0.66661376  0.83362816  0.50480191  1
  I  I134  1  0.66370086  0.83398178  0.83572912  1
