# generated using pymatgen
data_Cs27Sn14Pb13I81
_symmetry_space_group_name_H-M   'P 1'
_cell_length_a   18.97484110
_cell_length_b   18.97865382
_cell_length_c   18.97417064
_cell_angle_alpha   90.00140560
_cell_angle_beta   89.99834381
_cell_angle_gamma   89.99886522
_symmetry_Int_Tables_number   1
_chemical_formula_structural   Cs27Sn14Pb13I81
_chemical_formula_sum   'Cs27 Sn14 Pb13 I81'
_cell_volume   6832.92027471
_cell_formula_units_Z   1
loop_
 _symmetry_equiv_pos_site_id
 _symmetry_equiv_pos_as_xyz
  1  'x, y, z'
loop_
 _atom_site_type_symbol
 _atom_site_label
 _atom_site_symmetry_multiplicity
 _atom_site_fract_x
 _atom_site_fract_y
 _atom_site_fract_z
 _atom_site_occupancy
  Cs  Cs0  1  -0.00459573  0.00118075  -0.00058937  1
  Cs  Cs1  1  -0.00129227  -0.00253149  0.33179760  1
  Cs  Cs2  1  0.00292571  0.00505856  0.66873703  1
  Cs  Cs3  1  -0.00165839  0.33202484  -0.00788153  1
  Cs  Cs4  1  0.00092596  0.33399872  0.33593072  1
  Cs  Cs5  1  -0.00775674  0.32596632  0.67443908  1
  Cs  Cs6  1  0.00178787  0.66710776  -0.00151145  1
  Cs  Cs7  1  0.00203535  0.66828782  0.33374128  1
  Cs  Cs8  1  -0.00252171  0.66572237  0.66666552  1
  Cs  Cs9  1  0.33367952  -0.00038233  -0.00074629  1
  Cs  Cs10  1  0.33281048  0.00076244  0.33527448  1
  Cs  Cs11  1  0.33386505  -0.00051989  0.66547336  1
  Cs  Cs12  1  0.33639019  0.33470989  0.00263338  1
  Cs  Cs13  1  0.33301638  0.33546098  0.33026048  1
  Cs  Cs14  1  0.33170999  0.33007818  0.66610824  1
  Cs  Cs15  1  0.33305956  0.66588212  0.00020602  1
  Cs  Cs16  1  0.33131331  0.66484680  0.33222285  1
  Cs  Cs17  1  0.33359388  0.67023126  0.66759177  1
  Cs  Cs18  1  0.66973247  0.00140767  0.00226817  1
  Cs  Cs19  1  0.66896266  0.00112798  0.33432943  1
  Cs  Cs20  1  0.66200745  -0.00419686  0.66235239  1
  Cs  Cs21  1  0.66231190  0.33251328  -0.00025455  1
  Cs  Cs22  1  0.66753546  0.33456936  0.33564319  1
  Cs  Cs23  1  0.67338766  0.33387761  0.66600709  1
  Cs  Cs24  1  0.66529192  0.66706745  0.00208564  1
  Cs  Cs25  1  0.66722361  0.66600267  0.33294183  1
  Cs  Cs26  1  0.66833161  0.66893694  0.66574678  1
  Sn  Sn27  1  0.49909438  0.50014900  0.50028815  1
  Sn  Sn28  1  0.16760323  0.83348208  0.16722597  1
  Sn  Sn29  1  0.16723643  0.16684575  0.16673507  1
  Sn  Sn30  1  0.83332367  0.83304625  0.83232499  1
  Sn  Sn31  1  0.49990071  0.16722962  0.83385236  1
  Sn  Sn32  1  0.50006839  0.50001137  0.16688097  1
  Sn  Sn33  1  0.16700453  0.50032684  0.50000530  1
  Sn  Sn34  1  0.83462380  0.83303524  0.50090054  1
  Sn  Sn35  1  0.49971508  0.49947693  0.83273610  1
  Sn  Sn36  1  0.49908978  0.16662123  0.16628613  1
  Sn  Sn37  1  0.83391990  0.49976544  0.16655305  1
  Sn  Sn38  1  0.49922628  0.83346430  0.16696723  1
  Sn  Sn39  1  0.16597075  0.83237523  0.49934994  1
  Sn  Sn40  1  0.16621745  0.49972147  0.16703806  1
  Pb  Pb41  1  0.16675104  0.16718591  0.49774073  1
  Pb  Pb42  1  0.83064784  0.50178966  0.83574829  1
  Pb  Pb43  1  0.83383419  0.83160405  0.16706600  1
  Pb  Pb44  1  0.82982750  0.16389399  0.83346836  1
  Pb  Pb45  1  0.50148183  0.83340700  0.83590571  1
  Pb  Pb46  1  0.83351865  0.16340095  0.49973625  1
  Pb  Pb47  1  0.49981054  0.16984167  0.49949128  1
  Pb  Pb48  1  0.83334153  0.16992526  0.16677827  1
  Pb  Pb49  1  0.16952503  0.16668659  0.83629082  1
  Pb  Pb50  1  0.16887915  0.50003245  0.83266017  1
  Pb  Pb51  1  0.49921828  0.83115259  0.49739215  1
  Pb  Pb52  1  0.16472613  0.83319894  0.83327620  1
  Pb  Pb53  1  0.83422493  0.50144882  0.49825742  1
  I  I54  1  0.17402945  -0.00087261  0.17015374  1
  I  I55  1  0.16200674  -0.00321033  0.49513796  1
  I  I56  1  0.16889750  -0.00011150  0.83342914  1
  I  I57  1  0.17097418  0.33456592  0.17070136  1
  I  I58  1  0.17341858  0.33706343  0.49353928  1
  I  I59  1  0.16349499  0.33343084  0.83249894  1
  I  I60  1  0.16969063  0.66632051  0.17028139  1
  I  I61  1  0.16715126  0.66654724  0.49061246  1
  I  I62  1  0.16985289  0.66662312  0.83960795  1
  I  I63  1  0.49405300  0.00016612  0.16150594  1
  I  I64  1  0.50110972  -0.00022057  0.50008332  1
  I  I65  1  0.50219943  0.00249761  0.83996560  1
  I  I66  1  0.49766676  0.33453375  0.16568586  1
  I  I67  1  0.49409504  0.33803057  0.49395584  1
  I  I68  1  0.49922291  0.33424610  0.84069752  1
  I  I69  1  0.49850557  0.66543252  0.16624693  1
  I  I70  1  0.49970575  0.66307862  0.49920678  1
  I  I71  1  0.50147009  0.66390288  0.83601680  1
  I  I72  1  0.83226903  -0.00010419  0.16673912  1
  I  I73  1  0.83798091  -0.00516973  0.50118894  1
  I  I74  1  0.83203745  -0.00375203  0.83193231  1
  I  I75  1  0.83158339  0.33787847  0.16703620  1
  I  I76  1  0.83274028  0.33378481  0.49817422  1
  I  I77  1  0.83474293  0.33334632  0.83476877  1
  I  I78  1  0.83052722  0.66389434  0.16676478  1
  I  I79  1  0.83399876  0.66947763  0.50201871  1
  I  I80  1  0.83056633  0.66938923  0.83059801  1
  I  I81  1  0.16829810  0.16707967  0.00489733  1
  I  I82  1  0.17499754  0.16708106  0.32925315  1
  I  I83  1  0.16764469  0.16566370  0.66669690  1
  I  I84  1  0.16776109  0.50134739  0.00381689  1
  I  I85  1  0.17184392  0.50124871  0.33169407  1
  I  I86  1  0.17275230  0.50765885  0.66294399  1
  I  I87  1  0.16949083  0.83155800  0.00381761  1
  I  I88  1  0.16439495  0.83200290  0.33213809  1
  I  I89  1  0.16492561  0.82722830  0.66315186  1
  I  I90  1  0.49644327  0.17197639  0.00188076  1
  I  I91  1  0.49613358  0.16698209  0.32952314  1
  I  I92  1  0.50222234  0.17062087  0.66949765  1
  I  I93  1  0.50051510  0.49958407  0.00199256  1
  I  I94  1  0.49956696  0.50066899  0.33161106  1
  I  I95  1  0.49530941  0.49644574  0.66641946  1
  I  I96  1  0.49645973  0.82802743  0.00412933  1
  I  I97  1  0.50172205  0.83360186  0.32912819  1
  I  I98  1  0.49894258  0.83331985  0.66647413  1
  I  I99  1  0.83600244  0.16256791  0.00023959  1
  I  I100  1  0.82927117  0.16404524  0.33278953  1
  I  I101  1  0.83191728  0.17074855  0.66690775  1
  I  I102  1  0.83403062  0.50373704  0.00380891  1
  I  I103  1  0.82754927  0.50303043  0.33025962  1
  I  I104  1  0.83206915  0.50043475  0.66666849  1
  I  I105  1  0.83135106  0.83158324  -0.00130055  1
  I  I106  1  0.83449890  0.83107975  0.33546546  1
  I  I107  1  0.83674482  0.83100737  0.66568596  1
  I  I108  1  0.00335550  0.16484300  0.16915105  1
  I  I109  1  0.00033375  0.17186173  0.49748262  1
  I  I110  1  -0.00022618  0.16590999  0.83432854  1
  I  I111  1  0.00157214  0.50219538  0.17262531  1
  I  I112  1  0.00337274  0.50389539  0.49141237  1
  I  I113  1  -0.00020494  0.50158338  0.83510926  1
  I  I114  1  0.00316946  0.83266754  0.16748757  1
  I  I115  1  0.00136925  0.82677371  0.49628065  1
  I  I116  1  -0.00313531  0.83182922  0.83595960  1
  I  I117  1  0.33421078  0.17044591  0.16327434  1
  I  I118  1  0.33341416  0.16037704  0.50325102  1
  I  I119  1  0.33743978  0.16977474  0.83579868  1
  I  I120  1  0.33391441  0.50017318  0.16701100  1
  I  I121  1  0.33314081  0.50593570  0.49374540  1
  I  I122  1  0.33724487  0.49830633  0.83985332  1
  I  I123  1  0.33289087  0.82922513  0.17076771  1
  I  I124  1  0.33032497  0.83123097  0.49647961  1
  I  I125  1  0.33362537  0.83371219  0.83166720  1
  I  I126  1  0.66303413  0.16584425  0.16245913  1
  I  I127  1  0.66629267  0.16653207  0.49674356  1
  I  I128  1  0.66231174  0.17202073  0.84314322  1
  I  I129  1  0.66453241  0.50142653  0.16653365  1
  I  I130  1  0.66412874  0.50106152  0.49733454  1
  I  I131  1  0.66239220  0.49692004  0.83456049  1
  I  I132  1  0.66424467  0.83197951  0.16600774  1
  I  I133  1  0.66832482  0.83168509  0.50201182  1
  I  I134  1  0.66922241  0.83238063  0.82895313  1
