# generated using pymatgen
data_Cs27Sn14Pb13I81
_symmetry_space_group_name_H-M   'P 1'
_cell_length_a   19.04198646
_cell_length_b   19.04790143
_cell_length_c   19.05304694
_cell_angle_alpha   90.00129266
_cell_angle_beta   90.00169978
_cell_angle_gamma   89.99880735
_symmetry_Int_Tables_number   1
_chemical_formula_structural   Cs27Sn14Pb13I81
_chemical_formula_sum   'Cs27 Sn14 Pb13 I81'
_cell_volume   6910.72838533
_cell_formula_units_Z   1
loop_
 _symmetry_equiv_pos_site_id
 _symmetry_equiv_pos_as_xyz
  1  'x, y, z'
loop_
 _atom_site_type_symbol
 _atom_site_label
 _atom_site_symmetry_multiplicity
 _atom_site_fract_x
 _atom_site_fract_y
 _atom_site_fract_z
 _atom_site_occupancy
  Cs  Cs0  1  0.00424714  0.00079502  -0.00053281  1
  Cs  Cs1  1  0.00311920  0.00110270  0.33433882  1
  Cs  Cs2  1  -0.00091511  -0.00028680  0.66635655  1
  Cs  Cs3  1  -0.01002898  0.34898099  0.00141536  1
  Cs  Cs4  1  -0.00350422  0.33800755  0.33260019  1
  Cs  Cs5  1  0.00250256  0.33850661  0.66520396  1
  Cs  Cs6  1  -0.00292383  0.65432964  -0.00137016  1
  Cs  Cs7  1  -0.00020410  0.66273053  0.33677149  1
  Cs  Cs8  1  -0.00492606  0.66647391  0.66331255  1
  Cs  Cs9  1  0.33258706  -0.00256445  0.00246631  1
  Cs  Cs10  1  0.33164090  -0.00302473  0.32947456  1
  Cs  Cs11  1  0.32934398  -0.00055440  0.66957457  1
  Cs  Cs12  1  0.33178297  0.33440668  -0.00255811  1
  Cs  Cs13  1  0.33465002  0.33099408  0.33486104  1
  Cs  Cs14  1  0.34439855  0.33408180  0.66819311  1
  Cs  Cs15  1  0.33340626  0.66966203  0.00172940  1
  Cs  Cs16  1  0.33540233  0.66934518  0.33228411  1
  Cs  Cs17  1  0.33434600  0.66650578  0.66589680  1
  Cs  Cs18  1  0.66778941  0.00105496  0.00065550  1
  Cs  Cs19  1  0.67077357  0.00124843  0.33234735  1
  Cs  Cs20  1  0.68143239  0.00952683  0.66861005  1
  Cs  Cs21  1  0.68013112  0.33159197  -0.00900332  1
  Cs  Cs22  1  0.66901183  0.32954765  0.33634366  1
  Cs  Cs23  1  0.64970685  0.32179962  0.67507686  1
  Cs  Cs24  1  0.66775494  0.66802948  -0.00024124  1
  Cs  Cs25  1  0.66019595  0.66900335  0.33280104  1
  Cs  Cs26  1  0.67221863  0.66518389  0.66894504  1
  Sn  Sn27  1  0.49961456  0.83413268  0.50110829  1
  Sn  Sn28  1  0.49963188  0.49852386  0.16657351  1
  Sn  Sn29  1  0.50014930  0.83392010  0.16658191  1
  Sn  Sn30  1  0.16746029  0.83377297  0.83350815  1
  Sn  Sn31  1  0.16585088  0.83329544  0.16640167  1
  Sn  Sn32  1  0.16775412  0.83340115  0.50000056  1
  Sn  Sn33  1  0.49915363  0.83384302  0.83229136  1
  Sn  Sn34  1  0.16709563  0.50000058  0.49969795  1
  Sn  Sn35  1  0.16727385  0.16661487  0.16605072  1
  Sn  Sn36  1  0.49886180  0.16700793  0.16647269  1
  Sn  Sn37  1  0.83445828  0.83332717  0.16702755  1
  Sn  Sn38  1  0.16713734  0.16662095  0.49980618  1
  Sn  Sn39  1  0.83219571  0.49976068  0.49992692  1
  Sn  Sn40  1  0.16645363  0.16613455  0.83417381  1
  Pb  Pb41  1  0.83773783  0.16638654  0.83337204  1
  Pb  Pb42  1  0.16708084  0.50048212  0.83042747  1
  Pb  Pb43  1  0.49699867  0.16320547  0.83659250  1
  Pb  Pb44  1  0.16889270  0.49976476  0.16883875  1
  Pb  Pb45  1  0.83432512  0.83342687  0.83604038  1
  Pb  Pb46  1  0.49959095  0.50300680  0.83647424  1
  Pb  Pb47  1  0.83346671  0.83217650  0.49797789  1
  Pb  Pb48  1  0.49988104  0.50213940  0.49835310  1
  Pb  Pb49  1  0.83443927  0.16433734  0.16679770  1
  Pb  Pb50  1  0.83281320  0.50006971  0.82945304  1
  Pb  Pb51  1  0.49707815  0.16289035  0.49765134  1
  Pb  Pb52  1  0.82999827  0.50261184  0.16927695  1
  Pb  Pb53  1  0.83627453  0.16953793  0.49994713  1
  I  I54  1  0.17145109  -0.00148187  0.17214110  1
  I  I55  1  0.17353796  -0.00089238  0.49877018  1
  I  I56  1  0.17154206  -0.00151716  0.82877653  1
  I  I57  1  0.17415503  0.33015010  0.16717206  1
  I  I58  1  0.15738786  0.33290980  0.49781069  1
  I  I59  1  0.16489105  0.33047297  0.83474503  1
  I  I60  1  0.16809250  0.67024223  0.16617707  1
  I  I61  1  0.16617805  0.66823856  0.49877419  1
  I  I62  1  0.17113993  0.67021751  0.83595267  1
  I  I63  1  0.49856735  -0.00187745  0.16675399  1
  I  I64  1  0.49259635  -0.00471482  0.49532380  1
  I  I65  1  0.49685362  -0.00417776  0.83689337  1
  I  I66  1  0.48916404  0.33254854  0.17091104  1
  I  I67  1  0.50029077  0.33286745  0.49689427  1
  I  I68  1  0.50002466  0.33286714  0.83305829  1
  I  I69  1  0.50017934  0.66966762  0.16750832  1
  I  I70  1  0.49187811  0.67035121  0.49496433  1
  I  I71  1  0.49040801  0.67121622  0.83662682  1
  I  I72  1  0.82619552  -0.00331955  0.16874822  1
  I  I73  1  0.83157059  0.00022498  0.50017181  1
  I  I74  1  0.82820402  -0.00035060  0.83073371  1
  I  I75  1  0.83355681  0.33349507  0.16642474  1
  I  I76  1  0.84273553  0.33708935  0.49524677  1
  I  I77  1  0.83577295  0.33333929  0.83759507  1
  I  I78  1  0.83552324  0.67007060  0.16641980  1
  I  I79  1  0.84334296  0.66498016  0.49805961  1
  I  I80  1  0.83664173  0.66693824  0.83519635  1
  I  I81  1  0.17348965  0.15286724  0.00083189  1
  I  I82  1  0.17136480  0.16156856  0.33295938  1
  I  I83  1  0.16276817  0.16085774  0.66633491  1
  I  I84  1  0.16747907  0.50016494  -0.00008145  1
  I  I85  1  0.16271926  0.50207152  0.33624488  1
  I  I86  1  0.16109231  0.50175437  0.66262815  1
  I  I87  1  0.17089932  0.84325375  0.00090233  1
  I  I88  1  0.16942030  0.83550221  0.33303616  1
  I  I89  1  0.17571534  0.83578187  0.66621426  1
  I  I90  1  0.49188321  0.16278057  0.00410963  1
  I  I91  1  0.49259474  0.16304385  0.32995852  1
  I  I92  1  0.50096300  0.16892658  0.66695946  1
  I  I93  1  0.49763152  0.50494837  0.00434501  1
  I  I94  1  0.49833343  0.50646299  0.33062116  1
  I  I95  1  0.50136652  0.50107804  0.66679419  1
  I  I96  1  0.49635705  0.83249151  0.00147334  1
  I  I97  1  0.49637834  0.83154968  0.33206332  1
  I  I98  1  0.48677570  0.82982802  0.66635773  1
  I  I99  1  0.83359321  0.16763374  0.00027384  1
  I  I100  1  0.83529685  0.16672353  0.33324153  1
  I  I101  1  0.83280539  0.16500389  0.66648280  1
  I  I102  1  0.83258880  0.49964010  -0.00001023  1
  I  I103  1  0.84254705  0.50069715  0.33580614  1
  I  I104  1  0.84314027  0.50651966  0.66218807  1
  I  I105  1  0.83112797  0.83292458  0.00383984  1
  I  I106  1  0.83210740  0.83272377  0.33033813  1
  I  I107  1  0.83181760  0.83032621  0.66678313  1
  I  I108  1  0.00408407  0.15860758  0.16782464  1
  I  I109  1  0.00509294  0.15618035  0.49615978  1
  I  I110  1  0.00560285  0.15436386  0.83540956  1
  I  I111  1  -0.00013898  0.49981226  0.16365253  1
  I  I112  1  0.00199185  0.50365617  0.49809307  1
  I  I113  1  0.00025907  0.50163712  0.84019705  1
  I  I114  1  0.00194688  0.84128509  0.16852453  1
  I  I115  1  0.00392423  0.83652407  0.50018929  1
  I  I116  1  0.00386453  0.83951136  0.83116793  1
  I  I117  1  0.33216381  0.15883565  0.16815435  1
  I  I118  1  0.32912702  0.17539066  0.50335756  1
  I  I119  1  0.32966889  0.16521374  0.82816394  1
  I  I120  1  0.33595697  0.50908477  0.17048797  1
  I  I121  1  0.33040549  0.49815305  0.49919859  1
  I  I122  1  0.33321987  0.49634589  0.82819362  1
  I  I123  1  0.33329232  0.83337053  0.16738268  1
  I  I124  1  0.33163952  0.83007508  0.49348593  1
  I  I125  1  0.33218914  0.83705835  0.83911712  1
  I  I126  1  0.66371306  0.16382017  0.16829506  1
  I  I127  1  0.66632297  0.16753451  0.49788211  1
  I  I128  1  0.66645170  0.16726692  0.83393923  1
  I  I129  1  0.66262964  0.50286207  0.17138611  1
  I  I130  1  0.66861540  0.50787265  0.49431763  1
  I  I131  1  0.66626436  0.50313453  0.83101677  1
  I  I132  1  0.66467684  0.83190021  0.16775818  1
  I  I133  1  0.66354156  0.82760241  0.49701762  1
  I  I134  1  0.66374901  0.82935123  0.83470478  1
