# generated using pymatgen
data_Cs27Sn14Pb13I81
_symmetry_space_group_name_H-M   'P 1'
_cell_length_a   18.97380174
_cell_length_b   18.98441760
_cell_length_c   18.96917142
_cell_angle_alpha   90.00117022
_cell_angle_beta   90.00033731
_cell_angle_gamma   89.99988179
_symmetry_Int_Tables_number   1
_chemical_formula_structural   Cs27Sn14Pb13I81
_chemical_formula_sum   'Cs27 Sn14 Pb13 I81'
_cell_volume   6832.82028060
_cell_formula_units_Z   1
loop_
 _symmetry_equiv_pos_site_id
 _symmetry_equiv_pos_as_xyz
  1  'x, y, z'
loop_
 _atom_site_type_symbol
 _atom_site_label
 _atom_site_symmetry_multiplicity
 _atom_site_fract_x
 _atom_site_fract_y
 _atom_site_fract_z
 _atom_site_occupancy
  Cs  Cs0  1  -0.00350609  0.00167305  -0.00099720  1
  Cs  Cs1  1  -0.00709844  -0.00425953  0.33344611  1
  Cs  Cs2  1  0.00676210  -0.00107195  0.66837257  1
  Cs  Cs3  1  -0.00010774  0.33203306  0.00117841  1
  Cs  Cs4  1  -0.00040517  0.33564400  0.33119479  1
  Cs  Cs5  1  0.00415020  0.33924855  0.66473482  1
  Cs  Cs6  1  0.00237423  0.66587333  -0.00038038  1
  Cs  Cs7  1  -0.00297700  0.66765179  0.34012779  1
  Cs  Cs8  1  0.00479603  0.66136460  0.65631255  1
  Cs  Cs9  1  0.33409497  -0.00149537  -0.00001147  1
  Cs  Cs10  1  0.33581432  0.00157869  0.33404029  1
  Cs  Cs11  1  0.32814980  0.00208678  0.66501822  1
  Cs  Cs12  1  0.33372086  0.33451972  0.00167478  1
  Cs  Cs13  1  0.33516013  0.33210538  0.33244601  1
  Cs  Cs14  1  0.32508840  0.33068738  0.66486705  1
  Cs  Cs15  1  0.33511978  0.66716819  0.00210682  1
  Cs  Cs16  1  0.33633681  0.66636173  0.32917839  1
  Cs  Cs17  1  0.32877305  0.66714607  0.66862173  1
  Cs  Cs18  1  0.66812914  0.00052436  -0.00157283  1
  Cs  Cs19  1  0.66785423  0.00005198  0.33438588  1
  Cs  Cs20  1  0.66540222  0.00211314  0.67013265  1
  Cs  Cs21  1  0.66713316  0.33248817  -0.00181855  1
  Cs  Cs22  1  0.66511049  0.33154810  0.33318292  1
  Cs  Cs23  1  0.66837838  0.33188563  0.66887901  1
  Cs  Cs24  1  0.66397291  0.66747435  -0.00227325  1
  Cs  Cs25  1  0.66552888  0.66792996  0.33395183  1
  Cs  Cs26  1  0.66808108  0.66469614  0.66830154  1
  Sn  Sn27  1  0.16666166  0.50032332  0.16671077  1
  Sn  Sn28  1  0.16740649  0.16603089  0.16667383  1
  Sn  Sn29  1  0.50032699  0.49996452  0.16727930  1
  Sn  Sn30  1  0.16707167  0.83367555  0.16656881  1
  Sn  Sn31  1  0.83269859  0.50045667  0.16631419  1
  Sn  Sn32  1  0.83329564  0.16656282  0.50149240  1
  Sn  Sn33  1  0.50024288  0.50041893  0.49980786  1
  Sn  Sn34  1  0.50030236  0.83263428  0.50051891  1
  Sn  Sn35  1  0.49973008  0.83376954  0.16663595  1
  Sn  Sn36  1  0.49959507  0.16634477  0.16573238  1
  Sn  Sn37  1  0.50032778  0.16606921  0.83401641  1
  Sn  Sn38  1  0.83286300  0.16598937  0.83184051  1
  Sn  Sn39  1  0.50066753  0.83432954  0.83288406  1
  Sn  Sn40  1  0.83314546  0.83334915  0.83299754  1
  Pb  Pb41  1  0.83290447  0.16807218  0.16603911  1
  Pb  Pb42  1  0.83332402  0.50013724  0.83497440  1
  Pb  Pb43  1  0.83083457  0.83515413  0.50327981  1
  Pb  Pb44  1  0.16676229  0.50014052  0.83566421  1
  Pb  Pb45  1  0.49978351  0.49967624  0.83295562  1
  Pb  Pb46  1  0.50098486  0.16668513  0.50045160  1
  Pb  Pb47  1  0.16674723  0.16664095  0.83559001  1
  Pb  Pb48  1  0.16959647  0.83351184  0.49688583  1
  Pb  Pb49  1  0.83068083  0.49797154  0.49777424  1
  Pb  Pb50  1  0.16327497  0.16648888  0.49656827  1
  Pb  Pb51  1  0.16684494  0.83324357  0.83544856  1
  Pb  Pb52  1  0.16994574  0.49996813  0.49701633  1
  Pb  Pb53  1  0.83288345  0.83097794  0.16479599  1
  I  I54  1  0.17512692  -0.00005478  0.16608866  1
  I  I55  1  0.16993632  0.00002853  0.49657375  1
  I  I56  1  0.16645180  -0.00000035  0.83760666  1
  I  I57  1  0.16993110  0.33343051  0.16612035  1
  I  I58  1  0.16972829  0.33324210  0.49752617  1
  I  I59  1  0.16747582  0.33301422  0.83694885  1
  I  I60  1  0.17158865  0.66662914  0.16492720  1
  I  I61  1  0.16273393  0.66671880  0.49864355  1
  I  I62  1  0.16764456  0.66700622  0.83781454  1
  I  I63  1  0.49354478  -0.00020059  0.16653940  1
  I  I64  1  0.50197951  -0.00251678  0.49577758  1
  I  I65  1  0.50454090  -0.00015397  0.83813137  1
  I  I66  1  0.49796367  0.33333360  0.16719900  1
  I  I67  1  0.50226895  0.33539276  0.49365274  1
  I  I68  1  0.50520482  0.33001229  0.83853744  1
  I  I69  1  0.49774854  0.66695308  0.16668730  1
  I  I70  1  0.50088424  0.66712632  0.49415222  1
  I  I71  1  0.50427290  0.66992007  0.83741455  1
  I  I72  1  0.83436135  -0.00010286  0.16851487  1
  I  I73  1  0.82952572  0.00291489  0.49676461  1
  I  I74  1  0.82745269  0.00067425  0.83271835  1
  I  I75  1  0.83241880  0.33593654  0.16536344  1
  I  I76  1  0.82951169  0.33028671  0.50534804  1
  I  I77  1  0.82741935  0.32998269  0.83258439  1
  I  I78  1  0.83204916  0.66329233  0.16466249  1
  I  I79  1  0.83434469  0.66671618  0.50009532  1
  I  I80  1  0.82616256  0.66979008  0.83879488  1
  I  I81  1  0.16617773  0.16769092  0.00416994  1
  I  I82  1  0.17391066  0.16814078  0.32828935  1
  I  I83  1  0.17006924  0.16694780  0.66661942  1
  I  I84  1  0.17111266  0.49977173  0.00515618  1
  I  I85  1  0.16476698  0.49958151  0.32843314  1
  I  I86  1  0.16752312  0.49934150  0.66588835  1
  I  I87  1  0.17349332  0.83238189  0.00404393  1
  I  I88  1  0.17145999  0.83259753  0.32834697  1
  I  I89  1  0.16761257  0.83368545  0.66655298  1
  I  I90  1  0.50226764  0.16449436  0.00110210  1
  I  I91  1  0.49827105  0.16530078  0.33028249  1
  I  I92  1  0.50417862  0.16376414  0.66959313  1
  I  I93  1  0.49886370  0.50184856  0.00366238  1
  I  I94  1  0.49953634  0.50254778  0.33084374  1
  I  I95  1  0.50271545  0.50332736  0.66377358  1
  I  I96  1  0.49964863  0.83331804  0.00092047  1
  I  I97  1  0.49504609  0.83260863  0.33187248  1
  I  I98  1  0.50667062  0.83320105  0.66741408  1
  I  I99  1  0.83198147  0.16441492  -0.00250504  1
  I  I100  1  0.83276644  0.16985257  0.33454312  1
  I  I101  1  0.82361366  0.16339174  0.66818318  1
  I  I102  1  0.83014961  0.49701292  0.00360634  1
  I  I103  1  0.83540671  0.49790419  0.32947195  1
  I  I104  1  0.83062334  0.50081558  0.66644248  1
  I  I105  1  0.82692162  0.84058935  -0.00275759  1
  I  I106  1  0.83333284  0.83447715  0.33336556  1
  I  I107  1  0.82564937  0.83477330  0.67118032  1
  I  I108  1  0.00229249  0.16829472  0.16710324  1
  I  I109  1  -0.00436189  0.16687692  0.50492225  1
  I  I110  1  -0.00322462  0.16204044  0.83264494  1
  I  I111  1  0.00062710  0.49772409  0.16329478  1
  I  I112  1  -0.00002242  0.49853940  0.49816042  1
  I  I113  1  -0.00024870  0.49920369  0.83781440  1
  I  I114  1  0.00243465  0.83374342  0.16351781  1
  I  I115  1  -0.00019680  0.83477434  0.49893248  1
  I  I116  1  -0.00290010  0.83921417  0.83858349  1
  I  I117  1  0.33518853  0.17062560  0.16194941  1
  I  I118  1  0.33341135  0.16734908  0.50205231  1
  I  I119  1  0.33680267  0.16249666  0.83618707  1
  I  I120  1  0.33441070  0.49983723  0.17010212  1
  I  I121  1  0.33783732  0.50219657  0.49387913  1
  I  I122  1  0.33387847  0.49995474  0.83539922  1
  I  I123  1  0.33528179  0.82937857  0.16466365  1
  I  I124  1  0.33812441  0.83105068  0.50459781  1
  I  I125  1  0.33722799  0.83728002  0.83266113  1
  I  I126  1  0.66345701  0.16693360  0.16608620  1
  I  I127  1  0.66860478  0.16700994  0.49754269  1
  I  I128  1  0.66575435  0.16283720  0.83696155  1
  I  I129  1  0.66496936  0.49901402  0.16992190  1
  I  I130  1  0.66304568  0.50365800  0.49148598  1
  I  I131  1  0.66636360  0.49969866  0.83843241  1
  I  I132  1  0.66295868  0.83370457  0.16811703  1
  I  I133  1  0.66267716  0.83020294  0.49209889  1
  I  I134  1  0.66482596  0.83759305  0.83718758  1
