# generated using pymatgen
data_Cs27Sn14Pb13I81
_symmetry_space_group_name_H-M   'P 1'
_cell_length_a   18.97274182
_cell_length_b   18.98082342
_cell_length_c   18.97254629
_cell_angle_alpha   89.99994300
_cell_angle_beta   89.99959602
_cell_angle_gamma   90.00062982
_symmetry_Int_Tables_number   1
_chemical_formula_structural   Cs27Sn14Pb13I81
_chemical_formula_sum   'Cs27 Sn14 Pb13 I81'
_cell_volume   6832.36040097
_cell_formula_units_Z   1
loop_
 _symmetry_equiv_pos_site_id
 _symmetry_equiv_pos_as_xyz
  1  'x, y, z'
loop_
 _atom_site_type_symbol
 _atom_site_label
 _atom_site_symmetry_multiplicity
 _atom_site_fract_x
 _atom_site_fract_y
 _atom_site_fract_z
 _atom_site_occupancy
  Cs  Cs0  1  0.00263433  -0.00092513  0.00072588  1
  Cs  Cs1  1  0.00302390  0.00373790  0.33406522  1
  Cs  Cs2  1  -0.00170681  0.00083263  0.66653190  1
  Cs  Cs3  1  -0.00253777  0.33507263  0.00611189  1
  Cs  Cs4  1  -0.00191211  0.33314883  0.32667239  1
  Cs  Cs5  1  0.00032423  0.32970147  0.66684107  1
  Cs  Cs6  1  0.01033827  0.66582773  -0.00388358  1
  Cs  Cs7  1  -0.00324023  0.66142010  0.33349253  1
  Cs  Cs8  1  -0.00351932  0.66953599  0.66944089  1
  Cs  Cs9  1  0.33628409  -0.00200040  0.00262047  1
  Cs  Cs10  1  0.33456061  -0.00029350  0.33458724  1
  Cs  Cs11  1  0.33303428  0.00317703  0.66253004  1
  Cs  Cs12  1  0.33331097  0.33762319  -0.00544207  1
  Cs  Cs13  1  0.33295636  0.33181815  0.33615609  1
  Cs  Cs14  1  0.33347571  0.33344402  0.66749829  1
  Cs  Cs15  1  0.32647078  0.66604464  -0.00105162  1
  Cs  Cs16  1  0.33568965  0.66946204  0.33374253  1
  Cs  Cs17  1  0.33233070  0.66179796  0.66643450  1
  Cs  Cs18  1  0.66383020  -0.00093683  0.00125552  1
  Cs  Cs19  1  0.66377207  -0.00108151  0.33134530  1
  Cs  Cs20  1  0.66894073  0.00040160  0.66802436  1
  Cs  Cs21  1  0.66796285  0.33288987  -0.00242542  1
  Cs  Cs22  1  0.66862018  0.33693078  0.33197835  1
  Cs  Cs23  1  0.66644594  0.33436548  0.66951759  1
  Cs  Cs24  1  0.66534293  0.67143874  0.00287788  1
  Cs  Cs25  1  0.66683910  0.66578734  0.33335218  1
  Cs  Cs26  1  0.67141468  0.66506496  0.66428810  1
  Sn  Sn27  1  0.16646601  0.16675874  0.50062818  1
  Sn  Sn28  1  0.49992224  0.16731626  0.16734437  1
  Sn  Sn29  1  0.83290452  0.16667175  0.50021460  1
  Sn  Sn30  1  0.49982320  0.49991117  0.16662102  1
  Sn  Sn31  1  0.50069443  0.16633306  0.49932388  1
  Sn  Sn32  1  0.16705204  0.83307922  0.49992596  1
  Sn  Sn33  1  0.16587274  0.16631852  0.83311415  1
  Sn  Sn34  1  0.49987863  0.83310487  0.83247067  1
  Sn  Sn35  1  0.83359872  0.83352452  0.16667620  1
  Sn  Sn36  1  0.50063675  0.83312010  0.16668605  1
  Sn  Sn37  1  0.49965166  0.83382324  0.50070017  1
  Sn  Sn38  1  0.83321237  0.49969101  0.83346457  1
  Sn  Sn39  1  0.83428875  0.16716251  0.83304113  1
  Sn  Sn40  1  0.16643655  0.49986280  0.49991178  1
  Pb  Pb41  1  0.49875479  0.49989381  0.49862932  1
  Pb  Pb42  1  0.83312648  0.83546838  0.49807416  1
  Pb  Pb43  1  0.16692865  0.83337393  0.16932489  1
  Pb  Pb44  1  0.83185588  0.83411636  0.83544683  1
  Pb  Pb45  1  0.83146615  0.50267822  0.16418421  1
  Pb  Pb46  1  0.16922601  0.83596903  0.83047041  1
  Pb  Pb47  1  0.16954834  0.16674476  0.16650820  1
  Pb  Pb48  1  0.83573660  0.49710926  0.50159308  1
  Pb  Pb49  1  0.16920434  0.49989273  0.16912288  1
  Pb  Pb50  1  0.16442079  0.49743122  0.83106256  1
  Pb  Pb51  1  0.50013562  0.16531389  0.83291877  1
  Pb  Pb52  1  0.83107664  0.16496755  0.16633623  1
  Pb  Pb53  1  0.50183816  0.50301461  0.83547216  1
  I  I54  1  0.16873387  0.00008432  0.16838491  1
  I  I55  1  0.16856855  0.00095732  0.50297472  1
  I  I56  1  0.16018066  0.00365994  0.82732834  1
  I  I57  1  0.16852991  0.33313572  0.16987457  1
  I  I58  1  0.16843393  0.33155179  0.50399866  1
  I  I59  1  0.16865926  0.32956381  0.82630168  1
  I  I60  1  0.16869786  0.66678776  0.16809859  1
  I  I61  1  0.17395568  0.66750313  0.49771266  1
  I  I62  1  0.16572437  0.66677879  0.83199468  1
  I  I63  1  0.50342844  -0.00066295  0.16762562  1
  I  I64  1  0.49537190  0.00024984  0.49540381  1
  I  I65  1  0.50201586  -0.00249185  0.83776059  1
  I  I66  1  0.49898976  0.33239931  0.17269078  1
  I  I67  1  0.49864753  0.32995219  0.49550624  1
  I  I68  1  0.49830883  0.33326559  0.83446937  1
  I  I69  1  0.50456146  0.66825841  0.16764037  1
  I  I70  1  0.49515131  0.66986184  0.49867263  1
  I  I71  1  0.50230743  0.67094827  0.83215649  1
  I  I72  1  0.82508603  -0.00254645  0.16543428  1
  I  I73  1  0.83661212  0.00359528  0.50617762  1
  I  I74  1  0.83559180  0.00316491  0.82946314  1
  I  I75  1  0.83101542  0.33324829  0.16827816  1
  I  I76  1  0.83154189  0.32875754  0.50037582  1
  I  I77  1  0.83536977  0.33149622  0.82924082  1
  I  I78  1  0.82510662  0.67019874  0.16762651  1
  I  I79  1  0.83365202  0.66668605  0.50087000  1
  I  I80  1  0.82959919  0.66500261  0.83507192  1
  I  I81  1  0.16283068  0.16658590  -0.00295226  1
  I  I82  1  0.16463051  0.16587004  0.33712888  1
  I  I83  1  0.16873520  0.16616344  0.66476734  1
  I  I84  1  0.16693242  0.49885181  -0.00032571  1
  I  I85  1  0.16612701  0.49642402  0.33728343  1
  I  I86  1  0.16944091  0.50160559  0.66316379  1
  I  I87  1  0.16791668  0.83458547  -0.00022897  1
  I  I88  1  0.17312797  0.83807765  0.33753170  1
  I  I89  1  0.17168402  0.83258453  0.66240294  1
  I  I90  1  0.50047081  0.16389990  0.00231666  1
  I  I91  1  0.49932971  0.16137130  0.33461690  1
  I  I92  1  0.49931582  0.16142617  0.66344587  1
  I  I93  1  0.50100556  0.49817918  0.00358291  1
  I  I94  1  0.49973433  0.50420333  0.33056106  1
  I  I95  1  0.49956001  0.50029155  0.66673134  1
  I  I96  1  0.50601731  0.83513253  0.00126163  1
  I  I97  1  0.49925210  0.83477015  0.33353174  1
  I  I98  1  0.49577641  0.84015778  0.66517925  1
  I  I99  1  0.83621379  0.16903565  -0.00290740  1
  I  I100  1  0.83620438  0.16393316  0.33610466  1
  I  I101  1  0.83175873  0.16874255  0.66621224  1
  I  I102  1  0.83227122  0.49120186  -0.00327402  1
  I  I103  1  0.83417825  0.49942559  0.33324733  1
  I  I104  1  0.83176245  0.49995604  0.66941742  1
  I  I105  1  0.82409254  0.83592979  0.00307353  1
  I  I106  1  0.82594448  0.83504062  0.33056197  1
  I  I107  1  0.83152743  0.83175018  0.66659536  1
  I  I108  1  -0.00013057  0.16448426  0.16954497  1
  I  I109  1  0.00062475  0.16533933  0.50547299  1
  I  I110  1  -0.00041911  0.16884800  0.82355691  1
  I  I111  1  -0.00013410  0.50174359  0.16687730  1
  I  I112  1  0.00375043  0.50202404  0.50047262  1
  I  I113  1  -0.00330135  0.50000614  0.83335927  1
  I  I114  1  -0.00243765  0.83472349  0.16754595  1
  I  I115  1  0.00259222  0.83529400  0.49801928  1
  I  I116  1  0.00021635  0.83154433  0.83452341  1
  I  I117  1  0.33787933  0.16168944  0.17115916  1
  I  I118  1  0.33335702  0.16549293  0.49971698  1
  I  I119  1  0.33135589  0.16419776  0.82952159  1
  I  I120  1  0.33738945  0.50346275  0.16576545  1
  I  I121  1  0.33071741  0.49545803  0.49960874  1
  I  I122  1  0.33318433  0.49927589  0.83435483  1
  I  I123  1  0.33720276  0.83412717  0.16554624  1
  I  I124  1  0.33467650  0.83875607  0.49765333  1
  I  I125  1  0.33714745  0.83512946  0.84004330  1
  I  I126  1  0.66281439  0.16637632  0.17060177  1
  I  I127  1  0.66576196  0.16080519  0.50041991  1
  I  I128  1  0.66909781  0.16859386  0.82999741  1
  I  I129  1  0.66333879  0.49868447  0.16866565  1
  I  I130  1  0.66692515  0.50006653  0.49978193  1
  I  I131  1  0.66938440  0.49144581  0.83224809  1
  I  I132  1  0.66396803  0.83405681  0.16867570  1
  I  I133  1  0.66325016  0.83844574  0.50050096  1
  I  I134  1  0.66366264  0.83638915  0.82964975  1
