# generated using pymatgen
data_Cs27Sn14Pb13I81
_symmetry_space_group_name_H-M   'P 1'
_cell_length_a   18.96989535
_cell_length_b   18.97639996
_cell_length_c   18.98086978
_cell_angle_alpha   89.99984301
_cell_angle_beta   89.99937957
_cell_angle_gamma   90.00051455
_symmetry_Int_Tables_number   1
_chemical_formula_structural   Cs27Sn14Pb13I81
_chemical_formula_sum   'Cs27 Sn14 Pb13 I81'
_cell_volume   6832.73960321
_cell_formula_units_Z   1
loop_
 _symmetry_equiv_pos_site_id
 _symmetry_equiv_pos_as_xyz
  1  'x, y, z'
loop_
 _atom_site_type_symbol
 _atom_site_label
 _atom_site_symmetry_multiplicity
 _atom_site_fract_x
 _atom_site_fract_y
 _atom_site_fract_z
 _atom_site_occupancy
  Cs  Cs0  1  -0.00033183  0.00302332  0.00313763  1
  Cs  Cs1  1  0.00781937  0.00088823  0.33126552  1
  Cs  Cs2  1  -0.00352170  0.00170430  0.66439182  1
  Cs  Cs3  1  -0.00006429  0.33312290  0.00006459  1
  Cs  Cs4  1  0.00295868  0.33353037  0.33088620  1
  Cs  Cs5  1  0.00089521  0.33429265  0.66778651  1
  Cs  Cs6  1  -0.00201040  0.66364063  -0.00224067  1
  Cs  Cs7  1  -0.00351216  0.66559101  0.33555058  1
  Cs  Cs8  1  0.00422263  0.66481295  0.66626760  1
  Cs  Cs9  1  0.33201153  -0.00436654  -0.00000923  1
  Cs  Cs10  1  0.32108144  0.00350785  0.33306037  1
  Cs  Cs11  1  0.33402181  -0.00285131  0.66731415  1
  Cs  Cs12  1  0.33513099  0.33265595  -0.00105468  1
  Cs  Cs13  1  0.33260980  0.32974793  0.33371757  1
  Cs  Cs14  1  0.33409803  0.33481326  0.66747523  1
  Cs  Cs15  1  0.33655314  0.67546555  -0.00143841  1
  Cs  Cs16  1  0.33530118  0.66924122  0.33225414  1
  Cs  Cs17  1  0.32611359  0.66707792  0.66842663  1
  Cs  Cs18  1  0.66702874  0.00018878  -0.00203047  1
  Cs  Cs19  1  0.66749124  -0.00009657  0.33739463  1
  Cs  Cs20  1  0.66708763  0.00159411  0.66494312  1
  Cs  Cs21  1  0.66596716  0.33353216  -0.00039804  1
  Cs  Cs22  1  0.66487298  0.33561005  0.33381721  1
  Cs  Cs23  1  0.66594043  0.33148177  0.66734483  1
  Cs  Cs24  1  0.66570586  0.66638709  0.00095028  1
  Cs  Cs25  1  0.66764911  0.66533439  0.33366919  1
  Cs  Cs26  1  0.66701355  0.66637262  0.66482456  1
  Sn  Sn27  1  0.50068029  0.83243669  0.49976097  1
  Sn  Sn28  1  0.83389616  0.49993126  0.16665739  1
  Sn  Sn29  1  0.49918181  0.16713935  0.83433899  1
  Sn  Sn30  1  0.50070898  0.50099016  0.50102694  1
  Sn  Sn31  1  0.83240407  0.50069112  0.83312987  1
  Sn  Sn32  1  0.16777498  0.16682458  0.83329220  1
  Sn  Sn33  1  0.83283705  0.83331986  0.16680243  1
  Sn  Sn34  1  0.50074301  0.49981548  0.83267774  1
  Sn  Sn35  1  0.83255592  0.83238614  0.49998839  1
  Sn  Sn36  1  0.50085510  0.16626915  0.16610212  1
  Sn  Sn37  1  0.83250394  0.50042353  0.50025649  1
  Sn  Sn38  1  0.16671840  0.50055184  0.16614942  1
  Sn  Sn39  1  0.83203643  0.16687487  0.16694652  1
  Sn  Sn40  1  0.83297501  0.83235170  0.83313178  1
  Pb  Pb41  1  0.50025559  0.49881991  0.16665014  1
  Pb  Pb42  1  0.50219084  0.83311528  0.83137588  1
  Pb  Pb43  1  0.16615364  0.83298127  0.50010270  1
  Pb  Pb44  1  0.50006861  0.16673370  0.50019368  1
  Pb  Pb45  1  0.16701384  0.50001238  0.49772796  1
  Pb  Pb46  1  0.16709266  0.49886739  0.83540387  1
  Pb  Pb47  1  0.83263907  0.16704406  0.83504686  1
  Pb  Pb48  1  0.16690387  0.16859419  0.16483058  1
  Pb  Pb49  1  0.16381769  0.83012628  0.16640619  1
  Pb  Pb50  1  0.83346457  0.16708205  0.49685945  1
  Pb  Pb51  1  0.50228824  0.83652648  0.16953814  1
  Pb  Pb52  1  0.16316891  0.83606653  0.83342749  1
  Pb  Pb53  1  0.16668064  0.16711919  0.50349763  1
  I  I54  1  0.16545759  0.00007367  0.16654627  1
  I  I55  1  0.16619881  -0.00005180  0.49812568  1
  I  I56  1  0.17295547  0.00383217  0.83544816  1
  I  I57  1  0.15847906  0.33597123  0.16637168  1
  I  I58  1  0.16588972  0.33379683  0.49799581  1
  I  I59  1  0.16517006  0.33097495  0.83549635  1
  I  I60  1  0.16147819  0.66242037  0.16596482  1
  I  I61  1  0.16648765  0.66639427  0.50076701  1
  I  I62  1  0.16844495  0.66666339  0.83429139  1
  I  I63  1  0.50610216  0.00428460  0.16063115  1
  I  I64  1  0.50660617  -0.00277852  0.50045087  1
  I  I65  1  0.49815765  0.00260511  0.83587218  1
  I  I66  1  0.50617051  0.33092158  0.16702701  1
  I  I67  1  0.50534685  0.33651584  0.50067456  1
  I  I68  1  0.50294545  0.33409672  0.83132774  1
  I  I69  1  0.49910209  0.66686040  0.16401525  1
  I  I70  1  0.50578662  0.66543756  0.50428695  1
  I  I71  1  0.50318445  0.66358377  0.83245823  1
  I  I72  1  0.82758453  -0.00009821  0.16519617  1
  I  I73  1  0.82871841  -0.00335207  0.50199684  1
  I  I74  1  0.83387728  -0.00234259  0.83336254  1
  I  I75  1  0.83372191  0.33428395  0.16572669  1
  I  I76  1  0.82864938  0.33718038  0.50107014  1
  I  I77  1  0.83281983  0.33646239  0.83350050  1
  I  I78  1  0.83853163  0.66603639  0.16684813  1
  I  I79  1  0.82933879  0.66593555  0.49544405  1
  I  I80  1  0.82823682  0.66524875  0.83825067  1
  I  I81  1  0.16706523  0.16865245  -0.00260922  1
  I  I82  1  0.16701294  0.16688936  0.33288210  1
  I  I83  1  0.17204184  0.16853054  0.67137939  1
  I  I84  1  0.15929743  0.49752511  0.00287384  1
  I  I85  1  0.16057967  0.49819517  0.32995708  1
  I  I86  1  0.16370087  0.49765552  0.66692173  1
  I  I87  1  0.16619804  0.83326421  -0.00001048  1
  I  I88  1  0.16556177  0.83525360  0.33313688  1
  I  I89  1  0.16378901  0.83420346  0.66683315  1
  I  I90  1  0.50128719  0.17358492  -0.00078781  1
  I  I91  1  0.50613774  0.16810641  0.33071206  1
  I  I92  1  0.49611065  0.16832239  0.66976585  1
  I  I93  1  0.50396214  0.49587951  -0.00265913  1
  I  I94  1  0.50378978  0.50179744  0.33583413  1
  I  I95  1  0.50820464  0.49653365  0.66718270  1
  I  I96  1  0.50157699  0.83126204  0.00006389  1
  I  I97  1  0.50743874  0.82636702  0.33711217  1
  I  I98  1  0.50778912  0.83518146  0.66366663  1
  I  I99  1  0.83275108  0.16710594  0.00311152  1
  I  I100  1  0.82713849  0.16783818  0.32858959  1
  I  I101  1  0.83402011  0.16578841  0.66676725  1
  I  I102  1  0.83361989  0.50195673  0.00000755  1
  I  I103  1  0.83314274  0.50209114  0.33321949  1
  I  I104  1  0.82897415  0.50605117  0.66689696  1
  I  I105  1  0.83453954  0.83067453  0.00025603  1
  I  I106  1  0.82892561  0.82991593  0.33343632  1
  I  I107  1  0.82989581  0.82783949  0.66630378  1
  I  I108  1  -0.00300692  0.16489052  0.16518702  1
  I  I109  1  -0.00036589  0.16610150  0.50009155  1
  I  I110  1  0.00119854  0.16630013  0.83573487  1
  I  I111  1  -0.00333909  0.49759447  0.16661312  1
  I  I112  1  -0.00373946  0.50436002  0.50236487  1
  I  I113  1  -0.00344000  0.50169112  0.83143132  1
  I  I114  1  -0.00515530  0.84001680  0.16972547  1
  I  I115  1  -0.00434510  0.82891670  0.49965975  1
  I  I116  1  -0.00531453  0.82796783  0.83108186  1
  I  I117  1  0.33611391  0.17037094  0.16577002  1
  I  I118  1  0.33376724  0.16669173  0.49282993  1
  I  I119  1  0.33534993  0.17354813  0.83902422  1
  I  I120  1  0.33169280  0.49445574  0.16724889  1
  I  I121  1  0.33706974  0.50319651  0.50363200  1
  I  I122  1  0.33664323  0.49622698  0.83002065  1
  I  I123  1  0.33357902  0.83346851  0.16845649  1
  I  I124  1  0.33658939  0.82920972  0.50112891  1
  I  I125  1  0.33358594  0.83099474  0.83118008  1
  I  I126  1  0.66752654  0.16980106  0.16022530  1
  I  I127  1  0.66679941  0.16616909  0.50417545  1
  I  I128  1  0.66405848  0.16844198  0.83580573  1
  I  I129  1  0.67011509  0.50128630  0.16669470  1
  I  I130  1  0.66775543  0.50356978  0.49808256  1
  I  I131  1  0.66757561  0.49708300  0.83501717  1
  I  I132  1  0.67080225  0.82697281  0.16437448  1
  I  I133  1  0.66825054  0.82924732  0.49957253  1
  I  I134  1  0.67049691  0.83460712  0.83618807  1
