# generated using pymatgen
data_Cs27Sn13Pb14I81
_symmetry_space_group_name_H-M   'P 1'
_cell_length_a   18.98503085
_cell_length_b   18.97955010
_cell_length_c   18.97014209
_cell_angle_alpha   89.99901804
_cell_angle_beta   90.00281681
_cell_angle_gamma   89.99945336
_symmetry_Int_Tables_number   1
_chemical_formula_structural   Cs27Sn13Pb14I81
_chemical_formula_sum   'Cs27 Sn13 Pb14 I81'
_cell_volume   6835.46091039
_cell_formula_units_Z   1
loop_
 _symmetry_equiv_pos_site_id
 _symmetry_equiv_pos_as_xyz
  1  'x, y, z'
loop_
 _atom_site_type_symbol
 _atom_site_label
 _atom_site_symmetry_multiplicity
 _atom_site_fract_x
 _atom_site_fract_y
 _atom_site_fract_z
 _atom_site_occupancy
  Cs  Cs0  1  0.00103456  -0.00039169  0.00068681  1
  Cs  Cs1  1  -0.00002510  0.00793641  0.33325523  1
  Cs  Cs2  1  -0.00054987  -0.00208545  0.66562802  1
  Cs  Cs3  1  0.00179452  0.33145327  0.00463788  1
  Cs  Cs4  1  0.00695914  0.32608648  0.32431858  1
  Cs  Cs5  1  -0.00267245  0.33547707  0.66661725  1
  Cs  Cs6  1  -0.00164803  0.66817956  -0.00265759  1
  Cs  Cs7  1  0.00349799  0.66410227  0.33572341  1
  Cs  Cs8  1  -0.00162952  0.66711972  0.66785422  1
  Cs  Cs9  1  0.33304335  0.00093526  -0.00094615  1
  Cs  Cs10  1  0.33272440  0.00038100  0.33686381  1
  Cs  Cs11  1  0.33453067  0.00412931  0.66579852  1
  Cs  Cs12  1  0.33165798  0.32912387  0.00141970  1
  Cs  Cs13  1  0.32497200  0.33344426  0.33020097  1
  Cs  Cs14  1  0.33594099  0.32778583  0.66690458  1
  Cs  Cs15  1  0.33526766  0.66807492  -0.00013343  1
  Cs  Cs16  1  0.33263794  0.66445953  0.33456277  1
  Cs  Cs17  1  0.33436320  0.66721708  0.66620727  1
  Cs  Cs18  1  0.66575048  -0.00305663  0.00130304  1
  Cs  Cs19  1  0.66828440  0.00179537  0.33184793  1
  Cs  Cs20  1  0.66609541  -0.00006128  0.66611766  1
  Cs  Cs21  1  0.66614676  0.33635863  -0.00016822  1
  Cs  Cs22  1  0.66887273  0.33085889  0.33393240  1
  Cs  Cs23  1  0.66605546  0.33514465  0.66596930  1
  Cs  Cs24  1  0.66564616  0.66746068  0.00207231  1
  Cs  Cs25  1  0.66461158  0.66754945  0.33105622  1
  Cs  Cs26  1  0.66735027  0.66573586  0.66746011  1
  Sn  Sn27  1  0.83304698  0.83336365  0.83285303  1
  Sn  Sn28  1  0.50076877  0.50078311  0.50078532  1
  Sn  Sn29  1  0.16662867  0.83275977  0.16624824  1
  Sn  Sn30  1  0.50047355  0.16658591  0.16653538  1
  Sn  Sn31  1  0.49968740  0.50079102  0.83264682  1
  Sn  Sn32  1  0.83329134  0.50005524  0.83308811  1
  Sn  Sn33  1  0.50002003  0.83270640  0.83258226  1
  Sn  Sn34  1  0.16691919  0.83242965  0.83402488  1
  Sn  Sn35  1  0.50110133  0.83233772  0.50098485  1
  Sn  Sn36  1  0.16696255  0.50075538  0.83302920  1
  Sn  Sn37  1  0.83240408  0.83224228  0.50062572  1
  Sn  Sn38  1  0.83307218  0.16665089  0.83325874  1
  Sn  Sn39  1  0.83279630  0.50082014  0.50029451  1
  Pb  Pb40  1  0.50008616  0.49821155  0.16708110  1
  Pb  Pb41  1  0.16648125  0.16697754  0.50055938  1
  Pb  Pb42  1  0.83325857  0.50035874  0.16754451  1
  Pb  Pb43  1  0.16674671  0.50273120  0.16357932  1
  Pb  Pb44  1  0.49831146  0.83447774  0.16710978  1
  Pb  Pb45  1  0.83113415  0.16652713  0.16378614  1
  Pb  Pb46  1  0.16898175  0.16366396  0.16611370  1
  Pb  Pb47  1  0.16643963  0.83333967  0.50089140  1
  Pb  Pb48  1  0.16647774  0.49999607  0.50268623  1
  Pb  Pb49  1  0.16400848  0.16648191  0.83303828  1
  Pb  Pb50  1  0.83321017  0.16710919  0.50210388  1
  Pb  Pb51  1  0.83546689  0.83306816  0.16755739  1
  Pb  Pb52  1  0.50019161  0.16720400  0.49788028  1
  Pb  Pb53  1  0.50211655  0.16671130  0.83451611  1
  I  I54  1  0.16655036  -0.00378553  0.15846086  1
  I  I55  1  0.16713385  -0.00073536  0.50172894  1
  I  I56  1  0.16684831  -0.00379603  0.83682838  1
  I  I57  1  0.16713258  0.33322634  0.16646379  1
  I  I58  1  0.16742688  0.33403131  0.50181535  1
  I  I59  1  0.16730658  0.33677062  0.83142123  1
  I  I60  1  0.16847797  0.67033646  0.16441280  1
  I  I61  1  0.16707715  0.66681592  0.49608230  1
  I  I62  1  0.16291937  0.66751283  0.83723808  1
  I  I63  1  0.49885647  0.00203528  0.16477863  1
  I  I64  1  0.50291229  -0.00347404  0.50373097  1
  I  I65  1  0.49980695  -0.00346573  0.83095676  1
  I  I66  1  0.50060066  0.33061066  0.16437092  1
  I  I67  1  0.50487138  0.33720158  0.50541516  1
  I  I68  1  0.50013470  0.33677284  0.83065138  1
  I  I69  1  0.49846515  0.66674939  0.16590584  1
  I  I70  1  0.50363709  0.66713166  0.50403516  1
  I  I71  1  0.50289548  0.66711713  0.83126271  1
  I  I72  1  0.83382925  -0.00025804  0.16592945  1
  I  I73  1  0.82978122  -0.00339407  0.50473415  1
  I  I74  1  0.83333868  -0.00189972  0.83029369  1
  I  I75  1  0.83338630  0.33334238  0.16588584  1
  I  I76  1  0.82740828  0.33712369  0.50663251  1
  I  I77  1  0.83267100  0.33503011  0.82972309  1
  I  I78  1  0.83235755  0.66687364  0.16069214  1
  I  I79  1  0.82949873  0.66704407  0.50935275  1
  I  I80  1  0.83434214  0.66691069  0.82999874  1
  I  I81  1  0.16622214  0.16869166  -0.00043900  1
  I  I82  1  0.16644670  0.16481270  0.33280332  1
  I  I83  1  0.16907964  0.16310199  0.66756037  1
  I  I84  1  0.16625961  0.50114055  -0.00497730  1
  I  I85  1  0.16704552  0.50021937  0.33341252  1
  I  I86  1  0.16544405  0.50856586  0.67100470  1
  I  I87  1  0.16689783  0.83014470  -0.00276342  1
  I  I88  1  0.16787727  0.83563023  0.33128193  1
  I  I89  1  0.16568081  0.82908034  0.67052094  1
  I  I90  1  0.50127469  0.16569292  0.00202617  1
  I  I91  1  0.49979655  0.16460868  0.33042694  1
  I  I92  1  0.50040415  0.16613682  0.66669197  1
  I  I93  1  0.50140275  0.50365598  -0.00384539  1
  I  I94  1  0.50579676  0.50432359  0.33725151  1
  I  I95  1  0.50112320  0.50367861  0.66798286  1
  I  I96  1  0.50252021  0.83052817  -0.00348584  1
  I  I97  1  0.50277271  0.83076415  0.33687161  1
  I  I98  1  0.49888057  0.83064316  0.66788558  1
  I  I99  1  0.83347284  0.16650510  -0.00442315  1
  I  I100  1  0.83347052  0.16592537  0.33340026  1
  I  I101  1  0.83168681  0.16606751  0.67026606  1
  I  I102  1  0.83244573  0.50103208  -0.00437089  1
  I  I103  1  0.82638441  0.50648120  0.33768650  1
  I  I104  1  0.83277251  0.50091058  0.66835231  1
  I  I105  1  0.83089220  0.83240266  -0.00379272  1
  I  I106  1  0.82910483  0.82844412  0.33734554  1
  I  I107  1  0.83483624  0.83301040  0.66834970  1
  I  I108  1  0.00016695  0.16657225  0.16700444  1
  I  I109  1  -0.00064817  0.16503368  0.50000772  1
  I  I110  1  -0.00397289  0.16628342  0.83297999  1
  I  I111  1  0.00013164  0.49911866  0.16695449  1
  I  I112  1  -0.00360941  0.50605949  0.50608949  1
  I  I113  1  -0.00099339  0.50309318  0.83001556  1
  I  I114  1  0.00316699  0.83318360  0.15980791  1
  I  I115  1  -0.00341833  0.82918154  0.50428201  1
  I  I116  1  -0.00079559  0.83123460  0.83378576  1
  I  I117  1  0.33626460  0.16723959  0.16432097  1
  I  I118  1  0.33392557  0.16528779  0.50043722  1
  I  I119  1  0.33361115  0.16667708  0.83523892  1
  I  I120  1  0.33339618  0.49879420  0.16711947  1
  I  I121  1  0.33674858  0.50488446  0.50357556  1
  I  I122  1  0.33425001  0.50753544  0.83048415  1
  I  I123  1  0.33071161  0.83487132  0.16046441  1
  I  I124  1  0.33657673  0.82991390  0.50244914  1
  I  I125  1  0.33398632  0.82702324  0.83398797  1
  I  I126  1  0.66384543  0.16449381  0.16680131  1
  I  I127  1  0.66667257  0.16563693  0.49868733  1
  I  I128  1  0.66981547  0.16616230  0.83450840  1
  I  I129  1  0.66654045  0.50011085  0.16027688  1
  I  I130  1  0.66663259  0.50383926  0.50924744  1
  I  I131  1  0.66676259  0.50159492  0.83036158  1
  I  I132  1  0.66647974  0.83541215  0.16351942  1
  I  I133  1  0.66657048  0.83050665  0.50796413  1
  I  I134  1  0.66672836  0.83187547  0.82986649  1
