# generated using pymatgen
data_Cs27Sn14Pb13I81
_symmetry_space_group_name_H-M   'P 1'
_cell_length_a   18.97437878
_cell_length_b   18.98396106
_cell_length_c   18.97239153
_cell_angle_alpha   89.99931287
_cell_angle_beta   89.99983756
_cell_angle_gamma   90.00047863
_symmetry_Int_Tables_number   1
_chemical_formula_structural   Cs27Sn14Pb13I81
_chemical_formula_sum   'Cs27 Sn14 Pb13 I81'
_cell_volume   6834.02367265
_cell_formula_units_Z   1
loop_
 _symmetry_equiv_pos_site_id
 _symmetry_equiv_pos_as_xyz
  1  'x, y, z'
loop_
 _atom_site_type_symbol
 _atom_site_label
 _atom_site_symmetry_multiplicity
 _atom_site_fract_x
 _atom_site_fract_y
 _atom_site_fract_z
 _atom_site_occupancy
  Cs  Cs0  1  0.00215462  0.00052843  -0.00076685  1
  Cs  Cs1  1  -0.00290146  0.00360455  0.33006581  1
  Cs  Cs2  1  0.00023865  -0.00292019  0.66876446  1
  Cs  Cs3  1  0.00201715  0.33391882  0.00033233  1
  Cs  Cs4  1  -0.00406957  0.33259155  0.33455605  1
  Cs  Cs5  1  -0.00093938  0.33549453  0.66686429  1
  Cs  Cs6  1  0.00029692  0.66362055  0.00073214  1
  Cs  Cs7  1  -0.00011113  0.66353365  0.33369944  1
  Cs  Cs8  1  0.00040283  0.66935458  0.66348952  1
  Cs  Cs9  1  0.33226703  0.00244437  -0.00102106  1
  Cs  Cs10  1  0.33573351  -0.00074688  0.33241136  1
  Cs  Cs11  1  0.33224454  -0.00103724  0.66718937  1
  Cs  Cs12  1  0.33375422  0.33304718  0.00064384  1
  Cs  Cs13  1  0.33150208  0.33410735  0.32967988  1
  Cs  Cs14  1  0.33473823  0.33269112  0.66759999  1
  Cs  Cs15  1  0.33401401  0.66314618  0.00005093  1
  Cs  Cs16  1  0.33462526  0.66681488  0.33858192  1
  Cs  Cs17  1  0.33045493  0.66804929  0.66037807  1
  Cs  Cs18  1  0.66573247  -0.00128426  -0.00066048  1
  Cs  Cs19  1  0.66942490  -0.00333751  0.33602814  1
  Cs  Cs20  1  0.66818948  0.00033221  0.66752751  1
  Cs  Cs21  1  0.66234253  0.33516932  -0.00233497  1
  Cs  Cs22  1  0.67361339  0.33118420  0.34318389  1
  Cs  Cs23  1  0.66752907  0.33413267  0.66300415  1
  Cs  Cs24  1  0.66673325  0.66604618  0.00067028  1
  Cs  Cs25  1  0.66566328  0.67275215  0.33214201  1
  Cs  Cs26  1  0.66881973  0.66543655  0.66746532  1
  Sn  Sn27  1  0.16768657  0.49934653  0.83378572  1
  Sn  Sn28  1  0.49948548  0.49874384  0.16626156  1
  Sn  Sn29  1  0.50026146  0.83312556  0.83349747  1
  Sn  Sn30  1  0.50012342  0.16675046  0.83396016  1
  Sn  Sn31  1  0.49870927  0.50009831  0.83369875  1
  Sn  Sn32  1  0.83353761  0.83351164  0.50072819  1
  Sn  Sn33  1  0.16746110  0.16685953  0.16671471  1
  Sn  Sn34  1  0.16714693  0.16667495  0.50008920  1
  Sn  Sn35  1  0.16690469  0.83310802  0.16650628  1
  Sn  Sn36  1  0.49980382  0.16759053  0.16620438  1
  Sn  Sn37  1  0.16766256  0.49988098  0.16573954  1
  Sn  Sn38  1  0.83324144  0.16618037  0.83400077  1
  Sn  Sn39  1  0.83278653  0.83399443  0.83301133  1
  Sn  Sn40  1  0.16663877  0.16751640  0.83316429  1
  Pb  Pb41  1  0.16472351  0.83595100  0.49682825  1
  Pb  Pb42  1  0.83236684  0.49961529  0.16648591  1
  Pb  Pb43  1  0.49794228  0.83346464  0.16446799  1
  Pb  Pb44  1  0.50200971  0.83362019  0.50306386  1
  Pb  Pb45  1  0.16673287  0.83276945  0.83467192  1
  Pb  Pb46  1  0.83232501  0.16691726  0.16404375  1
  Pb  Pb47  1  0.83339682  0.50291593  0.50008896  1
  Pb  Pb48  1  0.49795500  0.16669343  0.49967120  1
  Pb  Pb49  1  0.16679804  0.49760181  0.49992194  1
  Pb  Pb50  1  0.83336028  0.50008432  0.83347506  1
  Pb  Pb51  1  0.49984889  0.49981330  0.49949621  1
  Pb  Pb52  1  0.83586632  0.16498214  0.50308902  1
  Pb  Pb53  1  0.83560225  0.83338411  0.16554647  1
  I  I54  1  0.16912800  0.00194748  0.16558203  1
  I  I55  1  0.16645189  0.00363764  0.50297729  1
  I  I56  1  0.16832286  0.00297306  0.83471988  1
  I  I57  1  0.17063168  0.33269964  0.16521300  1
  I  I58  1  0.16601211  0.32970332  0.49737517  1
  I  I59  1  0.16818153  0.33210125  0.83707107  1
  I  I60  1  0.16869799  0.66529261  0.16009220  1
  I  I61  1  0.16445396  0.66680783  0.50034057  1
  I  I62  1  0.16898683  0.66384164  0.83905136  1
  I  I63  1  0.49445764  0.00300282  0.16162643  1
  I  I64  1  0.49885253  0.00014695  0.49904350  1
  I  I65  1  0.50023815  0.00127675  0.83681087  1
  I  I66  1  0.48998176  0.33280168  0.15624296  1
  I  I67  1  0.50111182  0.33312194  0.50540874  1
  I  I68  1  0.49905723  0.33271991  0.83727662  1
  I  I69  1  0.49564572  0.66384056  0.16157109  1
  I  I70  1  0.50028917  0.66682120  0.49948590  1
  I  I71  1  0.50091513  0.66599371  0.83784963  1
  I  I72  1  0.83496250  0.00014370  0.16794955  1
  I  I73  1  0.83429837  -0.00269374  0.50264093  1
  I  I74  1  0.83119155  0.00035477  0.83010045  1
  I  I75  1  0.83931273  0.33307411  0.16519938  1
  I  I76  1  0.83382890  0.33284414  0.50020083  1
  I  I77  1  0.83263837  0.33031288  0.83487675  1
  I  I78  1  0.83468276  0.66674466  0.16515331  1
  I  I79  1  0.83484997  0.67086588  0.50894872  1
  I  I80  1  0.83059863  0.66967806  0.82941751  1
  I  I81  1  0.16663712  0.16673622  -0.00035712  1
  I  I82  1  0.17128094  0.16570532  0.33154560  1
  I  I83  1  0.16634194  0.17059927  0.66885574  1
  I  I84  1  0.16954813  0.49554326  -0.00013983  1
  I  I85  1  0.17078484  0.50023686  0.32952029  1
  I  I86  1  0.17040718  0.49557974  0.67018877  1
  I  I87  1  0.16456894  0.83836252  0.00238753  1
  I  I88  1  0.16545039  0.83234857  0.32894487  1
  I  I89  1  0.16818285  0.83354770  0.66679347  1
  I  I90  1  0.49533068  0.16672955  -0.00135342  1
  I  I91  1  0.49382583  0.17132848  0.32954285  1
  I  I92  1  0.49927591  0.16704913  0.67063315  1
  I  I93  1  0.49559053  0.49893319  -0.00114448  1
  I  I94  1  0.49383831  0.49548250  0.32917153  1
  I  I95  1  0.49625442  0.49900112  0.67082537  1
  I  I96  1  0.50673260  0.83408011  -0.00375348  1
  I  I97  1  0.50135894  0.83310720  0.33299055  1
  I  I98  1  0.49920109  0.83441357  0.67177342  1
  I  I99  1  0.83851393  0.15940261  -0.00419700  1
  I  I100  1  0.83380615  0.16471289  0.33349265  1
  I  I101  1  0.83230100  0.16508173  0.67129732  1
  I  I102  1  0.83516936  0.50400051  -0.00041237  1
  I  I103  1  0.83454466  0.50163738  0.33327401  1
  I  I104  1  0.83368000  0.49712901  0.66730939  1
  I  I105  1  0.82993358  0.83734896  -0.00365947  1
  I  I106  1  0.83660043  0.83263530  0.33556560  1
  I  I107  1  0.83027671  0.83829370  0.66865138  1
  I  I108  1  0.00354005  0.16672624  0.16592598  1
  I  I109  1  0.00372152  0.16615426  0.49778523  1
  I  I110  1  0.00137986  0.16571311  0.83345489  1
  I  I111  1  0.00391835  0.49962367  0.16201887  1
  I  I112  1  0.00044311  0.49935263  0.50048165  1
  I  I113  1  0.00338867  0.49638206  0.83784549  1
  I  I114  1  0.00384343  0.83458572  0.16388550  1
  I  I115  1  -0.00276130  0.83425655  0.50985609  1
  I  I116  1  -0.00223695  0.83724977  0.83138674  1
  I  I117  1  0.33210110  0.16672327  0.16170920  1
  I  I118  1  0.32992015  0.16577071  0.50509932  1
  I  I119  1  0.33308471  0.16638500  0.83395968  1
  I  I120  1  0.33237826  0.49850552  0.16102788  1
  I  I121  1  0.33310824  0.50242421  0.50176525  1
  I  I122  1  0.33327639  0.49662124  0.83778875  1
  I  I123  1  0.32997531  0.83501470  0.16383593  1
  I  I124  1  0.33307089  0.83316254  0.50080241  1
  I  I125  1  0.33580560  0.83649800  0.83697913  1
  I  I126  1  0.66271198  0.17082297  0.16069631  1
  I  I127  1  0.66695171  0.16576325  0.49907587  1
  I  I128  1  0.66547565  0.16562461  0.83845977  1
  I  I129  1  0.66224959  0.49632173  0.15977754  1
  I  I130  1  0.66655947  0.49824528  0.50069491  1
  I  I131  1  0.66320149  0.49821439  0.83781427  1
  I  I132  1  0.66639578  0.83306784  0.16902478  1
  I  I133  1  0.67006949  0.83488728  0.50000549  1
  I  I134  1  0.66636321  0.83695389  0.83038077  1
