# generated using pymatgen
data_Cs27Sn13Pb14I81
_symmetry_space_group_name_H-M   'P 1'
_cell_length_a   18.98140071
_cell_length_b   18.98171758
_cell_length_c   18.96994153
_cell_angle_alpha   90.00066106
_cell_angle_beta   90.00030863
_cell_angle_gamma   89.99981521
_symmetry_Int_Tables_number   1
_chemical_formula_structural   Cs27Sn13Pb14I81
_chemical_formula_sum   'Cs27 Sn13 Pb14 I81'
_cell_volume   6834.86210963
_cell_formula_units_Z   1
loop_
 _symmetry_equiv_pos_site_id
 _symmetry_equiv_pos_as_xyz
  1  'x, y, z'
loop_
 _atom_site_type_symbol
 _atom_site_label
 _atom_site_symmetry_multiplicity
 _atom_site_fract_x
 _atom_site_fract_y
 _atom_site_fract_z
 _atom_site_occupancy
  Cs  Cs0  1  0.00128480  0.00120305  0.00233409  1
  Cs  Cs1  1  -0.00310264  -0.00754828  0.33279886  1
  Cs  Cs2  1  0.00127257  -0.00049350  0.66531358  1
  Cs  Cs3  1  -0.00043229  0.33065957  -0.00141124  1
  Cs  Cs4  1  -0.00063609  0.34071776  0.33252988  1
  Cs  Cs5  1  0.00007807  0.33191567  0.66838454  1
  Cs  Cs6  1  0.00582382  0.66916215  0.00386678  1
  Cs  Cs7  1  0.00079370  0.66636323  0.33459904  1
  Cs  Cs8  1  -0.00062773  0.66988135  0.66234492  1
  Cs  Cs9  1  0.33472334  0.00035478  -0.00072429  1
  Cs  Cs10  1  0.33461912  0.00227549  0.33580117  1
  Cs  Cs11  1  0.33293863  0.00094196  0.66465158  1
  Cs  Cs12  1  0.33292219  0.33175928  -0.00114173  1
  Cs  Cs13  1  0.33242242  0.33796792  0.34120012  1
  Cs  Cs14  1  0.33283554  0.33098558  0.66357346  1
  Cs  Cs15  1  0.33252550  0.66768610  0.00133590  1
  Cs  Cs16  1  0.32839415  0.65708051  0.32990791  1
  Cs  Cs17  1  0.33210617  0.66968120  0.66795572  1
  Cs  Cs18  1  0.66520139  0.00098486  0.00004176  1
  Cs  Cs19  1  0.66732092  -0.00146039  0.33097700  1
  Cs  Cs20  1  0.66554876  0.00010732  0.66754617  1
  Cs  Cs21  1  0.66762932  0.33172171  -0.00103837  1
  Cs  Cs22  1  0.66769791  0.34165460  0.33372457  1
  Cs  Cs23  1  0.66661200  0.33208272  0.66803946  1
  Cs  Cs24  1  0.66384278  0.66645116  -0.00235597  1
  Cs  Cs25  1  0.67209957  0.66104275  0.33588573  1
  Cs  Cs26  1  0.66770353  0.66790725  0.66776402  1
  Sn  Sn27  1  0.49962006  0.49967975  0.83339532  1
  Sn  Sn28  1  0.83334608  0.16624591  0.83252750  1
  Sn  Sn29  1  0.16694439  0.16729193  0.83383975  1
  Sn  Sn30  1  0.16769910  0.16650830  0.16634138  1
  Sn  Sn31  1  0.50070432  0.83362585  0.83339873  1
  Sn  Sn32  1  0.83311248  0.16662673  0.50027338  1
  Sn  Sn33  1  0.83287138  0.83365633  0.83372872  1
  Sn  Sn34  1  0.83386158  0.50034487  0.83356608  1
  Sn  Sn35  1  0.50007319  0.83371723  0.16720697  1
  Sn  Sn36  1  0.16666365  0.49920502  0.83332659  1
  Sn  Sn37  1  0.49969357  0.83314182  0.49929515  1
  Sn  Sn38  1  0.49898705  0.16634217  0.16628096  1
  Sn  Sn39  1  0.49976281  0.16666221  0.83373430  1
  Pb  Pb40  1  0.50192370  0.16537532  0.49939054  1
  Pb  Pb41  1  0.16651201  0.49988397  0.50307695  1
  Pb  Pb42  1  0.16679008  0.49709401  0.16414576  1
  Pb  Pb43  1  0.83306235  0.16678020  0.16672853  1
  Pb  Pb44  1  0.16399923  0.16648996  0.49939648  1
  Pb  Pb45  1  0.83083192  0.83323974  0.16423907  1
  Pb  Pb46  1  0.83129675  0.83523745  0.50207237  1
  Pb  Pb47  1  0.83345738  0.50020470  0.16376420  1
  Pb  Pb48  1  0.50006451  0.49944648  0.16447570  1
  Pb  Pb49  1  0.16943959  0.83589282  0.16665941  1
  Pb  Pb50  1  0.50007222  0.50302026  0.50303889  1
  Pb  Pb51  1  0.16680490  0.83380454  0.83325166  1
  Pb  Pb52  1  0.16941497  0.83354182  0.49968279  1
  Pb  Pb53  1  0.83333863  0.49777287  0.50271136  1
  I  I54  1  0.16773435  0.00407807  0.15710668  1
  I  I55  1  0.16648625  0.00040791  0.50493823  1
  I  I56  1  0.16676401  0.00359474  0.83632963  1
  I  I57  1  0.17337095  0.32895008  0.16286640  1
  I  I58  1  0.16845733  0.33293310  0.49934324  1
  I  I59  1  0.16656109  0.33207663  0.83685752  1
  I  I60  1  0.16831017  0.66650095  0.16459408  1
  I  I61  1  0.16672263  0.66663437  0.50304961  1
  I  I62  1  0.16752139  0.66389855  0.83211862  1
  I  I63  1  0.49713684  0.00068697  0.16001535  1
  I  I64  1  0.50146562  -0.00248594  0.50667889  1
  I  I65  1  0.50266420  0.00019105  0.83383991  1
  I  I66  1  0.49760192  0.32961142  0.16009142  1
  I  I67  1  0.50068429  0.33346231  0.50042372  1
  I  I68  1  0.50258128  0.33232569  0.83781999  1
  I  I69  1  0.50164099  0.66959762  0.16331110  1
  I  I70  1  0.50146183  0.67107990  0.50155124  1
  I  I71  1  0.50306330  0.66735544  0.83295692  1
  I  I72  1  0.83504630  0.00027553  0.16318429  1
  I  I73  1  0.83272964  0.00302438  0.50820078  1
  I  I74  1  0.82956705  0.00080953  0.83002102  1
  I  I75  1  0.83015913  0.33289231  0.16450898  1
  I  I76  1  0.83157664  0.32979220  0.50690441  1
  I  I77  1  0.83078861  0.33249758  0.83013687  1
  I  I78  1  0.83066587  0.66686739  0.16449474  1
  I  I79  1  0.83150458  0.66679751  0.50251526  1
  I  I80  1  0.82809711  0.66671101  0.83466896  1
  I  I81  1  0.16585463  0.16998744  -0.00227344  1
  I  I82  1  0.17243146  0.16463843  0.32997915  1
  I  I83  1  0.16935822  0.17030509  0.67033510  1
  I  I84  1  0.16704740  0.49847460  -0.00463612  1
  I  I85  1  0.16752683  0.49830600  0.33302342  1
  I  I86  1  0.16750809  0.49238069  0.67208380  1
  I  I87  1  0.16802187  0.83137573  -0.00045319  1
  I  I88  1  0.16716726  0.83695554  0.33305152  1
  I  I89  1  0.16974510  0.83517082  0.66726956  1
  I  I90  1  0.50128463  0.16274244  -0.00226820  1
  I  I91  1  0.49703758  0.16026149  0.33006053  1
  I  I92  1  0.49823589  0.16613414  0.67029944  1
  I  I93  1  0.50085439  0.50374376  -0.00471617  1
  I  I94  1  0.49996851  0.49931439  0.33336090  1
  I  I95  1  0.50076643  0.49789374  0.67206150  1
  I  I96  1  0.50382558  0.83454844  -0.00170367  1
  I  I97  1  0.49858073  0.84314849  0.33261487  1
  I  I98  1  0.50400476  0.83329982  0.66894708  1
  I  I99  1  0.83279531  0.16737243  -0.00397462  1
  I  I100  1  0.83206723  0.16486574  0.33595286  1
  I  I101  1  0.83248854  0.16701014  0.67024818  1
  I  I102  1  0.83127721  0.49503478  -0.00564619  1
  I  I103  1  0.83245458  0.49727178  0.33373371  1
  I  I104  1  0.83215885  0.50162929  0.67180789  1
  I  I105  1  0.82740974  0.83694160  -0.00485433  1
  I  I106  1  0.83077083  0.83746120  0.33349252  1
  I  I107  1  0.82682230  0.83172869  0.67105100  1
  I  I108  1  0.00256729  0.16833376  0.16044853  1
  I  I109  1  -0.00351600  0.16621706  0.50819885  1
  I  I110  1  -0.00022129  0.16956332  0.83346852  1
  I  I111  1  0.00028009  0.49682274  0.16285985  1
  I  I112  1  -0.00020584  0.49930236  0.50283151  1
  I  I113  1  -0.00036898  0.49488399  0.83354988  1
  I  I114  1  0.00004146  0.83536232  0.16415060  1
  I  I115  1  -0.00052082  0.83494381  0.50320443  1
  I  I116  1  -0.00301384  0.83393571  0.83219575  1
  I  I117  1  0.33448577  0.16160790  0.15577695  1
  I  I118  1  0.33350796  0.16487120  0.50341259  1
  I  I119  1  0.33409842  0.16854656  0.83727333  1
  I  I120  1  0.33354704  0.50296128  0.16248417  1
  I  I121  1  0.33357078  0.49931002  0.50317230  1
  I  I122  1  0.33392713  0.49768268  0.83379577  1
  I  I123  1  0.33794716  0.83527112  0.16013111  1
  I  I124  1  0.33810990  0.83677360  0.50714635  1
  I  I125  1  0.33712818  0.83313649  0.83352687  1
  I  I126  1  0.66323963  0.16184866  0.16095543  1
  I  I127  1  0.66938590  0.16525679  0.50794659  1
  I  I128  1  0.66620876  0.16808152  0.83337415  1
  I  I129  1  0.66636302  0.49674101  0.16346946  1
  I  I130  1  0.66661080  0.49890758  0.50246439  1
  I  I131  1  0.66639273  0.49796148  0.83341025  1
  I  I132  1  0.66222155  0.84207011  0.16575067  1
  I  I133  1  0.66320062  0.83537661  0.50079464  1
  I  I134  1  0.66523989  0.83374930  0.83337885  1
