# generated using pymatgen
data_Cs27Sn14Pb13I81
_symmetry_space_group_name_H-M   'P 1'
_cell_length_a   18.96132092
_cell_length_b   18.96479263
_cell_length_c   18.95670292
_cell_angle_alpha   90.00000673
_cell_angle_beta   90.00144353
_cell_angle_gamma   90.00016463
_symmetry_Int_Tables_number   1
_chemical_formula_structural   Cs27Sn14Pb13I81
_chemical_formula_sum   'Cs27 Sn14 Pb13 I81'
_cell_volume   6816.78334084
_cell_formula_units_Z   1
loop_
 _symmetry_equiv_pos_site_id
 _symmetry_equiv_pos_as_xyz
  1  'x, y, z'
loop_
 _atom_site_type_symbol
 _atom_site_label
 _atom_site_symmetry_multiplicity
 _atom_site_fract_x
 _atom_site_fract_y
 _atom_site_fract_z
 _atom_site_occupancy
  Cs  Cs0  1  -0.00239339  -0.00146973  0.00109238  1
  Cs  Cs1  1  -0.00075068  0.00100934  0.33313100  1
  Cs  Cs2  1  0.00102473  0.00188032  0.66549001  1
  Cs  Cs3  1  0.00076770  0.33413331  -0.00150850  1
  Cs  Cs4  1  -0.00075169  0.33199119  0.33410050  1
  Cs  Cs5  1  -0.00083334  0.33236900  0.66777315  1
  Cs  Cs6  1  0.00089143  0.66768257  -0.00097805  1
  Cs  Cs7  1  -0.00193166  0.66689112  0.33040128  1
  Cs  Cs8  1  0.00391098  0.66795549  0.67146781  1
  Cs  Cs9  1  0.33721297  0.00218147  -0.00052201  1
  Cs  Cs10  1  0.33007861  -0.00183906  0.33409902  1
  Cs  Cs11  1  0.33590320  -0.00692499  0.66582252  1
  Cs  Cs12  1  0.33487578  0.33280697  0.00012162  1
  Cs  Cs13  1  0.33225206  0.33410180  0.33473024  1
  Cs  Cs14  1  0.32976056  0.33485206  0.66389749  1
  Cs  Cs15  1  0.33116844  0.66553792  0.00245822  1
  Cs  Cs16  1  0.33643303  0.66731181  0.33351964  1
  Cs  Cs17  1  0.32881407  0.67333853  0.66126099  1
  Cs  Cs18  1  0.66479893  0.00049601  -0.00110658  1
  Cs  Cs19  1  0.66973284  0.00341563  0.33171483  1
  Cs  Cs20  1  0.66477383  0.00013140  0.66880200  1
  Cs  Cs21  1  0.66474955  0.33261140  -0.00056143  1
  Cs  Cs22  1  0.66753358  0.33326758  0.33390379  1
  Cs  Cs23  1  0.66881040  0.33273258  0.66672696  1
  Cs  Cs24  1  0.66782916  0.66546255  0.00010618  1
  Cs  Cs25  1  0.66470505  0.66524318  0.33462694  1
  Cs  Cs26  1  0.66548451  0.66760439  0.66485906  1
  Sn  Sn27  1  0.83314302  0.49966637  0.16633323  1
  Sn  Sn28  1  0.16680437  0.49984997  0.16667623  1
  Sn  Sn29  1  0.16616163  0.16669325  0.83410677  1
  Sn  Sn30  1  0.83343466  0.50037631  0.50049663  1
  Sn  Sn31  1  0.16644167  0.16674776  0.16563114  1
  Sn  Sn32  1  0.83391068  0.16727090  0.83289134  1
  Sn  Sn33  1  0.83338834  0.83332541  0.50022237  1
  Sn  Sn34  1  0.50011327  0.50013535  0.83326846  1
  Sn  Sn35  1  0.83248415  0.49929341  0.83333951  1
  Sn  Sn36  1  0.50010825  0.50050356  0.16595730  1
  Sn  Sn37  1  0.83230687  0.16654924  0.50089898  1
  Sn  Sn38  1  0.49982044  0.83294137  0.16649866  1
  Sn  Sn39  1  0.16736925  0.83340520  0.16648726  1
  Sn  Sn40  1  0.50044852  0.16690193  0.50008204  1
  Pb  Pb41  1  0.16419922  0.83319621  0.49758523  1
  Pb  Pb42  1  0.50167759  0.49869467  0.50019571  1
  Pb  Pb43  1  0.16386208  0.50021789  0.49756666  1
  Pb  Pb44  1  0.50225593  0.83564892  0.49748062  1
  Pb  Pb45  1  0.16639845  0.16659927  0.50048027  1
  Pb  Pb46  1  0.16669915  0.83647008  0.83601288  1
  Pb  Pb47  1  0.50006926  0.82996897  0.83576014  1
  Pb  Pb48  1  0.49984872  0.16874726  0.83113651  1
  Pb  Pb49  1  0.83509615  0.16876481  0.16622390  1
  Pb  Pb50  1  0.49767463  0.16710421  0.16846818  1
  Pb  Pb51  1  0.83321389  0.83324746  0.83099620  1
  Pb  Pb52  1  0.83295831  0.83101258  0.16814557  1
  Pb  Pb53  1  0.16687564  0.49851310  0.83509686  1
  I  I54  1  0.17072711  0.00017959  0.16402589  1
  I  I55  1  0.16369417  0.00022518  0.49630532  1
  I  I56  1  0.15987111  0.00465175  0.83809041  1
  I  I57  1  0.16579392  0.33381842  0.16360649  1
  I  I58  1  0.16532260  0.33320530  0.49575157  1
  I  I59  1  0.16436951  0.33046528  0.83948263  1
  I  I60  1  0.16643010  0.66582015  0.16840277  1
  I  I61  1  0.16540610  0.66662177  0.49904345  1
  I  I62  1  0.16521342  0.66652586  0.83482381  1
  I  I63  1  0.49530507  -0.00214437  0.17003405  1
  I  I64  1  0.50561586  0.00346407  0.49879168  1
  I  I65  1  0.50061507  0.00024626  0.83402850  1
  I  I66  1  0.50011211  0.33661156  0.16466581  1
  I  I67  1  0.50598718  0.33080224  0.49719546  1
  I  I68  1  0.50266739  0.33660184  0.84122849  1
  I  I69  1  0.49589085  0.66507539  0.16436192  1
  I  I70  1  0.50235576  0.66665855  0.50042639  1
  I  I71  1  0.50763821  0.66173870  0.83484351  1
  I  I72  1  0.83421295  0.00011827  0.16804714  1
  I  I73  1  0.83033482  0.00140382  0.50284604  1
  I  I74  1  0.83761230  0.00346132  0.82917836  1
  I  I75  1  0.83261333  0.33723878  0.17088946  1
  I  I76  1  0.83000101  0.33333496  0.49983856  1
  I  I77  1  0.83404225  0.33389123  0.82939566  1
  I  I78  1  0.83739318  0.66246643  0.16654212  1
  I  I79  1  0.83410229  0.66536290  0.49728891  1
  I  I80  1  0.82994380  0.66287049  0.83362556  1
  I  I81  1  0.16120894  0.16749812  0.00068111  1
  I  I82  1  0.16626118  0.16710379  0.33033503  1
  I  I83  1  0.16393398  0.16923914  0.66950966  1
  I  I84  1  0.16194590  0.50144674  0.00387266  1
  I  I85  1  0.16726536  0.49665409  0.32846089  1
  I  I86  1  0.16692170  0.49680655  0.66694813  1
  I  I87  1  0.16781625  0.82970612  0.00451986  1
  I  I88  1  0.16957332  0.83564835  0.32899195  1
  I  I89  1  0.16602315  0.83455691  0.66671054  1
  I  I90  1  0.50207352  0.16505242  0.00002819  1
  I  I91  1  0.50640510  0.16882409  0.33610622  1
  I  I92  1  0.50121397  0.16927855  0.66351032  1
  I  I93  1  0.50515731  0.50196561  0.00147834  1
  I  I94  1  0.50056855  0.50210091  0.33011028  1
  I  I95  1  0.50624190  0.49548225  0.66929154  1
  I  I96  1  0.49748292  0.83371754  0.00421218  1
  I  I97  1  0.49602592  0.82584000  0.32954095  1
  I  I98  1  0.50075414  0.83301501  0.66634386  1
  I  I99  1  0.83593838  0.17166249  -0.00280840  1
  I  I100  1  0.83169590  0.16809604  0.33592117  1
  I  I101  1  0.83563147  0.17167053  0.66651248  1
  I  I102  1  0.83296033  0.49558108  0.00003975  1
  I  I103  1  0.83418919  0.49965191  0.33311462  1
  I  I104  1  0.82803694  0.49808940  0.66705067  1
  I  I105  1  0.83385018  0.83352672  0.00024583  1
  I  I106  1  0.83410985  0.83448132  0.33616950  1
  I  I107  1  0.83269815  0.82956027  0.66283066  1
  I  I108  1  0.00326123  0.16669733  0.16812917  1
  I  I109  1  -0.00352692  0.16770870  0.50016953  1
  I  I110  1  -0.00137842  0.17267948  0.83163394  1
  I  I111  1  -0.00027822  0.49954388  0.16802315  1
  I  I112  1  -0.00507146  0.49566307  0.50008613  1
  I  I113  1  -0.00322493  0.49752925  0.83358383  1
  I  I114  1  0.00256762  0.83247950  0.16891944  1
  I  I115  1  -0.00394435  0.83587318  0.49712159  1
  I  I116  1  -0.00014684  0.82902477  0.83578517  1
  I  I117  1  0.32958689  0.17098793  0.16312524  1
  I  I118  1  0.33559236  0.16795253  0.49799394  1
  I  I119  1  0.33087718  0.16885758  0.83745564  1
  I  I120  1  0.33363864  0.50016712  0.16178408  1
  I  I121  1  0.33349743  0.49668317  0.49948588  1
  I  I122  1  0.33585234  0.49692926  0.84032314  1
  I  I123  1  0.33291613  0.82826715  0.16711426  1
  I  I124  1  0.33355974  0.83580763  0.50037247  1
  I  I125  1  0.33337016  0.83405315  0.83069306  1
  I  I126  1  0.66669732  0.16625665  0.16560482  1
  I  I127  1  0.66901438  0.16746929  0.50363239  1
  I  I128  1  0.66964770  0.16948762  0.83047015  1
  I  I129  1  0.66677372  0.50445456  0.16677171  1
  I  I130  1  0.67046811  0.50043761  0.49473747  1
  I  I131  1  0.66831026  0.49448016  0.83867322  1
  I  I132  1  0.66411662  0.82809033  0.16891032  1
  I  I133  1  0.67019189  0.83067425  0.49665560  1
  I  I134  1  0.66676165  0.83815395  0.83678908  1
