# generated using pymatgen
data_Cs27Sn14Pb13I81
_symmetry_space_group_name_H-M   'P 1'
_cell_length_a   18.95997410
_cell_length_b   18.96022956
_cell_length_c   18.96079139
_cell_angle_alpha   90.00207764
_cell_angle_beta   89.99838184
_cell_angle_gamma   90.00081296
_symmetry_Int_Tables_number   1
_chemical_formula_structural   Cs27Sn14Pb13I81
_chemical_formula_sum   'Cs27 Sn14 Pb13 I81'
_cell_volume   6816.12883113
_cell_formula_units_Z   1
loop_
 _symmetry_equiv_pos_site_id
 _symmetry_equiv_pos_as_xyz
  1  'x, y, z'
loop_
 _atom_site_type_symbol
 _atom_site_label
 _atom_site_symmetry_multiplicity
 _atom_site_fract_x
 _atom_site_fract_y
 _atom_site_fract_z
 _atom_site_occupancy
  Cs  Cs0  1  -0.00088414  0.00084621  -0.00146548  1
  Cs  Cs1  1  -0.00116673  -0.00041057  0.33508467  1
  Cs  Cs2  1  0.00081385  0.00122163  0.66611246  1
  Cs  Cs3  1  0.00045953  0.33276193  -0.00102429  1
  Cs  Cs4  1  0.00485977  0.33301345  0.33297240  1
  Cs  Cs5  1  -0.00013103  0.33148386  0.66899382  1
  Cs  Cs6  1  0.00002635  0.66744251  0.00014301  1
  Cs  Cs7  1  0.00050679  0.66681201  0.33507707  1
  Cs  Cs8  1  -0.00177391  0.66348255  0.66441357  1
  Cs  Cs9  1  0.33520461  -0.00125786  -0.00184043  1
  Cs  Cs10  1  0.33371336  0.00029481  0.33296132  1
  Cs  Cs11  1  0.33189154  -0.00139648  0.66890392  1
  Cs  Cs12  1  0.33070810  0.32914432  0.00293911  1
  Cs  Cs13  1  0.33200709  0.33398183  0.33366157  1
  Cs  Cs14  1  0.33851185  0.33484520  0.66384595  1
  Cs  Cs15  1  0.33396103  0.67097356  -0.00139738  1
  Cs  Cs16  1  0.33243984  0.66642231  0.33292110  1
  Cs  Cs17  1  0.33433404  0.66756579  0.66953601  1
  Cs  Cs18  1  0.66857792  0.00067608  0.00095907  1
  Cs  Cs19  1  0.66703868  -0.00224095  0.33336415  1
  Cs  Cs20  1  0.66768154  0.00167501  0.66560747  1
  Cs  Cs21  1  0.66768531  0.33507976  -0.00132604  1
  Cs  Cs22  1  0.66251164  0.33241008  0.33294487  1
  Cs  Cs23  1  0.65910586  0.34015259  0.66741851  1
  Cs  Cs24  1  0.66672589  0.66538994  0.00217284  1
  Cs  Cs25  1  0.66758391  0.66990833  0.33136444  1
  Cs  Cs26  1  0.66807422  0.65687327  0.66593202  1
  Sn  Sn27  1  0.83350014  0.83332968  0.16591938  1
  Sn  Sn28  1  0.49937208  0.83358313  0.49972690  1
  Sn  Sn29  1  0.83365151  0.16603335  0.83274513  1
  Sn  Sn30  1  0.16743786  0.83407870  0.49926506  1
  Sn  Sn31  1  0.83325310  0.83360818  0.83356428  1
  Sn  Sn32  1  0.50028876  0.50064626  0.16655951  1
  Sn  Sn33  1  0.16642650  0.83371771  0.16733025  1
  Sn  Sn34  1  0.83303910  0.50002330  0.16689749  1
  Sn  Sn35  1  0.83357564  0.16691161  0.16692552  1
  Sn  Sn36  1  0.83369272  0.16680824  0.50033104  1
  Sn  Sn37  1  0.50006038  0.83278173  0.16732993  1
  Sn  Sn38  1  0.16666305  0.49895390  0.83335087  1
  Sn  Sn39  1  0.16614784  0.16762103  0.83236706  1
  Sn  Sn40  1  0.16596085  0.16583096  0.50079831  1
  Pb  Pb41  1  0.50356941  0.83332661  0.83311489  1
  Pb  Pb42  1  0.50259324  0.16622163  0.16659288  1
  Pb  Pb43  1  0.83343591  0.83455604  0.50023992  1
  Pb  Pb44  1  0.83353582  0.49621457  0.49692071  1
  Pb  Pb45  1  0.49948586  0.16440101  0.49998568  1
  Pb  Pb46  1  0.16466485  0.83389639  0.83276926  1
  Pb  Pb47  1  0.16468036  0.16426326  0.16666271  1
  Pb  Pb48  1  0.16671562  0.50246844  0.16491701  1
  Pb  Pb49  1  0.50006083  0.16655026  0.83324154  1
  Pb  Pb50  1  0.49689904  0.50005495  0.83648924  1
  Pb  Pb51  1  0.49985141  0.50318279  0.49717359  1
  Pb  Pb52  1  0.16665012  0.49994246  0.50233709  1
  Pb  Pb53  1  0.83471534  0.49955181  0.83528883  1
  I  I54  1  0.16695510  -0.00407596  0.16594507  1
  I  I55  1  0.16591296  -0.00005330  0.50157273  1
  I  I56  1  0.16315755  0.00270243  0.83236765  1
  I  I57  1  0.16663123  0.33312350  0.16829274  1
  I  I58  1  0.16119254  0.32981865  0.50134186  1
  I  I59  1  0.16004984  0.33144183  0.83037022  1
  I  I60  1  0.16203782  0.67074482  0.16978618  1
  I  I61  1  0.17003982  0.67011004  0.49703761  1
  I  I62  1  0.16491571  0.66537767  0.83538768  1
  I  I63  1  0.50088914  -0.00376505  0.17015830  1
  I  I64  1  0.49940683  -0.00358802  0.49165582  1
  I  I65  1  0.49609069  -0.00035739  0.83673065  1
  I  I66  1  0.50493894  0.33607009  0.16478180  1
  I  I67  1  0.50014612  0.33343319  0.49887536  1
  I  I68  1  0.50451366  0.33342448  0.83512068  1
  I  I69  1  0.50526062  0.66825728  0.17010038  1
  I  I70  1  0.49475310  0.67131199  0.49813005  1
  I  I71  1  0.49890801  0.66688936  0.83130182  1
  I  I72  1  0.83355873  -0.00063805  0.16559054  1
  I  I73  1  0.83463855  0.00282189  0.49591511  1
  I  I74  1  0.83867919  0.00091021  0.83900102  1
  I  I75  1  0.82906369  0.33281182  0.16620491  1
  I  I76  1  0.84037095  0.32791751  0.50112269  1
  I  I77  1  0.83655079  0.33001697  0.83526765  1
  I  I78  1  0.83249651  0.66811033  0.16160383  1
  I  I79  1  0.83344366  0.66670288  0.50072281  1
  I  I80  1  0.83537121  0.66903408  0.83851458  1
  I  I81  1  0.16220991  0.16886290  -0.00256411  1
  I  I82  1  0.16205974  0.16364002  0.33592576  1
  I  I83  1  0.15784041  0.16376426  0.66644756  1
  I  I84  1  0.16540925  0.49483602  -0.00275162  1
  I  I85  1  0.16693414  0.49797461  0.33300919  1
  I  I86  1  0.16416032  0.50137014  0.67018437  1
  I  I87  1  0.16807609  0.83286338  0.00242719  1
  I  I88  1  0.16501201  0.83760313  0.33312519  1
  I  I89  1  0.16969153  0.83457307  0.66389932  1
  I  I90  1  0.49880094  0.16402951  0.00019708  1
  I  I91  1  0.50049977  0.16853261  0.33317776  1
  I  I92  1  0.50495093  0.16423727  0.66647022  1
  I  I93  1  0.50550255  0.50795521  0.00425178  1
  I  I94  1  0.50354753  0.50137777  0.32914198  1
  I  I95  1  0.50004376  0.50101326  0.66671676  1
  I  I96  1  0.49754945  0.82985116  0.00355392  1
  I  I97  1  0.50162255  0.83042172  0.33181152  1
  I  I98  1  0.49481441  0.83645233  0.66370899  1
  I  I99  1  0.83681474  0.16497401  0.00004472  1
  I  I100  1  0.83680193  0.16530918  0.33293344  1
  I  I101  1  0.83899369  0.15880845  0.66737743  1
  I  I102  1  0.83076918  0.49748472  0.00364112  1
  I  I103  1  0.83097120  0.50366467  0.32853014  1
  I  I104  1  0.83476458  0.50217075  0.66681448  1
  I  I105  1  0.83400975  0.83773105  0.00192809  1
  I  I106  1  0.83303111  0.83440200  0.33027603  1
  I  I107  1  0.83485248  0.83904298  0.66903933  1
  I  I108  1  -0.00386871  0.16650698  0.16625050  1
  I  I109  1  0.00020927  0.16008427  0.50013173  1
  I  I110  1  -0.00073878  0.16625600  0.83331915  1
  I  I111  1  -0.00280229  0.50087599  0.16478410  1
  I  I112  1  0.00005206  0.50614743  0.49671307  1
  I  I113  1  0.00243027  0.49900394  0.83660569  1
  I  I114  1  -0.00098367  0.83359957  0.16650662  1
  I  I115  1  0.00261580  0.83586833  0.49659370  1
  I  I116  1  -0.00317484  0.83508980  0.83884969  1
  I  I117  1  0.33302316  0.16684888  0.16646161  1
  I  I118  1  0.32969099  0.16427960  0.50479025  1
  I  I119  1  0.32952213  0.16975475  0.82894361  1
  I  I120  1  0.33582820  0.50581716  0.16476987  1
  I  I121  1  0.33320519  0.49533051  0.49773202  1
  I  I122  1  0.32916605  0.49524432  0.83458953  1
  I  I123  1  0.33347252  0.82859863  0.17058201  1
  I  I124  1  0.33224177  0.83858067  0.49199808  1
  I  I125  1  0.33313842  0.83380299  0.83642489  1
  I  I126  1  0.67138069  0.16202135  0.16648522  1
  I  I127  1  0.66980492  0.16422546  0.49917029  1
  I  I128  1  0.67080361  0.16150957  0.83425474  1
  I  I129  1  0.66764249  0.50479508  0.16611240  1
  I  I130  1  0.66677443  0.49988552  0.50322207  1
  I  I131  1  0.66669909  0.50026752  0.83265158  1
  I  I132  1  0.66749686  0.83309824  0.16712362  1
  I  I133  1  0.66470905  0.83563416  0.49545295  1
  I  I134  1  0.67156015  0.83966471  0.83814379  1
