# generated using pymatgen
data_Cs27Sn14Pb13I81
_symmetry_space_group_name_H-M   'P 1'
_cell_length_a   19.26666973
_cell_length_b   19.27752898
_cell_length_c   19.29578175
_cell_angle_alpha   90.00352053
_cell_angle_beta   89.96603219
_cell_angle_gamma   90.03182572
_symmetry_Int_Tables_number   1
_chemical_formula_structural   Cs27Sn14Pb13I81
_chemical_formula_sum   'Cs27 Sn14 Pb13 I81'
_cell_volume   7166.71693943
_cell_formula_units_Z   1
loop_
 _symmetry_equiv_pos_site_id
 _symmetry_equiv_pos_as_xyz
  1  'x, y, z'
loop_
 _atom_site_type_symbol
 _atom_site_label
 _atom_site_symmetry_multiplicity
 _atom_site_fract_x
 _atom_site_fract_y
 _atom_site_fract_z
 _atom_site_occupancy
  Cs  Cs0  1  0.01971526  -0.01105360  0.02672813  1
  Cs  Cs1  1  -0.03505280  0.01432859  0.32043284  1
  Cs  Cs2  1  0.01003135  0.00390320  0.63909417  1
  Cs  Cs3  1  -0.01943825  0.33454801  -0.03230586  1
  Cs  Cs4  1  0.03024858  0.31278365  0.33429302  1
  Cs  Cs5  1  0.01886349  0.33196995  0.68180901  1
  Cs  Cs6  1  0.00388589  0.69274800  0.01627832  1
  Cs  Cs7  1  0.03382197  0.66461901  0.31897226  1
  Cs  Cs8  1  -0.04496580  0.66184989  0.66019411  1
  Cs  Cs9  1  0.30297262  -0.00188847  -0.01427553  1
  Cs  Cs10  1  0.35723706  -0.02424177  0.34439194  1
  Cs  Cs11  1  0.32684230  -0.01155099  0.66203299  1
  Cs  Cs12  1  0.34766500  0.32888261  -0.01201065  1
  Cs  Cs13  1  0.32444553  0.32131511  0.33910189  1
  Cs  Cs14  1  0.32699910  0.32692855  0.68169338  1
  Cs  Cs15  1  0.32182360  0.68633131  0.00021982  1
  Cs  Cs16  1  0.33647157  0.67983596  0.35064593  1
  Cs  Cs17  1  0.33991975  0.67673616  0.63761032  1
  Cs  Cs18  1  0.66283911  0.01609463  -0.00483241  1
  Cs  Cs19  1  0.68123035  0.00452831  0.32979135  1
  Cs  Cs20  1  0.68790274  -0.00792457  0.65883830  1
  Cs  Cs21  1  0.66585521  0.34491059  -0.01071505  1
  Cs  Cs22  1  0.65951168  0.34352837  0.32506817  1
  Cs  Cs23  1  0.66244520  0.34597794  0.68227385  1
  Cs  Cs24  1  0.66931350  0.63914172  -0.01428516  1
  Cs  Cs25  1  0.64952484  0.65109123  0.33259871  1
  Cs  Cs26  1  0.68335926  0.64769271  0.68238878  1
  Sn  Sn27  1  0.16225074  0.83216029  0.50398729  1
  Sn  Sn28  1  0.16912614  0.50383105  0.83542425  1
  Sn  Sn29  1  0.50072741  0.49443473  0.50006919  1
  Sn  Sn30  1  0.50651098  0.83346674  0.16335330  1
  Sn  Sn31  1  0.50350492  0.16610024  0.83193708  1
  Sn  Sn32  1  0.49335531  0.50245558  0.83240898  1
  Sn  Sn33  1  0.50163609  0.17006243  0.49961845  1
  Sn  Sn34  1  0.83265605  0.50093498  0.17080348  1
  Sn  Sn35  1  0.83664516  0.50014771  0.83506609  1
  Sn  Sn36  1  0.82693768  0.16596313  0.83050916  1
  Sn  Sn37  1  0.50531761  0.83580160  0.50122409  1
  Sn  Sn38  1  0.83093692  0.49703589  0.49227463  1
  Sn  Sn39  1  0.49964427  0.16665410  0.16911881  1
  Sn  Sn40  1  0.49843753  0.49890483  0.16587552  1
  Pb  Pb41  1  0.82616215  0.82969956  0.16780959  1
  Pb  Pb42  1  0.82732186  0.17259631  0.16322413  1
  Pb  Pb43  1  0.17344279  0.83283486  0.17199133  1
  Pb  Pb44  1  0.83124498  0.83778246  0.83480863  1
  Pb  Pb45  1  0.82583316  0.17158896  0.50162512  1
  Pb  Pb46  1  0.17365112  0.16483824  0.50084715  1
  Pb  Pb47  1  0.50133268  0.83508320  0.83463764  1
  Pb  Pb48  1  0.83227656  0.83147811  0.49700548  1
  Pb  Pb49  1  0.16841900  0.49833703  0.16324512  1
  Pb  Pb50  1  0.16438104  0.50030681  0.50251251  1
  Pb  Pb51  1  0.17364797  0.16819871  0.16605364  1
  Pb  Pb52  1  0.16556554  0.82846054  0.82824695  1
  Pb  Pb53  1  0.16573091  0.16631673  0.83369888  1
  I  I54  1  0.17578395  -0.00114803  0.15703431  1
  I  I55  1  0.19151283  -0.00374522  0.50579184  1
  I  I56  1  0.16337477  -0.00234142  0.83767316  1
  I  I57  1  0.16680810  0.33376390  0.18630661  1
  I  I58  1  0.14756010  0.33360964  0.49723149  1
  I  I59  1  0.16626911  0.33303416  0.82501525  1
  I  I60  1  0.15863666  0.66613293  0.14978051  1
  I  I61  1  0.19073378  0.66531801  0.49998908  1
  I  I62  1  0.17137203  0.66392503  0.85507002  1
  I  I63  1  0.48439810  0.00055732  0.18171801  1
  I  I64  1  0.46976209  0.00365677  0.50556997  1
  I  I65  1  0.52784523  0.00395259  0.83711996  1
  I  I66  1  0.51650853  0.33424538  0.17230443  1
  I  I67  1  0.52817989  0.33299108  0.49230655  1
  I  I68  1  0.49549835  0.33463910  0.83291318  1
  I  I69  1  0.51278391  0.66638117  0.17457223  1
  I  I70  1  0.49114295  0.66691322  0.49095793  1
  I  I71  1  0.50096323  0.66303519  0.83929596  1
  I  I72  1  0.84573962  -0.00017241  0.15260391  1
  I  I73  1  0.85236313  -0.00200421  0.51437851  1
  I  I74  1  0.79712042  0.00503271  0.83072174  1
  I  I75  1  0.81102290  0.33826560  0.17579219  1
  I  I76  1  0.81148207  0.33842926  0.48958044  1
  I  I77  1  0.83206955  0.33671723  0.83023330  1
  I  I78  1  0.82502333  0.66373436  0.14624994  1
  I  I79  1  0.81500472  0.66697772  0.51492610  1
  I  I80  1  0.83270918  0.66347292  0.82741835  1
  I  I81  1  0.16461979  0.15513780  -0.00048736  1
  I  I82  1  0.17180554  0.16735808  0.33432807  1
  I  I83  1  0.16930304  0.15526344  0.66733498  1
  I  I84  1  0.17332898  0.48865135  -0.00325642  1
  I  I85  1  0.15210334  0.50495089  0.33383003  1
  I  I86  1  0.17390926  0.49384354  0.66942906  1
  I  I87  1  0.15929388  0.83594369  0.00053112  1
  I  I88  1  0.17083554  0.81476205  0.33715219  1
  I  I89  1  0.20246524  0.83191014  0.66603286  1
  I  I90  1  0.51851346  0.17723826  0.00155892  1
  I  I91  1  0.47946539  0.17777761  0.33502891  1
  I  I92  1  0.50774441  0.18256949  0.66491485  1
  I  I93  1  0.50557621  0.49403373  -0.00204752  1
  I  I94  1  0.52537226  0.49651795  0.33425691  1
  I  I95  1  0.50329488  0.49760534  0.66756301  1
  I  I96  1  0.51307081  0.82963199  0.00544314  1
  I  I97  1  0.48400776  0.82154534  0.33349549  1
  I  I98  1  0.47380553  0.83450099  0.66509559  1
  I  I99  1  0.81836751  0.18638882  -0.00265779  1
  I  I100  1  0.83769968  0.16396893  0.33428950  1
  I  I101  1  0.81769286  0.17809881  0.66736652  1
  I  I102  1  0.82562518  0.48478228  -0.00291565  1
  I  I103  1  0.79780276  0.51162205  0.33459008  1
  I  I104  1  0.82672323  0.49874820  0.66853269  1
  I  I105  1  0.83775744  0.82702496  0.00009445  1
  I  I106  1  0.86332605  0.84223261  0.33437392  1
  I  I107  1  0.82272926  0.82874426  0.66601272  1
  I  I108  1  -0.00074742  0.16283727  0.16961241  1
  I  I109  1  0.00089507  0.16032174  0.50491655  1
  I  I110  1  -0.00441133  0.18608689  0.82598110  1
  I  I111  1  -0.00725310  0.51529286  0.16973899  1
  I  I112  1  -0.00642921  0.52499430  0.50490579  1
  I  I113  1  0.00003486  0.48016759  0.82567959  1
  I  I114  1  0.00190391  0.83063186  0.16320884  1
  I  I115  1  0.00540155  0.81914549  0.53103474  1
  I  I116  1  -0.00100606  0.83361137  0.82166810  1
  I  I117  1  0.33971816  0.18888517  0.14827071  1
  I  I118  1  0.33665353  0.20553066  0.50836337  1
  I  I119  1  0.33696391  0.17313603  0.84273588  1
  I  I120  1  0.33808246  0.49904863  0.17039802  1
  I  I121  1  0.33765715  0.48459462  0.49232002  1
  I  I122  1  0.33357310  0.48129119  0.83373580  1
  I  I123  1  0.33723642  0.81849104  0.15580391  1
  I  I124  1  0.33706582  0.82691753  0.49137914  1
  I  I125  1  0.33552450  0.84145726  0.86260300  1
  I  I126  1  0.66423653  0.13960635  0.18257399  1
  I  I127  1  0.66426448  0.12620123  0.48948714  1
  I  I128  1  0.66468816  0.19587800  0.83293657  1
  I  I129  1  0.66377742  0.50595708  0.14835925  1
  I  I130  1  0.66204750  0.51266290  0.52042523  1
  I  I131  1  0.66649865  0.49766809  0.83242716  1
  I  I132  1  0.66532391  0.85264150  0.19943068  1
  I  I133  1  0.66475673  0.86009498  0.48557202  1
  I  I134  1  0.66547078  0.81206084  0.82057761  1
