# generated using pymatgen
data_Cs27Sn13Pb14I81
_symmetry_space_group_name_H-M   'P 1'
_cell_length_a   18.98038034
_cell_length_b   18.98049369
_cell_length_c   18.97087568
_cell_angle_alpha   90.00023493
_cell_angle_beta   90.00004470
_cell_angle_gamma   89.99984805
_symmetry_Int_Tables_number   1
_chemical_formula_structural   Cs27Sn13Pb14I81
_chemical_formula_sum   'Cs27 Sn13 Pb14 I81'
_cell_volume   6834.39055526
_cell_formula_units_Z   1
loop_
 _symmetry_equiv_pos_site_id
 _symmetry_equiv_pos_as_xyz
  1  'x, y, z'
loop_
 _atom_site_type_symbol
 _atom_site_label
 _atom_site_symmetry_multiplicity
 _atom_site_fract_x
 _atom_site_fract_y
 _atom_site_fract_z
 _atom_site_occupancy
  Cs  Cs0  1  0.00034419  -0.00334146  0.00032513  1
  Cs  Cs1  1  0.00367345  -0.00384592  0.33331216  1
  Cs  Cs2  1  -0.00002702  0.00011156  0.66631263  1
  Cs  Cs3  1  -0.00042628  0.33485183  0.00014686  1
  Cs  Cs4  1  -0.00328382  0.33277583  0.33426629  1
  Cs  Cs5  1  0.00068332  0.33367690  0.66407345  1
  Cs  Cs6  1  -0.00299607  0.66706027  -0.00005594  1
  Cs  Cs7  1  -0.00162937  0.67054907  0.33513945  1
  Cs  Cs8  1  0.00403632  0.66605248  0.66424290  1
  Cs  Cs9  1  0.33090259  0.00174459  0.00014261  1
  Cs  Cs10  1  0.32966862  -0.00021114  0.33327102  1
  Cs  Cs11  1  0.33555248  -0.00096824  0.66710897  1
  Cs  Cs12  1  0.33398708  0.33522681  0.00166639  1
  Cs  Cs13  1  0.33492313  0.33347761  0.33065583  1
  Cs  Cs14  1  0.33005249  0.33394000  0.66562634  1
  Cs  Cs15  1  0.33470811  0.66282568  0.00048795  1
  Cs  Cs16  1  0.33672117  0.66629453  0.33361475  1
  Cs  Cs17  1  0.33074201  0.66763847  0.66411154  1
  Cs  Cs18  1  0.66861840  -0.00109417  -0.00711222  1
  Cs  Cs19  1  0.66569829  0.00154747  0.33474187  1
  Cs  Cs20  1  0.66189013  0.00579027  0.67364105  1
  Cs  Cs21  1  0.66660310  0.33482590  0.00149373  1
  Cs  Cs22  1  0.66838302  0.33326139  0.33437210  1
  Cs  Cs23  1  0.66937477  0.32441641  0.66097435  1
  Cs  Cs24  1  0.66778314  0.66582130  0.00089023  1
  Cs  Cs25  1  0.66478645  0.66549999  0.33295366  1
  Cs  Cs26  1  0.66309270  0.66960219  0.66561773  1
  Sn  Sn27  1  0.50037531  0.49983142  0.16603596  1
  Sn  Sn28  1  0.16612049  0.50034670  0.16701782  1
  Sn  Sn29  1  0.50013844  0.83377599  0.16616312  1
  Sn  Sn30  1  0.50120472  0.16634527  0.16629551  1
  Sn  Sn31  1  0.83297883  0.83369731  0.50056392  1
  Sn  Sn32  1  0.16650586  0.16611388  0.83285889  1
  Sn  Sn33  1  0.50137668  0.49964993  0.83346058  1
  Sn  Sn34  1  0.83201458  0.49991284  0.83329817  1
  Sn  Sn35  1  0.83276873  0.16669816  0.16630060  1
  Sn  Sn36  1  0.83340184  0.49943990  0.16614080  1
  Sn  Sn37  1  0.16660596  0.83388215  0.83309600  1
  Sn  Sn38  1  0.16604416  0.83427749  0.50092110  1
  Sn  Sn39  1  0.16659858  0.16612259  0.50072199  1
  Pb  Pb40  1  0.83313772  0.50190754  0.50019207  1
  Pb  Pb41  1  0.49738240  0.16663060  0.49767449  1
  Pb  Pb42  1  0.49768094  0.83118476  0.83555132  1
  Pb  Pb43  1  0.49783205  0.16923616  0.83559256  1
  Pb  Pb44  1  0.16841833  0.83091185  0.16671048  1
  Pb  Pb45  1  0.16653683  0.50006943  0.83502402  1
  Pb  Pb46  1  0.16628077  0.16839318  0.16667313  1
  Pb  Pb47  1  0.83544629  0.16410995  0.49772809  1
  Pb  Pb48  1  0.50028973  0.49969102  0.50051555  1
  Pb  Pb49  1  0.83563756  0.16885338  0.83549203  1
  Pb  Pb50  1  0.16663496  0.50013022  0.49707673  1
  Pb  Pb51  1  0.83522783  0.83100394  0.83087747  1
  Pb  Pb52  1  0.49979521  0.83356322  0.49838537  1
  Pb  Pb53  1  0.83101983  0.83335749  0.16797774  1
  I  I54  1  0.16771348  -0.00008422  0.16658479  1
  I  I55  1  0.16280001  -0.00064382  0.50157803  1
  I  I56  1  0.16699368  -0.00008664  0.83115867  1
  I  I57  1  0.17100611  0.33623647  0.16558419  1
  I  I58  1  0.16772952  0.33056748  0.50346842  1
  I  I59  1  0.16701133  0.33124097  0.83095950  1
  I  I60  1  0.16692175  0.66302485  0.16570787  1
  I  I61  1  0.16367962  0.66983254  0.50328326  1
  I  I62  1  0.16707925  0.66880066  0.83012929  1
  I  I63  1  0.50250740  0.00064779  0.16949454  1
  I  I64  1  0.50109067  0.00000972  0.49566156  1
  I  I65  1  0.49968926  0.00017151  0.83607178  1
  I  I66  1  0.49908055  0.33435572  0.16331739  1
  I  I67  1  0.49739481  0.33311108  0.49670947  1
  I  I68  1  0.49997793  0.33709048  0.84159744  1
  I  I69  1  0.49862963  0.66515489  0.16421645  1
  I  I70  1  0.49693566  0.66678946  0.49593412  1
  I  I71  1  0.50092037  0.66323490  0.84103654  1
  I  I72  1  0.83006196  0.00254450  0.16965540  1
  I  I73  1  0.83732366  -0.00339793  0.49591055  1
  I  I74  1  0.83378707  0.00006320  0.83503512  1
  I  I75  1  0.83002559  0.33463348  0.16423622  1
  I  I76  1  0.83528413  0.33303092  0.50023905  1
  I  I77  1  0.83263641  0.33694552  0.83643246  1
  I  I78  1  0.83299450  0.66354031  0.16463839  1
  I  I79  1  0.84175292  0.66957157  0.49678942  1
  I  I80  1  0.83261624  0.66308694  0.84181958  1
  I  I81  1  0.16730922  0.16397165  -0.00206079  1
  I  I82  1  0.16714994  0.16287566  0.33530942  1
  I  I83  1  0.16640148  0.16405511  0.66676184  1
  I  I84  1  0.16775195  0.49940307  0.00305819  1
  I  I85  1  0.16799566  0.49941003  0.32885163  1
  I  I86  1  0.16702620  0.49994066  0.66674197  1
  I  I87  1  0.16892594  0.83658480  -0.00226364  1
  I  I88  1  0.16465636  0.83656398  0.33589951  1
  I  I89  1  0.16321680  0.83537186  0.66627242  1
  I  I90  1  0.49985147  0.16611720  0.00407748  1
  I  I91  1  0.50074582  0.17073867  0.32884629  1
  I  I92  1  0.50051886  0.16852873  0.66706785  1
  I  I93  1  0.49934620  0.50034401  0.00209132  1
  I  I94  1  0.49963319  0.50045764  0.32918665  1
  I  I95  1  0.50269532  0.50172723  0.67034375  1
  I  I96  1  0.49843207  0.83366114  0.00381329  1
  I  I97  1  0.49728571  0.82910453  0.32977799  1
  I  I98  1  0.50039506  0.82992693  0.66699686  1
  I  I99  1  0.83219921  0.16818705  0.00375455  1
  I  I100  1  0.83148287  0.17428111  0.32959050  1
  I  I101  1  0.83352031  0.16879270  0.66673339  1
  I  I102  1  0.83325794  0.49759064  0.00172900  1
  I  I103  1  0.83273043  0.49730566  0.32973189  1
  I  I104  1  0.83044651  0.50249702  0.66986437  1
  I  I105  1  0.83491823  0.83418990  -0.00007882  1
  I  I106  1  0.84136977  0.83153720  0.33563417  1
  I  I107  1  0.83669721  0.83021001  0.66314866  1
  I  I108  1  -0.00221441  0.17314471  0.16695612  1
  I  I109  1  0.00348399  0.16559652  0.50031139  1
  I  I110  1  0.00359850  0.16599225  0.83303292  1
  I  I111  1  -0.00116155  0.49508121  0.16267821  1
  I  I112  1  0.00011290  0.49906280  0.49873092  1
  I  I113  1  -0.00208768  0.50023611  0.83981555  1
  I  I114  1  0.00008593  0.83240276  0.16603117  1
  I  I115  1  0.00160640  0.83568681  0.50076123  1
  I  I116  1  0.00346841  0.83401923  0.83405166  1
  I  I117  1  0.33552407  0.16914467  0.16696310  1
  I  I118  1  0.32920932  0.16027569  0.50081187  1
  I  I119  1  0.32984347  0.16574085  0.83274587  1
  I  I120  1  0.33454981  0.49958876  0.16316086  1
  I  I121  1  0.33311294  0.50247162  0.49858692  1
  I  I122  1  0.33531416  0.49986816  0.84024507  1
  I  I123  1  0.33624898  0.83252032  0.16828556  1
  I  I124  1  0.32987564  0.83643958  0.50202463  1
  I  I125  1  0.32965432  0.83394492  0.82761941  1
  I  I126  1  0.66633152  0.17251413  0.16764395  1
  I  I127  1  0.66690197  0.16557251  0.49976219  1
  I  I128  1  0.66670132  0.16562014  0.83279590  1
  I  I129  1  0.66643826  0.49970120  0.16279798  1
  I  I130  1  0.66684421  0.50359415  0.49478559  1
  I  I131  1  0.66663888  0.50165321  0.84429827  1
  I  I132  1  0.66331299  0.82800093  0.16953872  1
  I  I133  1  0.66910490  0.82919926  0.49493905  1
  I  I134  1  0.66658051  0.83341498  0.83213028  1
