# generated using pymatgen
data_Cs27Sn13Pb14I81
_symmetry_space_group_name_H-M   'P 1'
_cell_length_a   18.97638433
_cell_length_b   18.98124522
_cell_length_c   18.97502799
_cell_angle_alpha   90.00129966
_cell_angle_beta   89.99940267
_cell_angle_gamma   90.00131373
_symmetry_Int_Tables_number   1
_chemical_formula_structural   Cs27Sn13Pb14I81
_chemical_formula_sum   'Cs27 Sn13 Pb14 I81'
_cell_volume   6834.71787641
_cell_formula_units_Z   1
loop_
 _symmetry_equiv_pos_site_id
 _symmetry_equiv_pos_as_xyz
  1  'x, y, z'
loop_
 _atom_site_type_symbol
 _atom_site_label
 _atom_site_symmetry_multiplicity
 _atom_site_fract_x
 _atom_site_fract_y
 _atom_site_fract_z
 _atom_site_occupancy
  Cs  Cs0  1  0.00050213  0.00045333  -0.00049541  1
  Cs  Cs1  1  -0.00414179  -0.00006316  0.33209767  1
  Cs  Cs2  1  0.00197550  -0.00084046  0.67152053  1
  Cs  Cs3  1  -0.00063739  0.33289599  -0.00035536  1
  Cs  Cs4  1  -0.00206001  0.33439103  0.33781867  1
  Cs  Cs5  1  0.00102027  0.33743950  0.66224942  1
  Cs  Cs6  1  0.00135531  0.66618557  -0.00077156  1
  Cs  Cs7  1  -0.00096899  0.66615374  0.33477133  1
  Cs  Cs8  1  0.00025676  0.66429165  0.66614093  1
  Cs  Cs9  1  0.33069352  0.00213590  -0.00061643  1
  Cs  Cs10  1  0.33264241  0.00164774  0.33663604  1
  Cs  Cs11  1  0.33451003  0.00058887  0.66481608  1
  Cs  Cs12  1  0.33425687  0.33325431  0.00018063  1
  Cs  Cs13  1  0.33371511  0.33257425  0.33376648  1
  Cs  Cs14  1  0.33165781  0.33516596  0.66336782  1
  Cs  Cs15  1  0.33858719  0.66384143  0.00056613  1
  Cs  Cs16  1  0.33531700  0.66715794  0.32885766  1
  Cs  Cs17  1  0.33447510  0.66439555  0.66967986  1
  Cs  Cs18  1  0.66885769  0.00115211  0.00038734  1
  Cs  Cs19  1  0.67347665  -0.00645075  0.33939430  1
  Cs  Cs20  1  0.66211686  -0.00184449  0.66341685  1
  Cs  Cs21  1  0.66665482  0.33297908  0.00006870  1
  Cs  Cs22  1  0.66848385  0.33227206  0.33680262  1
  Cs  Cs23  1  0.66821438  0.33240799  0.66389935  1
  Cs  Cs24  1  0.65950103  0.66537879  0.00152761  1
  Cs  Cs25  1  0.66480336  0.67292100  0.33401558  1
  Cs  Cs26  1  0.66504819  0.66899752  0.66472985  1
  Sn  Sn27  1  0.49962040  0.16677642  0.83416072  1
  Sn  Sn28  1  0.83385378  0.49998435  0.16576798  1
  Sn  Sn29  1  0.16616580  0.83360427  0.83352408  1
  Sn  Sn30  1  0.16583739  0.49961217  0.16617759  1
  Sn  Sn31  1  0.49978517  0.50004190  0.49985159  1
  Sn  Sn32  1  0.83342535  0.50016791  0.83438234  1
  Sn  Sn33  1  0.16715644  0.16686853  0.16600910  1
  Sn  Sn34  1  0.83377641  0.83310513  0.83394377  1
  Sn  Sn35  1  0.16658352  0.83333665  0.50020016  1
  Sn  Sn36  1  0.50001098  0.16623991  0.16650583  1
  Sn  Sn37  1  0.83354684  0.16674320  0.83363306  1
  Sn  Sn38  1  0.16662863  0.83357791  0.16642217  1
  Sn  Sn39  1  0.16678405  0.16654678  0.83394797  1
  Pb  Pb40  1  0.49735028  0.83109499  0.50003171  1
  Pb  Pb41  1  0.16521806  0.49981900  0.83510871  1
  Pb  Pb42  1  0.49769427  0.83692737  0.16653371  1
  Pb  Pb43  1  0.50039495  0.49768381  0.16814339  1
  Pb  Pb44  1  0.49984427  0.16788772  0.49950578  1
  Pb  Pb45  1  0.83547280  0.83088585  0.16409221  1
  Pb  Pb46  1  0.83366136  0.16830639  0.16516557  1
  Pb  Pb47  1  0.83142265  0.50031045  0.49969595  1
  Pb  Pb48  1  0.16836545  0.50244360  0.49691142  1
  Pb  Pb49  1  0.83599474  0.83323955  0.50295302  1
  Pb  Pb50  1  0.83364019  0.16643347  0.50325972  1
  Pb  Pb51  1  0.49955039  0.83584748  0.83363025  1
  Pb  Pb52  1  0.50283979  0.49725991  0.83173858  1
  Pb  Pb53  1  0.16647568  0.16476597  0.49983151  1
  I  I54  1  0.17190763  0.00030032  0.16515510  1
  I  I55  1  0.16745673  -0.00321774  0.49736092  1
  I  I56  1  0.16232510  0.00028768  0.83702542  1
  I  I57  1  0.16740219  0.33251009  0.16092575  1
  I  I58  1  0.16767248  0.33365096  0.50081521  1
  I  I59  1  0.16623210  0.33017690  0.83816208  1
  I  I60  1  0.16136105  0.66684127  0.16711363  1
  I  I61  1  0.16715169  0.67021456  0.50271094  1
  I  I62  1  0.16147490  0.66955551  0.83351776  1
  I  I63  1  0.49460809  0.00486562  0.16134952  1
  I  I64  1  0.49928836  -0.00010359  0.50089151  1
  I  I65  1  0.50350465  0.00407105  0.83613580  1
  I  I66  1  0.49330179  0.33009021  0.16236874  1
  I  I67  1  0.49928682  0.33559353  0.50040904  1
  I  I68  1  0.49800042  0.32922324  0.83694779  1
  I  I69  1  0.49887394  0.66653840  0.16860454  1
  I  I70  1  0.50045415  0.66353100  0.49942215  1
  I  I71  1  0.49982862  0.66646499  0.83126014  1
  I  I72  1  0.83348504  -0.00004179  0.16562093  1
  I  I73  1  0.83201704  -0.00031124  0.49895715  1
  I  I74  1  0.83560925  0.00038010  0.83253721  1
  I  I75  1  0.83874182  0.33619565  0.16021054  1
  I  I76  1  0.83369845  0.33363261  0.50255456  1
  I  I77  1  0.83292161  0.33296873  0.83765281  1
  I  I78  1  0.83845445  0.66294055  0.16131304  1
  I  I79  1  0.83297218  0.66668431  0.50297394  1
  I  I80  1  0.84023976  0.66680004  0.83598336  1
  I  I81  1  0.16701056  0.16233328  -0.00045400  1
  I  I82  1  0.17263677  0.16633947  0.32957767  1
  I  I83  1  0.16687160  0.16210543  0.67044289  1
  I  I84  1  0.16611078  0.50332298  0.00334528  1
  I  I85  1  0.16095897  0.49839872  0.32867221  1
  I  I86  1  0.16602320  0.49987972  0.66671701  1
  I  I87  1  0.16193171  0.83573487  -0.00044331  1
  I  I88  1  0.16940179  0.83252255  0.33211807  1
  I  I89  1  0.16279254  0.83839074  0.66839941  1
  I  I90  1  0.49793548  0.16811451  -0.00080035  1
  I  I91  1  0.49197922  0.16960811  0.33003039  1
  I  I92  1  0.50007150  0.16752948  0.67002634  1
  I  I93  1  0.49895493  0.50065571  0.00006500  1
  I  I94  1  0.49978366  0.49712305  0.33550298  1
  I  I95  1  0.50027529  0.49811983  0.66426960  1
  I  I96  1  0.49814723  0.82863295  -0.00001935  1
  I  I97  1  0.49809529  0.83499696  0.33318421  1
  I  I98  1  0.49789276  0.83527764  0.66699099  1
  I  I99  1  0.83408269  0.16499201  -0.00362196  1
  I  I100  1  0.83287080  0.16967064  0.33292391  1
  I  I101  1  0.83385402  0.16993199  0.67255853  1
  I  I102  1  0.83761743  0.49906434  -0.00077826  1
  I  I103  1  0.83754849  0.49842759  0.33008479  1
  I  I104  1  0.83221827  0.49885972  0.67007096  1
  I  I105  1  0.84015647  0.83675422  -0.00405802  1
  I  I106  1  0.83445389  0.83129950  0.33305202  1
  I  I107  1  0.83917079  0.83158703  0.67140093  1
  I  I108  1  0.00346295  0.16450079  0.16217281  1
  I  I109  1  0.00031596  0.16836681  0.49892423  1
  I  I110  1  0.00070549  0.16454081  0.83756864  1
  I  I111  1  0.00096242  0.49831058  0.16259470  1
  I  I112  1  0.00011141  0.50071167  0.50131164  1
  I  I113  1  -0.00297341  0.49581036  0.83435953  1
  I  I114  1  0.00424694  0.83890488  0.16801859  1
  I  I115  1  0.00394503  0.83226236  0.49740449  1
  I  I116  1  0.00113165  0.83846755  0.83353707  1
  I  I117  1  0.33164879  0.16845010  0.15855977  1
  I  I118  1  0.33313626  0.16692024  0.50486350  1
  I  I119  1  0.33212279  0.16146829  0.83736695  1
  I  I120  1  0.33038434  0.50198834  0.16858475  1
  I  I121  1  0.33575929  0.49942833  0.49954654  1
  I  I122  1  0.33341782  0.50046083  0.83354098  1
  I  I123  1  0.32854419  0.82700120  0.16285035  1
  I  I124  1  0.32927672  0.83405222  0.50282033  1
  I  I125  1  0.32940123  0.83777039  0.83328416  1
  I  I126  1  0.66444054  0.17157492  0.16071823  1
  I  I127  1  0.66656501  0.16772416  0.49967117  1
  I  I128  1  0.66692796  0.16792804  0.83744813  1
  I  I129  1  0.66946286  0.49707579  0.16296923  1
  I  I130  1  0.66395417  0.49808409  0.49937783  1
  I  I131  1  0.67106001  0.50081717  0.83958270  1
  I  I132  1  0.66694430  0.83222529  0.16577749  1
  I  I133  1  0.66677242  0.83279868  0.50145247  1
  I  I134  1  0.66974307  0.83384698  0.83285559  1
