# generated using pymatgen
data_Cs27Sn13Pb14I81
_symmetry_space_group_name_H-M   'P 1'
_cell_length_a   18.98192679
_cell_length_b   18.97796543
_cell_length_c   18.97193385
_cell_angle_alpha   90.00016177
_cell_angle_beta   89.99920468
_cell_angle_gamma   90.00086035
_symmetry_Int_Tables_number   1
_chemical_formula_structural   Cs27Sn13Pb14I81
_chemical_formula_sum   'Cs27 Sn13 Pb14 I81'
_cell_volume   6834.41815414
_cell_formula_units_Z   1
loop_
 _symmetry_equiv_pos_site_id
 _symmetry_equiv_pos_as_xyz
  1  'x, y, z'
loop_
 _atom_site_type_symbol
 _atom_site_label
 _atom_site_symmetry_multiplicity
 _atom_site_fract_x
 _atom_site_fract_y
 _atom_site_fract_z
 _atom_site_occupancy
  Cs  Cs0  1  -0.00324632  -0.00260483  -0.00200813  1
  Cs  Cs1  1  0.00336025  0.00351979  0.33468998  1
  Cs  Cs2  1  0.00077832  -0.00940525  0.66638721  1
  Cs  Cs3  1  -0.00186064  0.33440024  0.00069598  1
  Cs  Cs4  1  0.00291656  0.33232013  0.33645528  1
  Cs  Cs5  1  0.00389878  0.33450950  0.66374783  1
  Cs  Cs6  1  0.00272624  0.66696111  -0.00016829  1
  Cs  Cs7  1  0.00485256  0.66533198  0.33605378  1
  Cs  Cs8  1  -0.00560335  0.67589723  0.66482490  1
  Cs  Cs9  1  0.33506678  -0.00116532  0.00026111  1
  Cs  Cs10  1  0.33283218  0.00181833  0.33477067  1
  Cs  Cs11  1  0.33116216  0.00135651  0.66409414  1
  Cs  Cs12  1  0.33426092  0.33444356  -0.00151101  1
  Cs  Cs13  1  0.33077427  0.33187255  0.33462642  1
  Cs  Cs14  1  0.33200934  0.33174999  0.66822118  1
  Cs  Cs15  1  0.33317916  0.66587370  0.00140409  1
  Cs  Cs16  1  0.32969369  0.66686378  0.33609075  1
  Cs  Cs17  1  0.33684797  0.66905584  0.66353247  1
  Cs  Cs18  1  0.66707882  0.00157266  0.00086183  1
  Cs  Cs19  1  0.66611447  0.00061645  0.33083038  1
  Cs  Cs20  1  0.66913418  -0.00052244  0.66896622  1
  Cs  Cs21  1  0.66653392  0.33292896  -0.00006540  1
  Cs  Cs22  1  0.66761532  0.33263592  0.33230389  1
  Cs  Cs23  1  0.66620207  0.33373190  0.66819478  1
  Cs  Cs24  1  0.66436293  0.66503474  0.00178223  1
  Cs  Cs25  1  0.66558713  0.66727154  0.33591528  1
  Cs  Cs26  1  0.66765352  0.66685940  0.65889645  1
  Sn  Sn27  1  0.50063874  0.83286759  0.16601329  1
  Sn  Sn28  1  0.83272827  0.83209032  0.16661643  1
  Sn  Sn29  1  0.83230433  0.16684476  0.50027067  1
  Sn  Sn30  1  0.50019777  0.50105244  0.83402405  1
  Sn  Sn31  1  0.49926417  0.16699309  0.16720989  1
  Sn  Sn32  1  0.16745721  0.16686337  0.16480138  1
  Sn  Sn33  1  0.50022728  0.83229585  0.83416385  1
  Sn  Sn34  1  0.50049885  0.50015117  0.16631800  1
  Sn  Sn35  1  0.83271980  0.50105658  0.16611940  1
  Sn  Sn36  1  0.16641390  0.16703729  0.83470289  1
  Sn  Sn37  1  0.50145072  0.16710079  0.49936692  1
  Sn  Sn38  1  0.83316265  0.49978598  0.83391421  1
  Sn  Sn39  1  0.16657145  0.49968122  0.83347552  1
  Pb  Pb40  1  0.16693280  0.83580487  0.16652350  1
  Pb  Pb41  1  0.83330494  0.16712728  0.16758064  1
  Pb  Pb42  1  0.49883977  0.16678457  0.83366683  1
  Pb  Pb43  1  0.16668093  0.50012685  0.50376526  1
  Pb  Pb44  1  0.16935813  0.83274105  0.83367341  1
  Pb  Pb45  1  0.83625639  0.16875228  0.83098052  1
  Pb  Pb46  1  0.16684864  0.83316761  0.49983643  1
  Pb  Pb47  1  0.50013334  0.83602163  0.49947677  1
  Pb  Pb48  1  0.83044042  0.83056003  0.83571363  1
  Pb  Pb49  1  0.83291050  0.83587937  0.49638078  1
  Pb  Pb50  1  0.83315014  0.49827832  0.49941595  1
  Pb  Pb51  1  0.16670612  0.49807104  0.16506757  1
  Pb  Pb52  1  0.49993369  0.49759123  0.49965998  1
  Pb  Pb53  1  0.16678111  0.16672024  0.50044965  1
  I  I54  1  0.17037275  0.00417111  0.16203607  1
  I  I55  1  0.16673517  0.00081470  0.50214883  1
  I  I56  1  0.16931608  0.00276092  0.83571098  1
  I  I57  1  0.17062591  0.33003499  0.16504342  1
  I  I58  1  0.16651420  0.33293411  0.49814697  1
  I  I59  1  0.16999501  0.33364965  0.83720810  1
  I  I60  1  0.16878335  0.66643326  0.16547052  1
  I  I61  1  0.16672161  0.66643138  0.49955970  1
  I  I62  1  0.16534193  0.66318531  0.83405092  1
  I  I63  1  0.50039077  0.00010811  0.16619703  1
  I  I64  1  0.50240722  0.00402905  0.49615901  1
  I  I65  1  0.49764188  -0.00197336  0.83643532  1
  I  I66  1  0.50074267  0.33360656  0.16586485  1
  I  I67  1  0.50275452  0.32960377  0.49610706  1
  I  I68  1  0.50102510  0.33636114  0.83614488  1
  I  I69  1  0.50530726  0.66617761  0.16029675  1
  I  I70  1  0.49921512  0.66668862  0.49876051  1
  I  I71  1  0.49729973  0.66530187  0.84170532  1
  I  I72  1  0.82987225  -0.00183433  0.16919815  1
  I  I73  1  0.82936859  0.00372180  0.49877373  1
  I  I74  1  0.83361511  -0.00025374  0.83350097  1
  I  I75  1  0.82967065  0.33619016  0.16382887  1
  I  I76  1  0.82952246  0.33041976  0.49703876  1
  I  I77  1  0.82724342  0.33699694  0.84036300  1
  I  I78  1  0.82488974  0.66568823  0.16221279  1
  I  I79  1  0.83445850  0.66678909  0.50239860  1
  I  I80  1  0.83951434  0.66238151  0.83414760  1
  I  I81  1  0.17318893  0.17046013  0.00041032  1
  I  I82  1  0.16800254  0.16581953  0.33062180  1
  I  I83  1  0.16822495  0.17206948  0.66966654  1
  I  I84  1  0.16757163  0.49678289  -0.00314033  1
  I  I85  1  0.16627883  0.49753555  0.33296521  1
  I  I86  1  0.16846611  0.49048699  0.67239718  1
  I  I87  1  0.16520617  0.83411155  0.00007165  1
  I  I88  1  0.16865428  0.83654501  0.33265243  1
  I  I89  1  0.16836846  0.83678161  0.66731486  1
  I  I90  1  0.49753760  0.16674212  0.00307312  1
  I  I91  1  0.49784032  0.16653105  0.33126784  1
  I  I92  1  0.50116682  0.16706844  0.66477609  1
  I  I93  1  0.50048489  0.49777306  0.00034484  1
  I  I94  1  0.50563262  0.50178088  0.32942216  1
  I  I95  1  0.49998235  0.50278444  0.67033644  1
  I  I96  1  0.50263738  0.83534789  0.00133634  1
  I  I97  1  0.50380778  0.83160672  0.32936968  1
  I  I98  1  0.49820961  0.82933074  0.66960515  1
  I  I99  1  0.83189049  0.16546036  -0.00002620  1
  I  I100  1  0.83341301  0.16805079  0.33531799  1
  I  I101  1  0.82655002  0.16942271  0.66343352  1
  I  I102  1  0.83199725  0.50137221  0.00045210  1
  I  I103  1  0.82694823  0.50199556  0.32947177  1
  I  I104  1  0.83263959  0.49643778  0.66990037  1
  I  I105  1  0.83128631  0.83505316  0.00359843  1
  I  I106  1  0.82547896  0.82726499  0.32852563  1
  I  I107  1  0.83309274  0.83310619  0.66675465  1
  I  I108  1  0.00226292  0.16704620  0.16560121  1
  I  I109  1  -0.00220724  0.16798672  0.49827514  1
  I  I110  1  0.00406023  0.17240148  0.83868455  1
  I  I111  1  -0.00286460  0.50213259  0.16245897  1
  I  I112  1  -0.00018062  0.49453951  0.49767183  1
  I  I113  1  -0.00024960  0.49245847  0.83807056  1
  I  I114  1  -0.00299418  0.83035721  0.16728743  1
  I  I115  1  -0.00055300  0.83722462  0.49984289  1
  I  I116  1  -0.00030143  0.83365457  0.83358716  1
  I  I117  1  0.33506421  0.16684419  0.16899682  1
  I  I118  1  0.33608224  0.16636440  0.49804728  1
  I  I119  1  0.33102915  0.17200802  0.83289951  1
  I  I120  1  0.33669295  0.50135979  0.16249963  1
  I  I121  1  0.33356587  0.49651358  0.49883339  1
  I  I122  1  0.33435120  0.49874929  0.83772704  1
  I  I123  1  0.33717344  0.83145790  0.16270825  1
  I  I124  1  0.33404201  0.83667972  0.49894823  1
  I  I125  1  0.33732575  0.82904228  0.84024993  1
  I  I126  1  0.66367377  0.16663265  0.16922013  1
  I  I127  1  0.66545718  0.16757039  0.49312836  1
  I  I128  1  0.66666828  0.16747251  0.83464533  1
  I  I129  1  0.66561645  0.49737656  0.15909904  1
  I  I130  1  0.66646281  0.49862367  0.50512345  1
  I  I131  1  0.66588123  0.50297109  0.83786352  1
  I  I132  1  0.66511778  0.83572823  0.16284872  1
  I  I133  1  0.66650355  0.83338198  0.50247784  1
  I  I134  1  0.66257307  0.83090754  0.83573404  1
