# generated using pymatgen
data_Cs27Sn13Pb14I81
_symmetry_space_group_name_H-M   'P 1'
_cell_length_a   18.99767420
_cell_length_b   18.98877838
_cell_length_c   18.98860923
_cell_angle_alpha   90.00220163
_cell_angle_beta   89.99992678
_cell_angle_gamma   89.99968066
_symmetry_Int_Tables_number   1
_chemical_formula_structural   Cs27Sn13Pb14I81
_chemical_formula_sum   'Cs27 Sn13 Pb14 I81'
_cell_volume   6850.00073228
_cell_formula_units_Z   1
loop_
 _symmetry_equiv_pos_site_id
 _symmetry_equiv_pos_as_xyz
  1  'x, y, z'
loop_
 _atom_site_type_symbol
 _atom_site_label
 _atom_site_symmetry_multiplicity
 _atom_site_fract_x
 _atom_site_fract_y
 _atom_site_fract_z
 _atom_site_occupancy
  Cs  Cs0  1  0.00239016  -0.00241813  0.00250082  1
  Cs  Cs1  1  -0.00121407  -0.00046264  0.33289242  1
  Cs  Cs2  1  -0.00794755  0.00314919  0.66466545  1
  Cs  Cs3  1  -0.00007131  0.33512470  -0.00201346  1
  Cs  Cs4  1  0.00408671  0.33316092  0.33016095  1
  Cs  Cs5  1  -0.00454518  0.33173188  0.67198905  1
  Cs  Cs6  1  0.01044476  0.66768161  -0.00417684  1
  Cs  Cs7  1  -0.00232003  0.66814259  0.33468688  1
  Cs  Cs8  1  0.00190154  0.66544653  0.66748780  1
  Cs  Cs9  1  0.33274394  -0.00563985  -0.00241784  1
  Cs  Cs10  1  0.32900467  0.00478805  0.33468795  1
  Cs  Cs11  1  0.33360487  0.00036679  0.66755927  1
  Cs  Cs12  1  0.33396013  0.33265881  0.00089900  1
  Cs  Cs13  1  0.33335157  0.33186020  0.33249603  1
  Cs  Cs14  1  0.33658793  0.33119666  0.66526125  1
  Cs  Cs15  1  0.32747750  0.67532995  -0.00284640  1
  Cs  Cs16  1  0.33410593  0.66474808  0.33777831  1
  Cs  Cs17  1  0.33294141  0.66780356  0.66521493  1
  Cs  Cs18  1  0.66496655  -0.00162046  0.00143152  1
  Cs  Cs19  1  0.67156465  -0.00199666  0.33282417  1
  Cs  Cs20  1  0.67224101  0.00218378  0.66568467  1
  Cs  Cs21  1  0.66685035  0.33284804  0.00083008  1
  Cs  Cs22  1  0.66422290  0.33661923  0.32952829  1
  Cs  Cs23  1  0.66650713  0.33155717  0.66906515  1
  Cs  Cs24  1  0.66442910  0.66941162  0.00194523  1
  Cs  Cs25  1  0.66762617  0.66549366  0.33335392  1
  Cs  Cs26  1  0.66552396  0.66529949  0.66578860  1
  Sn  Sn27  1  0.16760762  0.16705174  0.83325612  1
  Sn  Sn28  1  0.83290930  0.83265737  0.83360097  1
  Sn  Sn29  1  0.49928544  0.16729308  0.83431357  1
  Sn  Sn30  1  0.83288688  0.49946830  0.16699266  1
  Sn  Sn31  1  0.49981160  0.49987531  0.83390563  1
  Sn  Sn32  1  0.83312264  0.49956574  0.49961375  1
  Sn  Sn33  1  0.16734873  0.83305481  0.50020485  1
  Sn  Sn34  1  0.49961554  0.83314143  0.49987632  1
  Sn  Sn35  1  0.50014542  0.49987413  0.16607589  1
  Sn  Sn36  1  0.16669499  0.50006341  0.50015044  1
  Sn  Sn37  1  0.83244488  0.16759901  0.16650327  1
  Sn  Sn38  1  0.50014961  0.50048857  0.50004621  1
  Sn  Sn39  1  0.50075476  0.16712528  0.16575431  1
  Pb  Pb40  1  0.16687141  0.83323716  0.16998128  1
  Pb  Pb41  1  0.50128930  0.83375242  0.83093281  1
  Pb  Pb42  1  0.83104252  0.50163162  0.83431619  1
  Pb  Pb43  1  0.16653851  0.16695633  0.50227817  1
  Pb  Pb44  1  0.83323476  0.83084178  0.50136075  1
  Pb  Pb45  1  0.50029628  0.16678829  0.49950637  1
  Pb  Pb46  1  0.83236322  0.16519674  0.83612924  1
  Pb  Pb47  1  0.83309443  0.17009321  0.49682961  1
  Pb  Pb48  1  0.83330001  0.83212912  0.16444694  1
  Pb  Pb49  1  0.16975757  0.49820016  0.83071234  1
  Pb  Pb50  1  0.16450201  0.83582872  0.83026715  1
  Pb  Pb51  1  0.16720260  0.50017020  0.16869282  1
  Pb  Pb52  1  0.49977598  0.83329878  0.16954928  1
  Pb  Pb53  1  0.16722615  0.16687975  0.16424763  1
  I  I54  1  0.16559284  0.00038151  0.16943819  1
  I  I55  1  0.17327381  -0.00285253  0.50131752  1
  I  I56  1  0.17456446  0.00328091  0.83234294  1
  I  I57  1  0.16622472  0.33347087  0.17076712  1
  I  I58  1  0.16886503  0.33676900  0.49993656  1
  I  I59  1  0.16667546  0.33053586  0.83090617  1
  I  I60  1  0.16580212  0.66638747  0.16198506  1
  I  I61  1  0.16843598  0.66556764  0.50042959  1
  I  I62  1  0.16647543  0.66667954  0.83496399  1
  I  I63  1  0.50447063  0.00337123  0.16255183  1
  I  I64  1  0.49376503  -0.00268385  0.50087633  1
  I  I65  1  0.49746139  0.00307860  0.83696510  1
  I  I66  1  0.50401100  0.33427641  0.16839454  1
  I  I67  1  0.49920516  0.33695712  0.50032691  1
  I  I68  1  0.49759541  0.33371993  0.83043707  1
  I  I69  1  0.50574054  0.66297298  0.16536727  1
  I  I70  1  0.49935949  0.66441729  0.50032407  1
  I  I71  1  0.50354765  0.66380549  0.83477659  1
  I  I72  1  0.82852626  0.00263312  0.16391653  1
  I  I73  1  0.83397517  -0.00011694  0.50010292  1
  I  I74  1  0.83172155  -0.00229745  0.83225826  1
  I  I75  1  0.82828833  0.33427591  0.17060018  1
  I  I76  1  0.83186219  0.33824830  0.50202218  1
  I  I77  1  0.83544491  0.33348903  0.83026760  1
  I  I78  1  0.82688585  0.66269444  0.17184657  1
  I  I79  1  0.83200673  0.66292623  0.49372256  1
  I  I80  1  0.83088643  0.66895383  0.83290849  1
  I  I81  1  0.16824130  0.16701262  -0.00341609  1
  I  I82  1  0.16684387  0.16540540  0.33332596  1
  I  I83  1  0.17446586  0.16714020  0.66989602  1
  I  I84  1  0.16512051  0.49858905  -0.00036177  1
  I  I85  1  0.17109918  0.50297836  0.33709847  1
  I  I86  1  0.16577562  0.50398249  0.66264391  1
  I  I87  1  0.16478903  0.83415745  -0.00067730  1
  I  I88  1  0.16968739  0.82978303  0.33824665  1
  I  I89  1  0.17126267  0.82771795  0.66294539  1
  I  I90  1  0.50037639  0.17546401  -0.00001752  1
  I  I91  1  0.50422841  0.17014410  0.33015959  1
  I  I92  1  0.49551048  0.17014031  0.66933099  1
  I  I93  1  0.50725547  0.49352422  0.00054871  1
  I  I94  1  0.50071428  0.49982129  0.33362551  1
  I  I95  1  0.49995336  0.49981980  0.66596329  1
  I  I96  1  0.50192026  0.83048314  -0.00011140  1
  I  I97  1  0.49765607  0.82801424  0.33746177  1
  I  I98  1  0.49706485  0.82767471  0.66326734  1
  I  I99  1  0.83196182  0.17414187  0.00349211  1
  I  I100  1  0.82624394  0.16555330  0.32905952  1
  I  I101  1  0.83367788  0.16599697  0.66696954  1
  I  I102  1  0.82729976  0.49650623  0.00339303  1
  I  I103  1  0.82809237  0.49731170  0.33358362  1
  I  I104  1  0.83233703  0.50354530  0.66422278  1
  I  I105  1  0.83130499  0.83285587  -0.00298830  1
  I  I106  1  0.83421277  0.83599618  0.33336704  1
  I  I107  1  0.83262069  0.83345357  0.66888496  1
  I  I108  1  -0.00290574  0.17119523  0.16626640  1
  I  I109  1  -0.00019165  0.16551327  0.50155681  1
  I  I110  1  0.00155585  0.16392187  0.83225270  1
  I  I111  1  -0.00321941  0.49546326  0.17204276  1
  I  I112  1  -0.00021198  0.50437021  0.49478833  1
  I  I113  1  0.00009240  0.49935842  0.83248007  1
  I  I114  1  -0.00028922  0.83487110  0.16792480  1
  I  I115  1  0.00237547  0.82860082  0.50220518  1
  I  I116  1  -0.00283096  0.83390824  0.83184350  1
  I  I117  1  0.33696874  0.17227167  0.16654883  1
  I  I118  1  0.33357228  0.17061998  0.49555434  1
  I  I119  1  0.33532990  0.17060053  0.83789131  1
  I  I120  1  0.33718922  0.49424109  0.16877773  1
  I  I121  1  0.33455602  0.50444085  0.50041067  1
  I  I122  1  0.33798334  0.49929067  0.83394979  1
  I  I123  1  0.33368364  0.83387229  0.16264371  1
  I  I124  1  0.33386904  0.82373110  0.50066908  1
  I  I125  1  0.33332919  0.83212755  0.83380808  1
  I  I126  1  0.66549624  0.17152808  0.16083387  1
  I  I127  1  0.66659018  0.16361667  0.50700917  1
  I  I128  1  0.66339563  0.16969610  0.83431398  1
  I  I129  1  0.66572964  0.49548170  0.17269321  1
  I  I130  1  0.66552440  0.50425444  0.49894183  1
  I  I131  1  0.66302460  0.49401934  0.82728171  1
  I  I132  1  0.66653636  0.83421882  0.16947669  1
  I  I133  1  0.66415172  0.82883342  0.50143261  1
  I  I134  1  0.66860831  0.83507075  0.82991512  1
