# generated using pymatgen
data_Cs27Sn14Pb13I81
_symmetry_space_group_name_H-M   'P 1'
_cell_length_a   18.96580186
_cell_length_b   18.96285896
_cell_length_c   18.95400772
_cell_angle_alpha   89.99834960
_cell_angle_beta   90.00059932
_cell_angle_gamma   89.99900525
_symmetry_Int_Tables_number   1
_chemical_formula_structural   Cs27Sn14Pb13I81
_chemical_formula_sum   'Cs27 Sn14 Pb13 I81'
_cell_volume   6816.72975258
_cell_formula_units_Z   1
loop_
 _symmetry_equiv_pos_site_id
 _symmetry_equiv_pos_as_xyz
  1  'x, y, z'
loop_
 _atom_site_type_symbol
 _atom_site_label
 _atom_site_symmetry_multiplicity
 _atom_site_fract_x
 _atom_site_fract_y
 _atom_site_fract_z
 _atom_site_occupancy
  Cs  Cs0  1  -0.00052852  -0.00170599  -0.00066188  1
  Cs  Cs1  1  0.00137136  -0.00009552  0.33140323  1
  Cs  Cs2  1  0.00301691  -0.00240214  0.66882007  1
  Cs  Cs3  1  0.00051922  0.33224678  -0.00193567  1
  Cs  Cs4  1  -0.00328629  0.33243306  0.33662777  1
  Cs  Cs5  1  -0.00161415  0.33634476  0.66725835  1
  Cs  Cs6  1  -0.00121344  0.66899729  -0.00143116  1
  Cs  Cs7  1  0.00117870  0.66724956  0.33703610  1
  Cs  Cs8  1  -0.00002029  0.66508544  0.66491412  1
  Cs  Cs9  1  0.33184808  0.00167449  -0.00120568  1
  Cs  Cs10  1  0.33278524  -0.00088837  0.33313837  1
  Cs  Cs11  1  0.33515477  0.00239365  0.67102157  1
  Cs  Cs12  1  0.33258548  0.33312383  0.00137753  1
  Cs  Cs13  1  0.33224780  0.33178708  0.33059197  1
  Cs  Cs14  1  0.33432401  0.33231945  0.66718467  1
  Cs  Cs15  1  0.33390073  0.66524522  0.00181345  1
  Cs  Cs16  1  0.33330712  0.66810631  0.33399094  1
  Cs  Cs17  1  0.33444938  0.66659683  0.66444431  1
  Cs  Cs18  1  0.66932029  -0.00373809  -0.00086733  1
  Cs  Cs19  1  0.66730276  0.00187507  0.33517034  1
  Cs  Cs20  1  0.66187506  0.00179886  0.66565580  1
  Cs  Cs21  1  0.66948499  0.33747448  0.00169956  1
  Cs  Cs22  1  0.67338161  0.33120749  0.33290981  1
  Cs  Cs23  1  0.66728389  0.33013620  0.66624109  1
  Cs  Cs24  1  0.66884474  0.66567505  0.00085348  1
  Cs  Cs25  1  0.66402225  0.66646450  0.33108983  1
  Cs  Cs26  1  0.66391930  0.66841398  0.66792918  1
  Sn  Sn27  1  0.16727431  0.16651117  0.16740352  1
  Sn  Sn28  1  0.83331054  0.16672211  0.83336723  1
  Sn  Sn29  1  0.49978433  0.16583470  0.16671256  1
  Sn  Sn30  1  0.16685017  0.50020683  0.83396919  1
  Sn  Sn31  1  0.16760854  0.83332005  0.16726700  1
  Sn  Sn32  1  0.83312804  0.83336002  0.49987314  1
  Sn  Sn33  1  0.83325224  0.49944107  0.83311707  1
  Sn  Sn34  1  0.49984158  0.83282276  0.49920440  1
  Sn  Sn35  1  0.49991382  0.49996459  0.50026146  1
  Sn  Sn36  1  0.16653721  0.50010156  0.16615930  1
  Sn  Sn37  1  0.49913622  0.83442217  0.16736326  1
  Sn  Sn38  1  0.49994587  0.50006186  0.83255611  1
  Sn  Sn39  1  0.16701640  0.16595494  0.49959785  1
  Sn  Sn40  1  0.16699451  0.83448420  0.49943396  1
  Pb  Pb41  1  0.49810400  0.16654854  0.49804895  1
  Pb  Pb42  1  0.83329609  0.83332277  0.16902857  1
  Pb  Pb43  1  0.49974365  0.83145234  0.83395642  1
  Pb  Pb44  1  0.16537162  0.16879949  0.83351493  1
  Pb  Pb45  1  0.49850071  0.50005964  0.16702036  1
  Pb  Pb46  1  0.16695613  0.83090663  0.83344402  1
  Pb  Pb47  1  0.83372463  0.16649468  0.16477051  1
  Pb  Pb48  1  0.83681085  0.50017551  0.16471487  1
  Pb  Pb49  1  0.83613625  0.16434992  0.50219620  1
  Pb  Pb50  1  0.83325816  0.83322909  0.83083685  1
  Pb  Pb51  1  0.83028136  0.50187393  0.50208453  1
  Pb  Pb52  1  0.16829802  0.49998198  0.49977748  1
  Pb  Pb53  1  0.50203570  0.16923449  0.83643961  1
  I  I54  1  0.17031779  -0.00028655  0.17197921  1
  I  I55  1  0.16725578  -0.00118761  0.49293585  1
  I  I56  1  0.16326439  0.00014128  0.83482217  1
  I  I57  1  0.17136001  0.33277702  0.16592887  1
  I  I58  1  0.16888820  0.33124520  0.49713059  1
  I  I59  1  0.16845983  0.33702566  0.83673627  1
  I  I60  1  0.17072430  0.66752807  0.16653095  1
  I  I61  1  0.16569560  0.66953747  0.49756732  1
  I  I62  1  0.16415765  0.66252851  0.83671055  1
  I  I63  1  0.49245724  -0.00104160  0.17209858  1
  I  I64  1  0.50165298  -0.00319823  0.49749236  1
  I  I65  1  0.50255125  0.00030985  0.83093797  1
  I  I66  1  0.49443653  0.33131833  0.16540359  1
  I  I67  1  0.49668322  0.33561462  0.50329861  1
  I  I68  1  0.49703397  0.33746070  0.82869055  1
  I  I69  1  0.49550897  0.66929705  0.16794825  1
  I  I70  1  0.49758226  0.66796267  0.49895466  1
  I  I71  1  0.50209097  0.66291930  0.83385343  1
  I  I72  1  0.83692742  -0.00010513  0.16224555  1
  I  I73  1  0.82842004  -0.00356543  0.50231918  1
  I  I74  1  0.83501268  0.00237811  0.83313828  1
  I  I75  1  0.83182214  0.33333756  0.16864392  1
  I  I76  1  0.83372762  0.33325735  0.49951683  1
  I  I77  1  0.83414403  0.33474735  0.83346565  1
  I  I78  1  0.83243071  0.66677461  0.16350572  1
  I  I79  1  0.83945738  0.66985861  0.50186825  1
  I  I80  1  0.83360426  0.66346509  0.83253295  1
  I  I81  1  0.16879924  0.16477878  0.00323337  1
  I  I82  1  0.16979644  0.16804204  0.33224559  1
  I  I83  1  0.16498835  0.16300205  0.66416734  1
  I  I84  1  0.16876690  0.49980147  0.00029696  1
  I  I85  1  0.17043195  0.50051541  0.33071185  1
  I  I86  1  0.16526169  0.50002963  0.66899785  1
  I  I87  1  0.17101659  0.83547342  0.00361186  1
  I  I88  1  0.16715420  0.83137242  0.33328610  1
  I  I89  1  0.16718766  0.83613395  0.66306504  1
  I  I90  1  0.49234552  0.16208681  0.00425699  1
  I  I91  1  0.49767752  0.16799079  0.32997226  1
  I  I92  1  0.49914957  0.16485172  0.66668870  1
  I  I93  1  0.50114256  0.49976633  -0.00233600  1
  I  I94  1  0.49615962  0.50292391  0.33568558  1
  I  I95  1  0.49762051  0.50601785  0.66675176  1
  I  I96  1  0.49461658  0.83538845  0.00367553  1
  I  I97  1  0.49875999  0.82992976  0.33393599  1
  I  I98  1  0.49937445  0.83030936  0.66335611  1
  I  I99  1  0.83523478  0.17147591  -0.00313764  1
  I  I100  1  0.83243261  0.16585240  0.33355300  1
  I  I101  1  0.83468671  0.17205652  0.66982701  1
  I  I102  1  0.82781906  0.49776976  -0.00392956  1
  I  I103  1  0.83311066  0.50072354  0.33371189  1
  I  I104  1  0.83946227  0.49729949  0.67037066  1
  I  I105  1  0.83359012  0.83276279  -0.00008756  1
  I  I106  1  0.83407839  0.83346074  0.33702425  1
  I  I107  1  0.83423286  0.83219780  0.66282264  1
  I  I108  1  0.00384899  0.16612350  0.16884537  1
  I  I109  1  0.00418256  0.16312205  0.49363285  1
  I  I110  1  -0.00235439  0.17306646  0.83407856  1
  I  I111  1  0.00534877  0.50011229  0.16267077  1
  I  I112  1  0.00015643  0.50139662  0.50105233  1
  I  I113  1  0.00032331  0.49647048  0.83831322  1
  I  I114  1  0.00369554  0.83380031  0.16972494  1
  I  I115  1  0.00165458  0.83700179  0.49714286  1
  I  I116  1  0.00018210  0.83036995  0.83293469  1
  I  I117  1  0.33195118  0.16630978  0.16929792  1
  I  I118  1  0.32993754  0.16243038  0.49924180  1
  I  I119  1  0.33335930  0.16856933  0.83210714  1
  I  I120  1  0.33025987  0.50002096  0.16119642  1
  I  I121  1  0.33602965  0.50587644  0.50550650  1
  I  I122  1  0.33322651  0.50178314  0.83375621  1
  I  I123  1  0.33260949  0.83293075  0.17409669  1
  I  I124  1  0.33326064  0.83159999  0.49533452  1
  I  I125  1  0.33329009  0.83130705  0.82886080  1
  I  I126  1  0.66377994  0.16253826  0.16518258  1
  I  I127  1  0.66657605  0.16616294  0.49930849  1
  I  I128  1  0.66965057  0.17212307  0.83367566  1
  I  I129  1  0.66645705  0.50029714  0.16548742  1
  I  I130  1  0.66224467  0.50496729  0.50389041  1
  I  I131  1  0.66639434  0.49672861  0.82823800  1
  I  I132  1  0.66318352  0.83697705  0.16997033  1
  I  I133  1  0.66510871  0.82767840  0.49746126  1
  I  I134  1  0.66650701  0.83066679  0.83378937  1
