# generated using pymatgen
data_Cs27Sn14Pb13I81
_symmetry_space_group_name_H-M   'P 1'
_cell_length_a   18.97951578
_cell_length_b   18.97530771
_cell_length_c   18.96993590
_cell_angle_alpha   89.99819491
_cell_angle_beta   90.00166924
_cell_angle_gamma   90.00013846
_symmetry_Int_Tables_number   1
_chemical_formula_structural   Cs27Sn14Pb13I81
_chemical_formula_sum   'Cs27 Sn14 Pb13 I81'
_cell_volume   6831.87353376
_cell_formula_units_Z   1
loop_
 _symmetry_equiv_pos_site_id
 _symmetry_equiv_pos_as_xyz
  1  'x, y, z'
loop_
 _atom_site_type_symbol
 _atom_site_label
 _atom_site_symmetry_multiplicity
 _atom_site_fract_x
 _atom_site_fract_y
 _atom_site_fract_z
 _atom_site_occupancy
  Cs  Cs0  1  -0.00303896  0.00047736  0.00354460  1
  Cs  Cs1  1  -0.00024415  0.00120899  0.33465023  1
  Cs  Cs2  1  -0.00062665  -0.00112559  0.66501452  1
  Cs  Cs3  1  0.00164022  0.33498430  -0.00184231  1
  Cs  Cs4  1  -0.00336480  0.32880632  0.33366565  1
  Cs  Cs5  1  0.00151498  0.33295878  0.66787279  1
  Cs  Cs6  1  0.00315860  0.66469641  0.00222423  1
  Cs  Cs7  1  -0.00020757  0.66642171  0.33064131  1
  Cs  Cs8  1  0.00066272  0.66977038  0.66623917  1
  Cs  Cs9  1  0.34424903  0.00040945  0.00130538  1
  Cs  Cs10  1  0.33156266  -0.00084610  0.33458978  1
  Cs  Cs11  1  0.33280604  0.00082161  0.66543927  1
  Cs  Cs12  1  0.33388117  0.33272961  -0.00516664  1
  Cs  Cs13  1  0.33779330  0.33259099  0.33418625  1
  Cs  Cs14  1  0.33075570  0.33346603  0.66964313  1
  Cs  Cs15  1  0.33020336  0.66745316  0.01087968  1
  Cs  Cs16  1  0.33377530  0.66724015  0.32759413  1
  Cs  Cs17  1  0.33098736  0.66606504  0.66475372  1
  Cs  Cs18  1  0.66238541  -0.00190448  -0.00154255  1
  Cs  Cs19  1  0.66967822  0.00218247  0.33462476  1
  Cs  Cs20  1  0.66804586  -0.00227018  0.66697856  1
  Cs  Cs21  1  0.66553698  0.33287221  0.00110369  1
  Cs  Cs22  1  0.66640864  0.33919610  0.33223553  1
  Cs  Cs23  1  0.66748001  0.33714984  0.66624679  1
  Cs  Cs24  1  0.66439476  0.66914171  -0.00491439  1
  Cs  Cs25  1  0.66705690  0.65586322  0.33417423  1
  Cs  Cs26  1  0.66606901  0.66527944  0.66876692  1
  Sn  Sn27  1  0.83288311  0.83361598  0.49894028  1
  Sn  Sn28  1  0.50039309  0.16609438  0.50029959  1
  Sn  Sn29  1  0.83300331  0.49945476  0.83304324  1
  Sn  Sn30  1  0.16671521  0.83313631  0.50061632  1
  Sn  Sn31  1  0.50037213  0.83370278  0.49994708  1
  Sn  Sn32  1  0.49990511  0.50030402  0.83317876  1
  Sn  Sn33  1  0.16679610  0.83403909  0.83347417  1
  Sn  Sn34  1  0.83344241  0.16726215  0.83320724  1
  Sn  Sn35  1  0.16635166  0.16637753  0.16700593  1
  Sn  Sn36  1  0.16674816  0.16683936  0.49937089  1
  Sn  Sn37  1  0.83316951  0.83388613  0.16787507  1
  Sn  Sn38  1  0.83404119  0.16580534  0.16675691  1
  Sn  Sn39  1  0.83285680  0.16625452  0.50009729  1
  Sn  Sn40  1  0.16629085  0.49990765  0.49964323  1
  Pb  Pb41  1  0.16486670  0.16429295  0.83355052  1
  Pb  Pb42  1  0.50278318  0.16806958  0.83051086  1
  Pb  Pb43  1  0.83537705  0.50017222  0.50181863  1
  Pb  Pb44  1  0.50357942  0.83347413  0.17014011  1
  Pb  Pb45  1  0.50051478  0.16661526  0.16922799  1
  Pb  Pb46  1  0.49698515  0.83126051  0.83098782  1
  Pb  Pb47  1  0.49755905  0.50006179  0.50137918  1
  Pb  Pb48  1  0.16646786  0.50221552  0.83180485  1
  Pb  Pb49  1  0.16488461  0.83591955  0.16727252  1
  Pb  Pb50  1  0.83475094  0.83356574  0.83327242  1
  Pb  Pb51  1  0.16635859  0.49637886  0.16975494  1
  Pb  Pb52  1  0.49993605  0.49982590  0.16335085  1
  Pb  Pb53  1  0.83337570  0.49980788  0.16374270  1
  I  I54  1  0.16277716  0.00360342  0.17353097  1
  I  I55  1  0.16606917  0.00020367  0.50021246  1
  I  I56  1  0.16332234  -0.00307086  0.82477588  1
  I  I57  1  0.15878547  0.32843829  0.17109864  1
  I  I58  1  0.16611047  0.33171598  0.49670397  1
  I  I59  1  0.16751031  0.33307290  0.83200362  1
  I  I60  1  0.16512656  0.66697449  0.16661520  1
  I  I61  1  0.16604650  0.66807539  0.50669235  1
  I  I62  1  0.16338668  0.66988515  0.82531693  1
  I  I63  1  0.49787705  0.00001169  0.16174271  1
  I  I64  1  0.49639336  0.00020306  0.50097042  1
  I  I65  1  0.50053668  -0.00012421  0.83441983  1
  I  I66  1  0.50216054  0.33292607  0.17118226  1
  I  I67  1  0.50023895  0.33041758  0.50092436  1
  I  I68  1  0.50032433  0.33591022  0.82977899  1
  I  I69  1  0.50088377  0.66695111  0.16994989  1
  I  I70  1  0.50047269  0.66956180  0.50222627  1
  I  I71  1  0.50919659  0.66377807  0.82889482  1
  I  I72  1  0.83795489  0.00128363  0.16665429  1
  I  I73  1  0.83687240  0.00072848  0.50180600  1
  I  I74  1  0.83653826  0.00269293  0.83193245  1
  I  I75  1  0.83664800  0.32958882  0.17026883  1
  I  I76  1  0.83356570  0.32997331  0.49785092  1
  I  I77  1  0.83114058  0.33216958  0.83185722  1
  I  I78  1  0.83360153  0.66964578  0.17157538  1
  I  I79  1  0.83382989  0.66986457  0.49766835  1
  I  I80  1  0.83123728  0.66475267  0.83192616  1
  I  I81  1  0.15975537  0.16502122  0.00246628  1
  I  I82  1  0.16152758  0.16500289  0.33565546  1
  I  I83  1  0.16552204  0.16782765  0.66307514  1
  I  I84  1  0.16707507  0.50133187  -0.00000145  1
  I  I85  1  0.16664167  0.50669011  0.33786140  1
  I  I86  1  0.16607776  0.49522110  0.66369589  1
  I  I87  1  0.16224283  0.83286345  -0.00179844  1
  I  I88  1  0.16840702  0.83200185  0.33720379  1
  I  I89  1  0.16340680  0.83508290  0.66364835  1
  I  I90  1  0.49894717  0.16929898  -0.00024437  1
  I  I91  1  0.50292059  0.16354794  0.33777219  1
  I  I92  1  0.49806359  0.16305839  0.66229894  1
  I  I93  1  0.50469497  0.49938954  -0.00463394  1
  I  I94  1  0.49885656  0.49991211  0.33376428  1
  I  I95  1  0.50483100  0.49965617  0.66885362  1
  I  I96  1  0.49929373  0.83102075  0.00001078  1
  I  I97  1  0.49254377  0.83730458  0.33832412  1
  I  I98  1  0.50532210  0.83725640  0.66265859  1
  I  I99  1  0.83956494  0.16677943  0.00057083  1
  I  I100  1  0.83516137  0.16153415  0.33460327  1
  I  I101  1  0.83398104  0.16628557  0.66512281  1
  I  I102  1  0.83061101  0.49642259  -0.00416015  1
  I  I103  1  0.83468096  0.49837758  0.33351401  1
  I  I104  1  0.83110669  0.49593388  0.66952121  1
  I  I105  1  0.83719335  0.83652612  0.00213901  1
  I  I106  1  0.83599611  0.84171333  0.33518838  1
  I  I107  1  0.83299848  0.83661273  0.66337190  1
  I  I108  1  -0.00123490  0.16334808  0.17266928  1
  I  I109  1  -0.00037089  0.16465582  0.49965718  1
  I  I110  1  -0.00340294  0.17220282  0.82832886  1
  I  I111  1  -0.00010820  0.50237599  0.16320206  1
  I  I112  1  0.00306452  0.49978454  0.50369631  1
  I  I113  1  -0.00247281  0.49660926  0.83190545  1
  I  I114  1  -0.00307687  0.83596582  0.17210423  1
  I  I115  1  -0.00004170  0.83606169  0.50101797  1
  I  I116  1  0.00219689  0.83172449  0.82535923  1
  I  I117  1  0.33055361  0.16704181  0.17242183  1
  I  I118  1  0.33220194  0.16420420  0.49561908  1
  I  I119  1  0.33335410  0.16836209  0.83336596  1
  I  I120  1  0.33289462  0.49961271  0.16464135  1
  I  I121  1  0.32988215  0.49905459  0.50421745  1
  I  I122  1  0.33529146  0.50120654  0.82911359  1
  I  I123  1  0.33330884  0.83377055  0.16595303  1
  I  I124  1  0.33237043  0.83640323  0.50633052  1
  I  I125  1  0.32941954  0.83265130  0.82592413  1
  I  I126  1  0.67054696  0.16310738  0.16690781  1
  I  I127  1  0.66799684  0.15970453  0.50115556  1
  I  I128  1  0.67110854  0.16652844  0.83373505  1
  I  I129  1  0.66703120  0.49754468  0.17139765  1
  I  I130  1  0.66676232  0.49999663  0.50009325  1
  I  I131  1  0.66776312  0.49647315  0.83067265  1
  I  I132  1  0.67156551  0.84150230  0.16881750  1
  I  I133  1  0.66769671  0.84126583  0.49666721  1
  I  I134  1  0.66669637  0.83395583  0.83278694  1
