# generated using pymatgen
data_Cs27Sn14Pb13I81
_symmetry_space_group_name_H-M   'P 1'
_cell_length_a   18.96096927
_cell_length_b   18.96096935
_cell_length_c   18.96048851
_cell_angle_alpha   89.99999996
_cell_angle_beta   89.99999996
_cell_angle_gamma   89.99847044
_symmetry_Int_Tables_number   1
_chemical_formula_structural   Cs27Sn14Pb13I81
_chemical_formula_sum   'Cs27 Sn14 Pb13 I81'
_cell_volume   6816.64367683
_cell_formula_units_Z   1
loop_
 _symmetry_equiv_pos_site_id
 _symmetry_equiv_pos_as_xyz
  1  'x, y, z'
loop_
 _atom_site_type_symbol
 _atom_site_label
 _atom_site_symmetry_multiplicity
 _atom_site_fract_x
 _atom_site_fract_y
 _atom_site_fract_z
 _atom_site_occupancy
  Cs  Cs0  1  0.00433640  -0.00510128  -0.00000017  1
  Cs  Cs1  1  -0.00053655  -0.00096004  0.33098699  1
  Cs  Cs2  1  -0.00053655  -0.00096004  0.66901298  1
  Cs  Cs3  1  -0.00028474  0.33030572  0.00000003  1
  Cs  Cs4  1  0.00191175  0.33400605  0.33611214  1
  Cs  Cs5  1  0.00191172  0.33400627  0.66388785  1
  Cs  Cs6  1  -0.00845741  0.67512387  -0.00000004  1
  Cs  Cs7  1  -0.00015573  0.66682242  0.33418505  1
  Cs  Cs8  1  -0.00015585  0.66682246  0.66581490  1
  Cs  Cs9  1  0.33139696  0.00085783  0.00000003  1
  Cs  Cs10  1  0.33714606  -0.00136158  0.33112816  1
  Cs  Cs11  1  0.33714597  -0.00136160  0.66887178  1
  Cs  Cs12  1  0.33517884  0.33148790  0.00000001  1
  Cs  Cs13  1  0.33066177  0.33600484  0.33374485  1
  Cs  Cs14  1  0.33066176  0.33600482  0.66625519  1
  Cs  Cs15  1  0.33636088  0.66695162  -0.00000001  1
  Cs  Cs16  1  0.33266049  0.66475496  0.33611215  1
  Cs  Cs17  1  0.33266046  0.66475503  0.66388782  1
  Cs  Cs18  1  0.66588895  0.00077764  0.00000003  1
  Cs  Cs19  1  0.66360419  0.00306250  0.33417067  1
  Cs  Cs20  1  0.66360410  0.00306261  0.66582931  1
  Cs  Cs21  1  0.66580880  0.33526974  -0.00000002  1
  Cs  Cs22  1  0.66802812  0.32952063  0.33112822  1
  Cs  Cs23  1  0.66802818  0.32952072  0.66887180  1
  Cs  Cs24  1  0.67176818  0.66233015  0.00000003  1
  Cs  Cs25  1  0.66762668  0.66720320  0.33098716  1
  Cs  Cs26  1  0.66762682  0.66720315  0.66901277  1
  Sn  Sn27  1  0.50008468  0.83345212  0.16552127  1
  Sn  Sn28  1  0.16620196  0.50046471  0.83421391  1
  Sn  Sn29  1  0.50047713  0.16618950  0.83422083  1
  Sn  Sn30  1  0.16620194  0.50046471  0.16578611  1
  Sn  Sn31  1  0.50082954  0.49953621  0.50000003  1
  Sn  Sn32  1  0.83321455  0.16658195  0.16552134  1
  Sn  Sn33  1  0.16602173  0.83374466  0.49999999  1
  Sn  Sn34  1  0.50008471  0.83345212  0.83447867  1
  Sn  Sn35  1  0.16713046  0.16583709  0.49999999  1
  Sn  Sn36  1  0.50047717  0.16618953  0.16577914  1
  Sn  Sn37  1  0.16639593  0.50027071  0.50000000  1
  Sn  Sn38  1  0.83292199  0.50064491  0.49999997  1
  Sn  Sn39  1  0.83321453  0.16658195  0.83447869  1
  Sn  Sn40  1  0.83380426  0.83286244  0.49999999  1
  Pb  Pb41  1  0.50022481  0.83140680  0.50000004  1
  Pb  Pb42  1  0.16700012  0.16798671  0.16848183  1
  Pb  Pb43  1  0.83581032  0.49786214  0.83130232  1
  Pb  Pb44  1  0.16700013  0.16798672  0.83151817  1
  Pb  Pb45  1  0.49771119  0.16895550  0.50000002  1
  Pb  Pb46  1  0.83093210  0.83573448  0.16889776  1
  Pb  Pb47  1  0.83525991  0.16644186  0.50000002  1
  Pb  Pb48  1  0.16880451  0.83085632  0.16869768  1
  Pb  Pb49  1  0.16880450  0.83085629  0.83130234  1
  Pb  Pb50  1  0.83093213  0.83573451  0.83110221  1
  Pb  Pb51  1  0.49867995  0.49966657  0.83151817  1
  Pb  Pb52  1  0.49867992  0.49966659  0.16848178  1
  Pb  Pb53  1  0.83581034  0.49786213  0.16869770  1
  I  I54  1  0.16580153  -0.00017460  0.17050354  1
  I  I55  1  0.16198326  -0.00058502  0.50000000  1
  I  I56  1  0.16580165  -0.00017456  0.82949653  1
  I  I57  1  0.16876489  0.33611320  0.17219779  1
  I  I58  1  0.16668826  0.33518012  0.49999997  1
  I  I59  1  0.16876465  0.33611322  0.82780228  1
  I  I60  1  0.16963195  0.66286198  0.17145142  1
  I  I61  1  0.16699232  0.66521783  0.50000011  1
  I  I62  1  0.16963206  0.66286197  0.82854845  1
  I  I63  1  0.50242313  0.00093878  0.16561039  1
  I  I64  1  0.49885635  0.00011235  0.50000010  1
  I  I65  1  0.50242315  0.00093880  0.83438955  1
  I  I66  1  0.50188331  0.33029167  0.16417517  1
  I  I67  1  0.49827780  0.33679875  0.49999990  1
  I  I68  1  0.50188320  0.33029168  0.83582495  1
  I  I69  1  0.49650650  0.66894149  0.16552297  1
  I  I70  1  0.49425795  0.66364551  0.50000003  1
  I  I71  1  0.49650653  0.66894153  0.83447708  1
  I  I72  1  0.83285599  0.00377201  0.16680135  1
  I  I73  1  0.83821489  -0.00223296  0.50000003  1
  I  I74  1  0.83285589  0.00377203  0.83319872  1
  I  I75  1  0.82685531  0.32985680  0.16632736  1
  I  I76  1  0.83582125  0.33565410  0.49999996  1
  I  I77  1  0.82685570  0.32985678  0.83367255  1
  I  I78  1  0.83246725  0.66678313  0.16723982  1
  I  I79  1  0.83834846  0.66591040  0.50000001  1
  I  I80  1  0.83246712  0.66678313  0.83276012  1
  I  I81  1  0.16657063  0.17109362  0.00000002  1
  I  I82  1  0.16627271  0.17100780  0.33673557  1
  I  I83  1  0.16627271  0.17100781  0.66326441  1
  I  I84  1  0.17074242  0.49592437  -0.00000001  1
  I  I85  1  0.16750984  0.49915681  0.33552026  1
  I  I86  1  0.16750993  0.49915654  0.66447974  1
  I  I87  1  0.16651930  0.83139250  -0.00000001  1
  I  I88  1  0.16613336  0.83049373  0.33728797  1
  I  I89  1  0.16613344  0.83049394  0.66271206  1
  I  I90  1  0.50267294  0.16399372  0.00000001  1
  I  I91  1  0.50306917  0.16359741  0.33076428  1
  I  I92  1  0.50306924  0.16359755  0.66923572  1
  I  I93  1  0.49557288  0.50009574  -0.00000001  1
  I  I94  1  0.49565900  0.50039411  0.33673557  1
  I  I95  1  0.49565894  0.50039398  0.66326439  1
  I  I96  1  0.49817960  0.83738591  0.00000000  1
  I  I97  1  0.49957309  0.83700006  0.33133330  1
  I  I98  1  0.49957309  0.83700001  0.66866670  1
  I  I99  1  0.82928120  0.16848675  -0.00000001  1
  I  I100  1  0.82966655  0.16709370  0.33133328  1
  I  I101  1  0.82966650  0.16709366  0.66866669  1
  I  I102  1  0.83527428  0.50014736  0.00000001  1
  I  I103  1  0.83617287  0.50053342  0.33728794  1
  I  I104  1  0.83617285  0.50053332  0.66271209  1
  I  I105  1  0.83410926  0.83255769  0.00000001  1
  I  I106  1  0.83550668  0.83115999  0.33694281  1
  I  I107  1  0.83550668  0.83115987  0.66305717  1
  I  I108  1  -0.00227486  0.17016001  0.16552327  1
  I  I109  1  0.00302115  0.17240914  0.49999999  1
  I  I110  1  -0.00227488  0.17015964  0.83447689  1
  I  I111  1  0.00380463  0.49703492  0.17145139  1
  I  I112  1  0.00144883  0.49967460  0.50000008  1
  I  I113  1  0.00380464  0.49703528  0.82854853  1
  I  I114  1  -0.00011646  0.83419960  0.16724006  1
  I  I115  1  0.00075624  0.82831754  0.50000004  1
  I  I116  1  -0.00011650  0.83419964  0.83275996  1
  I  I117  1  0.33637501  0.16478373  0.16417494  1
  I  I118  1  0.32986795  0.16838876  0.50000003  1
  I  I119  1  0.33637502  0.16478380  0.83582502  1
  I  I120  1  0.33055347  0.49790134  0.17219793  1
  I  I121  1  0.33148656  0.49997856  0.49999995  1
  I  I122  1  0.33055345  0.49790128  0.82780210  1
  I  I123  1  0.33680984  0.83981124  0.16632753  1
  I  I124  1  0.33101255  0.83084545  0.50000000  1
  I  I125  1  0.33680986  0.83981116  0.83367246  1
  I  I126  1  0.66572788  0.16424337  0.16561030  1
  I  I127  1  0.66655433  0.16781019  0.49999999  1
  I  I128  1  0.66572790  0.16424358  0.83438969  1
  I  I129  1  0.66684128  0.50086545  0.17050334  1
  I  I130  1  0.66725168  0.50468299  0.50000008  1
  I  I131  1  0.66684122  0.50086517  0.82949657  1
  I  I132  1  0.66289465  0.83381048  0.16680106  1
  I  I133  1  0.66889962  0.82845229  0.50000000  1
  I  I134  1  0.66289464  0.83381048  0.83319905  1
