# generated using pymatgen
data_Cs27Sn13Pb14I81
_symmetry_space_group_name_H-M   'P 1'
_cell_length_a   18.99440622
_cell_length_b   18.98433594
_cell_length_c   18.99558444
_cell_angle_alpha   90.00199714
_cell_angle_beta   89.99983737
_cell_angle_gamma   90.00134317
_symmetry_Int_Tables_number   1
_chemical_formula_structural   Cs27Sn13Pb14I81
_chemical_formula_sum   'Cs27 Sn13 Pb14 I81'
_cell_volume   6849.73534525
_cell_formula_units_Z   1
loop_
 _symmetry_equiv_pos_site_id
 _symmetry_equiv_pos_as_xyz
  1  'x, y, z'
loop_
 _atom_site_type_symbol
 _atom_site_label
 _atom_site_symmetry_multiplicity
 _atom_site_fract_x
 _atom_site_fract_y
 _atom_site_fract_z
 _atom_site_occupancy
  Cs  Cs0  1  0.00094566  0.00274881  -0.00163794  1
  Cs  Cs1  1  -0.00350438  -0.00375786  0.33522495  1
  Cs  Cs2  1  -0.00242238  -0.00044973  0.66842975  1
  Cs  Cs3  1  0.00078913  0.32576778  0.00669467  1
  Cs  Cs4  1  0.00142684  0.33481618  0.32388647  1
  Cs  Cs5  1  0.00241587  0.33420580  0.66854841  1
  Cs  Cs6  1  -0.00075289  0.66718387  0.00056055  1
  Cs  Cs7  1  0.00026440  0.66669932  0.33225699  1
  Cs  Cs8  1  0.00047921  0.66644002  0.66702732  1
  Cs  Cs9  1  0.33318688  0.00026749  0.00091382  1
  Cs  Cs10  1  0.33760868  -0.00376269  0.33764884  1
  Cs  Cs11  1  0.33349778  0.00070658  0.66164365  1
  Cs  Cs12  1  0.33375509  0.32988435  0.00128309  1
  Cs  Cs13  1  0.33356771  0.33441892  0.33331940  1
  Cs  Cs14  1  0.33242773  0.33532224  0.66576341  1
  Cs  Cs15  1  0.33497439  0.66915882  -0.00272904  1
  Cs  Cs16  1  0.33206602  0.66753402  0.33283547  1
  Cs  Cs17  1  0.33110912  0.66482319  0.67006959  1
  Cs  Cs18  1  0.66585553  -0.00259735  0.00046311  1
  Cs  Cs19  1  0.66398814  0.00126991  0.34384254  1
  Cs  Cs20  1  0.66695169  0.00455057  0.65523937  1
  Cs  Cs21  1  0.66551901  0.33137286  0.00185308  1
  Cs  Cs22  1  0.66628961  0.33252731  0.33245456  1
  Cs  Cs23  1  0.66618666  0.33418174  0.66585987  1
  Cs  Cs24  1  0.66658091  0.66958612  -0.00307560  1
  Cs  Cs25  1  0.66747183  0.66616330  0.33121690  1
  Cs  Cs26  1  0.66907388  0.66366925  0.67289258  1
  Sn  Sn27  1  0.49986568  0.50016605  0.49920704  1
  Sn  Sn28  1  0.83413669  0.83293983  0.83408440  1
  Sn  Sn29  1  0.16604849  0.16775215  0.49988556  1
  Sn  Sn30  1  0.16593009  0.83308451  0.16573860  1
  Sn  Sn31  1  0.50009109  0.16659105  0.83370506  1
  Sn  Sn32  1  0.83394925  0.83339452  0.16592802  1
  Sn  Sn33  1  0.49980881  0.49975092  0.16690989  1
  Sn  Sn34  1  0.16546203  0.50000467  0.83352929  1
  Sn  Sn35  1  0.49996279  0.16706411  0.16590969  1
  Sn  Sn36  1  0.83395129  0.49988448  0.50039770  1
  Sn  Sn37  1  0.83489169  0.49987384  0.83333966  1
  Sn  Sn38  1  0.16624765  0.49894759  0.50036361  1
  Sn  Sn39  1  0.16589691  0.83271426  0.83423870  1
  Pb  Pb40  1  0.16882339  0.16349777  0.16931249  1
  Pb  Pb41  1  0.50008719  0.82941936  0.50049145  1
  Pb  Pb42  1  0.16651435  0.83257870  0.50072532  1
  Pb  Pb43  1  0.83661439  0.17043280  0.50000029  1
  Pb  Pb44  1  0.83070158  0.16315645  0.16673610  1
  Pb  Pb45  1  0.16829430  0.16659504  0.83191781  1
  Pb  Pb46  1  0.83116123  0.16672886  0.83333880  1
  Pb  Pb47  1  0.50030632  0.83620300  0.83308156  1
  Pb  Pb48  1  0.49990193  0.49850326  0.83350602  1
  Pb  Pb49  1  0.50032572  0.83342635  0.16660763  1
  Pb  Pb50  1  0.16859967  0.50174645  0.16598822  1
  Pb  Pb51  1  0.83127774  0.50158712  0.16579609  1
  Pb  Pb52  1  0.49821638  0.16934179  0.49973283  1
  Pb  Pb53  1  0.83343679  0.83065342  0.50077676  1
  I  I54  1  0.16504519  -0.00418606  0.16099550  1
  I  I55  1  0.17023871  0.00200686  0.49952658  1
  I  I56  1  0.16378792  -0.00313918  0.83543842  1
  I  I57  1  0.16680986  0.33334933  0.16475216  1
  I  I58  1  0.16828289  0.33580736  0.50680951  1
  I  I59  1  0.16455357  0.33656906  0.82926355  1
  I  I60  1  0.16606871  0.66954046  0.16803124  1
  I  I61  1  0.16739902  0.66299128  0.50105706  1
  I  I62  1  0.16496319  0.66605332  0.83030393  1
  I  I63  1  0.49891269  0.00254553  0.16128266  1
  I  I64  1  0.49795244  0.00054675  0.49912734  1
  I  I65  1  0.49846160  0.00373179  0.84143262  1
  I  I66  1  0.49958596  0.33394952  0.16694884  1
  I  I67  1  0.50161642  0.33719926  0.49909410  1
  I  I68  1  0.49931163  0.33100754  0.83442320  1
  I  I69  1  0.49977325  0.66411674  0.17257240  1
  I  I70  1  0.49576578  0.66109276  0.49350855  1
  I  I71  1  0.49969038  0.66650529  0.83299657  1
  I  I72  1  0.83685949  -0.00481958  0.15892771  1
  I  I73  1  0.83337118  0.00006130  0.50000399  1
  I  I74  1  0.83764202  -0.00347330  0.83879752  1
  I  I75  1  0.83324987  0.33343629  0.16685722  1
  I  I76  1  0.82871191  0.33844400  0.50711436  1
  I  I77  1  0.83596851  0.33694053  0.82733246  1
  I  I78  1  0.83449980  0.66941308  0.16601995  1
  I  I79  1  0.83605189  0.66259336  0.50104148  1
  I  I80  1  0.83556172  0.66613792  0.83240498  1
  I  I81  1  0.16766784  0.16896415  0.00019134  1
  I  I82  1  0.16922892  0.17414939  0.33673294  1
  I  I83  1  0.17142411  0.16729633  0.66416248  1
  I  I84  1  0.16414881  0.50333211  -0.00321413  1
  I  I85  1  0.16546749  0.49790743  0.33602874  1
  I  I86  1  0.16933359  0.50242655  0.66666500  1
  I  I87  1  0.16380040  0.82734175  -0.00110663  1
  I  I88  1  0.16399932  0.83325155  0.33095905  1
  I  I89  1  0.16267479  0.83189874  0.66999644  1
  I  I90  1  0.49887951  0.17408497  0.00073534  1
  I  I91  1  0.49840712  0.16820694  0.33099444  1
  I  I92  1  0.49879030  0.16696410  0.66833887  1
  I  I93  1  0.49993764  0.49787562  0.00219442  1
  I  I94  1  0.49984203  0.49441619  0.33378236  1
  I  I95  1  0.49965818  0.49808292  0.66438209  1
  I  I96  1  0.49955218  0.82821046  -0.00010083  1
  I  I97  1  0.49937714  0.83839506  0.33317428  1
  I  I98  1  0.49890476  0.83568050  0.66699033  1
  I  I99  1  0.83477986  0.17262935  0.00002319  1
  I  I100  1  0.83043905  0.16552067  0.33344658  1
  I  I101  1  0.82830992  0.16064563  0.66659671  1
  I  I102  1  0.83561869  0.50325108  -0.00327410  1
  I  I103  1  0.83482602  0.50154863  0.33580252  1
  I  I104  1  0.83101241  0.50620348  0.66710580  1
  I  I105  1  0.83649519  0.82615119  -0.00107544  1
  I  I106  1  0.83717291  0.83204673  0.33080586  1
  I  I107  1  0.83838256  0.83088950  0.67024170  1
  I  I108  1  0.00024354  0.16844073  0.16779743  1
  I  I109  1  0.00423189  0.17081303  0.50228721  1
  I  I110  1  0.00009830  0.16667030  0.83100973  1
  I  I111  1  0.00004157  0.50024967  0.17031047  1
  I  I112  1  0.00060825  0.49706038  0.50616918  1
  I  I113  1  0.00039029  0.50505147  0.82327427  1
  I  I114  1  0.00025134  0.83127065  0.16319170  1
  I  I115  1  0.00008893  0.83248017  0.49762534  1
  I  I116  1  0.00034860  0.82884683  0.83734128  1
  I  I117  1  0.33646973  0.16947620  0.16303997  1
  I  I118  1  0.33075118  0.17254063  0.50066408  1
  I  I119  1  0.33598655  0.16807683  0.83644730  1
  I  I120  1  0.33640895  0.49911451  0.17094798  1
  I  I121  1  0.33259082  0.49596042  0.50070859  1
  I  I122  1  0.33058169  0.50371778  0.82950391  1
  I  I123  1  0.33081647  0.83267402  0.16266660  1
  I  I124  1  0.33293503  0.83241570  0.49875920  1
  I  I125  1  0.33008052  0.82828594  0.83735882  1
  I  I126  1  0.66270441  0.17043738  0.16343512  1
  I  I127  1  0.66657769  0.16606169  0.49977509  1
  I  I128  1  0.66330906  0.16812640  0.83697704  1
  I  I129  1  0.66340762  0.49876361  0.17111876  1
  I  I130  1  0.66677957  0.50223102  0.50076934  1
  I  I131  1  0.66921970  0.50400248  0.82985129  1
  I  I132  1  0.66943546  0.83143741  0.16085857  1
  I  I133  1  0.66697688  0.83430620  0.49865070  1
  I  I134  1  0.67014406  0.82692716  0.83908340  1
