# generated using pymatgen
data_Cs27Sn14Pb13I81
_symmetry_space_group_name_H-M   'P 1'
_cell_length_a   18.98183735
_cell_length_b   18.98076450
_cell_length_c   18.96592042
_cell_angle_alpha   89.99917105
_cell_angle_beta   89.99828077
_cell_angle_gamma   89.99881381
_symmetry_Int_Tables_number   1
_chemical_formula_structural   Cs27Sn14Pb13I81
_chemical_formula_sum   'Cs27 Sn14 Pb13 I81'
_cell_volume   6833.22737216
_cell_formula_units_Z   1
loop_
 _symmetry_equiv_pos_site_id
 _symmetry_equiv_pos_as_xyz
  1  'x, y, z'
loop_
 _atom_site_type_symbol
 _atom_site_label
 _atom_site_symmetry_multiplicity
 _atom_site_fract_x
 _atom_site_fract_y
 _atom_site_fract_z
 _atom_site_occupancy
  Cs  Cs0  1  -0.00068681  0.00106887  0.00047580  1
  Cs  Cs1  1  0.00144574  -0.00261168  0.32963871  1
  Cs  Cs2  1  -0.00090440  -0.00277502  0.67015698  1
  Cs  Cs3  1  0.00205182  0.33383538  0.00115018  1
  Cs  Cs4  1  -0.00038502  0.33704935  0.33374845  1
  Cs  Cs5  1  -0.00348178  0.33570633  0.66313162  1
  Cs  Cs6  1  0.00017924  0.66350602  0.00154721  1
  Cs  Cs7  1  -0.00157631  0.66563405  0.33371961  1
  Cs  Cs8  1  0.00378740  0.66699648  0.66583549  1
  Cs  Cs9  1  0.33300288  0.00256029  0.00083402  1
  Cs  Cs10  1  0.33348139  0.00199005  0.33419873  1
  Cs  Cs11  1  0.32889725  0.00000918  0.66380403  1
  Cs  Cs12  1  0.33210171  0.33346330  -0.00050166  1
  Cs  Cs13  1  0.33284171  0.32987493  0.33418879  1
  Cs  Cs14  1  0.33378390  0.33180468  0.66790809  1
  Cs  Cs15  1  0.34067211  0.66470297  -0.00220798  1
  Cs  Cs16  1  0.33627814  0.66757965  0.33423039  1
  Cs  Cs17  1  0.33307537  0.66998796  0.66703415  1
  Cs  Cs18  1  0.66815718  -0.00041541  -0.00171823  1
  Cs  Cs19  1  0.66503969  -0.00322942  0.33351253  1
  Cs  Cs20  1  0.67166377  0.00203034  0.66670840  1
  Cs  Cs21  1  0.66580946  0.33459462  -0.00039806  1
  Cs  Cs22  1  0.66754040  0.33311987  0.33620018  1
  Cs  Cs23  1  0.66931309  0.33102201  0.66316986  1
  Cs  Cs24  1  0.65931582  0.66518304  -0.00207497  1
  Cs  Cs25  1  0.66560128  0.66854097  0.33341219  1
  Cs  Cs26  1  0.66381069  0.66671031  0.66597301  1
  Sn  Sn27  1  0.16701926  0.16765074  0.83416245  1
  Sn  Sn28  1  0.50078570  0.83272715  0.49992047  1
  Sn  Sn29  1  0.83281698  0.83317778  0.49947892  1
  Sn  Sn30  1  0.83334355  0.16686925  0.16664401  1
  Sn  Sn31  1  0.49975206  0.50039497  0.49986958  1
  Sn  Sn32  1  0.16639062  0.83274048  0.16628404  1
  Sn  Sn33  1  0.16647035  0.16691694  0.16620451  1
  Sn  Sn34  1  0.50018188  0.16681935  0.16583269  1
  Sn  Sn35  1  0.16642859  0.50031938  0.16600498  1
  Sn  Sn36  1  0.83374217  0.83288657  0.16682272  1
  Sn  Sn37  1  0.83354017  0.50025602  0.16583829  1
  Sn  Sn38  1  0.49949585  0.16661827  0.83404288  1
  Sn  Sn39  1  0.16584096  0.49912928  0.83425281  1
  Sn  Sn40  1  0.83398279  0.50022782  0.83415656  1
  Pb  Pb41  1  0.83373897  0.16370356  0.49706415  1
  Pb  Pb42  1  0.16886196  0.49992417  0.50004375  1
  Pb  Pb43  1  0.49996523  0.83677615  0.83036749  1
  Pb  Pb44  1  0.83408071  0.16887737  0.83553706  1
  Pb  Pb45  1  0.16659221  0.83310326  0.83653991  1
  Pb  Pb46  1  0.16611780  0.16683363  0.50039266  1
  Pb  Pb47  1  0.83346073  0.83028178  0.83429265  1
  Pb  Pb48  1  0.49998549  0.16610631  0.50039972  1
  Pb  Pb49  1  0.49966736  0.49785540  0.83112034  1
  Pb  Pb50  1  0.49991446  0.49760865  0.16830496  1
  Pb  Pb51  1  0.16620645  0.83322331  0.49739840  1
  Pb  Pb52  1  0.50014420  0.83574691  0.16779495  1
  Pb  Pb53  1  0.83174597  0.50213062  0.49967366  1
  I  I54  1  0.16406415  0.00083292  0.16461011  1
  I  I55  1  0.17011612  -0.00017340  0.49963386  1
  I  I56  1  0.17157467  0.00325390  0.83683040  1
  I  I57  1  0.16447749  0.33323871  0.16331315  1
  I  I58  1  0.17005925  0.33354882  0.49421349  1
  I  I59  1  0.16777178  0.33329116  0.84227618  1
  I  I60  1  0.15867026  0.66586660  0.16465324  1
  I  I61  1  0.16664476  0.66660744  0.50023113  1
  I  I62  1  0.16204739  0.66316136  0.83642754  1
  I  I63  1  0.49938289  0.00379367  0.16625839  1
  I  I64  1  0.50433379  -0.00268994  0.49851706  1
  I  I65  1  0.49412229  0.00469142  0.83709538  1
  I  I66  1  0.49987823  0.32965026  0.16622051  1
  I  I67  1  0.49947275  0.33512104  0.49919995  1
  I  I68  1  0.49835415  0.33024106  0.83580976  1
  I  I69  1  0.49944986  0.66659873  0.16742202  1
  I  I70  1  0.50379719  0.66721518  0.49839311  1
  I  I71  1  0.49964138  0.66645151  0.83333441  1
  I  I72  1  0.83581752  0.00002160  0.17201803  1
  I  I73  1  0.82568167  -0.00426059  0.49537067  1
  I  I74  1  0.83274517  0.00014091  0.83263269  1
  I  I75  1  0.83562100  0.33370499  0.16189053  1
  I  I76  1  0.83051681  0.33366025  0.49925851  1
  I  I77  1  0.83371537  0.33668566  0.83852440  1
  I  I78  1  0.84114112  0.66643323  0.16802292  1
  I  I79  1  0.83089256  0.66971818  0.49279552  1
  I  I80  1  0.83933357  0.66235364  0.83858062  1
  I  I81  1  0.16791909  0.16723179  0.00159897  1
  I  I82  1  0.16832413  0.16709225  0.32895608  1
  I  I83  1  0.17386246  0.17150886  0.67068629  1
  I  I84  1  0.16265554  0.49852226  0.00120408  1
  I  I85  1  0.16256041  0.49869734  0.32954038  1
  I  I86  1  0.16294561  0.49415463  0.67023947  1
  I  I87  1  0.15910910  0.83510920  0.00470735  1
  I  I88  1  0.16539304  0.83432467  0.32885069  1
  I  I89  1  0.16689507  0.83402779  0.66681409  1
  I  I90  1  0.49863228  0.16743254  0.00112807  1
  I  I91  1  0.49896960  0.16668408  0.33036395  1
  I  I92  1  0.49390203  0.16740375  0.66967047  1
  I  I93  1  0.50080276  0.50078173  0.00001011  1
  I  I94  1  0.50065299  0.50144373  0.33586550  1
  I  I95  1  0.50064683  0.50184452  0.66363058  1
  I  I96  1  0.50067026  0.83226687  0.00009047  1
  I  I97  1  0.50132114  0.83202146  0.33574797  1
  I  I98  1  0.50633819  0.83023956  0.66234808  1
  I  I99  1  0.83309806  0.16082744  0.00412916  1
  I  I100  1  0.83302111  0.17284503  0.32810896  1
  I  I101  1  0.83184945  0.16716760  0.66699665  1
  I  I102  1  0.83685673  0.50127061  0.00177127  1
  I  I103  1  0.83698973  0.49771338  0.32971472  1
  I  I104  1  0.83668350  0.50046310  0.66924686  1
  I  I105  1  0.83865266  0.83682983  0.00405470  1
  I  I106  1  0.83307026  0.83216009  0.33144792  1
  I  I107  1  0.82769737  0.83200209  0.66411614  1
  I  I108  1  0.00046613  0.16553431  0.16354598  1
  I  I109  1  -0.00022453  0.16583270  0.50094198  1
  I  I110  1  0.00318022  0.16788646  0.83812800  1
  I  I111  1  -0.00007489  0.49630646  0.16433011  1
  I  I112  1  -0.00011099  0.50137267  0.50006666  1
  I  I113  1  0.00079583  0.49436036  0.83737722  1
  I  I114  1  -0.00067257  0.83765770  0.17259301  1
  I  I115  1  -0.00304997  0.83380093  0.49656335  1
  I  I116  1  -0.00002735  0.83894762  0.82674735  1
  I  I117  1  0.33248183  0.16639626  0.16390600  1
  I  I118  1  0.33341804  0.16416131  0.49441367  1
  I  I119  1  0.33237742  0.17240175  0.84174489  1
  I  I120  1  0.33015831  0.50022881  0.16379502  1
  I  I121  1  0.33659871  0.50623028  0.49894065  1
  I  I122  1  0.33024284  0.49775155  0.83759780  1
  I  I123  1  0.33061937  0.83380730  0.16803298  1
  I  I124  1  0.33598407  0.83035316  0.49895245  1
  I  I125  1  0.33325623  0.82827502  0.83314597  1
  I  I126  1  0.66694815  0.16645867  0.16372433  1
  I  I127  1  0.66670323  0.16897465  0.50024386  1
  I  I128  1  0.66470518  0.16784806  0.83720418  1
  I  I129  1  0.66971833  0.50027677  0.16409880  1
  I  I130  1  0.66402170  0.50119206  0.49955878  1
  I  I131  1  0.66906013  0.49938801  0.83746606  1
  I  I132  1  0.66967877  0.83359207  0.16962746  1
  I  I133  1  0.66706005  0.82984640  0.49238590  1
  I  I134  1  0.66675497  0.83304990  0.83817284  1
