# generated using pymatgen
data_Cs27Sn13Pb14I81
_symmetry_space_group_name_H-M   'P 1'
_cell_length_a   19.00203391
_cell_length_b   18.98954898
_cell_length_c   18.98421276
_cell_angle_alpha   89.99825389
_cell_angle_beta   90.00021848
_cell_angle_gamma   90.00124745
_symmetry_Int_Tables_number   1
_chemical_formula_structural   Cs27Sn13Pb14I81
_chemical_formula_sum   'Cs27 Sn13 Pb14 I81'
_cell_volume   6850.26434367
_cell_formula_units_Z   1
loop_
 _symmetry_equiv_pos_site_id
 _symmetry_equiv_pos_as_xyz
  1  'x, y, z'
loop_
 _atom_site_type_symbol
 _atom_site_label
 _atom_site_symmetry_multiplicity
 _atom_site_fract_x
 _atom_site_fract_y
 _atom_site_fract_z
 _atom_site_occupancy
  Cs  Cs0  1  0.00075246  -0.00000524  0.00043406  1
  Cs  Cs1  1  0.00181334  -0.00072999  0.33219056  1
  Cs  Cs2  1  0.00106506  0.00100651  0.66885565  1
  Cs  Cs3  1  0.00398157  0.33542077  0.00377637  1
  Cs  Cs4  1  -0.00244252  0.33321060  0.33149816  1
  Cs  Cs5  1  -0.00256133  0.33469055  0.66549639  1
  Cs  Cs6  1  0.00094651  0.66564382  -0.00081805  1
  Cs  Cs7  1  -0.00224793  0.66748827  0.33457607  1
  Cs  Cs8  1  -0.00153307  0.66642030  0.66558083  1
  Cs  Cs9  1  0.33092408  -0.00078148  0.00296200  1
  Cs  Cs10  1  0.33027199  0.00055628  0.33215121  1
  Cs  Cs11  1  0.32963258  0.00412983  0.66452089  1
  Cs  Cs12  1  0.33009417  0.33882435  -0.00315874  1
  Cs  Cs13  1  0.33409326  0.33064383  0.33394709  1
  Cs  Cs14  1  0.33744304  0.33403960  0.66876174  1
  Cs  Cs15  1  0.33942308  0.66140420  -0.00211537  1
  Cs  Cs16  1  0.33797440  0.66785244  0.33630197  1
  Cs  Cs17  1  0.33316978  0.66349994  0.66386438  1
  Cs  Cs18  1  0.66574377  -0.00255947  -0.00586389  1
  Cs  Cs19  1  0.66701036  -0.00079817  0.33182596  1
  Cs  Cs20  1  0.66807760  0.00642752  0.67615081  1
  Cs  Cs21  1  0.66369526  0.33444487  0.00053669  1
  Cs  Cs22  1  0.66872548  0.33362361  0.33360660  1
  Cs  Cs23  1  0.66730936  0.32634574  0.66708960  1
  Cs  Cs24  1  0.65724049  0.66938597  -0.00085736  1
  Cs  Cs25  1  0.66666732  0.66664991  0.33472365  1
  Cs  Cs26  1  0.66981959  0.66762999  0.66441525  1
  Sn  Sn27  1  0.50151445  0.83378751  0.50035467  1
  Sn  Sn28  1  0.83332168  0.50038874  0.83312956  1
  Sn  Sn29  1  0.16613385  0.83313841  0.16576165  1
  Sn  Sn30  1  0.83388456  0.83387210  0.16702307  1
  Sn  Sn31  1  0.16672444  0.83335722  0.83423572  1
  Sn  Sn32  1  0.83320765  0.50064104  0.50094327  1
  Sn  Sn33  1  0.50080336  0.50037773  0.49986150  1
  Sn  Sn34  1  0.49995397  0.16643408  0.16656748  1
  Sn  Sn35  1  0.83231082  0.83347445  0.49977594  1
  Sn  Sn36  1  0.16631875  0.49982681  0.49944719  1
  Sn  Sn37  1  0.83320594  0.16549806  0.16665434  1
  Sn  Sn38  1  0.16627239  0.16612736  0.83404303  1
  Sn  Sn39  1  0.16661022  0.16599394  0.16587376  1
  Pb  Pb40  1  0.83325830  0.50113422  0.16662767  1
  Pb  Pb41  1  0.49999972  0.49758301  0.16919288  1
  Pb  Pb42  1  0.16674373  0.50085505  0.16897665  1
  Pb  Pb43  1  0.83578033  0.16900901  0.83669946  1
  Pb  Pb44  1  0.83340905  0.16582350  0.49812170  1
  Pb  Pb45  1  0.16648503  0.16925992  0.49977869  1
  Pb  Pb46  1  0.49992981  0.83503913  0.16839901  1
  Pb  Pb47  1  0.49673666  0.83349649  0.82996273  1
  Pb  Pb48  1  0.49704176  0.16649331  0.83644177  1
  Pb  Pb49  1  0.16506493  0.50015102  0.83113520  1
  Pb  Pb50  1  0.83511423  0.83177343  0.83365766  1
  Pb  Pb51  1  0.50023632  0.16598148  0.49831760  1
  Pb  Pb52  1  0.16621855  0.83183798  0.49967913  1
  Pb  Pb53  1  0.50315510  0.50009816  0.83030781  1
  I  I54  1  0.16595307  0.00018128  0.16427840  1
  I  I55  1  0.16734712  -0.00007810  0.50042061  1
  I  I56  1  0.16539682  -0.00008551  0.83663372  1
  I  I57  1  0.16557142  0.33011850  0.16376797  1
  I  I58  1  0.16625221  0.33726464  0.49958663  1
  I  I59  1  0.16525380  0.33081327  0.83842459  1
  I  I60  1  0.15967454  0.67038854  0.16403996  1
  I  I61  1  0.16621904  0.66393665  0.50025776  1
  I  I62  1  0.16433113  0.66931999  0.83673652  1
  I  I63  1  0.49869087  0.00287282  0.17153976  1
  I  I64  1  0.50367206  -0.00327193  0.49732132  1
  I  I65  1  0.50441206  0.00002158  0.82875041  1
  I  I66  1  0.49983126  0.32938434  0.16918536  1
  I  I67  1  0.50015223  0.33635667  0.49787545  1
  I  I68  1  0.49733724  0.33333200  0.83142200  1
  I  I69  1  0.49995606  0.66696531  0.16601095  1
  I  I70  1  0.49977273  0.66628758  0.49804596  1
  I  I71  1  0.49609968  0.66670930  0.83817830  1
  I  I72  1  0.83548250  -0.00064874  0.17390239  1
  I  I73  1  0.82938817  -0.00372247  0.49648540  1
  I  I74  1  0.83287324  0.00004815  0.82967906  1
  I  I75  1  0.83511643  0.33073333  0.16721970  1
  I  I76  1  0.83291704  0.33641589  0.50208170  1
  I  I77  1  0.83561956  0.33652483  0.82551973  1
  I  I78  1  0.84018299  0.67025043  0.16935951  1
  I  I79  1  0.83338847  0.66656153  0.49709468  1
  I  I80  1  0.83816920  0.66407916  0.83195926  1
  I  I81  1  0.16609775  0.16311691  0.00144343  1
  I  I82  1  0.16684284  0.16295945  0.32964433  1
  I  I83  1  0.16654914  0.16216896  0.66949088  1
  I  I84  1  0.16368513  0.49916099  -0.00010974  1
  I  I85  1  0.16299182  0.49990100  0.33703610  1
  I  I86  1  0.16824412  0.50090970  0.66319307  1
  I  I87  1  0.15959370  0.83815591  0.00128479  1
  I  I88  1  0.16559274  0.83756565  0.33059535  1
  I  I89  1  0.16686035  0.83665655  0.66875146  1
  I  I90  1  0.50406146  0.16517536  0.00447221  1
  I  I91  1  0.49589919  0.16777912  0.33024685  1
  I  I92  1  0.49764331  0.16783425  0.66688427  1
  I  I93  1  0.50117582  0.49900329  -0.00025952  1
  I  I94  1  0.50321979  0.50405838  0.33744211  1
  I  I95  1  0.49535277  0.50341647  0.66211921  1
  I  I96  1  0.50296784  0.83463834  0.00001712  1
  I  I97  1  0.49880203  0.82884033  0.33634444  1
  I  I98  1  0.50531295  0.82799840  0.66188831  1
  I  I99  1  0.83132373  0.16152180  0.00461197  1
  I  I100  1  0.83752740  0.16881045  0.32974284  1
  I  I101  1  0.83500733  0.16524097  0.66707660  1
  I  I102  1  0.83739445  0.49787831  -0.00228799  1
  I  I103  1  0.83307934  0.50027279  0.33658366  1
  I  I104  1  0.83463744  0.50637456  0.66437727  1
  I  I105  1  0.83683447  0.83633457  0.00322428  1
  I  I106  1  0.83614758  0.83100012  0.33337417  1
  I  I107  1  0.83197155  0.82859534  0.66372753  1
  I  I108  1  0.00050505  0.16317291  0.16369859  1
  I  I109  1  0.00005131  0.16809132  0.49700604  1
  I  I110  1  0.00332901  0.16318230  0.83868056  1
  I  I111  1  -0.00007883  0.49452333  0.17065723  1
  I  I112  1  -0.00131985  0.50378176  0.50349475  1
  I  I113  1  -0.00237544  0.49989132  0.82530388  1
  I  I114  1  -0.00007976  0.84125023  0.17015130  1
  I  I115  1  -0.00268096  0.82785560  0.49809052  1
  I  I116  1  0.00295550  0.83647757  0.83192536  1
  I  I117  1  0.33186268  0.16268529  0.16478245  1
  I  I118  1  0.33319859  0.16697993  0.49675314  1
  I  I119  1  0.32909563  0.16421974  0.83775377  1
  I  I120  1  0.33321703  0.49967727  0.16929108  1
  I  I121  1  0.33377314  0.50457842  0.49762267  1
  I  I122  1  0.33331197  0.49890877  0.83140874  1
  I  I123  1  0.33032379  0.83832523  0.16604818  1
  I  I124  1  0.33506827  0.82786904  0.49989691  1
  I  I125  1  0.32873494  0.83653805  0.83930461  1
  I  I126  1  0.66749040  0.16441786  0.17136419  1
  I  I127  1  0.66686039  0.17201542  0.49646252  1
  I  I128  1  0.66687140  0.16886605  0.83392769  1
  I  I129  1  0.66687197  0.49837060  0.16797603  1
  I  I130  1  0.66741163  0.50510649  0.50274102  1
  I  I131  1  0.67081674  0.50049637  0.82922222  1
  I  I132  1  0.66966119  0.83679683  0.17032041  1
  I  I133  1  0.66800821  0.82302407  0.49186390  1
  I  I134  1  0.66671372  0.83085351  0.83613850  1
