# generated using pymatgen
data_Cs27Sn14Pb13I81
_symmetry_space_group_name_H-M   'P 1'
_cell_length_a   18.97829636
_cell_length_b   18.97130273
_cell_length_c   18.97847122
_cell_angle_alpha   90.00063461
_cell_angle_beta   89.99883452
_cell_angle_gamma   90.00114690
_symmetry_Int_Tables_number   1
_chemical_formula_structural   Cs27Sn14Pb13I81
_chemical_formula_sum   'Cs27 Sn14 Pb13 I81'
_cell_volume   6833.06581293
_cell_formula_units_Z   1
loop_
 _symmetry_equiv_pos_site_id
 _symmetry_equiv_pos_as_xyz
  1  'x, y, z'
loop_
 _atom_site_type_symbol
 _atom_site_label
 _atom_site_symmetry_multiplicity
 _atom_site_fract_x
 _atom_site_fract_y
 _atom_site_fract_z
 _atom_site_occupancy
  Cs  Cs0  1  0.00290745  0.00617693  -0.00019633  1
  Cs  Cs1  1  0.00412851  -0.00285269  0.33558233  1
  Cs  Cs2  1  -0.00188748  0.00100826  0.66505987  1
  Cs  Cs3  1  -0.00092504  0.32932855  0.00050038  1
  Cs  Cs4  1  -0.00252885  0.33464180  0.33675249  1
  Cs  Cs5  1  0.00047452  0.33382188  0.66593042  1
  Cs  Cs6  1  -0.00055365  0.66527829  -0.00208306  1
  Cs  Cs7  1  -0.00006958  0.66774981  0.33291046  1
  Cs  Cs8  1  -0.00070490  0.66545411  0.66801836  1
  Cs  Cs9  1  0.33316497  0.00962801  0.00100854  1
  Cs  Cs10  1  0.33072282  -0.00181359  0.33122830  1
  Cs  Cs11  1  0.34407978  -0.00271454  0.66805707  1
  Cs  Cs12  1  0.33193337  0.33271878  -0.00044792  1
  Cs  Cs13  1  0.33718589  0.33388278  0.33472482  1
  Cs  Cs14  1  0.33148332  0.33502195  0.66543454  1
  Cs  Cs15  1  0.33393282  0.66547915  -0.00034885  1
  Cs  Cs16  1  0.33257121  0.66843854  0.33277463  1
  Cs  Cs17  1  0.33459484  0.66648402  0.66776163  1
  Cs  Cs18  1  0.66425360  0.00346016  -0.00192344  1
  Cs  Cs19  1  0.66544511  0.00180589  0.33225744  1
  Cs  Cs20  1  0.66216312  -0.00091339  0.66969709  1
  Cs  Cs21  1  0.66921041  0.32913753  0.00422131  1
  Cs  Cs22  1  0.66553139  0.33124896  0.33254569  1
  Cs  Cs23  1  0.66650320  0.33348916  0.66346780  1
  Cs  Cs24  1  0.66641990  0.66663920  0.00088158  1
  Cs  Cs25  1  0.66793107  0.66538960  0.33012644  1
  Cs  Cs26  1  0.66719031  0.66685461  0.66812324  1
  Sn  Sn27  1  0.83334029  0.83319946  0.50020908  1
  Sn  Sn28  1  0.83402418  0.50026630  0.50064666  1
  Sn  Sn29  1  0.83439955  0.83270596  0.83374651  1
  Sn  Sn30  1  0.83316098  0.50049387  0.83282083  1
  Sn  Sn31  1  0.83292430  0.83313089  0.16606305  1
  Sn  Sn32  1  0.50042097  0.83247982  0.16628169  1
  Sn  Sn33  1  0.16634561  0.16703427  0.50059465  1
  Sn  Sn34  1  0.16581265  0.49970489  0.49983287  1
  Sn  Sn35  1  0.16708908  0.50035823  0.16671000  1
  Sn  Sn36  1  0.50043862  0.50030282  0.83429858  1
  Sn  Sn37  1  0.83411034  0.16662009  0.50022705  1
  Sn  Sn38  1  0.16603131  0.83292154  0.83335950  1
  Sn  Sn39  1  0.49928013  0.50096038  0.16569605  1
  Sn  Sn40  1  0.16636853  0.50073232  0.83355851  1
  Pb  Pb41  1  0.16645598  0.17008900  0.16969772  1
  Pb  Pb42  1  0.49957998  0.16664245  0.50001970  1
  Pb  Pb43  1  0.16662006  0.16673366  0.83048291  1
  Pb  Pb44  1  0.83346669  0.50128855  0.16648033  1
  Pb  Pb45  1  0.83338272  0.16666368  0.83105220  1
  Pb  Pb46  1  0.50001549  0.17060094  0.83326912  1
  Pb  Pb47  1  0.50010337  0.83146509  0.83573750  1
  Pb  Pb48  1  0.49989932  0.16702049  0.16673803  1
  Pb  Pb49  1  0.16646637  0.83144033  0.16389166  1
  Pb  Pb50  1  0.50004852  0.50027040  0.49973044  1
  Pb  Pb51  1  0.50294837  0.83296123  0.49719092  1
  Pb  Pb52  1  0.16504094  0.83286445  0.50256096  1
  Pb  Pb53  1  0.83364218  0.16288038  0.16953510  1
  I  I54  1  0.16743031  -0.00019833  0.16676048  1
  I  I55  1  0.16078514  0.00202853  0.50099761  1
  I  I56  1  0.16028533  -0.00304243  0.83289006  1
  I  I57  1  0.17206018  0.33861335  0.16070685  1
  I  I58  1  0.15841785  0.33549703  0.50128372  1
  I  I59  1  0.16635853  0.33738203  0.83506852  1
  I  I60  1  0.16779026  0.66310895  0.17220256  1
  I  I61  1  0.16263906  0.66314952  0.49854072  1
  I  I62  1  0.16528071  0.66464083  0.83078765  1
  I  I63  1  0.50596356  -0.00317297  0.16786841  1
  I  I64  1  0.49915448  -0.00026284  0.49846127  1
  I  I65  1  0.49977539  -0.00035877  0.83417909  1
  I  I66  1  0.49571187  0.33721699  0.16315002  1
  I  I67  1  0.50535771  0.33379524  0.49818031  1
  I  I68  1  0.49955013  0.33918160  0.83921541  1
  I  I69  1  0.50086260  0.66549307  0.16351399  1
  I  I70  1  0.49925657  0.66641934  0.50121522  1
  I  I71  1  0.50000244  0.66314344  0.83484055  1
  I  I72  1  0.82676774  -0.00545591  0.16491274  1
  I  I73  1  0.83784043  -0.00051922  0.49863219  1
  I  I74  1  0.83786687  -0.00365930  0.83289595  1
  I  I75  1  0.83251279  0.33340881  0.16672032  1
  I  I76  1  0.83732866  0.33481417  0.50481193  1
  I  I77  1  0.83417019  0.33716916  0.82934722  1
  I  I78  1  0.83232120  0.66928473  0.17168851  1
  I  I79  1  0.83699958  0.66610515  0.50080646  1
  I  I80  1  0.83403744  0.66600367  0.82816532  1
  I  I81  1  0.16818419  0.16681714  -0.00014124  1
  I  I82  1  0.16137028  0.17055799  0.33765619  1
  I  I83  1  0.16020590  0.17435609  0.66285700  1
  I  I84  1  0.16729281  0.50597761  -0.00089265  1
  I  I85  1  0.16634802  0.49578069  0.33396459  1
  I  I86  1  0.16611562  0.49924230  0.66692718  1
  I  I87  1  0.16049420  0.82557181  -0.00377433  1
  I  I88  1  0.16596002  0.83263456  0.33331618  1
  I  I89  1  0.16100362  0.82695158  0.67031436  1
  I  I90  1  0.50034555  0.16442516  0.00008647  1
  I  I91  1  0.50123440  0.16980604  0.33335195  1
  I  I92  1  0.50041949  0.16667922  0.66657907  1
  I  I93  1  0.49680562  0.50478253  -0.00005929  1
  I  I94  1  0.49714176  0.50306988  0.33024239  1
  I  I95  1  0.49813192  0.49984023  0.66952424  1
  I  I96  1  0.50678998  0.82893296  0.00326921  1
  I  I97  1  0.50420348  0.82600636  0.32920210  1
  I  I98  1  0.50019905  0.83291803  0.66714651  1
  I  I99  1  0.83179097  0.16774888  0.00000733  1
  I  I100  1  0.83673934  0.17032221  0.33777355  1
  I  I101  1  0.83809578  0.16404583  0.66293091  1
  I  I102  1  0.83542782  0.50569844  -0.00292775  1
  I  I103  1  0.83627204  0.50104784  0.33610328  1
  I  I104  1  0.83559719  0.50375146  0.66657851  1
  I  I105  1  0.83288456  0.82520265  -0.00100360  1
  I  I106  1  0.82848939  0.83254099  0.33383690  1
  I  I107  1  0.83890614  0.83196867  0.66692051  1
  I  I108  1  0.00001202  0.16704938  0.16429153  1
  I  I109  1  -0.00082811  0.16885050  0.49999871  1
  I  I110  1  -0.00001353  0.17044636  0.83545096  1
  I  I111  1  0.00246662  0.50191351  0.16562640  1
  I  I112  1  -0.00045966  0.49946945  0.50216163  1
  I  I113  1  -0.00004675  0.50439710  0.83205669  1
  I  I114  1  -0.00291132  0.83109721  0.16974493  1
  I  I115  1  -0.00357729  0.83273604  0.49459458  1
  I  I116  1  -0.00138466  0.82428880  0.83431076  1
  I  I117  1  0.33311889  0.16128854  0.17008663  1
  I  I118  1  0.32978640  0.17482521  0.50023576  1
  I  I119  1  0.33312542  0.16456405  0.82992780  1
  I  I120  1  0.33329880  0.50549451  0.16437255  1
  I  I121  1  0.33001198  0.49447055  0.50225765  1
  I  I122  1  0.33225473  0.50372979  0.83299613  1
  I  I123  1  0.33558843  0.82970904  0.16566257  1
  I  I124  1  0.33314937  0.83407909  0.50021645  1
  I  I125  1  0.33084657  0.82790601  0.83321316  1
  I  I126  1  0.66690072  0.17225580  0.17032423  1
  I  I127  1  0.67029130  0.16807334  0.49986251  1
  I  I128  1  0.66689999  0.16576006  0.82972908  1
  I  I129  1  0.66448486  0.50268326  0.16415123  1
  I  I130  1  0.67028710  0.49992236  0.50292526  1
  I  I131  1  0.66783489  0.50460974  0.83213613  1
  I  I132  1  0.66746821  0.82584975  0.16684298  1
  I  I133  1  0.67185911  0.83228843  0.50629685  1
  I  I134  1  0.66998509  0.82910388  0.83039777  1
