# generated using pymatgen
data_Cs27Sn13Pb14I81
_symmetry_space_group_name_H-M   'P 1'
_cell_length_a   18.97294286
_cell_length_b   18.98341104
_cell_length_c   18.97379419
_cell_angle_alpha   89.99920592
_cell_angle_beta   90.00126844
_cell_angle_gamma   89.99976526
_symmetry_Int_Tables_number   1
_chemical_formula_structural   Cs27Sn13Pb14I81
_chemical_formula_sum   'Cs27 Sn13 Pb14 I81'
_cell_volume   6833.81370151
_cell_formula_units_Z   1
loop_
 _symmetry_equiv_pos_site_id
 _symmetry_equiv_pos_as_xyz
  1  'x, y, z'
loop_
 _atom_site_type_symbol
 _atom_site_label
 _atom_site_symmetry_multiplicity
 _atom_site_fract_x
 _atom_site_fract_y
 _atom_site_fract_z
 _atom_site_occupancy
  Cs  Cs0  1  0.00029693  -0.00076535  0.00004208  1
  Cs  Cs1  1  -0.00181023  -0.00244776  0.33154380  1
  Cs  Cs2  1  0.00167191  0.00148069  0.66695671  1
  Cs  Cs3  1  -0.00040213  0.33432549  0.00217952  1
  Cs  Cs4  1  -0.00112588  0.33563719  0.33610933  1
  Cs  Cs5  1  0.00142758  0.33221358  0.66510213  1
  Cs  Cs6  1  -0.00401567  0.66574754  0.00743647  1
  Cs  Cs7  1  0.00086763  0.66602643  0.32771440  1
  Cs  Cs8  1  -0.00072965  0.66642084  0.66680098  1
  Cs  Cs9  1  0.33359849  -0.00117464  -0.00166666  1
  Cs  Cs10  1  0.33567808  0.00359327  0.33540848  1
  Cs  Cs11  1  0.33037157  0.00021119  0.66860622  1
  Cs  Cs12  1  0.33311512  0.33306779  -0.00172202  1
  Cs  Cs13  1  0.33545293  0.32974448  0.33536617  1
  Cs  Cs14  1  0.33226475  0.33410710  0.66542188  1
  Cs  Cs15  1  0.33293086  0.66848524  0.00259950  1
  Cs  Cs16  1  0.33310411  0.66669606  0.32987421  1
  Cs  Cs17  1  0.33401183  0.66563992  0.66680030  1
  Cs  Cs18  1  0.66500232  0.00234256  0.00185320  1
  Cs  Cs19  1  0.66549216  -0.00046019  0.33233344  1
  Cs  Cs20  1  0.66939419  -0.00437771  0.66647907  1
  Cs  Cs21  1  0.66843084  0.33403197  0.00199437  1
  Cs  Cs22  1  0.66552539  0.32917412  0.33064117  1
  Cs  Cs23  1  0.66843266  0.33845648  0.66765740  1
  Cs  Cs24  1  0.66910277  0.66354547  -0.00279974  1
  Cs  Cs25  1  0.66363175  0.67166152  0.33858382  1
  Cs  Cs26  1  0.66834238  0.66533182  0.66521013  1
  Sn  Sn27  1  0.16658379  0.50046701  0.83315636  1
  Sn  Sn28  1  0.49936047  0.83376154  0.83401084  1
  Sn  Sn29  1  0.83338206  0.16664057  0.83245921  1
  Sn  Sn30  1  0.49969208  0.83251285  0.16552937  1
  Sn  Sn31  1  0.16698513  0.83271452  0.83291653  1
  Sn  Sn32  1  0.16669921  0.16679503  0.83425903  1
  Sn  Sn33  1  0.50012182  0.16627646  0.83297749  1
  Sn  Sn34  1  0.16654407  0.16675658  0.16598157  1
  Sn  Sn35  1  0.16608509  0.50111165  0.50070750  1
  Sn  Sn36  1  0.49985877  0.50070858  0.16650184  1
  Sn  Sn37  1  0.83405966  0.49935284  0.49996089  1
  Sn  Sn38  1  0.16678756  0.83226251  0.50063211  1
  Sn  Sn39  1  0.83335625  0.16723828  0.50089962  1
  Pb  Pb40  1  0.83579397  0.16668026  0.16654695  1
  Pb  Pb41  1  0.83621296  0.49776905  0.83168352  1
  Pb  Pb42  1  0.49726359  0.83342271  0.50095236  1
  Pb  Pb43  1  0.16523807  0.16672210  0.50035319  1
  Pb  Pb44  1  0.83355448  0.83534516  0.83350101  1
  Pb  Pb45  1  0.49797658  0.50039900  0.83473762  1
  Pb  Pb46  1  0.49811759  0.16634100  0.16441278  1
  Pb  Pb47  1  0.49959294  0.49992571  0.49782067  1
  Pb  Pb48  1  0.16831696  0.83539383  0.16639342  1
  Pb  Pb49  1  0.83627398  0.83322595  0.50019220  1
  Pb  Pb50  1  0.50325142  0.16660279  0.50355456  1
  Pb  Pb51  1  0.16817123  0.49803234  0.16702730  1
  Pb  Pb52  1  0.83036815  0.50000552  0.16995348  1
  Pb  Pb53  1  0.82973309  0.83333155  0.16645335  1
  I  I54  1  0.16873863  0.00306723  0.16276620  1
  I  I55  1  0.16631000  -0.00199441  0.50324999  1
  I  I56  1  0.16762848  0.00028602  0.83264612  1
  I  I57  1  0.16987292  0.33038259  0.16166807  1
  I  I58  1  0.16467743  0.33581335  0.50284876  1
  I  I59  1  0.16714047  0.33256696  0.83298398  1
  I  I60  1  0.16687612  0.66676634  0.16493192  1
  I  I61  1  0.16222722  0.66596028  0.50772731  1
  I  I62  1  0.17316378  0.66720402  0.82732694  1
  I  I63  1  0.49797337  -0.00252832  0.16407230  1
  I  I64  1  0.49944846  0.00002170  0.49416446  1
  I  I65  1  0.49487661  -0.00007517  0.83879523  1
  I  I66  1  0.49805977  0.33500676  0.16641229  1
  I  I67  1  0.49451750  0.33323355  0.49846618  1
  I  I68  1  0.49832631  0.33064930  0.83495580  1
  I  I69  1  0.49741320  0.66757588  0.16138917  1
  I  I70  1  0.50480513  0.66668749  0.50378176  1
  I  I71  1  0.49407848  0.66967451  0.83563904  1
  I  I72  1  0.83230088  0.00038892  0.16989317  1
  I  I73  1  0.83479365  0.00286916  0.50442577  1
  I  I74  1  0.83782786  0.00394866  0.82688304  1
  I  I75  1  0.83016050  0.33324929  0.16472577  1
  I  I76  1  0.84036924  0.33328912  0.50441257  1
  I  I77  1  0.83245965  0.32942425  0.83141313  1
  I  I78  1  0.83796324  0.66643016  0.16802484  1
  I  I79  1  0.83503202  0.66362708  0.49910149  1
  I  I80  1  0.83226897  0.66638608  0.83129865  1
  I  I81  1  0.16526427  0.16665259  -0.00283059  1
  I  I82  1  0.16587504  0.16671687  0.33162879  1
  I  I83  1  0.16809931  0.16623754  0.66998422  1
  I  I84  1  0.16968262  0.50075620  -0.00287815  1
  I  I85  1  0.16391525  0.50271040  0.33648737  1
  I  I86  1  0.16476084  0.49794343  0.66702994  1
  I  I87  1  0.16940189  0.83265941  -0.00342103  1
  I  I88  1  0.16710058  0.83063773  0.33577623  1
  I  I89  1  0.17188555  0.83550138  0.66825673  1
  I  I90  1  0.50292281  0.16546362  -0.00377347  1
  I  I91  1  0.49870999  0.16623805  0.33317236  1
  I  I92  1  0.49234554  0.16152398  0.67164782  1
  I  I93  1  0.49659245  0.50058953  0.00245949  1
  I  I94  1  0.49775985  0.50582343  0.32994845  1
  I  I95  1  0.50103764  0.49975285  0.66677561  1
  I  I96  1  0.49285260  0.83427280  -0.00139189  1
  I  I97  1  0.49892311  0.82896572  0.33081360  1
  I  I98  1  0.49757687  0.83871371  0.67040887  1
  I  I99  1  0.83220309  0.16543460  -0.00349811  1
  I  I100  1  0.83647623  0.17081718  0.33631337  1
  I  I101  1  0.83615817  0.16989557  0.66762550  1
  I  I102  1  0.83424886  0.49857704  0.00000366  1
  I  I103  1  0.84208975  0.49221118  0.33776024  1
  I  I104  1  0.83396483  0.49779819  0.66359616  1
  I  I105  1  0.83932619  0.83537904  -0.00030809  1
  I  I106  1  0.83397929  0.83670617  0.33364043  1
  I  I107  1  0.82796623  0.83239588  0.66677586  1
  I  I108  1  0.00370636  0.16695441  0.16035917  1
  I  I109  1  -0.00244719  0.16771121  0.50595414  1
  I  I110  1  0.00117870  0.16656884  0.83257358  1
  I  I111  1  0.00016974  0.49793297  0.16502618  1
  I  I112  1  0.00130627  0.49869236  0.50449765  1
  I  I113  1  0.00467978  0.50026105  0.83222370  1
  I  I114  1  0.00047640  0.83523481  0.16689926  1
  I  I115  1  0.00430342  0.83361893  0.50716133  1
  I  I116  1  0.00376957  0.83534756  0.82790615  1
  I  I117  1  0.33029457  0.16680942  0.16178013  1
  I  I118  1  0.33311422  0.16726665  0.49951226  1
  I  I119  1  0.33223412  0.16556644  0.83843486  1
  I  I120  1  0.33578000  0.50312937  0.16779667  1
  I  I121  1  0.32975060  0.50332236  0.50323155  1
  I  I122  1  0.32961955  0.49470879  0.82759443  1
  I  I123  1  0.33612054  0.83039752  0.16457880  1
  I  I124  1  0.32920453  0.82816354  0.50202071  1
  I  I125  1  0.33240843  0.83885357  0.83308936  1
  I  I126  1  0.66646602  0.16642369  0.16631997  1
  I  I127  1  0.67129452  0.17305798  0.50334609  1
  I  I128  1  0.66636596  0.16147009  0.82887704  1
  I  I129  1  0.66264698  0.50248186  0.16557523  1
  I  I130  1  0.66956912  0.49474026  0.49820391  1
  I  I131  1  0.66675201  0.49944682  0.83272711  1
  I  I132  1  0.66142149  0.83127933  0.16093394  1
  I  I133  1  0.66665342  0.83316061  0.49921862  1
  I  I134  1  0.66328852  0.83860421  0.83804972  1
