# generated using pymatgen
data_Cs27Sn14Pb13I81
_symmetry_space_group_name_H-M   'P 1'
_cell_length_a   18.95223999
_cell_length_b   18.97134104
_cell_length_c   18.96350448
_cell_angle_alpha   90.00000001
_cell_angle_beta   90.00000000
_cell_angle_gamma   90.00009277
_symmetry_Int_Tables_number   1
_chemical_formula_structural   Cs27Sn14Pb13I81
_chemical_formula_sum   'Cs27 Sn14 Pb13 I81'
_cell_volume   6818.31681618
_cell_formula_units_Z   1
loop_
 _symmetry_equiv_pos_site_id
 _symmetry_equiv_pos_as_xyz
  1  'x, y, z'
loop_
 _atom_site_type_symbol
 _atom_site_label
 _atom_site_symmetry_multiplicity
 _atom_site_fract_x
 _atom_site_fract_y
 _atom_site_fract_z
 _atom_site_occupancy
  Cs  Cs0  1  0.00008257  -0.00024588  -0.00000003  1
  Cs  Cs1  1  0.00064064  -0.00240469  0.33429921  1
  Cs  Cs2  1  0.00064059  -0.00240463  0.66570083  1
  Cs  Cs3  1  -0.00155019  0.33170250  0.00000001  1
  Cs  Cs4  1  -0.00073700  0.33416767  0.33146935  1
  Cs  Cs5  1  -0.00073699  0.33416768  0.66853069  1
  Cs  Cs6  1  0.00089947  0.66759402  -0.00000002  1
  Cs  Cs7  1  -0.00003489  0.66825652  0.33393618  1
  Cs  Cs8  1  -0.00003493  0.66825645  0.66606383  1
  Cs  Cs9  1  0.33559585  -0.00199524  0.00000000  1
  Cs  Cs10  1  0.33362836  0.00398030  0.33545583  1
  Cs  Cs11  1  0.33362836  0.00398028  0.66454425  1
  Cs  Cs12  1  0.33172022  0.33442566  -0.00000000  1
  Cs  Cs13  1  0.33380551  0.33145767  0.33482996  1
  Cs  Cs14  1  0.33380549  0.33145764  0.66517013  1
  Cs  Cs15  1  0.33539333  0.66771477  -0.00000001  1
  Cs  Cs16  1  0.33313639  0.66612741  0.33370146  1
  Cs  Cs17  1  0.33313636  0.66612744  0.66629860  1
  Cs  Cs18  1  0.65964557  0.00401371  0.00000006  1
  Cs  Cs19  1  0.66637378  0.00048924  0.33241501  1
  Cs  Cs20  1  0.66637370  0.00048928  0.66758498  1
  Cs  Cs21  1  0.66671855  0.33219237  -0.00000001  1
  Cs  Cs22  1  0.66670116  0.33156826  0.32878892  1
  Cs  Cs23  1  0.66670102  0.33156823  0.67121103  1
  Cs  Cs24  1  0.65747815  0.66236406  0.00000002  1
  Cs  Cs25  1  0.66682635  0.66668462  0.33545291  1
  Cs  Cs26  1  0.66682619  0.66668456  0.66454715  1
  Sn  Sn27  1  0.83247722  0.83336967  0.49999999  1
  Sn  Sn28  1  0.83351697  0.83295910  0.83413208  1
  Sn  Sn29  1  0.16625013  0.50024624  0.16659375  1
  Sn  Sn30  1  0.50078162  0.83287798  0.50000000  1
  Sn  Sn31  1  0.83351696  0.83295911  0.16586790  1
  Sn  Sn32  1  0.83369005  0.16670017  0.49999998  1
  Sn  Sn33  1  0.16594759  0.83347159  0.16600825  1
  Sn  Sn34  1  0.50021930  0.50069948  0.49999998  1
  Sn  Sn35  1  0.16659135  0.50016271  0.50000000  1
  Sn  Sn36  1  0.16594759  0.83347159  0.83399176  1
  Sn  Sn37  1  0.16625010  0.50024621  0.83340624  1
  Sn  Sn38  1  0.83304741  0.49958920  0.50000000  1
  Sn  Sn39  1  0.16616192  0.16621868  0.83414043  1
  Sn  Sn40  1  0.16616195  0.16621868  0.16585961  1
  Pb  Pb41  1  0.49743024  0.16671068  0.16660281  1
  Pb  Pb42  1  0.50317253  0.16713762  0.50000000  1
  Pb  Pb43  1  0.49770016  0.50001908  0.16893308  1
  Pb  Pb44  1  0.83539827  0.16425095  0.16821095  1
  Pb  Pb45  1  0.83507911  0.50222254  0.16820626  1
  Pb  Pb46  1  0.49975823  0.83331821  0.16917204  1
  Pb  Pb47  1  0.49743017  0.16671069  0.83339720  1
  Pb  Pb48  1  0.83539826  0.16425098  0.83178904  1
  Pb  Pb49  1  0.16670262  0.83181647  0.49999998  1
  Pb  Pb50  1  0.83507912  0.50222253  0.83179374  1
  Pb  Pb51  1  0.16466657  0.16952707  0.49999999  1
  Pb  Pb52  1  0.49770015  0.50001910  0.83106693  1
  Pb  Pb53  1  0.49975825  0.83331820  0.83082795  1
  I  I54  1  0.16274808  -0.00092838  0.16098219  1
  I  I55  1  0.16683851  0.00006774  0.50000011  1
  I  I56  1  0.16274839  -0.00092837  0.83901769  1
  I  I57  1  0.16817070  0.33381229  0.16572799  1
  I  I58  1  0.16726641  0.33771766  0.49999973  1
  I  I59  1  0.16817030  0.33381230  0.83427227  1
  I  I60  1  0.16319568  0.66703059  0.16574094  1
  I  I61  1  0.16313221  0.66357619  0.50000009  1
  I  I62  1  0.16319584  0.66703058  0.83425899  1
  I  I63  1  0.49697756  -0.00035754  0.17077963  1
  I  I64  1  0.50346770  -0.00280697  0.49999976  1
  I  I65  1  0.49697713  -0.00035751  0.82922069  1
  I  I66  1  0.49773914  0.33349557  0.17129263  1
  I  I67  1  0.49740041  0.33676251  0.50000015  1
  I  I68  1  0.49773969  0.33349557  0.82870722  1
  I  I69  1  0.49643238  0.66680404  0.16654901  1
  I  I70  1  0.50373040  0.66646849  0.50000010  1
  I  I71  1  0.49643232  0.66680407  0.83345085  1
  I  I72  1  0.84071098  -0.00412294  0.17098846  1
  I  I73  1  0.83011938  -0.00185455  0.49999998  1
  I  I74  1  0.84071107  -0.00412293  0.82901157  1
  I  I75  1  0.83658840  0.33337105  0.17152100  1
  I  I76  1  0.83623656  0.33439142  0.50000004  1
  I  I77  1  0.83658847  0.33337104  0.82847899  1
  I  I78  1  0.84101402  0.67065853  0.17061319  1
  I  I79  1  0.83360033  0.66726413  0.49999993  1
  I  I80  1  0.84101394  0.67065855  0.82938690  1
  I  I81  1  0.16600043  0.17077406  -0.00000004  1
  I  I82  1  0.16505405  0.16563469  0.33076387  1
  I  I83  1  0.16505377  0.16563500  0.66923615  1
  I  I84  1  0.16634628  0.50028031  0.00000001  1
  I  I85  1  0.16645396  0.50090567  0.33367086  1
  I  I86  1  0.16645414  0.50090537  0.66632914  1
  I  I87  1  0.15950121  0.82956969  -0.00000000  1
  I  I88  1  0.16401228  0.83296566  0.33084455  1
  I  I89  1  0.16401216  0.83296554  0.66915545  1
  I  I90  1  0.50264768  0.16554973  0.00000000  1
  I  I91  1  0.49573368  0.16584907  0.33378821  1
  I  I92  1  0.49573424  0.16584867  0.66621180  1
  I  I93  1  0.49777347  0.50028096  -0.00000001  1
  I  I94  1  0.49730988  0.50495498  0.33772227  1
  I  I95  1  0.49730979  0.50495501  0.66227776  1
  I  I96  1  0.50170080  0.83410282  -0.00000004  1
  I  I97  1  0.50306132  0.82881969  0.33730167  1
  I  I98  1  0.50306101  0.82881997  0.66269835  1
  I  I99  1  0.83367311  0.16544301  0.00000000  1
  I  I100  1  0.83681603  0.16472960  0.33659663  1
  I  I101  1  0.83681599  0.16472958  0.66340333  1
  I  I102  1  0.83628274  0.50129647  0.00000002  1
  I  I103  1  0.83702757  0.50315660  0.33748876  1
  I  I104  1  0.83702741  0.50315671  0.66251124  1
  I  I105  1  0.84279509  0.83367165  0.00000000  1
  I  I106  1  0.83506125  0.83286516  0.33425557  1
  I  I107  1  0.83506163  0.83286514  0.66574445  1
  I  I108  1  0.00408657  0.16884910  0.16421945  1
  I  I109  1  -0.00294353  0.16358056  0.49999994  1
  I  I110  1  0.00408655  0.16884885  0.83578054  1
  I  I111  1  0.00426234  0.49911091  0.17015665  1
  I  I112  1  0.00022117  0.50134146  0.50000014  1
  I  I113  1  0.00426234  0.49911115  0.82984317  1
  I  I114  1  0.00115910  0.83289167  0.16984093  1
  I  I115  1  -0.00283355  0.83230181  0.49999986  1
  I  I116  1  0.00115914  0.83289166  0.83015923  1
  I  I117  1  0.32802099  0.16378029  0.16553366  1
  I  I118  1  0.33300700  0.16619967  0.50000026  1
  I  I119  1  0.32802098  0.16378088  0.83446593  1
  I  I120  1  0.32824310  0.50311127  0.16891271  1
  I  I121  1  0.33243967  0.50530898  0.49999994  1
  I  I122  1  0.32824311  0.50311097  0.83108736  1
  I  I123  1  0.32941599  0.83280089  0.16335232  1
  I  I124  1  0.33521399  0.82801826  0.49999995  1
  I  I125  1  0.32941603  0.83280074  0.83664767  1
  I  I126  1  0.66723790  0.16466357  0.16966649  1
  I  I127  1  0.67107231  0.16876081  0.49999985  1
  I  I128  1  0.66723790  0.16466330  0.83033362  1
  I  I129  1  0.66686889  0.50240498  0.16954665  1
  I  I130  1  0.66756060  0.50312964  0.49999997  1
  I  I131  1  0.66686886  0.50240516  0.83045336  1
  I  I132  1  0.66992512  0.83331912  0.16662239  1
  I  I133  1  0.66859795  0.82851665  0.50000020  1
  I  I134  1  0.66992513  0.83331929  0.83337735  1
