# generated using pymatgen
data_Cs27Sn14Pb13I81
_symmetry_space_group_name_H-M   'P 1'
_cell_length_a   18.98196436
_cell_length_b   18.96693307
_cell_length_c   18.97755172
_cell_angle_alpha   89.99973422
_cell_angle_beta   89.99957646
_cell_angle_gamma   90.00131716
_symmetry_Int_Tables_number   1
_chemical_formula_structural   Cs27Sn14Pb13I81
_chemical_formula_sum   'Cs27 Sn14 Pb13 I81'
_cell_volume   6832.48125372
_cell_formula_units_Z   1
loop_
 _symmetry_equiv_pos_site_id
 _symmetry_equiv_pos_as_xyz
  1  'x, y, z'
loop_
 _atom_site_type_symbol
 _atom_site_label
 _atom_site_symmetry_multiplicity
 _atom_site_fract_x
 _atom_site_fract_y
 _atom_site_fract_z
 _atom_site_occupancy
  Cs  Cs0  1  -0.00087408  0.00107988  0.00259821  1
  Cs  Cs1  1  -0.00193289  0.00039858  0.32896965  1
  Cs  Cs2  1  0.00202144  -0.00164320  0.66780525  1
  Cs  Cs3  1  0.00049968  0.33492374  -0.00082352  1
  Cs  Cs4  1  -0.00049284  0.33245459  0.34494597  1
  Cs  Cs5  1  0.00165539  0.33351018  0.65655739  1
  Cs  Cs6  1  0.00060826  0.66476804  0.00021601  1
  Cs  Cs7  1  0.00095179  0.66699691  0.32896579  1
  Cs  Cs8  1  -0.00239335  0.66765021  0.66937522  1
  Cs  Cs9  1  0.33364229  0.00080734  -0.00023177  1
  Cs  Cs10  1  0.33277373  -0.00032191  0.33244525  1
  Cs  Cs11  1  0.33296972  -0.00077904  0.66734265  1
  Cs  Cs12  1  0.33320858  0.33352282  0.00071524  1
  Cs  Cs13  1  0.33217558  0.33190027  0.33806499  1
  Cs  Cs14  1  0.33121481  0.33050206  0.65709793  1
  Cs  Cs15  1  0.33388690  0.66470587  -0.00029427  1
  Cs  Cs16  1  0.33487975  0.66628084  0.33032358  1
  Cs  Cs17  1  0.33368538  0.66921807  0.66940809  1
  Cs  Cs18  1  0.66781620  0.00323310  -0.00023727  1
  Cs  Cs19  1  0.66937711  -0.00080833  0.32925469  1
  Cs  Cs20  1  0.66570601  0.00033917  0.67014364  1
  Cs  Cs21  1  0.66600860  0.33487695  -0.00021577  1
  Cs  Cs22  1  0.66845012  0.33657662  0.33789622  1
  Cs  Cs23  1  0.66711632  0.32726666  0.66103054  1
  Cs  Cs24  1  0.66583642  0.66468141  -0.00165561  1
  Cs  Cs25  1  0.66533020  0.66559460  0.33326858  1
  Cs  Cs26  1  0.66777526  0.66790103  0.66801268  1
  Sn  Sn27  1  0.83316266  0.83290918  0.83314440  1
  Sn  Sn28  1  0.83280903  0.49986806  0.16586409  1
  Sn  Sn29  1  0.16655451  0.83324144  0.50042050  1
  Sn  Sn30  1  0.16666247  0.83404872  0.83323526  1
  Sn  Sn31  1  0.83332051  0.83305571  0.50059112  1
  Sn  Sn32  1  0.16716499  0.16704473  0.16567263  1
  Sn  Sn33  1  0.83223770  0.50020921  0.83390923  1
  Sn  Sn34  1  0.49941135  0.16704849  0.16627828  1
  Sn  Sn35  1  0.50015113  0.83321806  0.50025895  1
  Sn  Sn36  1  0.16667155  0.16634946  0.83423044  1
  Sn  Sn37  1  0.50015465  0.83295791  0.83367058  1
  Sn  Sn38  1  0.50002703  0.83340228  0.16604908  1
  Sn  Sn39  1  0.50067558  0.49957870  0.16583608  1
  Sn  Sn40  1  0.50069993  0.50002237  0.83344548  1
  Pb  Pb41  1  0.16882163  0.83477450  0.16602319  1
  Pb  Pb42  1  0.83097693  0.83141464  0.16583140  1
  Pb  Pb43  1  0.83308241  0.50272265  0.50074614  1
  Pb  Pb44  1  0.16676937  0.16361058  0.49991540  1
  Pb  Pb45  1  0.83305020  0.16289960  0.50021889  1
  Pb  Pb46  1  0.83321214  0.17020102  0.16639544  1
  Pb  Pb47  1  0.16686734  0.50389247  0.50014985  1
  Pb  Pb48  1  0.49820027  0.16737720  0.83487889  1
  Pb  Pb49  1  0.50020364  0.16343306  0.49685605  1
  Pb  Pb50  1  0.83598511  0.16731587  0.83341084  1
  Pb  Pb51  1  0.49993608  0.50234195  0.50065540  1
  Pb  Pb52  1  0.16692977  0.49987972  0.83323445  1
  Pb  Pb53  1  0.16692643  0.49690409  0.16669758  1
  I  I54  1  0.17251686  0.00266190  0.16585443  1
  I  I55  1  0.16769939  -0.00438850  0.50193875  1
  I  I56  1  0.16746214  -0.00205127  0.83289679  1
  I  I57  1  0.17283591  0.32914073  0.15834131  1
  I  I58  1  0.16617839  0.33290485  0.50057661  1
  I  I59  1  0.16720348  0.33053895  0.84013282  1
  I  I60  1  0.16770840  0.66664617  0.16763244  1
  I  I61  1  0.16746070  0.67217666  0.50679832  1
  I  I62  1  0.16707547  0.67014716  0.82845041  1
  I  I63  1  0.49484806  -0.00078370  0.16769343  1
  I  I64  1  0.49915657  -0.00521151  0.50226736  1
  I  I65  1  0.50195036  -0.00340847  0.83338535  1
  I  I66  1  0.49964130  0.33429172  0.15959379  1
  I  I67  1  0.49927070  0.33327815  0.50062544  1
  I  I68  1  0.50349066  0.33661563  0.84020094  1
  I  I69  1  0.50404714  0.66692012  0.16699068  1
  I  I70  1  0.49965177  0.67105923  0.49525946  1
  I  I71  1  0.49827528  0.66836105  0.83742133  1
  I  I72  1  0.83218111  -0.00011113  0.16796350  1
  I  I73  1  0.83311247  -0.00559245  0.50544706  1
  I  I74  1  0.83042437  -0.00351889  0.82857046  1
  I  I75  1  0.82755545  0.33795536  0.15871818  1
  I  I76  1  0.83457946  0.33367122  0.49981499  1
  I  I77  1  0.82899627  0.33703504  0.83986226  1
  I  I78  1  0.82798533  0.66363499  0.16586060  1
  I  I79  1  0.83269911  0.67088504  0.50181103  1
  I  I80  1  0.83462801  0.66803353  0.83305720  1
  I  I81  1  0.17045322  0.15947718  -0.00030255  1
  I  I82  1  0.17149934  0.16614364  0.33048824  1
  I  I83  1  0.16611915  0.16428755  0.66947933  1
  I  I84  1  0.16614131  0.50524738  -0.00004795  1
  I  I85  1  0.16637650  0.50004834  0.33307302  1
  I  I86  1  0.16694756  0.49362926  0.66709490  1
  I  I87  1  0.16656207  0.83526945  -0.00327512  1
  I  I88  1  0.16672609  0.83459482  0.33565029  1
  I  I89  1  0.17074521  0.83853526  0.66803732  1
  I  I90  1  0.49759473  0.16109002  0.00311891  1
  I  I91  1  0.49276046  0.16763536  0.32845018  1
  I  I92  1  0.49825169  0.16721756  0.66669192  1
  I  I93  1  0.50357919  0.50602438  0.00021369  1
  I  I94  1  0.50364541  0.50123094  0.33000577  1
  I  I95  1  0.50348739  0.50615247  0.67049479  1
  I  I96  1  0.49923689  0.83275189  -0.00063195  1
  I  I97  1  0.49931746  0.83379026  0.33295287  1
  I  I98  1  0.49941622  0.82849133  0.66778148  1
  I  I99  1  0.83315008  0.15987447  0.00001370  1
  I  I100  1  0.83584675  0.16613601  0.33301211  1
  I  I101  1  0.83505273  0.17201008  0.66698753  1
  I  I102  1  0.82937317  0.50660532  -0.00097032  1
  I  I103  1  0.82853631  0.50060253  0.33072407  1
  I  I104  1  0.82960992  0.50338786  0.67035179  1
  I  I105  1  0.83432970  0.83181412  -0.00340155  1
  I  I106  1  0.83361504  0.83240334  0.33549261  1
  I  I107  1  0.83025370  0.82819217  0.66803868  1
  I  I108  1  0.00283118  0.16524170  0.16295844  1
  I  I109  1  0.00027225  0.16565361  0.49719516  1
  I  I110  1  0.00397063  0.16072766  0.84011471  1
  I  I111  1  -0.00287767  0.50116732  0.16165024  1
  I  I112  1  -0.00030360  0.50136965  0.49901072  1
  I  I113  1  -0.00303705  0.50478368  0.83826200  1
  I  I114  1  -0.00011442  0.83357745  0.16804989  1
  I  I115  1  -0.00001733  0.83319915  0.50833125  1
  I  I116  1  -0.00016230  0.83310661  0.82616988  1
  I  I117  1  0.33426991  0.16668971  0.16229703  1
  I  I118  1  0.33340350  0.16469454  0.50161905  1
  I  I119  1  0.33031835  0.16085615  0.83590768  1
  I  I120  1  0.33708789  0.50339352  0.16191306  1
  I  I121  1  0.33368187  0.50216603  0.49957088  1
  I  I122  1  0.33671046  0.50564536  0.83957025  1
  I  I123  1  0.33728384  0.82877248  0.16689199  1
  I  I124  1  0.33372471  0.83365008  0.50293136  1
  I  I125  1  0.33405895  0.83315123  0.83096516  1
  I  I126  1  0.66335025  0.16270207  0.16680855  1
  I  I127  1  0.66638636  0.16468904  0.49852257  1
  I  I128  1  0.66653499  0.16296650  0.83517599  1
  I  I129  1  0.66511823  0.49958625  0.16251272  1
  I  I130  1  0.66653967  0.50277149  0.49825248  1
  I  I131  1  0.66618404  0.51059272  0.83932745  1
  I  I132  1  0.66254854  0.83821587  0.16775310  1
  I  I133  1  0.66627759  0.83272140  0.50236592  1
  I  I134  1  0.66613690  0.82901606  0.83058483  1
