# generated using pymatgen
data_Cs27Sn14Pb13I81
_symmetry_space_group_name_H-M   'P 1'
_cell_length_a   18.98168788
_cell_length_b   18.96795956
_cell_length_c   18.97812803
_cell_angle_alpha   89.99838316
_cell_angle_beta   89.99824515
_cell_angle_gamma   90.00100681
_symmetry_Int_Tables_number   1
_chemical_formula_structural   Cs27Sn14Pb13I81
_chemical_formula_sum   'Cs27 Sn14 Pb13 I81'
_cell_volume   6832.95899770
_cell_formula_units_Z   1
loop_
 _symmetry_equiv_pos_site_id
 _symmetry_equiv_pos_as_xyz
  1  'x, y, z'
loop_
 _atom_site_type_symbol
 _atom_site_label
 _atom_site_symmetry_multiplicity
 _atom_site_fract_x
 _atom_site_fract_y
 _atom_site_fract_z
 _atom_site_occupancy
  Cs  Cs0  1  0.00234663  0.00278259  -0.00196829  1
  Cs  Cs1  1  0.00161767  -0.00314015  0.33455455  1
  Cs  Cs2  1  0.00050503  0.00574978  0.66820899  1
  Cs  Cs3  1  0.00108584  0.33264830  0.00055377  1
  Cs  Cs4  1  0.00276120  0.33223397  0.33043680  1
  Cs  Cs5  1  -0.00315213  0.33333346  0.66830010  1
  Cs  Cs6  1  -0.00247615  0.66449357  -0.00067205  1
  Cs  Cs7  1  -0.00066398  0.66898131  0.33572931  1
  Cs  Cs8  1  -0.00021459  0.66566583  0.66451857  1
  Cs  Cs9  1  0.33435717  -0.00086145  -0.00535553  1
  Cs  Cs10  1  0.32812599  0.00203238  0.33735636  1
  Cs  Cs11  1  0.33019310  -0.00306087  0.66830479  1
  Cs  Cs12  1  0.33395922  0.33348863  0.00486601  1
  Cs  Cs13  1  0.33530757  0.33254509  0.32999383  1
  Cs  Cs14  1  0.33791020  0.33401630  0.66360781  1
  Cs  Cs15  1  0.33604361  0.66816778  -0.00028080  1
  Cs  Cs16  1  0.33235050  0.66428823  0.33343716  1
  Cs  Cs17  1  0.33099046  0.66901175  0.66738109  1
  Cs  Cs18  1  0.66434964  0.00051769  0.00394004  1
  Cs  Cs19  1  0.66720994  -0.00045014  0.33049973  1
  Cs  Cs20  1  0.66807915  0.00249046  0.66527214  1
  Cs  Cs21  1  0.66711021  0.33192068  -0.00141663  1
  Cs  Cs22  1  0.66307841  0.33204243  0.33410273  1
  Cs  Cs23  1  0.66646636  0.33191482  0.66727737  1
  Cs  Cs24  1  0.66752045  0.66951988  0.00102171  1
  Cs  Cs25  1  0.66668115  0.66809652  0.33227859  1
  Cs  Cs26  1  0.66879005  0.66488289  0.66642359  1
  Sn  Sn27  1  0.83292341  0.16740838  0.16685280  1
  Sn  Sn28  1  0.83333955  0.83296437  0.83248560  1
  Sn  Sn29  1  0.83319036  0.83275293  0.50120534  1
  Sn  Sn30  1  0.16591539  0.50037472  0.50071440  1
  Sn  Sn31  1  0.16665820  0.50008417  0.83268300  1
  Sn  Sn32  1  0.16665225  0.83290995  0.16662430  1
  Sn  Sn33  1  0.83334081  0.50056812  0.83325543  1
  Sn  Sn34  1  0.16633696  0.83226498  0.49941251  1
  Sn  Sn35  1  0.50008475  0.49957518  0.83342975  1
  Sn  Sn36  1  0.83390243  0.50042717  0.49967239  1
  Sn  Sn37  1  0.83308367  0.49917160  0.16703088  1
  Sn  Sn38  1  0.50028587  0.83309538  0.50001942  1
  Sn  Sn39  1  0.50020348  0.16730614  0.83392192  1
  Sn  Sn40  1  0.50054755  0.16649514  0.16610216  1
  Pb  Pb41  1  0.83171822  0.16680913  0.83530162  1
  Pb  Pb42  1  0.16460531  0.50188450  0.16693965  1
  Pb  Pb43  1  0.16640542  0.16767289  0.50029902  1
  Pb  Pb44  1  0.50009251  0.50185391  0.50193173  1
  Pb  Pb45  1  0.83473813  0.83330168  0.16670294  1
  Pb  Pb46  1  0.50256061  0.49855329  0.16431189  1
  Pb  Pb47  1  0.50007954  0.16413567  0.50017338  1
  Pb  Pb48  1  0.16407607  0.83125398  0.83272616  1
  Pb  Pb49  1  0.49732153  0.83572618  0.16900168  1
  Pb  Pb50  1  0.16671324  0.16415540  0.16657096  1
  Pb  Pb51  1  0.50250725  0.83315708  0.83144468  1
  Pb  Pb52  1  0.16965089  0.17032286  0.83318235  1
  Pb  Pb53  1  0.83344260  0.16707187  0.49740711  1
  I  I54  1  0.16368078  -0.00367106  0.17435045  1
  I  I55  1  0.16608262  -0.00357864  0.49512970  1
  I  I56  1  0.16638495  -0.00020816  0.83336314  1
  I  I57  1  0.16778307  0.33356954  0.16724693  1
  I  I58  1  0.16110974  0.33772846  0.50442335  1
  I  I59  1  0.15906550  0.33847952  0.82838949  1
  I  I60  1  0.16396565  0.66952595  0.16947453  1
  I  I61  1  0.16525725  0.66695647  0.49997072  1
  I  I62  1  0.17105522  0.66314620  0.83217840  1
  I  I63  1  0.50864460  0.00342712  0.15921125  1
  I  I64  1  0.50028352  -0.00403330  0.50157703  1
  I  I65  1  0.50276390  0.00224943  0.83646149  1
  I  I66  1  0.50044179  0.33038721  0.16654321  1
  I  I67  1  0.49960210  0.33354594  0.49885102  1
  I  I68  1  0.50231455  0.33434445  0.83599240  1
  I  I69  1  0.50101788  0.66682969  0.16535225  1
  I  I70  1  0.50040098  0.66982781  0.50206068  1
  I  I71  1  0.49923380  0.66374288  0.83087068  1
  I  I72  1  0.83042812  0.00209679  0.16636558  1
  I  I73  1  0.83420556  -0.00354754  0.50345200  1
  I  I74  1  0.83197078  -0.00258137  0.82961483  1
  I  I75  1  0.83065288  0.33442188  0.16586015  1
  I  I76  1  0.83777767  0.33724577  0.50363336  1
  I  I77  1  0.83479497  0.33691845  0.83068044  1
  I  I78  1  0.83590999  0.66395850  0.16581180  1
  I  I79  1  0.83410346  0.66642778  0.49902822  1
  I  I80  1  0.83087546  0.66486197  0.83508316  1
  I  I81  1  0.16424482  0.16497719  -0.00008784  1
  I  I82  1  0.16958581  0.17047351  0.33319107  1
  I  I83  1  0.16863958  0.16037401  0.66691813  1
  I  I84  1  0.16522203  0.50155044  -0.00261269  1
  I  I85  1  0.16144995  0.50295981  0.33642772  1
  I  I86  1  0.16221739  0.50616307  0.66622835  1
  I  I87  1  0.16379124  0.83266458  0.00162674  1
  I  I88  1  0.16409262  0.82880484  0.33544380  1
  I  I89  1  0.16891687  0.83094396  0.66342504  1
  I  I90  1  0.50477452  0.17045630  -0.00018109  1
  I  I91  1  0.50428899  0.16441444  0.33051496  1
  I  I92  1  0.50019704  0.17095045  0.66961440  1
  I  I93  1  0.49897953  0.49964244  -0.00405030  1
  I  I94  1  0.49977269  0.49881679  0.33335929  1
  I  I95  1  0.50475031  0.49394281  0.67007604  1
  I  I96  1  0.49980972  0.83207282  -0.00017952  1
  I  I97  1  0.50631448  0.83391456  0.33688671  1
  I  I98  1  0.49495272  0.83489581  0.66366291  1
  I  I99  1  0.83147144  0.16982532  0.00311353  1
  I  I100  1  0.82642553  0.17003407  0.32950338  1
  I  I101  1  0.83131702  0.16777653  0.66678028  1
  I  I102  1  0.83339545  0.50074778  -0.00111809  1
  I  I103  1  0.83858550  0.50108409  0.33439020  1
  I  I104  1  0.83395064  0.50532763  0.66687940  1
  I  I105  1  0.83485449  0.82914449  -0.00219295  1
  I  I106  1  0.83248977  0.83043554  0.33640926  1
  I  I107  1  0.83437456  0.82524704  0.66564263  1
  I  I108  1  -0.00282592  0.17019370  0.16732133  1
  I  I109  1  -0.00028516  0.16163049  0.49761321  1
  I  I110  1  -0.00015232  0.16610767  0.83510974  1
  I  I111  1  -0.00366496  0.49454127  0.16196767  1
  I  I112  1  -0.00084677  0.50840006  0.50465753  1
  I  I113  1  -0.00115090  0.50563958  0.83275993  1
  I  I114  1  0.00219470  0.83440558  0.17281970  1
  I  I115  1  -0.00032114  0.82846224  0.49856764  1
  I  I116  1  -0.00379191  0.82779621  0.82956992  1
  I  I117  1  0.33628551  0.16470332  0.16264316  1
  I  I118  1  0.33345195  0.16648037  0.49741517  1
  I  I119  1  0.33765557  0.16946033  0.84035223  1
  I  I120  1  0.33334560  0.49900893  0.16676485  1
  I  I121  1  0.33056704  0.50476260  0.50508156  1
  I  I122  1  0.33320990  0.49550950  0.82784535  1
  I  I123  1  0.32973395  0.83361273  0.17155344  1
  I  I124  1  0.33212115  0.83038896  0.49514163  1
  I  I125  1  0.33325487  0.83300168  0.83264479  1
  I  I126  1  0.66700340  0.16975302  0.16276274  1
  I  I127  1  0.66678064  0.16600170  0.50108455  1
  I  I128  1  0.66396170  0.17218589  0.83486903  1
  I  I129  1  0.67097015  0.50028591  0.16788935  1
  I  I130  1  0.66994448  0.50429886  0.50068263  1
  I  I131  1  0.66783484  0.49958758  0.83305816  1
  I  I132  1  0.66675505  0.83243320  0.16776940  1
  I  I133  1  0.66829208  0.82978241  0.50482701  1
  I  I134  1  0.67029627  0.82724575  0.82880584  1
