# generated using pymatgen
data_Cs27Sn13Pb14I81
_symmetry_space_group_name_H-M   'P 1'
_cell_length_a   18.97541852
_cell_length_b   18.97666832
_cell_length_c   18.97970602
_cell_angle_alpha   90.00208586
_cell_angle_beta   89.99864249
_cell_angle_gamma   90.00005541
_symmetry_Int_Tables_number   1
_chemical_formula_structural   Cs27Sn13Pb14I81
_chemical_formula_sum   'Cs27 Sn13 Pb14 I81'
_cell_volume   6834.40657619
_cell_formula_units_Z   1
loop_
 _symmetry_equiv_pos_site_id
 _symmetry_equiv_pos_as_xyz
  1  'x, y, z'
loop_
 _atom_site_type_symbol
 _atom_site_label
 _atom_site_symmetry_multiplicity
 _atom_site_fract_x
 _atom_site_fract_y
 _atom_site_fract_z
 _atom_site_occupancy
  Cs  Cs0  1  -0.00142627  -0.00012291  -0.00156384  1
  Cs  Cs1  1  0.00672407  -0.00345100  0.33825110  1
  Cs  Cs2  1  -0.00334653  0.00034213  0.66514232  1
  Cs  Cs3  1  0.00221391  0.33364477  0.00132244  1
  Cs  Cs4  1  0.00201601  0.33184187  0.33195724  1
  Cs  Cs5  1  -0.00741020  0.33450932  0.66633231  1
  Cs  Cs6  1  -0.00024057  0.66719268  -0.00040706  1
  Cs  Cs7  1  -0.00454772  0.67006497  0.33954549  1
  Cs  Cs8  1  -0.00085809  0.66642606  0.66076901  1
  Cs  Cs9  1  0.33399202  -0.00044905  -0.00067788  1
  Cs  Cs10  1  0.33260151  0.00109670  0.33437078  1
  Cs  Cs11  1  0.33438232  -0.00171052  0.66727997  1
  Cs  Cs12  1  0.33060229  0.33836854  0.00004464  1
  Cs  Cs13  1  0.32974596  0.33083094  0.33132390  1
  Cs  Cs14  1  0.33398238  0.33424575  0.66842182  1
  Cs  Cs15  1  0.33384333  0.66383951  -0.00169676  1
  Cs  Cs16  1  0.33460279  0.66683629  0.33351258  1
  Cs  Cs17  1  0.33313305  0.66670839  0.66794775  1
  Cs  Cs18  1  0.66748578  -0.00014586  0.00031794  1
  Cs  Cs19  1  0.66372572  0.00085959  0.32883822  1
  Cs  Cs20  1  0.66771882  0.00625119  0.67087723  1
  Cs  Cs21  1  0.66637599  0.33371979  0.00087415  1
  Cs  Cs22  1  0.66723608  0.33345676  0.33416645  1
  Cs  Cs23  1  0.67044038  0.33071841  0.66356881  1
  Cs  Cs24  1  0.66596177  0.66674231  0.00153824  1
  Cs  Cs25  1  0.66771569  0.66601002  0.33302495  1
  Cs  Cs26  1  0.66649090  0.66519487  0.66451207  1
  Sn  Sn27  1  0.16727280  0.83407732  0.83405531  1
  Sn  Sn28  1  0.50026007  0.16631637  0.16540645  1
  Sn  Sn29  1  0.49993906  0.83274282  0.50020300  1
  Sn  Sn30  1  0.49877306  0.50028864  0.49986785  1
  Sn  Sn31  1  0.83322014  0.49933908  0.16563371  1
  Sn  Sn32  1  0.49940582  0.83378007  0.83346046  1
  Sn  Sn33  1  0.16761296  0.83303789  0.16576157  1
  Sn  Sn34  1  0.49893795  0.16629537  0.83465550  1
  Sn  Sn35  1  0.16792131  0.49963453  0.49995848  1
  Sn  Sn36  1  0.83309160  0.50044531  0.83450024  1
  Sn  Sn37  1  0.49894417  0.83376417  0.16634459  1
  Sn  Sn38  1  0.16736837  0.16610708  0.83330829  1
  Sn  Sn39  1  0.83307980  0.16716717  0.16661281  1
  Pb  Pb40  1  0.83335979  0.16635750  0.49616658  1
  Pb  Pb41  1  0.16464685  0.50044718  0.83169711  1
  Pb  Pb42  1  0.83294468  0.49990336  0.49933804  1
  Pb  Pb43  1  0.16706972  0.16451707  0.16465196  1
  Pb  Pb44  1  0.83319886  0.83126012  0.83330874  1
  Pb  Pb45  1  0.83337853  0.83384278  0.16658719  1
  Pb  Pb46  1  0.49985134  0.16640799  0.49999287  1
  Pb  Pb47  1  0.83315298  0.16844786  0.83541822  1
  Pb  Pb48  1  0.16895317  0.83199141  0.50069078  1
  Pb  Pb49  1  0.82962901  0.83392015  0.50017375  1
  Pb  Pb50  1  0.16694869  0.16904569  0.50349985  1
  Pb  Pb51  1  0.50174703  0.49970927  0.83147533  1
  Pb  Pb52  1  0.16408243  0.50307560  0.16876131  1
  Pb  Pb53  1  0.50128800  0.49982521  0.16859225  1
  I  I54  1  0.16610579  -0.00349244  0.16646690  1
  I  I55  1  0.16712181  -0.00026261  0.49753511  1
  I  I56  1  0.17071099  -0.00086440  0.83714568  1
  I  I57  1  0.16833837  0.33334129  0.16645516  1
  I  I58  1  0.17311816  0.33702823  0.50009556  1
  I  I59  1  0.17050344  0.33085774  0.83179094  1
  I  I60  1  0.17264940  0.67078494  0.16010870  1
  I  I61  1  0.16798421  0.66417624  0.50176247  1
  I  I62  1  0.17085714  0.66989519  0.83583433  1
  I  I63  1  0.50299611  -0.00054791  0.16827428  1
  I  I64  1  0.50010994  -0.00318975  0.49929799  1
  I  I65  1  0.49726321  -0.00062175  0.83165779  1
  I  I66  1  0.50314249  0.33044136  0.16370715  1
  I  I67  1  0.49825988  0.33596147  0.50039582  1
  I  I68  1  0.49705659  0.33024355  0.83679236  1
  I  I69  1  0.49847244  0.66976419  0.16451599  1
  I  I70  1  0.49675886  0.66746140  0.50016939  1
  I  I71  1  0.49700354  0.66982108  0.83558735  1
  I  I72  1  0.82971959  0.00276825  0.16586018  1
  I  I73  1  0.83374966  0.00008039  0.50028683  1
  I  I74  1  0.83321320  0.00021688  0.83444098  1
  I  I75  1  0.82711063  0.33312455  0.16311945  1
  I  I76  1  0.83022024  0.33361815  0.50304983  1
  I  I77  1  0.83317790  0.33618159  0.83428162  1
  I  I78  1  0.83298828  0.66428579  0.16435279  1
  I  I79  1  0.83504670  0.66646155  0.49768987  1
  I  I80  1  0.83287634  0.66341099  0.83933970  1
  I  I81  1  0.16790626  0.16603718  -0.00325364  1
  I  I82  1  0.16579467  0.16598131  0.33308461  1
  I  I83  1  0.17334423  0.15995529  0.67154176  1
  I  I84  1  0.16597389  0.49926958  -0.00000824  1
  I  I85  1  0.16949821  0.50158424  0.33637192  1
  I  I86  1  0.16845794  0.50228792  0.66405622  1
  I  I87  1  0.17406429  0.83557080  -0.00063704  1
  I  I88  1  0.16935517  0.83168079  0.33101018  1
  I  I89  1  0.17089417  0.83499085  0.66988817  1
  I  I90  1  0.50142598  0.15865639  -0.00002300  1
  I  I91  1  0.50520688  0.16372984  0.33008590  1
  I  I92  1  0.49643064  0.16369638  0.66995930  1
  I  I93  1  0.50102475  0.50239521  0.00003484  1
  I  I94  1  0.49961278  0.50472115  0.33643827  1
  I  I95  1  0.49937864  0.50457644  0.66368823  1
  I  I96  1  0.49686356  0.83799397  -0.00001502  1
  I  I97  1  0.49725252  0.83323660  0.33227276  1
  I  I98  1  0.49597417  0.83250718  0.66770007  1
  I  I99  1  0.83054231  0.16907577  0.00312261  1
  I  I100  1  0.82571695  0.17405724  0.32798976  1
  I  I101  1  0.83232301  0.16964846  0.66719077  1
  I  I102  1  0.83264710  0.49698811  0.00072481  1
  I  I103  1  0.83257433  0.49643472  0.33046346  1
  I  I104  1  0.83341764  0.50062037  0.66856658  1
  I  I105  1  0.82949403  0.83251652  0.00006134  1
  I  I106  1  0.83476663  0.83010087  0.33299772  1
  I  I107  1  0.83505346  0.82898903  0.66695509  1
  I  I108  1  -0.00218115  0.17053448  0.16483653  1
  I  I109  1  0.00024203  0.16985316  0.50061878  1
  I  I110  1  0.00251780  0.16357341  0.83423279  1
  I  I111  1  -0.00369550  0.49442631  0.16466913  1
  I  I112  1  0.00209910  0.50054551  0.50087147  1
  I  I113  1  -0.00299947  0.49932847  0.83455832  1
  I  I114  1  0.00291443  0.83240560  0.16163271  1
  I  I115  1  0.00056441  0.83015199  0.49881966  1
  I  I116  1  0.00345637  0.83626871  0.83889013  1
  I  I117  1  0.33651304  0.16379091  0.16571923  1
  I  I118  1  0.33356288  0.16694058  0.49456934  1
  I  I119  1  0.33459030  0.16337463  0.83826174  1
  I  I120  1  0.33324665  0.49794183  0.16693527  1
  I  I121  1  0.33435478  0.50469941  0.50131833  1
  I  I122  1  0.33341238  0.49962547  0.83255733  1
  I  I123  1  0.33500545  0.83842877  0.16674893  1
  I  I124  1  0.33705003  0.83064580  0.49964142  1
  I  I125  1  0.33434666  0.83637028  0.83374337  1
  I  I126  1  0.66504676  0.16433140  0.16158231  1
  I  I127  1  0.66620939  0.16911861  0.50537318  1
  I  I128  1  0.66349830  0.16270787  0.83446723  1
  I  I129  1  0.66929118  0.50106996  0.16560553  1
  I  I130  1  0.66387367  0.50493103  0.50013210  1
  I  I131  1  0.66937084  0.50023699  0.83484992  1
  I  I132  1  0.66313528  0.83403415  0.16640313  1
  I  I133  1  0.66102826  0.82498690  0.49885004  1
  I  I134  1  0.66275746  0.83666106  0.83411435  1
