# generated using pymatgen
data_Cs27Sn14Pb13I81
_symmetry_space_group_name_H-M   'P 1'
_cell_length_a   19.26666964
_cell_length_b   19.29578193
_cell_length_c   19.27752912
_cell_angle_alpha   89.99647874
_cell_angle_beta   90.03182450
_cell_angle_gamma   90.03396780
_symmetry_Int_Tables_number   1
_chemical_formula_structural   Cs27Sn14Pb13I81
_chemical_formula_sum   'Cs27 Sn14 Pb13 I81'
_cell_volume   7166.71702114
_cell_formula_units_Z   1
loop_
 _symmetry_equiv_pos_site_id
 _symmetry_equiv_pos_as_xyz
  1  'x, y, z'
loop_
 _atom_site_type_symbol
 _atom_site_label
 _atom_site_symmetry_multiplicity
 _atom_site_fract_x
 _atom_site_fract_y
 _atom_site_fract_z
 _atom_site_occupancy
  Cs  Cs0  1  0.02390370  -0.01105774  -0.02424329  1
  Cs  Cs1  1  -0.00888800  -0.00576868  0.32131476  1
  Cs  Cs2  1  0.00313836  -0.01731084  0.67983668  1
  Cs  Cs3  1  -0.03036026  0.34761189  -0.00188598  1
  Cs  Cs4  1  0.01432939  0.34534474  0.32888453  1
  Cs  Cs5  1  -0.01151101  0.33311292  0.68632989  1
  Cs  Cs6  1  -0.00649119  0.67129766  -0.01155128  1
  Cs  Cs7  1  -0.00633341  0.65163886  0.32692768  1
  Cs  Cs8  1  0.00658577  0.69572268  0.67673562  1
  Cs  Cs9  1  0.34789382  0.00354304  0.00452913  1
  Cs  Cs10  1  0.32617879  0.00826334  0.34352740  1
  Cs  Cs11  1  0.31618936  0.00073295  0.65109161  1
  Cs  Cs12  1  0.32950580  0.33816550  0.01609269  1
  Cs  Cs13  1  0.33252310  0.34404811  0.34491018  1
  Cs  Cs14  1  0.33598084  0.34761733  0.63913862  1
  Cs  Cs15  1  0.35456931  0.67449555  -0.00792683  1
  Cs  Cs16  1  0.32911236  0.65105939  0.34597789  1
  Cs  Cs17  1  0.35002577  0.65094489  0.64769273  1
  Cs  Cs18  1  0.63161279  0.01289990  0.01432871  1
  Cs  Cs19  1  0.69691723  -0.00095935  0.31278437  1
  Cs  Cs20  1  0.70048955  0.01435804  0.66461835  1
  Cs  Cs21  1  0.68638176  0.30660578  -0.01105523  1
  Cs  Cs22  1  0.64722505  0.36563787  0.33454604  1
  Cs  Cs23  1  0.67054989  0.31705408  0.69274838  1
  Cs  Cs24  1  0.67669931  0.69423947  0.00390104  1
  Cs  Cs25  1  0.68553137  0.65152380  0.33197037  1
  Cs  Cs26  1  0.62170130  0.67314034  0.66184996  1
  Sn  Sn27  1  0.16739399  0.83326405  0.49443472  1
  Sn  Sn28  1  0.17198404  0.83210896  0.83580176  1
  Sn  Sn29  1  0.82891803  0.82934641  0.83216059  1
  Sn  Sn30  1  0.50331207  0.49826757  0.50014798  1
  Sn  Sn31  1  0.49760323  0.84105893  0.49703573  1
  Sn  Sn32  1  0.83579239  0.49790889  0.50383104  1
  Sn  Sn33  1  0.49932279  0.16252942  0.50093484  1
  Sn  Sn34  1  0.16510431  0.16745773  0.49890453  1
  Sn  Sn35  1  0.16830276  0.83371492  0.17006228  1
  Sn  Sn36  1  0.17317752  0.16998020  0.83346685  1
  Sn  Sn37  1  0.16002211  0.50092429  0.50245557  1
  Sn  Sn38  1  0.16631083  0.16421475  0.16665440  1
  Sn  Sn39  1  0.17017183  0.50139605  0.16610022  1
  Sn  Sn40  1  0.49360427  0.50282466  0.16596295  1
  Pb  Pb41  1  0.84031461  0.16727989  0.16819854  1
  Pb  Pb42  1  0.83223226  0.50508617  0.82846018  1
  Pb  Pb43  1  0.84031795  0.83248607  0.16483807  1
  Pb  Pb44  1  0.49249969  0.83170813  0.17158884  1
  Pb  Pb45  1  0.83239704  0.49963447  0.16631699  1
  Pb  Pb46  1  0.84010916  0.16134217  0.83283484  1
  Pb  Pb47  1  0.49894305  0.83632813  0.83147829  1
  Pb  Pb48  1  0.16799931  0.49869567  0.83508314  1
  Pb  Pb49  1  0.49791163  0.49852469  0.83778255  1
  Pb  Pb50  1  0.83508550  0.17008835  0.49833722  1
  Pb  Pb51  1  0.49398861  0.17010916  0.17259630  1
  Pb  Pb52  1  0.49282919  0.16552353  0.82969949  1
  Pb  Pb53  1  0.83104783  0.83082082  0.50030671  1
  I  I54  1  0.14613277  -0.00169552  0.17777833  1
  I  I55  1  0.19203932  -0.00092364  0.49651739  1
  I  I56  1  0.15067644  -0.00016305  0.82154486  1
  I  I57  1  0.18517977  0.33177428  0.17723762  1
  I  I58  1  0.17224105  0.33538067  0.49403289  1
  I  I59  1  0.17973406  0.32789005  0.82963551  1
  I  I60  1  0.17441073  0.66841824  0.18256949  1
  I  I61  1  0.16996185  0.66577044  0.49760636  1
  I  I62  1  0.14047234  0.66823823  0.83450077  1
  I  I63  1  0.50436199  -0.00095622  0.16396640  1
  I  I64  1  0.46446852  -0.00125626  0.51162306  1
  I  I65  1  0.52999292  -0.00104052  0.84223187  1
  I  I66  1  0.48503734  0.33599116  0.18639016  1
  I  I67  1  0.49229188  0.33624903  0.48478187  1
  I  I68  1  0.50442412  0.33323883  0.82702863  1
  I  I69  1  0.48435962  0.66596699  0.17810180  1
  I  I70  1  0.49339077  0.66480060  0.49874806  1
  I  I71  1  0.48939739  0.66732041  0.82874395  1
  I  I72  1  0.83847547  -0.00099479  0.16735924  1
  I  I73  1  0.81876987  -0.00049670  0.50495028  1
  I  I74  1  0.83750145  -0.00381886  0.81476229  1
  I  I75  1  0.83128366  0.33382075  0.15513731  1
  I  I76  1  0.84000335  0.33658961  0.48865209  1
  I  I77  1  0.82596241  0.33280213  0.83594334  1
  I  I78  1  0.83596862  0.66599834  0.15526409  1
  I  I79  1  0.84057345  0.66390429  0.49384395  1
  I  I80  1  0.86913084  0.66730072  0.83191052  1
  I  I81  1  0.15106526  0.15161318  0.00055726  1
  I  I82  1  0.18317564  0.16102873  0.33424563  1
  I  I83  1  0.17945096  0.15876234  0.66638141  1
  I  I84  1  0.19451053  0.49621317  0.00395271  1
  I  I85  1  0.16216431  0.50042054  0.33463857  1
  I  I86  1  0.16763041  0.49403631  0.66303554  1
  I  I87  1  0.13642822  0.82776390  0.00365659  1
  I  I88  1  0.19484681  0.84102634  0.33299128  1
  I  I89  1  0.15781055  0.84237541  0.66691299  1
  I  I90  1  0.51240688  0.18073018  -0.00017215  1
  I  I91  1  0.47768747  0.15754148  0.33826558  1
  I  I92  1  0.49169311  0.18708727  0.66373444  1
  I  I93  1  0.46378819  0.50261288  0.00503320  1
  I  I94  1  0.49873380  0.50309957  0.33671797  1
  I  I95  1  0.49937621  0.50591468  0.66347309  1
  I  I96  1  0.51903020  0.81895309  -0.00200427  1
  I  I97  1  0.47814762  0.84375477  0.33842918  1
  I  I98  1  0.48167147  0.81840714  0.66697776  1
  I  I99  1  0.84245050  0.17629940  -0.00114804  1
  I  I100  1  0.83347712  0.14702701  0.33376400  1
  I  I101  1  0.82530120  0.18355278  0.66613282  1
  I  I102  1  0.83004062  0.49566122  -0.00234131  1
  I  I103  1  0.83293883  0.50831835  0.33303414  1
  I  I104  1  0.83803959  0.47826428  0.66392474  1
  I  I105  1  0.85818035  0.82754110  -0.00374512  1
  I  I106  1  0.81422708  0.83610146  0.33360958  1
  I  I107  1  0.85739963  0.83334461  0.66531806  1
  I  I108  1  0.00638486  0.18506468  0.18888406  1
  I  I109  1  0.00474931  0.16293311  0.49905099  1
  I  I110  1  0.00390308  0.17752384  0.81848782  1
  I  I111  1  0.00363008  0.49059631  0.17313405  1
  I  I112  1  0.00024036  0.49960054  0.48129237  1
  I  I113  1  0.00219081  0.47073291  0.84145835  1
  I  I114  1  0.00332046  0.82496919  0.20553078  1
  I  I115  1  0.00432376  0.84101285  0.48459582  1
  I  I116  1  0.00373227  0.84195473  0.82691629  1
  I  I117  1  0.33090307  0.15076231  0.13960490  1
  I  I118  1  0.33044424  0.18497524  0.50595855  1
  I  I119  1  0.33199070  0.13390478  0.85264244  1
  I  I120  1  0.33135500  0.50039543  0.19587720  1
  I  I121  1  0.33316519  0.50090603  0.49766843  1
  I  I122  1  0.33213750  0.51275737  0.81206282  1
  I  I123  1  0.33093095  0.84384541  0.12620054  1
  I  I124  1  0.32871450  0.81290765  0.51266335  1
  I  I125  1  0.33142367  0.84775957  0.86009597  1
  I  I126  1  0.66591927  0.16371754  0.16283871  1
  I  I127  1  0.65941357  0.16359499  0.51529020  1
  I  I128  1  0.66857054  0.17012486  0.83063283  1
  I  I129  1  0.66225527  0.50735260  0.18608861  1
  I  I130  1  0.66670208  0.50765104  0.48016553  1
  I  I131  1  0.66566069  0.51166249  0.83361184  1
  I  I132  1  0.66756190  0.82841970  0.16032064  1
  I  I133  1  0.66023724  0.82842962  0.52499511  1
  I  I134  1  0.67206834  0.80229923  0.81914541  1
