# generated using pymatgen
data_Cs27Sn14Pb13I81
_symmetry_space_group_name_H-M   'P 1'
_cell_length_a   18.96203114
_cell_length_b   18.95747746
_cell_length_c   18.96203111
_cell_angle_alpha   89.99879469
_cell_angle_beta   90.00014932
_cell_angle_gamma   89.99879467
_symmetry_Int_Tables_number   1
_chemical_formula_structural   Cs27Sn14Pb13I81
_chemical_formula_sum   'Cs27 Sn14 Pb13 I81'
_cell_volume   6816.32451569
_cell_formula_units_Z   1
loop_
 _symmetry_equiv_pos_site_id
 _symmetry_equiv_pos_as_xyz
  1  'x, y, z'
loop_
 _atom_site_type_symbol
 _atom_site_label
 _atom_site_symmetry_multiplicity
 _atom_site_fract_x
 _atom_site_fract_y
 _atom_site_fract_z
 _atom_site_occupancy
  Cs  Cs0  1  0.00127342  -0.00011707  -0.00073372  1
  Cs  Cs1  1  -0.00003897  0.00000003  0.33337234  1
  Cs  Cs2  1  0.00044057  -0.00070916  0.66776819  1
  Cs  Cs3  1  -0.00077259  0.33344831  0.00239862  1
  Cs  Cs4  1  0.00056442  0.33253270  0.33013832  1
  Cs  Cs5  1  -0.00196173  0.33265185  0.66619441  1
  Cs  Cs6  1  -0.00098183  0.66680036  0.00168769  1
  Cs  Cs7  1  0.00319498  0.66746724  0.33276897  1
  Cs  Cs8  1  -0.00049803  0.66945166  0.66507149  1
  Cs  Cs9  1  0.33730610  -0.00000003  -0.00397272  1
  Cs  Cs10  1  0.33406708  0.00011687  0.33205990  1
  Cs  Cs11  1  0.33004571  0.00429034  0.67411431  1
  Cs  Cs12  1  0.33187709  0.33442565  -0.00505861  1
  Cs  Cs13  1  0.33164569  0.33319967  0.33431518  1
  Cs  Cs14  1  0.33503297  0.33224563  0.66891828  1
  Cs  Cs15  1  0.33839202  0.66557411  0.00145636  1
  Cs  Cs16  1  0.33093463  0.66655173  0.33410584  1
  Cs  Cs17  1  0.33030347  0.66593969  0.66350683  1
  Cs  Cs18  1  0.65921901  -0.00429041  0.00328780  1
  Cs  Cs19  1  0.66556524  0.00070924  0.33289287  1
  Cs  Cs20  1  0.66810154  -0.00000005  0.66523190  1
  Cs  Cs21  1  0.66982664  0.33406032  0.00302974  1
  Cs  Cs22  1  0.66826190  0.33054828  0.33383148  1
  Cs  Cs23  1  0.66757923  0.33568101  0.66487830  1
  Cs  Cs24  1  0.66441518  0.66775443  -0.00169959  1
  Cs  Cs25  1  0.66713881  0.66734814  0.33529509  1
  Cs  Cs26  1  0.66845498  0.66431893  0.66575407  1
  Sn  Sn27  1  0.83367409  0.49923490  0.83265405  1
  Sn  Sn28  1  0.50033089  0.49999998  0.83300244  1
  Sn  Sn29  1  0.50029445  0.49948982  0.16744607  1
  Sn  Sn30  1  0.83428839  0.16677011  0.50049574  1
  Sn  Sn31  1  0.16598679  0.16677511  0.49938347  1
  Sn  Sn32  1  0.50028946  0.83293073  0.50028418  1
  Sn  Sn33  1  0.16666034  0.16575833  0.16711641  1
  Sn  Sn34  1  0.83394986  0.83322487  0.16734653  1
  Sn  Sn35  1  0.16588727  0.50051018  0.83303885  1
  Sn  Sn36  1  0.50067926  0.50076513  0.49965925  1
  Sn  Sn37  1  0.16621693  0.83424165  0.16667301  1
  Sn  Sn38  1  0.83314289  0.50000000  0.50019046  1
  Sn  Sn39  1  0.83283759  0.83322990  0.49904496  1
  Sn  Sn40  1  0.83304918  0.16706922  0.83304390  1
  Pb  Pb41  1  0.16671872  0.83076197  0.83637336  1
  Pb  Pb42  1  0.50002322  0.83100332  0.82971479  1
  Pb  Pb43  1  0.50361855  0.16899667  0.83331012  1
  Pb  Pb44  1  0.83468548  0.16427340  0.16653217  1
  Pb  Pb45  1  0.16680115  0.83572663  0.49864786  1
  Pb  Pb46  1  0.16867793  0.50000000  0.16465543  1
  Pb  Pb47  1  0.50026261  0.16669610  0.50006715  1
  Pb  Pb48  1  0.49988936  0.83157590  0.16886704  1
  Pb  Pb49  1  0.83167580  0.50212611  0.16692518  1
  Pb  Pb50  1  0.16446625  0.16842411  0.83344395  1
  Pb  Pb51  1  0.16640818  0.49787390  0.50165755  1
  Pb  Pb52  1  0.83326618  0.83330386  0.83307069  1
  Pb  Pb53  1  0.49695996  0.16923806  0.16661461  1
  I  I54  1  0.16181349  -0.00000003  0.17151965  1
  I  I55  1  0.16252570  0.00362679  0.49879464  1
  I  I56  1  0.16466520  0.00029309  0.83177458  1
  I  I57  1  0.16810225  0.33095248  0.16924041  1
  I  I58  1  0.16266138  0.33000007  0.49436023  1
  I  I59  1  0.16914627  0.33655484  0.83509097  1
  I  I60  1  0.16409304  0.66904753  0.16523115  1
  I  I61  1  0.16495680  0.66660527  0.49943507  1
  I  I62  1  0.16417893  0.66237719  0.83318289  1
  I  I63  1  0.50155871  -0.00029311  0.16866823  1
  I  I64  1  0.50429635  -0.00276148  0.49683596  1
  I  I65  1  0.50013394  0.00000002  0.83319906  1
  I  I66  1  0.50015017  0.33762278  0.16915390  1
  I  I67  1  0.50289697  0.33696723  0.50111971  1
  I  I68  1  0.49702248  0.33784140  0.82951997  1
  I  I69  1  0.49824239  0.66344516  0.16418751  1
  I  I70  1  0.50744113  0.66523876  0.50053121  1
  I  I71  1  0.50381403  0.66215863  0.83631039  1
  I  I72  1  0.83453874  -0.00362680  0.17080754  1
  I  I73  1  0.83306642  -0.00000001  0.50026708  1
  I  I74  1  0.83649750  0.00276150  0.82903680  1
  I  I75  1  0.83389825  0.33339470  0.16837657  1
  I  I76  1  0.83256118  0.33386125  0.50485177  1
  I  I77  1  0.83280211  0.33476122  0.82589217  1
  I  I78  1  0.83897301  0.66999993  0.17067173  1
  I  I79  1  0.82848158  0.66613877  0.50077201  1
  I  I80  1  0.83221347  0.66303273  0.83043673  1
  I  I81  1  0.16516154  0.16500973  0.00243344  1
  I  I82  1  0.16090709  0.16527070  0.33379252  1
  I  I83  1  0.16474299  0.16849924  0.66420952  1
  I  I84  1  0.16587278  0.49832985  -0.00334571  1
  I  I85  1  0.16757472  0.50041345  0.33333663  1
  I  I86  1  0.17030022  0.49758267  0.66959134  1
  I  I87  1  0.16034392  0.83895169  0.00450396  1
  I  I88  1  0.16496187  0.83306501  0.33060190  1
  I  I89  1  0.16652129  0.83404166  0.66650427  1
  I  I90  1  0.50008434  0.16841092  -0.00008724  1
  I  I91  1  0.50364206  0.17074420  0.33356350  1
  I  I92  1  0.49419394  0.16744779  0.66645229  1
  I  I93  1  0.49919949  0.49903333  -0.00085647  1
  I  I94  1  0.50386580  0.50377661  0.33487750  1
  I  I95  1  0.50162831  0.50359398  0.66614596  1
  I  I96  1  0.50052416  0.83093118  0.00014196  1
  I  I97  1  0.50204345  0.82623256  0.33670581  1
  I  I98  1  0.50717188  0.82827467  0.66177229  1
  I  I99  1  0.83544963  0.17254851  -0.00246856  1
  I  I100  1  0.83519752  0.16966514  0.33652073  1
  I  I101  1  0.83867883  0.16652460  0.66499487  1
  I  I102  1  0.83233753  0.49676778  -0.00282177  1
  I  I103  1  0.82869041  0.49763462  0.33662568  1
  I  I104  1  0.82935609  0.50058266  0.66602353  1
  I  I105  1  0.83801684  0.83237354  0.00267085  1
  I  I106  1  0.83325252  0.83280316  0.33491481  1
  I  I107  1  0.82927913  0.83263997  0.66305468  1
  I  I108  1  0.00273141  0.16693516  0.16837180  1
  I  I109  1  -0.00158151  0.16719691  0.50008059  1
  I  I110  1  -0.00337249  0.17376764  0.83128978  1
  I  I111  1  -0.00000330  0.49958666  0.16575820  1
  I  I112  1  -0.00329235  0.50236536  0.50464319  1
  I  I113  1  -0.00154417  0.49622315  0.82946767  1
  I  I114  1  -0.00045918  0.83472915  0.17242648  1
  I  I115  1  -0.00318742  0.83033476  0.49813558  1
  I  I116  1  -0.00023011  0.82925598  0.82969123  1
  I  I117  1  0.32882942  0.16104832  0.17298934  1
  I  I118  1  0.33066247  0.16762661  0.49531676  1
  I  I119  1  0.33319142  0.16906867  0.83280895  1
  I  I120  1  0.33667907  0.50167034  0.16746086  1
  I  I121  1  0.33615514  0.50323201  0.50099554  1
  I  I122  1  0.33418979  0.50096731  0.83413380  1
  I  I123  1  0.33089992  0.83499035  0.16817171  1
  I  I124  1  0.33580187  0.82745148  0.49788391  1
  I  I125  1  0.33342054  0.83158860  0.83324876  1
  I  I126  1  0.66682909  0.16595828  0.16681190  1
  I  I127  1  0.67027863  0.16735978  0.50405403  1
  I  I128  1  0.67156108  0.17172535  0.82616165  1
  I  I129  1  0.66374199  0.50241728  0.16303316  1
  I  I130  1  0.66730984  0.49941754  0.50397732  1
  I  I131  1  0.66718739  0.49640563  0.83170486  1
  I  I132  1  0.66912382  0.83150077  0.16859004  1
  I  I133  1  0.66833844  0.83347545  0.49465438  1
  I  I134  1  0.66688106  0.83255284  0.83913973  1
