# generated using pymatgen
data_Cs27Sn14Pb13I81
_symmetry_space_group_name_H-M   'P 1'
_cell_length_a   18.97143312
_cell_length_b   18.98008011
_cell_length_c   18.97666447
_cell_angle_alpha   90.00247127
_cell_angle_beta   90.00113234
_cell_angle_gamma   90.00044879
_symmetry_Int_Tables_number   1
_chemical_formula_structural   Cs27Sn14Pb13I81
_chemical_formula_sum   'Cs27 Sn14 Pb13 I81'
_cell_volume   6833.10443674
_cell_formula_units_Z   1
loop_
 _symmetry_equiv_pos_site_id
 _symmetry_equiv_pos_as_xyz
  1  'x, y, z'
loop_
 _atom_site_type_symbol
 _atom_site_label
 _atom_site_symmetry_multiplicity
 _atom_site_fract_x
 _atom_site_fract_y
 _atom_site_fract_z
 _atom_site_occupancy
  Cs  Cs0  1  -0.00141897  0.00059437  0.00100536  1
  Cs  Cs1  1  -0.00067023  -0.00073094  0.33305332  1
  Cs  Cs2  1  0.00080491  0.00132425  0.66663766  1
  Cs  Cs3  1  -0.00133736  0.33002257  -0.00014753  1
  Cs  Cs4  1  -0.00167914  0.33271676  0.33619507  1
  Cs  Cs5  1  0.00226190  0.33184620  0.66488901  1
  Cs  Cs6  1  0.00186169  0.66735709  0.00656650  1
  Cs  Cs7  1  -0.00130517  0.66757305  0.33178415  1
  Cs  Cs8  1  0.00100689  0.66658544  0.66353690  1
  Cs  Cs9  1  0.33103117  0.00208628  0.00107886  1
  Cs  Cs10  1  0.33728406  0.00059312  0.33394610  1
  Cs  Cs11  1  0.33343221  0.00011960  0.66532735  1
  Cs  Cs12  1  0.33609898  0.33304678  0.00008592  1
  Cs  Cs13  1  0.33699870  0.33154466  0.33344258  1
  Cs  Cs14  1  0.33083674  0.33259936  0.66588459  1
  Cs  Cs15  1  0.33292171  0.66320901  0.00290939  1
  Cs  Cs16  1  0.33095339  0.66721759  0.33269368  1
  Cs  Cs17  1  0.33430289  0.66615322  0.66621807  1
  Cs  Cs18  1  0.67112282  -0.00181000  0.00073896  1
  Cs  Cs19  1  0.66531412  -0.00009354  0.33286763  1
  Cs  Cs20  1  0.66525424  -0.00418256  0.66830947  1
  Cs  Cs21  1  0.66269515  0.34181137  -0.00156659  1
  Cs  Cs22  1  0.66540002  0.33388023  0.33091528  1
  Cs  Cs23  1  0.67060805  0.33749864  0.66903666  1
  Cs  Cs24  1  0.66310777  0.66202047  -0.00818064  1
  Cs  Cs25  1  0.67200208  0.66839408  0.33380476  1
  Cs  Cs26  1  0.66336171  0.66590682  0.67505758  1
  Sn  Sn27  1  0.49942599  0.50009161  0.49959346  1
  Sn  Sn28  1  0.83388845  0.16620696  0.16754754  1
  Sn  Sn29  1  0.50117290  0.83337478  0.16667727  1
  Sn  Sn30  1  0.16777007  0.49993491  0.50054049  1
  Sn  Sn31  1  0.16619437  0.16662547  0.16722216  1
  Sn  Sn32  1  0.16757018  0.16659192  0.83330238  1
  Sn  Sn33  1  0.83203667  0.83413838  0.16727445  1
  Sn  Sn34  1  0.16652895  0.83331102  0.83268944  1
  Sn  Sn35  1  0.16639145  0.16641769  0.49955689  1
  Sn  Sn36  1  0.83373609  0.16550493  0.49927765  1
  Sn  Sn37  1  0.49971099  0.16602400  0.83305551  1
  Sn  Sn38  1  0.16618839  0.83368397  0.50064266  1
  Sn  Sn39  1  0.83394546  0.83441690  0.49976070  1
  Sn  Sn40  1  0.16640355  0.49995607  0.83273825  1
  Pb  Pb41  1  0.49715170  0.49780619  0.83106166  1
  Pb  Pb42  1  0.83353503  0.16668573  0.83320195  1
  Pb  Pb43  1  0.83598470  0.83327604  0.83321055  1
  Pb  Pb44  1  0.50091468  0.16812371  0.50182295  1
  Pb  Pb45  1  0.83705418  0.50013019  0.83323427  1
  Pb  Pb46  1  0.16616760  0.83539883  0.16718173  1
  Pb  Pb47  1  0.50025702  0.83151537  0.49875450  1
  Pb  Pb48  1  0.49693634  0.83530156  0.83574219  1
  Pb  Pb49  1  0.83381728  0.50023905  0.50001431  1
  Pb  Pb50  1  0.49989856  0.50302137  0.16930696  1
  Pb  Pb51  1  0.50092440  0.16528249  0.16471088  1
  Pb  Pb52  1  0.16653304  0.49651300  0.16729691  1
  Pb  Pb53  1  0.83341949  0.49981121  0.16666177  1
  I  I54  1  0.16580750  0.00340030  0.16539854  1
  I  I55  1  0.16216192  0.00039210  0.50288125  1
  I  I56  1  0.17007781  0.00084281  0.83060014  1
  I  I57  1  0.16126899  0.32824507  0.16621609  1
  I  I58  1  0.16602632  0.33233393  0.50282112  1
  I  I59  1  0.16998092  0.33239164  0.83017362  1
  I  I60  1  0.16646992  0.66681169  0.16556509  1
  I  I61  1  0.16677583  0.66720611  0.50668494  1
  I  I62  1  0.16480802  0.66685618  0.82548343  1
  I  I63  1  0.50012501  -0.00245841  0.16824382  1
  I  I64  1  0.49698385  -0.00005061  0.50017537  1
  I  I65  1  0.49222123  0.00291950  0.83141802  1
  I  I66  1  0.49980565  0.33326183  0.16541559  1
  I  I67  1  0.49400258  0.33584955  0.50118483  1
  I  I68  1  0.49407004  0.33010203  0.83469344  1
  I  I69  1  0.50465189  0.67086471  0.16608929  1
  I  I70  1  0.49379970  0.66385570  0.49897516  1
  I  I71  1  0.49959395  0.66659434  0.83416245  1
  I  I72  1  0.83430172  0.00031307  0.17093964  1
  I  I73  1  0.84231182  0.00020422  0.49574583  1
  I  I74  1  0.83574227  0.00010314  0.83341420  1
  I  I75  1  0.83925127  0.32938291  0.17142353  1
  I  I76  1  0.83735343  0.33011727  0.49635316  1
  I  I77  1  0.83463997  0.33292136  0.83301506  1
  I  I78  1  0.83168787  0.67040727  0.17217260  1
  I  I79  1  0.83812417  0.67000822  0.49463733  1
  I  I80  1  0.83345765  0.66698670  0.83293539  1
  I  I81  1  0.16654787  0.16587493  -0.00052860  1
  I  I82  1  0.16223862  0.16634870  0.33435082  1
  I  I83  1  0.16627488  0.16707642  0.66615667  1
  I  I84  1  0.16607702  0.50119922  -0.00295198  1
  I  I85  1  0.16935744  0.50127763  0.33712624  1
  I  I86  1  0.16983151  0.49585692  0.66563752  1
  I  I87  1  0.16720899  0.83386185  -0.00219434  1
  I  I88  1  0.16605745  0.83254666  0.33650453  1
  I  I89  1  0.16198127  0.83727889  0.66535313  1
  I  I90  1  0.49273733  0.16595055  -0.00292672  1
  I  I91  1  0.49642635  0.16763521  0.33341126  1
  I  I92  1  0.49322447  0.16674416  0.66942794  1
  I  I93  1  0.49941325  0.49970824  -0.00029976  1
  I  I94  1  0.49141067  0.49707336  0.33697504  1
  I  I95  1  0.49804639  0.50135166  0.66346352  1
  I  I96  1  0.50519638  0.83495472  0.00339419  1
  I  I97  1  0.49814571  0.83459213  0.33087780  1
  I  I98  1  0.50263448  0.83261427  0.66679899  1
  I  I99  1  0.83866749  0.16114859  0.00302605  1
  I  I100  1  0.84234874  0.16299537  0.33384819  1
  I  I101  1  0.83751817  0.16332427  0.66333115  1
  I  I102  1  0.83414749  0.49926473  0.00002492  1
  I  I103  1  0.83645354  0.49998249  0.33363909  1
  I  I104  1  0.83009861  0.49905048  0.66617737  1
  I  I105  1  0.83234706  0.83896202  0.00318885  1
  I  I106  1  0.83616096  0.83685875  0.33400345  1
  I  I107  1  0.83663811  0.83830895  0.66315534  1
  I  I108  1  0.00042099  0.16093461  0.16506878  1
  I  I109  1  0.00171935  0.16842072  0.50148432  1
  I  I110  1  0.00379297  0.16706429  0.83322493  1
  I  I111  1  0.00035420  0.50555982  0.16743270  1
  I  I112  1  0.00362309  0.49916049  0.50478459  1
  I  I113  1  0.00540102  0.49549596  0.82519056  1
  I  I114  1  -0.00247432  0.83576676  0.16740652  1
  I  I115  1  0.00115698  0.83203552  0.49793864  1
  I  I116  1  0.00438754  0.83743924  0.83382424  1
  I  I117  1  0.33063640  0.16472052  0.16852096  1
  I  I118  1  0.32996044  0.16443725  0.49825732  1
  I  I119  1  0.33017438  0.16683305  0.83349433  1
  I  I120  1  0.33302197  0.50125361  0.16523924  1
  I  I121  1  0.33064595  0.49977917  0.50394611  1
  I  I122  1  0.32909794  0.50160346  0.83081368  1
  I  I123  1  0.33454981  0.83511026  0.16634756  1
  I  I124  1  0.32996451  0.83595030  0.50194985  1
  I  I125  1  0.32876773  0.83238919  0.82807573  1
  I  I126  1  0.67005205  0.16369818  0.17128622  1
  I  I127  1  0.67009478  0.16372383  0.49629991  1
  I  I128  1  0.66428955  0.16651843  0.83287653  1
  I  I129  1  0.66653056  0.49400622  0.16940266  1
  I  I130  1  0.66443300  0.49876894  0.49815449  1
  I  I131  1  0.66613189  0.49770431  0.83198698  1
  I  I132  1  0.66841606  0.84058995  0.17396925  1
  I  I133  1  0.66982191  0.83736447  0.49615012  1
  I  I134  1  0.66652984  0.83530043  0.83091466  1
