# generated using pymatgen
data_Cs27Sn13Pb14I81
_symmetry_space_group_name_H-M   'P 1'
_cell_length_a   18.97645083
_cell_length_b   18.98104741
_cell_length_c   18.97421500
_cell_angle_alpha   89.99914424
_cell_angle_beta   90.00215097
_cell_angle_gamma   89.99969312
_symmetry_Int_Tables_number   1
_chemical_formula_structural   Cs27Sn13Pb14I81
_chemical_formula_sum   'Cs27 Sn13 Pb14 I81'
_cell_volume   6834.37776713
_cell_formula_units_Z   1
loop_
 _symmetry_equiv_pos_site_id
 _symmetry_equiv_pos_as_xyz
  1  'x, y, z'
loop_
 _atom_site_type_symbol
 _atom_site_label
 _atom_site_symmetry_multiplicity
 _atom_site_fract_x
 _atom_site_fract_y
 _atom_site_fract_z
 _atom_site_occupancy
  Cs  Cs0  1  0.00589915  -0.00093117  -0.00080355  1
  Cs  Cs1  1  -0.00026727  0.00228628  0.33416567  1
  Cs  Cs2  1  -0.00893735  0.00386387  0.66937568  1
  Cs  Cs3  1  0.00153807  0.33532789  -0.00243961  1
  Cs  Cs4  1  0.00146476  0.33156225  0.33430194  1
  Cs  Cs5  1  0.00570647  0.33087833  0.66954481  1
  Cs  Cs6  1  0.00014840  0.66614518  -0.00280381  1
  Cs  Cs7  1  -0.00147722  0.66687050  0.33169024  1
  Cs  Cs8  1  -0.00085925  0.66615931  0.67759236  1
  Cs  Cs9  1  0.33401963  0.00090967  -0.00085860  1
  Cs  Cs10  1  0.33363707  -0.00183482  0.33262598  1
  Cs  Cs11  1  0.33632727  -0.00082575  0.66904779  1
  Cs  Cs12  1  0.33391505  0.32728808  -0.00061104  1
  Cs  Cs13  1  0.33115505  0.33596752  0.33698328  1
  Cs  Cs14  1  0.32612077  0.33443974  0.66475202  1
  Cs  Cs15  1  0.33434041  0.66801388  0.00105964  1
  Cs  Cs16  1  0.33460435  0.66646219  0.33398633  1
  Cs  Cs17  1  0.33170591  0.66525712  0.66466641  1
  Cs  Cs18  1  0.66372423  0.00209625  0.00165651  1
  Cs  Cs19  1  0.66722450  -0.00128232  0.33343822  1
  Cs  Cs20  1  0.66968122  0.00281925  0.66480513  1
  Cs  Cs21  1  0.66596861  0.33294455  -0.00076065  1
  Cs  Cs22  1  0.66602289  0.33689724  0.33169578  1
  Cs  Cs23  1  0.66817019  0.32950260  0.67143762  1
  Cs  Cs24  1  0.66582996  0.66539418  0.00191290  1
  Cs  Cs25  1  0.66616878  0.66552802  0.33219743  1
  Cs  Cs26  1  0.66830729  0.66770321  0.66709225  1
  Sn  Sn27  1  0.49985934  0.50060000  0.83322414  1
  Sn  Sn28  1  0.16678728  0.83227969  0.16776856  1
  Sn  Sn29  1  0.50022529  0.83216101  0.83315271  1
  Sn  Sn30  1  0.83350862  0.83358795  0.16686891  1
  Sn  Sn31  1  0.16616082  0.50080457  0.16691615  1
  Sn  Sn32  1  0.50072996  0.16595201  0.16831898  1
  Sn  Sn33  1  0.83352185  0.50017369  0.49978558  1
  Sn  Sn34  1  0.49998824  0.16631627  0.49870864  1
  Sn  Sn35  1  0.49946582  0.83382970  0.49986160  1
  Sn  Sn36  1  0.83432712  0.49988649  0.16760034  1
  Sn  Sn37  1  0.16644365  0.83335073  0.49954170  1
  Sn  Sn38  1  0.49997618  0.83386527  0.16698136  1
  Sn  Sn39  1  0.83267931  0.16673689  0.16688769  1
  Pb  Pb40  1  0.50162281  0.50000231  0.50230917  1
  Pb  Pb41  1  0.49978153  0.49961846  0.16553852  1
  Pb  Pb42  1  0.83328107  0.16666203  0.83649173  1
  Pb  Pb43  1  0.16690643  0.16633238  0.16680606  1
  Pb  Pb44  1  0.83353986  0.83173606  0.49828259  1
  Pb  Pb45  1  0.83146877  0.49997733  0.83374952  1
  Pb  Pb46  1  0.16393388  0.50278001  0.49801136  1
  Pb  Pb47  1  0.16950410  0.50023942  0.83633766  1
  Pb  Pb48  1  0.16667716  0.16625946  0.83300398  1
  Pb  Pb49  1  0.16893572  0.16344793  0.49972761  1
  Pb  Pb50  1  0.83057610  0.83351902  0.83642284  1
  Pb  Pb51  1  0.49993234  0.16631423  0.83301392  1
  Pb  Pb52  1  0.16886809  0.83348901  0.83305501  1
  Pb  Pb53  1  0.83118997  0.16918122  0.49764421  1
  I  I54  1  0.16514571  -0.00362913  0.16939776  1
  I  I55  1  0.16839526  -0.00468118  0.49063140  1
  I  I56  1  0.17060683  -0.00070341  0.83829451  1
  I  I57  1  0.16414390  0.33602675  0.16519458  1
  I  I58  1  0.16846093  0.33355627  0.49875261  1
  I  I59  1  0.17067563  0.33374635  0.83603694  1
  I  I60  1  0.16488394  0.66806099  0.16946787  1
  I  I61  1  0.17594794  0.67045100  0.49584332  1
  I  I62  1  0.16644083  0.66681992  0.83294405  1
  I  I63  1  0.50265243  -0.00151383  0.16478479  1
  I  I64  1  0.49706038  -0.00157322  0.50019287  1
  I  I65  1  0.49913564  -0.00323211  0.83516542  1
  I  I66  1  0.50303743  0.33062046  0.16793292  1
  I  I67  1  0.50345558  0.33079760  0.49535972  1
  I  I68  1  0.50144820  0.33552234  0.83608344  1
  I  I69  1  0.50202788  0.66971610  0.16845666  1
  I  I70  1  0.49805192  0.67003845  0.49639294  1
  I  I71  1  0.50050368  0.66822547  0.83568248  1
  I  I72  1  0.83093341  -0.00069290  0.16595067  1
  I  I73  1  0.83448581  -0.00004737  0.49894011  1
  I  I74  1  0.83052672  -0.00011728  0.83255137  1
  I  I75  1  0.83166856  0.33371481  0.17038580  1
  I  I76  1  0.82980589  0.33676555  0.49230247  1
  I  I77  1  0.82795011  0.33355769  0.83627124  1
  I  I78  1  0.83224210  0.66690930  0.17005903  1
  I  I79  1  0.82960487  0.66415169  0.49159950  1
  I  I80  1  0.83276907  0.66677495  0.83601833  1
  I  I81  1  0.16971498  0.16481081  0.00089877  1
  I  I82  1  0.16591441  0.16877984  0.33297741  1
  I  I83  1  0.17030002  0.16653742  0.66603152  1
  I  I84  1  0.15979803  0.50671050  0.00456486  1
  I  I85  1  0.16737589  0.50239764  0.32968615  1
  I  I86  1  0.16569480  0.50097374  0.66657840  1
  I  I87  1  0.16680567  0.83033570  0.00379203  1
  I  I88  1  0.17302379  0.82971208  0.33151099  1
  I  I89  1  0.17365424  0.83321448  0.66340021  1
  I  I90  1  0.50339623  0.16375535  0.00326718  1
  I  I91  1  0.50369152  0.15856734  0.33206859  1
  I  I92  1  0.49962923  0.16271103  0.66363353  1
  I  I93  1  0.50147468  0.50488522  -0.00198049  1
  I  I94  1  0.49919696  0.50178770  0.33323143  1
  I  I95  1  0.50326313  0.50494531  0.66975123  1
  I  I96  1  0.50066637  0.83319866  0.00175495  1
  I  I97  1  0.49955129  0.83772047  0.33229076  1
  I  I98  1  0.49452143  0.83314717  0.66571268  1
  I  I99  1  0.82479984  0.16895110  0.00553469  1
  I  I100  1  0.83064010  0.16401913  0.32918041  1
  I  I101  1  0.83102544  0.16842735  0.66617414  1
  I  I102  1  0.83561500  0.50044087  0.00402800  1
  I  I103  1  0.83408811  0.50080676  0.33077456  1
  I  I104  1  0.82888385  0.50214017  0.66410845  1
  I  I105  1  0.83384749  0.83003688  0.00545158  1
  I  I106  1  0.82807753  0.83405923  0.32934003  1
  I  I107  1  0.83335078  0.83001745  0.66654916  1
  I  I108  1  -0.00300085  0.16433241  0.16574019  1
  I  I109  1  -0.00023481  0.16605696  0.49877249  1
  I  I110  1  -0.00027185  0.16700963  0.83503496  1
  I  I111  1  -0.00096437  0.50339641  0.17003475  1
  I  I112  1  -0.00373085  0.50147288  0.49558896  1
  I  I113  1  0.00009521  0.49966162  0.83248614  1
  I  I114  1  0.00012204  0.83267826  0.17178589  1
  I  I115  1  0.00255205  0.83033010  0.49211739  1
  I  I116  1  -0.00002604  0.83320227  0.83350970  1
  I  I117  1  0.33677712  0.16352227  0.16814714  1
  I  I118  1  0.33762286  0.16686772  0.49257479  1
  I  I119  1  0.33428529  0.16700174  0.83812318  1
  I  I120  1  0.33115445  0.50411657  0.16407079  1
  I  I121  1  0.33328934  0.49814593  0.49962715  1
  I  I122  1  0.33724517  0.50476989  0.83434168  1
  I  I123  1  0.33435168  0.83293856  0.16649827  1
  I  I124  1  0.33502199  0.83568523  0.49452281  1
  I  I125  1  0.33742110  0.83049699  0.83888671  1
  I  I126  1  0.66578194  0.16354497  0.16949034  1
  I  I127  1  0.66299112  0.15902996  0.49814042  1
  I  I128  1  0.66615047  0.16702663  0.83288846  1
  I  I129  1  0.66920017  0.50249411  0.16812283  1
  I  I130  1  0.66910469  0.50263628  0.49125745  1
  I  I131  1  0.66364159  0.50448735  0.83712120  1
  I  I132  1  0.66587851  0.83318721  0.16632167  1
  I  I133  1  0.66334338  0.83538726  0.49885284  1
  I  I134  1  0.66210689  0.82961990  0.83317653  1
