# generated using pymatgen
data_Cs27Sn14Pb13I81
_symmetry_space_group_name_H-M   'P 1'
_cell_length_a   18.97291227
_cell_length_b   18.97882639
_cell_length_c   18.97972032
_cell_angle_alpha   90.00109789
_cell_angle_beta   89.99939238
_cell_angle_gamma   89.99815967
_symmetry_Int_Tables_number   1
_chemical_formula_structural   Cs27Sn14Pb13I81
_chemical_formula_sum   'Cs27 Sn14 Pb13 I81'
_cell_volume   6834.28616792
_cell_formula_units_Z   1
loop_
 _symmetry_equiv_pos_site_id
 _symmetry_equiv_pos_as_xyz
  1  'x, y, z'
loop_
 _atom_site_type_symbol
 _atom_site_label
 _atom_site_symmetry_multiplicity
 _atom_site_fract_x
 _atom_site_fract_y
 _atom_site_fract_z
 _atom_site_occupancy
  Cs  Cs0  1  -0.00008118  0.00171521  -0.00248193  1
  Cs  Cs1  1  0.00097064  -0.00139315  0.33047886  1
  Cs  Cs2  1  -0.00152580  0.00153392  0.67028211  1
  Cs  Cs3  1  0.00114600  0.33242590  -0.00028498  1
  Cs  Cs4  1  -0.00058834  0.33377597  0.33402051  1
  Cs  Cs5  1  -0.00004264  0.33217060  0.66568271  1
  Cs  Cs6  1  -0.00163006  0.66712028  -0.00007097  1
  Cs  Cs7  1  0.00237365  0.66909433  0.33533730  1
  Cs  Cs8  1  -0.00059561  0.66718624  0.66635152  1
  Cs  Cs9  1  0.33803617  0.00171861  0.00197651  1
  Cs  Cs10  1  0.33955377  -0.00772205  0.33533552  1
  Cs  Cs11  1  0.33910545  -0.00149218  0.66434358  1
  Cs  Cs12  1  0.33160386  0.33412399  0.00106990  1
  Cs  Cs13  1  0.33251362  0.33493589  0.33000091  1
  Cs  Cs14  1  0.33167111  0.33334801  0.66988197  1
  Cs  Cs15  1  0.33447075  0.66341075  -0.00152310  1
  Cs  Cs16  1  0.33123553  0.67050674  0.33789167  1
  Cs  Cs17  1  0.33578983  0.66895480  0.66392790  1
  Cs  Cs18  1  0.66346588  -0.00098911  0.00320329  1
  Cs  Cs19  1  0.65793587  -0.00085765  0.33473697  1
  Cs  Cs20  1  0.66305037  0.00011157  0.66247507  1
  Cs  Cs21  1  0.66703405  0.33577426  0.00071759  1
  Cs  Cs22  1  0.66709462  0.33318454  0.33546322  1
  Cs  Cs23  1  0.66641672  0.33133837  0.66316979  1
  Cs  Cs24  1  0.66824892  0.66548904  -0.00049928  1
  Cs  Cs25  1  0.66748637  0.66499394  0.33053704  1
  Cs  Cs26  1  0.66716980  0.66752744  0.66925335  1
  Sn  Sn27  1  0.83413517  0.83372234  0.83238042  1
  Sn  Sn28  1  0.83397311  0.83346771  0.50040591  1
  Sn  Sn29  1  0.16612317  0.83341590  0.83368962  1
  Sn  Sn30  1  0.16584942  0.16705864  0.16690428  1
  Sn  Sn31  1  0.83353999  0.16684928  0.83411629  1
  Sn  Sn32  1  0.83403144  0.49902742  0.16610278  1
  Sn  Sn33  1  0.49976419  0.49966279  0.16770399  1
  Sn  Sn34  1  0.83440512  0.49949719  0.83379477  1
  Sn  Sn35  1  0.16653102  0.16660080  0.49958120  1
  Sn  Sn36  1  0.49996201  0.49946608  0.49946083  1
  Sn  Sn37  1  0.16613771  0.16631780  0.83342561  1
  Sn  Sn38  1  0.16615140  0.49962212  0.16620371  1
  Sn  Sn39  1  0.16550025  0.50032885  0.83385007  1
  Sn  Sn40  1  0.83408938  0.16736776  0.16606131  1
  Pb  Pb41  1  0.50047700  0.16688272  0.83348239  1
  Pb  Pb42  1  0.16459356  0.83610973  0.50275950  1
  Pb  Pb43  1  0.16808472  0.49849634  0.50025957  1
  Pb  Pb44  1  0.50009623  0.49981412  0.83360031  1
  Pb  Pb45  1  0.50007415  0.16893623  0.16652056  1
  Pb  Pb46  1  0.83209898  0.50142557  0.50004344  1
  Pb  Pb47  1  0.83496917  0.16468516  0.49938539  1
  Pb  Pb48  1  0.50037740  0.83332089  0.83353052  1
  Pb  Pb49  1  0.16649830  0.83361275  0.16398977  1
  Pb  Pb50  1  0.50288293  0.83058218  0.50020574  1
  Pb  Pb51  1  0.49683889  0.16923712  0.49986197  1
  Pb  Pb52  1  0.83349808  0.83391852  0.16598260  1
  Pb  Pb53  1  0.49980379  0.82984018  0.16633116  1
  I  I54  1  0.15997602  0.00378058  0.16547041  1
  I  I55  1  0.16513744  0.00398186  0.49846367  1
  I  I56  1  0.15952960  0.00103965  0.83317511  1
  I  I57  1  0.16693353  0.33376190  0.16181874  1
  I  I58  1  0.16604194  0.33064160  0.50515461  1
  I  I59  1  0.16229008  0.33328938  0.83368018  1
  I  I60  1  0.16621970  0.66299482  0.16241553  1
  I  I61  1  0.16819919  0.66685809  0.49976212  1
  I  I62  1  0.16091361  0.66554088  0.83823656  1
  I  I63  1  0.50051191  0.00029462  0.16682699  1
  I  I64  1  0.49975297  -0.00013430  0.50054280  1
  I  I65  1  0.49925964  0.00006189  0.83218038  1
  I  I66  1  0.49985159  0.33710364  0.16959007  1
  I  I67  1  0.50333223  0.33677621  0.49617002  1
  I  I68  1  0.49948147  0.33364571  0.83219090  1
  I  I69  1  0.50101068  0.66127590  0.16944321  1
  I  I70  1  0.49724786  0.66310714  0.49501526  1
  I  I71  1  0.49974446  0.66632203  0.83417301  1
  I  I72  1  0.84003948  0.00353654  0.16304639  1
  I  I73  1  0.83565980  -0.00290894  0.50579683  1
  I  I74  1  0.84050926  0.00064723  0.83355191  1
  I  I75  1  0.83357973  0.33414917  0.15944184  1
  I  I76  1  0.83179037  0.33320683  0.50274200  1
  I  I77  1  0.83875893  0.33353034  0.83797739  1
  I  I78  1  0.83262353  0.66333495  0.16347034  1
  I  I79  1  0.83256193  0.66921147  0.50523717  1
  I  I80  1  0.83830380  0.66588718  0.83342983  1
  I  I81  1  0.16261395  0.16816186  -0.00038599  1
  I  I82  1  0.16170697  0.17412281  0.33166288  1
  I  I83  1  0.16257768  0.16796136  0.66864343  1
  I  I84  1  0.16858106  0.49611701  -0.00016099  1
  I  I85  1  0.16432984  0.49464391  0.33006845  1
  I  I86  1  0.16370806  0.49855845  0.67020687  1
  I  I87  1  0.15807743  0.83600422  -0.00412516  1
  I  I88  1  0.16588915  0.83295552  0.33351171  1
  I  I89  1  0.16432991  0.83094626  0.67093958  1
  I  I90  1  0.49575269  0.16896043  0.00012910  1
  I  I91  1  0.50134290  0.16619498  0.33315209  1
  I  I92  1  0.50012150  0.17023948  0.66656303  1
  I  I93  1  0.49987194  0.49954501  0.00297791  1
  I  I94  1  0.50068441  0.49904918  0.33177262  1
  I  I95  1  0.49979582  0.50091397  0.66458513  1
  I  I96  1  0.50258562  0.83174139  -0.00014403  1
  I  I97  1  0.50203759  0.83512453  0.33351055  1
  I  I98  1  0.49779416  0.82917530  0.66669001  1
  I  I99  1  0.84077839  0.16633102  -0.00062452  1
  I  I100  1  0.83831836  0.17125265  0.33004618  1
  I  I101  1  0.83796501  0.16972861  0.66987578  1
  I  I102  1  0.83132300  0.50187777  -0.00019718  1
  I  I103  1  0.83515560  0.49719698  0.32991879  1
  I  I104  1  0.83625456  0.49782505  0.67015507  1
  I  I105  1  0.83772354  0.83227560  -0.00359008  1
  I  I106  1  0.83180568  0.83203444  0.33536308  1
  I  I107  1  0.83736762  0.83214446  0.66901324  1
  I  I108  1  0.00043623  0.17496252  0.16525033  1
  I  I109  1  0.00289504  0.16894234  0.50120206  1
  I  I110  1  0.00037781  0.16690830  0.83416205  1
  I  I111  1  -0.00000195  0.49584431  0.16105816  1
  I  I112  1  0.00005185  0.50068733  0.49790619  1
  I  I113  1  -0.00000110  0.50007232  0.84004304  1
  I  I114  1  -0.00011860  0.82735040  0.17069442  1
  I  I115  1  -0.00295076  0.83004040  0.50196787  1
  I  I116  1  -0.00067083  0.83288824  0.82968494  1
  I  I117  1  0.32960461  0.17131168  0.16414272  1
  I  I118  1  0.32866438  0.16679307  0.50178044  1
  I  I119  1  0.32910051  0.16767185  0.83426477  1
  I  I120  1  0.33186044  0.49553080  0.16513319  1
  I  I121  1  0.33596376  0.49847726  0.49594099  1
  I  I122  1  0.32976638  0.49936251  0.83626255  1
  I  I123  1  0.33293141  0.83452867  0.16482143  1
  I  I124  1  0.33320956  0.83409567  0.50123930  1
  I  I125  1  0.32973186  0.83257517  0.83456805  1
  I  I126  1  0.67025672  0.17008926  0.16099239  1
  I  I127  1  0.66679311  0.16527280  0.50060796  1
  I  I128  1  0.67104054  0.16742125  0.83804187  1
  I  I129  1  0.66805180  0.49709041  0.16598466  1
  I  I130  1  0.66418040  0.50130731  0.49581791  1
  I  I131  1  0.67028344  0.50094900  0.83645530  1
  I  I132  1  0.66703883  0.83375000  0.16441359  1
  I  I133  1  0.67050823  0.83510047  0.50805055  1
  I  I134  1  0.67084725  0.83170563  0.83004177  1
