# generated using pymatgen
data_Cs27Sn13Pb14I81
_symmetry_space_group_name_H-M   'P 1'
_cell_length_a   18.97762850
_cell_length_b   18.97066182
_cell_length_c   18.98202154
_cell_angle_alpha   89.99934271
_cell_angle_beta   89.99729945
_cell_angle_gamma   90.00315527
_symmetry_Int_Tables_number   1
_chemical_formula_structural   Cs27Sn13Pb14I81
_chemical_formula_sum   'Cs27 Sn13 Pb14 I81'
_cell_volume   6833.87268681
_cell_formula_units_Z   1
loop_
 _symmetry_equiv_pos_site_id
 _symmetry_equiv_pos_as_xyz
  1  'x, y, z'
loop_
 _atom_site_type_symbol
 _atom_site_label
 _atom_site_symmetry_multiplicity
 _atom_site_fract_x
 _atom_site_fract_y
 _atom_site_fract_z
 _atom_site_occupancy
  Cs  Cs0  1  0.00811125  -0.00577313  0.00747150  1
  Cs  Cs1  1  -0.00137600  -0.00151594  0.32046338  1
  Cs  Cs2  1  0.00102266  -0.00541567  0.67087531  1
  Cs  Cs3  1  -0.00178886  0.33278006  0.00111058  1
  Cs  Cs4  1  0.00005359  0.33302332  0.33396839  1
  Cs  Cs5  1  -0.00121827  0.33527141  0.66509564  1
  Cs  Cs6  1  0.00123407  0.66882890  -0.00144170  1
  Cs  Cs7  1  0.00077349  0.66576549  0.33656242  1
  Cs  Cs8  1  -0.00057502  0.66699415  0.66563208  1
  Cs  Cs9  1  0.32550313  0.00029708  -0.00071425  1
  Cs  Cs10  1  0.33385672  -0.00108178  0.33665248  1
  Cs  Cs11  1  0.33333894  0.00398516  0.66495469  1
  Cs  Cs12  1  0.33682004  0.33448515  -0.00161976  1
  Cs  Cs13  1  0.33216951  0.33224529  0.33876554  1
  Cs  Cs14  1  0.33237041  0.33231064  0.66489072  1
  Cs  Cs15  1  0.33513495  0.66625031  0.00280451  1
  Cs  Cs16  1  0.33450374  0.66814051  0.33092162  1
  Cs  Cs17  1  0.33217429  0.66470576  0.66652509  1
  Cs  Cs18  1  0.66929998  0.00451279  0.00037164  1
  Cs  Cs19  1  0.66622593  -0.00681080  0.33507298  1
  Cs  Cs20  1  0.66498679  -0.00015916  0.66408655  1
  Cs  Cs21  1  0.66593027  0.33391471  -0.00103485  1
  Cs  Cs22  1  0.66847258  0.33346319  0.33273148  1
  Cs  Cs23  1  0.66760884  0.33305047  0.66797154  1
  Cs  Cs24  1  0.66398124  0.66530209  -0.00012680  1
  Cs  Cs25  1  0.66346351  0.67138662  0.33272949  1
  Cs  Cs26  1  0.66851622  0.66669543  0.66764370  1
  Sn  Sn27  1  0.50006340  0.16682617  0.16619129  1
  Sn  Sn28  1  0.83352558  0.49939424  0.83343056  1
  Sn  Sn29  1  0.16644165  0.83358293  0.50025287  1
  Sn  Sn30  1  0.16648483  0.49961187  0.83416840  1
  Sn  Sn31  1  0.50021280  0.83374623  0.83340719  1
  Sn  Sn32  1  0.50098483  0.49986642  0.50070947  1
  Sn  Sn33  1  0.83319496  0.16709989  0.83268323  1
  Sn  Sn34  1  0.49998605  0.49988272  0.83234255  1
  Sn  Sn35  1  0.83365257  0.16697195  0.50072867  1
  Sn  Sn36  1  0.83208539  0.49938631  0.49995047  1
  Sn  Sn37  1  0.83396843  0.49990845  0.16651196  1
  Sn  Sn38  1  0.50076619  0.16659760  0.83424035  1
  Sn  Sn39  1  0.16602692  0.49942742  0.16587830  1
  Pb  Pb40  1  0.16594007  0.16893577  0.83318512  1
  Pb  Pb41  1  0.83138474  0.83387052  0.83345514  1
  Pb  Pb42  1  0.49840585  0.83065626  0.50231663  1
  Pb  Pb43  1  0.83169819  0.16858051  0.16622217  1
  Pb  Pb44  1  0.50013884  0.49861737  0.16681885  1
  Pb  Pb45  1  0.16950644  0.16959932  0.16665213  1
  Pb  Pb46  1  0.16271570  0.16371797  0.50010301  1
  Pb  Pb47  1  0.16919114  0.83060345  0.83182635  1
  Pb  Pb48  1  0.16641559  0.50073773  0.50003956  1
  Pb  Pb49  1  0.83511307  0.83358379  0.50017894  1
  Pb  Pb50  1  0.49993539  0.83685424  0.16367371  1
  Pb  Pb51  1  0.16698115  0.83037939  0.16891384  1
  Pb  Pb52  1  0.50194128  0.16859070  0.50047257  1
  Pb  Pb53  1  0.83295398  0.83001107  0.16629912  1
  I  I54  1  0.16688880  -0.00002871  0.16766503  1
  I  I55  1  0.16872477  -0.00357415  0.50232955  1
  I  I56  1  0.16693717  -0.00014039  0.83160736  1
  I  I57  1  0.16221470  0.33762742  0.16400363  1
  I  I58  1  0.16869339  0.33352224  0.49963929  1
  I  I59  1  0.17126708  0.33763996  0.83505266  1
  I  I60  1  0.16431332  0.66228338  0.16229072  1
  I  I61  1  0.16578816  0.66799541  0.50073128  1
  I  I62  1  0.16582944  0.66203918  0.83584480  1
  I  I63  1  0.50187497  0.00468771  0.16276646  1
  I  I64  1  0.50036452  0.00012163  0.50038948  1
  I  I65  1  0.50553219  0.00132630  0.83759201  1
  I  I66  1  0.50049325  0.33121622  0.15962279  1
  I  I67  1  0.49978098  0.33691978  0.50531643  1
  I  I68  1  0.50084184  0.33430107  0.83404182  1
  I  I69  1  0.49979799  0.66639777  0.16653835  1
  I  I70  1  0.50569392  0.66229549  0.50444736  1
  I  I71  1  0.49991317  0.66449164  0.82847892  1
  I  I72  1  0.83207969  0.00052507  0.16752375  1
  I  I73  1  0.83362776  0.00337990  0.50648860  1
  I  I74  1  0.82685632  0.00382667  0.82668903  1
  I  I75  1  0.83607510  0.33708959  0.16651073  1
  I  I76  1  0.83013752  0.33528328  0.50149771  1
  I  I77  1  0.82855501  0.33497152  0.83264431  1
  I  I78  1  0.83543108  0.66103267  0.16656247  1
  I  I79  1  0.83135383  0.66288993  0.50118163  1
  I  I80  1  0.83257427  0.66275477  0.83220651  1
  I  I81  1  0.16293430  0.16458676  -0.00018616  1
  I  I82  1  0.16807140  0.17011414  0.33340478  1
  I  I83  1  0.17210056  0.16977078  0.66672171  1
  I  I84  1  0.16450706  0.49998439  -0.00104648  1
  I  I85  1  0.16404836  0.50205583  0.33117682  1
  I  I86  1  0.16578451  0.50188868  0.66934090  1
  I  I87  1  0.16722522  0.83381906  -0.00006619  1
  I  I88  1  0.16702182  0.82968959  0.33636438  1
  I  I89  1  0.16620256  0.82875816  0.66442984  1
  I  I90  1  0.50584652  0.17047930  -0.00255980  1
  I  I91  1  0.50086124  0.17159319  0.33168249  1
  I  I92  1  0.50188517  0.16612137  0.67014408  1
  I  I93  1  0.50174656  0.50111866  -0.00327637  1
  I  I94  1  0.50218661  0.49743358  0.33575329  1
  I  I95  1  0.50166407  0.49852158  0.66839319  1
  I  I96  1  0.49979981  0.82435079  -0.00423659  1
  I  I97  1  0.49877369  0.83256099  0.33352186  1
  I  I98  1  0.49974303  0.83637243  0.67010505  1
  I  I99  1  0.82857826  0.17306381  -0.00330715  1
  I  I100  1  0.83236821  0.17256655  0.33569204  1
  I  I101  1  0.82692520  0.17634144  0.66778627  1
  I  I102  1  0.83312074  0.49636812  -0.00140788  1
  I  I103  1  0.83405261  0.49579039  0.33408939  1
  I  I104  1  0.83270495  0.49680432  0.66734790  1
  I  I105  1  0.83359768  0.83322237  -0.00032681  1
  I  I106  1  0.83331093  0.83377798  0.33343255  1
  I  I107  1  0.83425210  0.82813885  0.66680095  1
  I  I108  1  -0.00025513  0.16599582  0.16692031  1
  I  I109  1  -0.00513222  0.17693007  0.50646604  1
  I  I110  1  -0.00381702  0.17347789  0.82804159  1
  I  I111  1  -0.00077023  0.49942076  0.16405923  1
  I  I112  1  -0.00313459  0.49855834  0.50227990  1
  I  I113  1  -0.00122474  0.49572237  0.83300675  1
  I  I114  1  0.00014173  0.83634462  0.16615440  1
  I  I115  1  0.00251949  0.82819373  0.50206078  1
  I  I116  1  0.00028306  0.83241446  0.83186070  1
  I  I117  1  0.33733104  0.16963111  0.15932185  1
  I  I118  1  0.33346885  0.16831044  0.49998595  1
  I  I119  1  0.33666303  0.16819729  0.83706592  1
  I  I120  1  0.33133394  0.49881916  0.16334889  1
  I  I121  1  0.33565593  0.50166286  0.50332811  1
  I  I122  1  0.33456291  0.50022334  0.83306666  1
  I  I123  1  0.33349050  0.82934248  0.16711038  1
  I  I124  1  0.33091137  0.82919831  0.50108349  1
  I  I125  1  0.33711256  0.83305663  0.83219961  1
  I  I126  1  0.66400441  0.17162252  0.16323718  1
  I  I127  1  0.66987693  0.16998763  0.50196740  1
  I  I128  1  0.66619471  0.17235081  0.83361793  1
  I  I129  1  0.66928175  0.49758062  0.16451849  1
  I  I130  1  0.66745841  0.49719198  0.50334483  1
  I  I131  1  0.66657145  0.49968900  0.83284894  1
  I  I132  1  0.66622544  0.82968603  0.16862062  1
  I  I133  1  0.66662035  0.83345659  0.50033188  1
  I  I134  1  0.66336364  0.82707436  0.83169899  1
