# generated using pymatgen
data_Cs27Sn14Pb13I81
_symmetry_space_group_name_H-M   'P 1'
_cell_length_a   18.97604257
_cell_length_b   18.96925932
_cell_length_c   18.98221237
_cell_angle_alpha   89.99914315
_cell_angle_beta   89.99893065
_cell_angle_gamma   89.99905705
_symmetry_Int_Tables_number   1
_chemical_formula_structural   Cs27Sn14Pb13I81
_chemical_formula_sum   'Cs27 Sn14 Pb13 I81'
_cell_volume   6832.86511129
_cell_formula_units_Z   1
loop_
 _symmetry_equiv_pos_site_id
 _symmetry_equiv_pos_as_xyz
  1  'x, y, z'
loop_
 _atom_site_type_symbol
 _atom_site_label
 _atom_site_symmetry_multiplicity
 _atom_site_fract_x
 _atom_site_fract_y
 _atom_site_fract_z
 _atom_site_occupancy
  Cs  Cs0  1  -0.00046261  -0.00043993  -0.00033906  1
  Cs  Cs1  1  -0.00172403  -0.00040098  0.33492119  1
  Cs  Cs2  1  -0.00035136  0.00132719  0.66564907  1
  Cs  Cs3  1  0.00017562  0.33426025  -0.01024981  1
  Cs  Cs4  1  -0.00142516  0.32954335  0.33401075  1
  Cs  Cs5  1  0.00568516  0.33207084  0.67600546  1
  Cs  Cs6  1  0.00034688  0.66728686  0.00353526  1
  Cs  Cs7  1  -0.00074377  0.66777846  0.33176518  1
  Cs  Cs8  1  0.00304306  0.66757704  0.66441780  1
  Cs  Cs9  1  0.33520830  -0.00046026  0.00137436  1
  Cs  Cs10  1  0.33265042  0.00261987  0.33249411  1
  Cs  Cs11  1  0.33848940  -0.00175202  0.66587347  1
  Cs  Cs12  1  0.33272082  0.33235099  0.00344004  1
  Cs  Cs13  1  0.33329904  0.33146297  0.33055091  1
  Cs  Cs14  1  0.32763814  0.34384529  0.66689901  1
  Cs  Cs15  1  0.33145536  0.66887215  -0.00076857  1
  Cs  Cs16  1  0.33052139  0.66568665  0.33544810  1
  Cs  Cs17  1  0.33201196  0.66081448  0.66509870  1
  Cs  Cs18  1  0.66528233  -0.00150686  -0.00163536  1
  Cs  Cs19  1  0.66788552  -0.00032757  0.33540154  1
  Cs  Cs20  1  0.66602028  0.00022257  0.66568543  1
  Cs  Cs21  1  0.66741332  0.34327018  0.00074635  1
  Cs  Cs22  1  0.66580048  0.33344736  0.33268884  1
  Cs  Cs23  1  0.66748225  0.33097067  0.66647543  1
  Cs  Cs24  1  0.66754624  0.66535388  0.00097804  1
  Cs  Cs25  1  0.66871748  0.66583681  0.33383905  1
  Cs  Cs26  1  0.66489589  0.66823632  0.66514545  1
  Sn  Sn27  1  0.50048359  0.16595246  0.50106920  1
  Sn  Sn28  1  0.83276624  0.16672687  0.49959723  1
  Sn  Sn29  1  0.50068123  0.83392343  0.49977324  1
  Sn  Sn30  1  0.50019193  0.16625481  0.83251559  1
  Sn  Sn31  1  0.83253467  0.83345554  0.50013465  1
  Sn  Sn32  1  0.83307872  0.16600688  0.16651422  1
  Sn  Sn33  1  0.49992822  0.83358069  0.83313184  1
  Sn  Sn34  1  0.83332572  0.83349950  0.83325506  1
  Sn  Sn35  1  0.16620138  0.50037852  0.16703001  1
  Sn  Sn36  1  0.16659957  0.83298660  0.16610595  1
  Sn  Sn37  1  0.83355240  0.49949109  0.50032154  1
  Sn  Sn38  1  0.83311892  0.83418819  0.16660038  1
  Sn  Sn39  1  0.50016146  0.83342949  0.16708534  1
  Sn  Sn40  1  0.16686947  0.83388859  0.83382128  1
  Pb  Pb41  1  0.83320176  0.50316217  0.83038637  1
  Pb  Pb42  1  0.50196997  0.49959740  0.49985063  1
  Pb  Pb43  1  0.16364694  0.49991466  0.49733920  1
  Pb  Pb44  1  0.49762110  0.50297433  0.16694462  1
  Pb  Pb45  1  0.17027988  0.16362196  0.83326102  1
  Pb  Pb46  1  0.16359980  0.16592356  0.16651982  1
  Pb  Pb47  1  0.83512195  0.49980672  0.16831852  1
  Pb  Pb48  1  0.50259281  0.16468819  0.16665409  1
  Pb  Pb49  1  0.16719428  0.16653789  0.50023171  1
  Pb  Pb50  1  0.83117273  0.16462614  0.83333775  1
  Pb  Pb51  1  0.50010503  0.50004066  0.83330962  1
  Pb  Pb52  1  0.16706491  0.83364808  0.49979939  1
  Pb  Pb53  1  0.16667662  0.50288131  0.83595364  1
  I  I54  1  0.16837926  -0.00400023  0.16279216  1
  I  I55  1  0.16137193  -0.00039517  0.49688300  1
  I  I56  1  0.16349722  -0.00462695  0.84099135  1
  I  I57  1  0.16512246  0.33570904  0.16974816  1
  I  I58  1  0.16724692  0.33339043  0.49691846  1
  I  I59  1  0.16722442  0.33329991  0.83452935  1
  I  I60  1  0.16448418  0.66962456  0.16290087  1
  I  I61  1  0.16662602  0.66713224  0.50231363  1
  I  I62  1  0.16916870  0.67138369  0.83433698  1
  I  I63  1  0.49516264  -0.00421364  0.16617230  1
  I  I64  1  0.50780655  -0.00153478  0.50089585  1
  I  I65  1  0.50000077  -0.00247397  0.83225007  1
  I  I66  1  0.49960888  0.33299751  0.16658788  1
  I  I67  1  0.50500216  0.32958396  0.50442516  1
  I  I68  1  0.50182876  0.32990590  0.82761036  1
  I  I69  1  0.50653821  0.67221300  0.16607359  1
  I  I70  1  0.50397992  0.67031987  0.50075155  1
  I  I71  1  0.49986720  0.67142834  0.83264706  1
  I  I72  1  0.83544331  -0.00246240  0.17177356  1
  I  I73  1  0.82963556  -0.00107379  0.49850378  1
  I  I74  1  0.83528577  -0.00424276  0.83034538  1
  I  I75  1  0.83420522  0.33047563  0.17287015  1
  I  I76  1  0.82859822  0.33190274  0.49210038  1
  I  I77  1  0.83165014  0.33311565  0.83445443  1
  I  I78  1  0.83182279  0.67048882  0.16734336  1
  I  I79  1  0.82991813  0.66894308  0.49955682  1
  I  I80  1  0.83026480  0.67220200  0.83561341  1
  I  I81  1  0.16610006  0.16856782  0.00003489  1
  I  I82  1  0.17061861  0.16420558  0.33305642  1
  I  I83  1  0.16020546  0.16472868  0.66689261  1
  I  I84  1  0.16431261  0.50371436  0.00352349  1
  I  I85  1  0.16679726  0.51055486  0.32991796  1
  I  I86  1  0.16646258  0.50086796  0.66678020  1
  I  I87  1  0.16648017  0.82953275  0.00066528  1
  I  I88  1  0.16605217  0.82946806  0.33003557  1
  I  I89  1  0.16565331  0.83470605  0.66952748  1
  I  I90  1  0.50010937  0.16000309  -0.00228117  1
  I  I91  1  0.50245957  0.16185686  0.33624589  1
  I  I92  1  0.50731074  0.15524373  0.66560890  1
  I  I93  1  0.50136286  0.49938132  0.00018275  1
  I  I94  1  0.49945973  0.50087231  0.33337962  1
  I  I95  1  0.49969941  0.50593477  0.66649354  1
  I  I96  1  0.50178179  0.83663305  -0.00025040  1
  I  I97  1  0.50286206  0.83640192  0.33371169  1
  I  I98  1  0.50331506  0.83720374  0.66648178  1
  I  I99  1  0.83336941  0.16009991  0.00236924  1
  I  I100  1  0.82913877  0.16145727  0.33446978  1
  I  I101  1  0.83104413  0.16492464  0.66353154  1
  I  I102  1  0.83465930  0.49945832  -0.00001302  1
  I  I103  1  0.83403592  0.50596035  0.33612077  1
  I  I104  1  0.83221503  0.49995007  0.66235271  1
  I  I105  1  0.83161860  0.83779044  0.00067944  1
  I  I106  1  0.83162598  0.83335084  0.33359722  1
  I  I107  1  0.83118264  0.83279246  0.66592175  1
  I  I108  1  -0.00434141  0.15944865  0.17440544  1
  I  I109  1  -0.00400163  0.16403324  0.49452564  1
  I  I110  1  -0.00020496  0.16569445  0.83310941  1
  I  I111  1  0.00258995  0.50921890  0.16889971  1
  I  I112  1  -0.00441561  0.50371767  0.49877114  1
  I  I113  1  -0.00011363  0.50046773  0.83225415  1
  I  I114  1  -0.00084210  0.83263558  0.16445982  1
  I  I115  1  -0.00349444  0.83379621  0.49982508  1
  I  I116  1  -0.00062663  0.83172195  0.83620951  1
  I  I117  1  0.33358443  0.16625451  0.16753869  1
  I  I118  1  0.33746036  0.15894583  0.50265038  1
  I  I119  1  0.33820389  0.15921296  0.82820989  1
  I  I120  1  0.32967276  0.50611708  0.16646737  1
  I  I121  1  0.33324151  0.50085249  0.50005957  1
  I  I122  1  0.33325054  0.50239671  0.83214864  1
  I  I123  1  0.33358064  0.82875887  0.16366259  1
  I  I124  1  0.33697103  0.83823555  0.49964125  1
  I  I125  1  0.33415911  0.83723425  0.83730104  1
  I  I126  1  0.67042599  0.15991625  0.16946191  1
  I  I127  1  0.66744669  0.16427049  0.49974429  1
  I  I128  1  0.66352579  0.15776085  0.83148606  1
  I  I129  1  0.66697931  0.50083065  0.16721177  1
  I  I130  1  0.66998728  0.50278259  0.49742421  1
  I  I131  1  0.66685973  0.50382542  0.83584488  1
  I  I132  1  0.66723234  0.83795981  0.16505413  1
  I  I133  1  0.66747432  0.83345949  0.49979324  1
  I  I134  1  0.66639831  0.83656561  0.83510252  1
