# generated using pymatgen
data_Cs27Sn13Pb14I81
_symmetry_space_group_name_H-M   'P 1'
_cell_length_a   19.00147130
_cell_length_b   18.97841653
_cell_length_c   19.00076107
_cell_angle_alpha   90.00153444
_cell_angle_beta   89.99902549
_cell_angle_gamma   89.99892001
_symmetry_Int_Tables_number   1
_chemical_formula_structural   Cs27Sn13Pb14I81
_chemical_formula_sum   'Cs27 Sn13 Pb14 I81'
_cell_volume   6852.01335587
_cell_formula_units_Z   1
loop_
 _symmetry_equiv_pos_site_id
 _symmetry_equiv_pos_as_xyz
  1  'x, y, z'
loop_
 _atom_site_type_symbol
 _atom_site_label
 _atom_site_symmetry_multiplicity
 _atom_site_fract_x
 _atom_site_fract_y
 _atom_site_fract_z
 _atom_site_occupancy
  Cs  Cs0  1  -0.00226092  -0.00024471  0.00066002  1
  Cs  Cs1  1  0.00040425  -0.00017000  0.33192084  1
  Cs  Cs2  1  -0.00171869  0.00266051  0.66737046  1
  Cs  Cs3  1  -0.00013420  0.33194663  0.00079179  1
  Cs  Cs4  1  -0.00153598  0.33356233  0.33249058  1
  Cs  Cs5  1  -0.00019780  0.33299015  0.66519747  1
  Cs  Cs6  1  -0.00134191  0.67326911  -0.00010628  1
  Cs  Cs7  1  0.00124341  0.66956353  0.33593301  1
  Cs  Cs8  1  0.00897538  0.66784258  0.66310324  1
  Cs  Cs9  1  0.33561125  -0.00253318  0.00239779  1
  Cs  Cs10  1  0.34069985  -0.00550933  0.33542207  1
  Cs  Cs11  1  0.33493121  -0.00591126  0.66388131  1
  Cs  Cs12  1  0.33333340  0.33333335  -0.00000000  1
  Cs  Cs13  1  0.33510109  0.33218230  0.32906320  1
  Cs  Cs14  1  0.33156546  0.33448446  0.67093701  1
  Cs  Cs15  1  0.33105545  0.66919959  -0.00239770  1
  Cs  Cs16  1  0.33173552  0.67257783  0.33611881  1
  Cs  Cs17  1  0.32596700  0.67217639  0.66457784  1
  Cs  Cs18  1  0.66800857  -0.00660260  0.00010634  1
  Cs  Cs19  1  0.65769135  -0.00117577  0.33689667  1
  Cs  Cs20  1  0.66542315  -0.00289684  0.66406704  1
  Cs  Cs21  1  0.66680092  0.33472004  -0.00079184  1
  Cs  Cs22  1  0.66686440  0.33367640  0.33480266  1
  Cs  Cs23  1  0.66820281  0.33310415  0.66750952  1
  Cs  Cs24  1  0.66892770  0.66691130  -0.00065997  1
  Cs  Cs25  1  0.66838558  0.66400623  0.33262969  1
  Cs  Cs26  1  0.66626258  0.66683674  0.66807919  1
  Sn  Sn27  1  0.16625339  0.49931567  0.16637679  1
  Sn  Sn28  1  0.83333333  0.83333335  0.50000000  1
  Sn  Sn29  1  0.50033347  0.49925406  0.83315241  1
  Sn  Sn30  1  0.16671602  0.16715224  0.83367885  1
  Sn  Sn31  1  0.49979500  0.49925323  0.50060168  1
  Sn  Sn32  1  0.83382123  0.49893296  0.16576167  1
  Sn  Sn33  1  0.16633316  0.16741262  0.16684753  1
  Sn  Sn34  1  0.50041326  0.16735102  0.83362321  1
  Sn  Sn35  1  0.16687172  0.16741346  0.49939842  1
  Sn  Sn36  1  0.83327537  0.16740913  0.16615099  1
  Sn  Sn37  1  0.83339132  0.49925753  0.83384897  1
  Sn  Sn38  1  0.83284543  0.16773373  0.83423837  1
  Sn  Sn39  1  0.49995066  0.49951441  0.16632124  1
  Pb  Pb40  1  0.16444580  0.83653535  0.49978776  1
  Pb  Pb41  1  0.49759560  0.16904816  0.50280202  1
  Pb  Pb42  1  0.16639601  0.83708141  0.83363443  1
  Pb  Pb43  1  0.50027062  0.82958515  0.16636556  1
  Pb  Pb44  1  0.16617455  0.49839154  0.83553189  1
  Pb  Pb45  1  0.50049212  0.16827516  0.16446808  1
  Pb  Pb46  1  0.16648477  0.83415097  0.16656756  1
  Pb  Pb47  1  0.83322484  0.83375588  0.16861339  1
  Pb  Pb48  1  0.50018190  0.83251572  0.83343245  1
  Pb  Pb49  1  0.50222089  0.83013130  0.50021220  1
  Pb  Pb50  1  0.83209551  0.50124689  0.50034747  1
  Pb  Pb51  1  0.16907104  0.49761859  0.49719796  1
  Pb  Pb52  1  0.83344184  0.83291084  0.83138662  1
  Pb  Pb53  1  0.83457111  0.16541979  0.49965252  1
  I  I54  1  0.15980552  0.00447984  0.16510211  1
  I  I55  1  0.16697259  0.00449750  0.49870001  1
  I  I56  1  0.16577407  0.00611831  0.83638713  1
  I  I57  1  0.16601964  0.33261499  0.16644986  1
  I  I58  1  0.16418374  0.32989451  0.50316250  1
  I  I59  1  0.16703018  0.32982809  0.83147132  1
  I  I60  1  0.16687647  0.66315749  0.16693737  1
  I  I61  1  0.16765190  0.66651346  0.49878257  1
  I  I62  1  0.16690022  0.66634125  0.83418436  1
  I  I63  1  0.49976688  0.00032544  0.16581542  1
  I  I64  1  0.49901507  0.00015316  0.50121811  1
  I  I65  1  0.49979032  0.00350916  0.83306214  1
  I  I66  1  0.49963629  0.33683859  0.16852886  1
  I  I67  1  0.50248344  0.33677222  0.49683687  1
  I  I68  1  0.50064702  0.33405167  0.83355048  1
  I  I69  1  0.50089219  0.66054838  0.16361290  1
  I  I70  1  0.49969313  0.66216921  0.50129981  1
  I  I71  1  0.50686101  0.66218687  0.83489800  1
  I  I72  1  0.84051613  0.00380918  0.16179175  1
  I  I73  1  0.83553199  -0.00225101  0.50069279  1
  I  I74  1  0.83399164  0.00379526  0.83705324  1
  I  I75  1  0.83454673  0.33388869  0.16370222  1
  I  I76  1  0.83333308  0.33333336  0.50000019  1
  I  I77  1  0.83212012  0.33277798  0.83629750  1
  I  I78  1  0.83267517  0.66287129  0.16294693  1
  I  I79  1  0.83113491  0.66891759  0.49930688  1
  I  I80  1  0.82615013  0.66285753  0.83820831  1
  I  I81  1  0.16546648  0.17163961  0.00030070  1
  I  I82  1  0.15967620  0.17159464  0.33180585  1
  I  I83  1  0.16593371  0.16596663  0.66768234  1
  I  I84  1  0.17118059  0.49343280  0.00342723  1
  I  I85  1  0.16488742  0.49337194  0.32917916  1
  I  I86  1  0.16668807  0.49861587  0.66677445  1
  I  I87  1  0.16633491  0.83359383  0.00018003  1
  I  I88  1  0.16571731  0.83450223  0.33332400  1
  I  I89  1  0.16610878  0.83300971  0.66647396  1
  I  I90  1  0.49548599  0.17323375  -0.00342724  1
  I  I91  1  0.49997864  0.16805024  0.33322553  1
  I  I92  1  0.50177934  0.17329533  0.67082085  1
  I  I93  1  0.50119998  0.49502711  -0.00030066  1
  I  I94  1  0.50073260  0.50070012  0.33231765  1
  I  I95  1  0.50699073  0.49507183  0.66819421  1
  I  I96  1  0.50033194  0.83307305  -0.00018002  1
  I  I97  1  0.50055805  0.83365749  0.33352604  1
  I  I98  1  0.50094886  0.83216377  0.66667598  1
  I  I99  1  0.83863838  0.17059822  -0.00034695  1
  I  I100  1  0.83946338  0.17077097  0.32995639  1
  I  I101  1  0.83482446  0.16985730  0.66997714  1
  I  I102  1  0.82802847  0.49606856  0.00034697  1
  I  I103  1  0.83184242  0.49680908  0.33002292  1
  I  I104  1  0.82720287  0.49589597  0.67004361  1
  I  I105  1  0.83333314  0.83333332  -0.00000002  1
  I  I106  1  0.83411690  0.83229974  0.33592270  1
  I  I107  1  0.83254996  0.83436692  0.66407734  1
  I  I108  1  -0.00000607  0.17452234  0.16239904  1
  I  I109  1  0.00253800  0.16640171  0.50451802  1
  I  I110  1  -0.00051141  0.17011029  0.83337267  1
  I  I111  1  -0.00077413  0.49503418  0.16249137  1
  I  I112  1  0.00026073  0.50182545  0.50052133  1
  I  I113  1  -0.00317602  0.49567270  0.83711289  1
  I  I114  1  -0.00020106  0.82829060  0.16796830  1
  I  I115  1  -0.00266577  0.83010480  0.50021062  1
  I  I116  1  -0.00023573  0.83171499  0.83192146  1
  I  I117  1  0.33060108  0.17150126  0.16527995  1
  I  I118  1  0.32976957  0.16819026  0.49782138  1
  I  I119  1  0.33343260  0.17215000  0.83318366  1
  I  I120  1  0.33323405  0.49451662  0.16681612  1
  I  I121  1  0.33689708  0.49847583  0.50217861  1
  I  I122  1  0.33606555  0.49516518  0.83472001  1
  I  I123  1  0.33330010  0.83491062  0.16849877  1
  I  I124  1  0.33333335  0.83333363  0.49999986  1
  I  I125  1  0.33336655  0.83175644  0.83150148  1
  I  I126  1  0.66984267  0.17099436  0.16288695  1
  I  I127  1  0.66640591  0.16484093  0.49947873  1
  I  I128  1  0.66744081  0.17163254  0.83750860  1
  I  I129  1  0.66717814  0.49655638  0.16662727  1
  I  I130  1  0.66412868  0.50026570  0.49548147  1
  I  I131  1  0.66667277  0.49214426  0.83760131  1
  I  I132  1  0.66690240  0.83495116  0.16807863  1
  I  I133  1  0.66933249  0.83656139  0.49978966  1
  I  I134  1  0.66686773  0.83837626  0.83203124  1
