# generated using pymatgen
data_Cs27Sn13Pb14I81
_symmetry_space_group_name_H-M   'P 1'
_cell_length_a   18.97188368
_cell_length_b   18.98297440
_cell_length_c   18.97780301
_cell_angle_alpha   90.00054606
_cell_angle_beta   90.00066082
_cell_angle_gamma   89.99905513
_symmetry_Int_Tables_number   1
_chemical_formula_structural   Cs27Sn13Pb14I81
_chemical_formula_sum   'Cs27 Sn13 Pb14 I81'
_cell_volume   6834.71877572
_cell_formula_units_Z   1
loop_
 _symmetry_equiv_pos_site_id
 _symmetry_equiv_pos_as_xyz
  1  'x, y, z'
loop_
 _atom_site_type_symbol
 _atom_site_label
 _atom_site_symmetry_multiplicity
 _atom_site_fract_x
 _atom_site_fract_y
 _atom_site_fract_z
 _atom_site_occupancy
  Cs  Cs0  1  -0.00018678  -0.00193408  0.00084782  1
  Cs  Cs1  1  0.00092358  0.00019514  0.33269760  1
  Cs  Cs2  1  0.00047256  -0.00306657  0.66715899  1
  Cs  Cs3  1  -0.00086032  0.33377109  0.00145256  1
  Cs  Cs4  1  -0.00230774  0.33213147  0.33401022  1
  Cs  Cs5  1  0.00025348  0.33590949  0.66478860  1
  Cs  Cs6  1  -0.00108048  0.66720040  -0.00066065  1
  Cs  Cs7  1  -0.00045060  0.66830634  0.33165254  1
  Cs  Cs8  1  0.00102467  0.66673292  0.66776639  1
  Cs  Cs9  1  0.33363414  0.00245607  0.00023581  1
  Cs  Cs10  1  0.33135655  -0.00440127  0.33485546  1
  Cs  Cs11  1  0.33469360  0.00186600  0.66564028  1
  Cs  Cs12  1  0.33509889  0.33246289  -0.00086242  1
  Cs  Cs13  1  0.33560611  0.33901347  0.33327589  1
  Cs  Cs14  1  0.33224994  0.33395749  0.66695218  1
  Cs  Cs15  1  0.33361643  0.66525909  -0.00042489  1
  Cs  Cs16  1  0.34042005  0.66809927  0.33328757  1
  Cs  Cs17  1  0.33180687  0.66318402  0.66762432  1
  Cs  Cs18  1  0.66522821  0.00394178  -0.00034180  1
  Cs  Cs19  1  0.66238877  0.00367124  0.33481413  1
  Cs  Cs20  1  0.66267647  0.00092382  0.66725793  1
  Cs  Cs21  1  0.66634223  0.33346988  -0.00057536  1
  Cs  Cs22  1  0.66465811  0.32790263  0.34102624  1
  Cs  Cs23  1  0.66762324  0.33156331  0.66386269  1
  Cs  Cs24  1  0.66831201  0.66535841  -0.00115814  1
  Cs  Cs25  1  0.65970779  0.66703492  0.33426652  1
  Cs  Cs26  1  0.66751389  0.66706239  0.66776614  1
  Sn  Sn27  1  0.83370760  0.50045662  0.16651910  1
  Sn  Sn28  1  0.50107320  0.50099114  0.83364729  1
  Sn  Sn29  1  0.83456813  0.16753030  0.83345352  1
  Sn  Sn30  1  0.83394802  0.83312912  0.49876324  1
  Sn  Sn31  1  0.16613873  0.16615788  0.49974759  1
  Sn  Sn32  1  0.49986105  0.83249254  0.83378134  1
  Sn  Sn33  1  0.16527329  0.16667451  0.83333570  1
  Sn  Sn34  1  0.16588662  0.83291724  0.16720587  1
  Sn  Sn35  1  0.16553808  0.83369663  0.49933366  1
  Sn  Sn36  1  0.16574729  0.50036857  0.16658104  1
  Sn  Sn37  1  0.83365343  0.83273546  0.16769151  1
  Sn  Sn38  1  0.16623295  0.16677242  0.16701171  1
  Sn  Sn39  1  0.83289491  0.49915990  0.83396429  1
  Pb  Pb40  1  0.49674352  0.16651926  0.49991837  1
  Pb  Pb41  1  0.50018244  0.16733689  0.83339289  1
  Pb  Pb42  1  0.83567887  0.16395567  0.50256493  1
  Pb  Pb43  1  0.49967699  0.83325946  0.50240785  1
  Pb  Pb44  1  0.83488963  0.16661046  0.16525190  1
  Pb  Pb45  1  0.50115044  0.49992546  0.16486702  1
  Pb  Pb46  1  0.50018620  0.50004717  0.50318213  1
  Pb  Pb47  1  0.16607557  0.49774217  0.83542807  1
  Pb  Pb48  1  0.49711167  0.16673701  0.16685524  1
  Pb  Pb49  1  0.50044032  0.83338252  0.16444449  1
  Pb  Pb50  1  0.16860439  0.83534034  0.83352557  1
  Pb  Pb51  1  0.83349731  0.50250148  0.49933672  1
  Pb  Pb52  1  0.16638226  0.50063746  0.49674070  1
  Pb  Pb53  1  0.83190291  0.83332586  0.83374588  1
  I  I54  1  0.16319255  -0.00044286  0.16658798  1
  I  I55  1  0.16319678  -0.00037622  0.49592679  1
  I  I56  1  0.16277589  0.00336097  0.83764080  1
  I  I57  1  0.16339440  0.33325372  0.16481821  1
  I  I58  1  0.16812390  0.33040040  0.50070893  1
  I  I59  1  0.16805728  0.32965354  0.83299838  1
  I  I60  1  0.16283245  0.66739583  0.16981936  1
  I  I61  1  0.16348541  0.67030706  0.49716433  1
  I  I62  1  0.16564601  0.66658710  0.83306368  1
  I  I63  1  0.50070516  -0.00024601  0.16152931  1
  I  I64  1  0.50197784  -0.00036430  0.50477407  1
  I  I65  1  0.49971663  -0.00186771  0.83294276  1
  I  I66  1  0.49837758  0.33354427  0.16219243  1
  I  I67  1  0.49852712  0.33320908  0.50201678  1
  I  I68  1  0.50050859  0.33621695  0.83469931  1
  I  I69  1  0.49381754  0.66667111  0.16618206  1
  I  I70  1  0.49648017  0.66699763  0.49952852  1
  I  I71  1  0.50531773  0.66585337  0.83402091  1
  I  I72  1  0.83830438  -0.00295679  0.16734309  1
  I  I73  1  0.83608894  -0.00384642  0.49566087  1
  I  I74  1  0.83601927  0.00209816  0.83342887  1
  I  I75  1  0.83883888  0.33616041  0.16124111  1
  I  I76  1  0.83397692  0.33306627  0.49895829  1
  I  I77  1  0.83164079  0.33419232  0.83930277  1
  I  I78  1  0.84241072  0.66677509  0.16290920  1
  I  I79  1  0.84114394  0.67048129  0.50261893  1
  I  I80  1  0.83040160  0.66421239  0.83457541  1
  I  I81  1  0.16360646  0.16607779  0.00027069  1
  I  I82  1  0.16746546  0.16471438  0.33280835  1
  I  I83  1  0.16369888  0.16128474  0.66677497  1
  I  I84  1  0.16574217  0.50138670  0.00353423  1
  I  I85  1  0.16021712  0.49494372  0.32857595  1
  I  I86  1  0.16788063  0.49961096  0.66680410  1
  I  I87  1  0.16331208  0.83443441  0.00322564  1
  I  I88  1  0.16328410  0.83868983  0.33252784  1
  I  I89  1  0.16384204  0.83862326  0.66399865  1
  I  I90  1  0.49613113  0.16521113  -0.00045235  1
  I  I91  1  0.50164180  0.16638796  0.33349175  1
  I  I92  1  0.49708631  0.16609475  0.66709065  1
  I  I93  1  0.50062565  0.50364850  -0.00327668  1
  I  I94  1  0.49887367  0.49972194  0.33309039  1
  I  I95  1  0.50469835  0.50419046  0.67166432  1
  I  I96  1  0.49953176  0.83013995  -0.00324268  1
  I  I97  1  0.49926407  0.83388550  0.33333835  1
  I  I98  1  0.50050243  0.82980949  0.67013681  1
  I  I99  1  0.83936421  0.16512399  -0.00294582  1
  I  I100  1  0.83427628  0.16971065  0.33345068  1
  I  I101  1  0.83866236  0.17106837  0.67059760  1
  I  I102  1  0.83413182  0.50264861  -0.00006202  1
  I  I103  1  0.84014959  0.50207899  0.32958875  1
  I  I104  1  0.82878148  0.49747734  0.66983750  1
  I  I105  1  0.83780257  0.83220611  0.00279650  1
  I  I106  1  0.83895527  0.82793451  0.33218813  1
  I  I107  1  0.83687164  0.83424106  0.66470617  1
  I  I108  1  0.00373892  0.16623029  0.16728092  1
  I  I109  1  0.00394749  0.16465393  0.49786460  1
  I  I110  1  0.00059221  0.17096506  0.83405838  1
  I  I111  1  -0.00004902  0.50129808  0.15980667  1
  I  I112  1  0.00009151  0.49850311  0.50686890  1
  I  I113  1  -0.00297336  0.49785185  0.83574106  1
  I  I114  1  0.00089488  0.83293574  0.16886492  1
  I  I115  1  0.00097596  0.83727934  0.49735580  1
  I  I116  1  0.00007543  0.83200455  0.83287431  1
  I  I117  1  0.32748712  0.16591648  0.16207652  1
  I  I118  1  0.32792990  0.15930623  0.50332822  1
  I  I119  1  0.33014101  0.16593118  0.83378797  1
  I  I120  1  0.33027206  0.49953332  0.16567707  1
  I  I121  1  0.33293369  0.50110181  0.50031322  1
  I  I122  1  0.33514039  0.50244956  0.83473056  1
  I  I123  1  0.32967139  0.83381833  0.16986432  1
  I  I124  1  0.32968829  0.83821895  0.49601511  1
  I  I125  1  0.33617143  0.82883706  0.83352021  1
  I  I126  1  0.66723947  0.16586574  0.16236227  1
  I  I127  1  0.66718230  0.16519082  0.50285022  1
  I  I128  1  0.66963851  0.16674535  0.83441277  1
  I  I129  1  0.67064107  0.50720845  0.16243024  1
  I  I130  1  0.66700998  0.50249768  0.49578424  1
  I  I131  1  0.66804542  0.49871306  0.83971019  1
  I  I132  1  0.67040142  0.82720196  0.16919937  1
  I  I133  1  0.66968569  0.83146692  0.49690039  1
  I  I134  1  0.66430149  0.83411829  0.83323570  1
