# generated using pymatgen
data_Cs27Sn13Pb14I81
_symmetry_space_group_name_H-M   'P 1'
_cell_length_a   19.07341129
_cell_length_b   19.06208817
_cell_length_c   19.05378048
_cell_angle_alpha   90.00037036
_cell_angle_beta   89.99726828
_cell_angle_gamma   89.99842826
_symmetry_Int_Tables_number   1
_chemical_formula_structural   Cs27Sn13Pb14I81
_chemical_formula_sum   'Cs27 Sn13 Pb14 I81'
_cell_volume   6927.55535244
_cell_formula_units_Z   1
loop_
 _symmetry_equiv_pos_site_id
 _symmetry_equiv_pos_as_xyz
  1  'x, y, z'
loop_
 _atom_site_type_symbol
 _atom_site_label
 _atom_site_symmetry_multiplicity
 _atom_site_fract_x
 _atom_site_fract_y
 _atom_site_fract_z
 _atom_site_occupancy
  Cs  Cs0  1  -0.00777430  -0.01525660  -0.01268408  1
  Cs  Cs1  1  0.00455629  0.00427967  0.33920761  1
  Cs  Cs2  1  -0.00010103  -0.00245520  0.66975336  1
  Cs  Cs3  1  -0.00567265  0.33131503  0.00617864  1
  Cs  Cs4  1  0.00474545  0.33315285  0.33267463  1
  Cs  Cs5  1  -0.00078036  0.33425757  0.66402031  1
  Cs  Cs6  1  0.00100853  0.67831698  0.01169631  1
  Cs  Cs7  1  0.00528151  0.66473022  0.32303578  1
  Cs  Cs8  1  -0.00228356  0.66621053  0.66611292  1
  Cs  Cs9  1  0.32932820  0.00344566  0.00243052  1
  Cs  Cs10  1  0.33378513  -0.00164961  0.33140353  1
  Cs  Cs11  1  0.32934127  0.00095209  0.66795829  1
  Cs  Cs12  1  0.33946146  0.32954229  -0.00779579  1
  Cs  Cs13  1  0.32698420  0.33325873  0.33558979  1
  Cs  Cs14  1  0.33412618  0.33607301  0.66800303  1
  Cs  Cs15  1  0.33179131  0.66837280  -0.00354843  1
  Cs  Cs16  1  0.33113681  0.67076766  0.32633829  1
  Cs  Cs17  1  0.33988631  0.66076577  0.66845645  1
  Cs  Cs18  1  0.67813172  0.01234477  0.01189155  1
  Cs  Cs19  1  0.66083253  -0.00309547  0.32918046  1
  Cs  Cs20  1  0.67117481  -0.00174621  0.66349996  1
  Cs  Cs21  1  0.66551249  0.32625140  0.00544523  1
  Cs  Cs22  1  0.66886629  0.33293113  0.33496896  1
  Cs  Cs23  1  0.66537475  0.33743913  0.66471496  1
  Cs  Cs24  1  0.66801182  0.66426463  -0.00386852  1
  Cs  Cs25  1  0.66364009  0.67141632  0.33166434  1
  Cs  Cs26  1  0.66309664  0.66293342  0.66679344  1
  Sn  Sn27  1  0.16698814  0.16560836  0.50010260  1
  Sn  Sn28  1  0.83318307  0.16688514  0.50024543  1
  Sn  Sn29  1  0.50054806  0.83448911  0.83322583  1
  Sn  Sn30  1  0.16616803  0.83319668  0.50102945  1
  Sn  Sn31  1  0.50076512  0.50058460  0.83383428  1
  Sn  Sn32  1  0.50051423  0.49930673  0.49873594  1
  Sn  Sn33  1  0.49965455  0.49982500  0.16705743  1
  Sn  Sn34  1  0.83450838  0.83227097  0.50002422  1
  Sn  Sn35  1  0.16643608  0.16701751  0.16624231  1
  Sn  Sn36  1  0.83394451  0.49995711  0.83263344  1
  Sn  Sn37  1  0.16492611  0.49967712  0.83346151  1
  Sn  Sn38  1  0.49969330  0.16757801  0.50067372  1
  Sn  Sn39  1  0.83270880  0.50069799  0.50033962  1
  Pb  Pb40  1  0.50006188  0.83118941  0.16285827  1
  Pb  Pb41  1  0.83294286  0.83340100  0.17000649  1
  Pb  Pb42  1  0.16625934  0.16872857  0.83308178  1
  Pb  Pb43  1  0.83638293  0.16660244  0.16997535  1
  Pb  Pb44  1  0.16899631  0.83061786  0.83022988  1
  Pb  Pb45  1  0.83108500  0.49996782  0.16721828  1
  Pb  Pb46  1  0.83337177  0.16938792  0.83045480  1
  Pb  Pb47  1  0.49770150  0.16905984  0.16984722  1
  Pb  Pb48  1  0.16925878  0.49732673  0.16326765  1
  Pb  Pb49  1  0.16654429  0.50039351  0.50133306  1
  Pb  Pb50  1  0.83034547  0.83034349  0.83052427  1
  Pb  Pb51  1  0.16704043  0.83639007  0.16901368  1
  Pb  Pb52  1  0.49977031  0.83307175  0.50148173  1
  Pb  Pb53  1  0.50031416  0.16613470  0.83089005  1
  I  I54  1  0.17147137  0.00383921  0.17165002  1
  I  I55  1  0.16366697  0.00094851  0.49509065  1
  I  I56  1  0.17095249  -0.00013761  0.83661066  1
  I  I57  1  0.16615562  0.33082264  0.18141360  1
  I  I58  1  0.16450964  0.33099852  0.49670735  1
  I  I59  1  0.17373904  0.33665856  0.82765785  1
  I  I60  1  0.16655885  0.66677948  0.16761562  1
  I  I61  1  0.16309544  0.66891002  0.50518013  1
  I  I62  1  0.16607405  0.66299302  0.82944606  1
  I  I63  1  0.49944230  0.00023759  0.16655820  1
  I  I64  1  0.50318624  0.00260956  0.50352224  1
  I  I65  1  0.49577692  -0.00293905  0.82490550  1
  I  I66  1  0.50052973  0.33661177  0.15687334  1
  I  I67  1  0.50300496  0.33483895  0.50319495  1
  I  I68  1  0.49921260  0.33715373  0.83560568  1
  I  I69  1  0.49869933  0.66284404  0.17819816  1
  I  I70  1  0.50386011  0.66319785  0.49934630  1
  I  I71  1  0.49932344  0.66323955  0.82802984  1
  I  I72  1  0.82937358  0.00020622  0.16612514  1
  I  I73  1  0.83348094  0.00029596  0.49794517  1
  I  I74  1  0.83220886  -0.00038731  0.83375631  1
  I  I75  1  0.83378156  0.33343553  0.16782035  1
  I  I76  1  0.83192427  0.33383934  0.50535387  1
  I  I77  1  0.82821787  0.33774709  0.82553728  1
  I  I78  1  0.83588228  0.66639925  0.17025869  1
  I  I79  1  0.83167678  0.66570538  0.50755170  1
  I  I80  1  0.83406747  0.66269938  0.82298492  1
  I  I81  1  0.17255015  0.17459086  0.00276107  1
  I  I82  1  0.16657517  0.16346719  0.33636987  1
  I  I83  1  0.16652996  0.16223403  0.66279138  1
  I  I84  1  0.16718589  0.49695988  -0.00434129  1
  I  I85  1  0.16684338  0.50412222  0.33314269  1
  I  I86  1  0.17483008  0.49746785  0.66856938  1
  I  I87  1  0.16827338  0.83469060  -0.00021121  1
  I  I88  1  0.16327656  0.83073017  0.33739021  1
  I  I89  1  0.16121922  0.84513041  0.66314365  1
  I  I90  1  0.49522791  0.16763879  0.00014124  1
  I  I91  1  0.50493061  0.17251334  0.33790346  1
  I  I92  1  0.49599442  0.17619423  0.66269870  1
  I  I93  1  0.49793415  0.50813811  -0.00108036  1
  I  I94  1  0.50711525  0.49226859  0.33493728  1
  I  I95  1  0.50034974  0.49981921  0.66653281  1
  I  I96  1  0.49698313  0.82078336  -0.00470281  1
  I  I97  1  0.50065551  0.83283182  0.33324613  1
  I  I98  1  0.49977282  0.82210116  0.66842833  1
  I  I99  1  0.83421242  0.16893148  0.00030098  1
  I  I100  1  0.82886992  0.17215100  0.33846746  1
  I  I101  1  0.83777506  0.16311321  0.66174347  1
  I  I102  1  0.83163587  0.49964830  -0.00311038  1
  I  I103  1  0.82729607  0.49908777  0.33729027  1
  I  I104  1  0.82619107  0.49882375  0.66509247  1
  I  I105  1  0.83363791  0.83170515  -0.00033576  1
  I  I106  1  0.83571955  0.82800779  0.33883404  1
  I  I107  1  0.83860897  0.83869335  0.66298623  1
  I  I108  1  0.00358119  0.17186302  0.17776021  1
  I  I109  1  0.00010238  0.16762178  0.49409890  1
  I  I110  1  0.00007037  0.17081653  0.83017996  1
  I  I111  1  0.00016102  0.49924194  0.16692300  1
  I  I112  1  -0.00289123  0.49675272  0.50787364  1
  I  I113  1  -0.00068996  0.49509082  0.81994463  1
  I  I114  1  0.00027227  0.83003379  0.16104326  1
  I  I115  1  -0.00006005  0.83853723  0.50150427  1
  I  I116  1  -0.00026290  0.83275367  0.83647599  1
  I  I117  1  0.33065406  0.16764816  0.17724831  1
  I  I118  1  0.33323543  0.16759828  0.49561594  1
  I  I119  1  0.33343295  0.17200587  0.82797556  1
  I  I120  1  0.33659441  0.49948562  0.17128281  1
  I  I121  1  0.33624864  0.49578224  0.50280474  1
  I  I122  1  0.33500313  0.50360254  0.83167722  1
  I  I123  1  0.33347550  0.83240034  0.17251924  1
  I  I124  1  0.33123135  0.83859391  0.50166682  1
  I  I125  1  0.33609483  0.82232710  0.82853552  1
  I  I126  1  0.66685347  0.16666876  0.16475811  1
  I  I127  1  0.66664046  0.16907170  0.50419942  1
  I  I128  1  0.66656943  0.16882753  0.83238185  1
  I  I129  1  0.66333507  0.49859025  0.16125289  1
  I  I130  1  0.66616481  0.49592628  0.50597369  1
  I  I131  1  0.66604314  0.50614625  0.82977781  1
  I  I132  1  0.66631867  0.83457426  0.17194364  1
  I  I133  1  0.66879336  0.83638198  0.50258954  1
  I  I134  1  0.66338604  0.82173861  0.82715432  1
