# generated using pymatgen
data_Cs27Sn14Pb13I81
_symmetry_space_group_name_H-M   'P 1'
_cell_length_a   18.96049312
_cell_length_b   18.95980703
_cell_length_c   18.96450650
_cell_angle_alpha   89.99943917
_cell_angle_beta   89.99938096
_cell_angle_gamma   90.00059792
_symmetry_Int_Tables_number   1
_chemical_formula_structural   Cs27Sn14Pb13I81
_chemical_formula_sum   'Cs27 Sn14 Pb13 I81'
_cell_volume   6817.49906047
_cell_formula_units_Z   1
loop_
 _symmetry_equiv_pos_site_id
 _symmetry_equiv_pos_as_xyz
  1  'x, y, z'
loop_
 _atom_site_type_symbol
 _atom_site_label
 _atom_site_symmetry_multiplicity
 _atom_site_fract_x
 _atom_site_fract_y
 _atom_site_fract_z
 _atom_site_occupancy
  Cs  Cs0  1  0.00022043  -0.00296262  0.00068979  1
  Cs  Cs1  1  -0.00018243  -0.00104253  0.33405248  1
  Cs  Cs2  1  -0.00302666  0.00001948  0.66352018  1
  Cs  Cs3  1  0.00160294  0.33485031  0.00155808  1
  Cs  Cs4  1  0.00126938  0.33266044  0.33323333  1
  Cs  Cs5  1  -0.00293592  0.33357496  0.66486380  1
  Cs  Cs6  1  0.00136975  0.66698857  -0.00065515  1
  Cs  Cs7  1  0.00062783  0.66841569  0.33277504  1
  Cs  Cs8  1  -0.00057567  0.66586490  0.66708049  1
  Cs  Cs9  1  0.33259037  -0.00156320  -0.00058723  1
  Cs  Cs10  1  0.33313548  0.00043623  0.33367822  1
  Cs  Cs11  1  0.33536847  0.00120126  0.66709492  1
  Cs  Cs12  1  0.33286340  0.33315001  -0.00173372  1
  Cs  Cs13  1  0.33230948  0.33293933  0.33327159  1
  Cs  Cs14  1  0.33117957  0.33163712  0.67117139  1
  Cs  Cs15  1  0.33234217  0.67018318  0.00038505  1
  Cs  Cs16  1  0.33862105  0.66767077  0.33337521  1
  Cs  Cs17  1  0.33370800  0.66744675  0.66611811  1
  Cs  Cs18  1  0.66728762  0.00203950  -0.00218851  1
  Cs  Cs19  1  0.66787981  -0.00062687  0.33237405  1
  Cs  Cs20  1  0.66607236  -0.00103292  0.67034965  1
  Cs  Cs21  1  0.66499134  0.33155556  0.00055974  1
  Cs  Cs22  1  0.66579496  0.33620126  0.33287646  1
  Cs  Cs23  1  0.67239513  0.33508228  0.66717800  1
  Cs  Cs24  1  0.66609300  0.66846470  -0.00087549  1
  Cs  Cs25  1  0.66103210  0.66589793  0.33556204  1
  Cs  Cs26  1  0.66748309  0.66656779  0.66426820  1
  Sn  Sn27  1  0.16629993  0.49951768  0.16681926  1
  Sn  Sn28  1  0.49957300  0.16687819  0.16679054  1
  Sn  Sn29  1  0.83344871  0.83303002  0.16748510  1
  Sn  Sn30  1  0.16679604  0.50080021  0.49980863  1
  Sn  Sn31  1  0.83402987  0.83326634  0.49911036  1
  Sn  Sn32  1  0.83376500  0.50026658  0.16671783  1
  Sn  Sn33  1  0.50023465  0.16719642  0.50029989  1
  Sn  Sn34  1  0.16682987  0.16727163  0.83410141  1
  Sn  Sn35  1  0.16743905  0.49915124  0.83343225  1
  Sn  Sn36  1  0.83372166  0.16678240  0.16673644  1
  Sn  Sn37  1  0.49928331  0.49921505  0.83346446  1
  Sn  Sn38  1  0.16621295  0.83255993  0.49984213  1
  Sn  Sn39  1  0.16665821  0.16718775  0.16586151  1
  Sn  Sn40  1  0.49921514  0.16783071  0.83317135  1
  Pb  Pb41  1  0.49971839  0.83328357  0.83344254  1
  Pb  Pb42  1  0.83073203  0.16486784  0.49753721  1
  Pb  Pb43  1  0.50005008  0.83538133  0.50000071  1
  Pb  Pb44  1  0.83394187  0.16679880  0.83552931  1
  Pb  Pb45  1  0.49750485  0.49750543  0.50262130  1
  Pb  Pb46  1  0.16783789  0.16685140  0.50011839  1
  Pb  Pb47  1  0.50284758  0.83610573  0.16654757  1
  Pb  Pb48  1  0.49938054  0.49816797  0.16475142  1
  Pb  Pb49  1  0.16660475  0.83355129  0.83064387  1
  Pb  Pb50  1  0.83354615  0.83319701  0.83321668  1
  Pb  Pb51  1  0.16525090  0.83332079  0.16850880  1
  Pb  Pb52  1  0.83541823  0.50199596  0.49733388  1
  Pb  Pb53  1  0.83373035  0.49992282  0.83574229  1
  I  I54  1  0.16650132  0.00329891  0.16402461  1
  I  I55  1  0.16439225  -0.00197304  0.49919034  1
  I  I56  1  0.17108941  0.00359180  0.83750850  1
  I  I57  1  0.16231287  0.33307610  0.16808895  1
  I  I58  1  0.16929783  0.33594298  0.49929222  1
  I  I59  1  0.17101001  0.33342307  0.83326653  1
  I  I60  1  0.16168446  0.66350220  0.16376470  1
  I  I61  1  0.16268682  0.66584570  0.50016049  1
  I  I62  1  0.17037095  0.66305046  0.83665646  1
  I  I63  1  0.49826025  0.00504800  0.16416744  1
  I  I64  1  0.49738667  0.00366276  0.50142978  1
  I  I65  1  0.49638386  0.00411633  0.83365889  1
  I  I66  1  0.50446465  0.32956974  0.16833982  1
  I  I67  1  0.49812350  0.32952638  0.49609422  1
  I  I68  1  0.49474059  0.33192706  0.83428183  1
  I  I69  1  0.50025261  0.66639460  0.16492572  1
  I  I70  1  0.50145231  0.66625881  0.50175972  1
  I  I71  1  0.49530673  0.66316166  0.83415854  1
  I  I72  1  0.83258963  0.00071165  0.17034483  1
  I  I73  1  0.84062939  -0.00309249  0.49376339  1
  I  I74  1  0.83277691  0.00025585  0.83606069  1
  I  I75  1  0.83436543  0.33289207  0.16494134  1
  I  I76  1  0.83389593  0.33341872  0.49887556  1
  I  I77  1  0.83281127  0.33331893  0.83381465  1
  I  I78  1  0.83968494  0.66619708  0.16926838  1
  I  I79  1  0.83416439  0.67003947  0.49429001  1
  I  I80  1  0.83286442  0.66637172  0.83686861  1
  I  I81  1  0.17021863  0.17323452  0.00089088  1
  I  I82  1  0.16728574  0.16917854  0.33037553  1
  I  I83  1  0.17282116  0.16905957  0.66930659  1
  I  I84  1  0.16588458  0.49471809  0.00038537  1
  I  I85  1  0.16124340  0.49853706  0.33228426  1
  I  I86  1  0.17173635  0.49986196  0.66730701  1
  I  I87  1  0.16493513  0.83189766  0.00018223  1
  I  I88  1  0.16439401  0.83116507  0.33642102  1
  I  I89  1  0.16054982  0.83058341  0.66267327  1
  I  I90  1  0.50035029  0.17014578  0.00003748  1
  I  I91  1  0.49960968  0.16469660  0.33209244  1
  I  I92  1  0.49332742  0.16843655  0.66801237  1
  I  I93  1  0.49565077  0.49357325  -0.00312528  1
  I  I94  1  0.49959105  0.49810452  0.33326264  1
  I  I95  1  0.49500857  0.49441184  0.67056275  1
  I  I96  1  0.50200888  0.83560131  0.00013759  1
  I  I97  1  0.49810875  0.83543063  0.33328544  1
  I  I98  1  0.50253627  0.83692910  0.66656364  1
  I  I99  1  0.82921165  0.16424905  0.00432041  1
  I  I100  1  0.83502765  0.16836367  0.32891256  1
  I  I101  1  0.83300915  0.16356499  0.66646173  1
  I  I102  1  0.83879082  0.50120632  0.00420320  1
  I  I103  1  0.83813134  0.49632798  0.32908107  1
  I  I104  1  0.83367356  0.50249442  0.66643485  1
  I  I105  1  0.83274368  0.83447358  0.00376719  1
  I  I106  1  0.83826021  0.83503660  0.33237693  1
  I  I107  1  0.83700394  0.83416003  0.66325090  1
  I  I108  1  0.00077022  0.16734278  0.16257627  1
  I  I109  1  0.00000233  0.16728011  0.50020225  1
  I  I110  1  0.00368659  0.17087808  0.83728107  1
  I  I111  1  0.00114654  0.49534877  0.16514251  1
  I  I112  1  0.00393732  0.49939189  0.50466271  1
  I  I113  1  0.00387406  0.49585942  0.83199729  1
  I  I114  1  -0.00298426  0.83829592  0.16891743  1
  I  I115  1  0.00022572  0.83109510  0.49585337  1
  I  I116  1  0.00030599  0.83395714  0.83485741  1
  I  I117  1  0.33260092  0.17157011  0.16637880  1
  I  I118  1  0.33572267  0.16484580  0.49549702  1
  I  I119  1  0.33318834  0.17025288  0.83770032  1
  I  I120  1  0.32981548  0.49505469  0.16834167  1
  I  I121  1  0.32913738  0.50600893  0.49393720  1
  I  I122  1  0.33183255  0.49483376  0.83492291  1
  I  I123  1  0.33323800  0.83376121  0.16835366  1
  I  I124  1  0.33044949  0.83056804  0.50082532  1
  I  I125  1  0.33297426  0.83425452  0.83147447  1
  I  I126  1  0.66663908  0.16563717  0.16682468  1
  I  I127  1  0.66277211  0.16461128  0.50096230  1
  I  I128  1  0.66342465  0.16972122  0.83431455  1
  I  I129  1  0.66906504  0.49894180  0.16484070  1
  I  I130  1  0.66653507  0.50092092  0.50015771  1
  I  I131  1  0.66383163  0.49495416  0.83547207  1
  I  I132  1  0.67137199  0.83184900  0.17332274  1
  I  I133  1  0.66961487  0.83611830  0.49504980  1
  I  I134  1  0.66662201  0.83414438  0.83204258  1
