# generated using pymatgen
data_Cs27Sn14Pb13I81
_symmetry_space_group_name_H-M   'P 1'
_cell_length_a   18.95835787
_cell_length_b   18.95835788
_cell_length_c   18.96552699
_cell_angle_alpha   89.99949870
_cell_angle_beta   90.00050132
_cell_angle_gamma   90.00250156
_symmetry_Int_Tables_number   1
_chemical_formula_structural   Cs27Sn14Pb13I81
_chemical_formula_sum   'Cs27 Sn14 Pb13 I81'
_cell_volume   6816.57705960
_cell_formula_units_Z   1
loop_
 _symmetry_equiv_pos_site_id
 _symmetry_equiv_pos_as_xyz
  1  'x, y, z'
loop_
 _atom_site_type_symbol
 _atom_site_label
 _atom_site_symmetry_multiplicity
 _atom_site_fract_x
 _atom_site_fract_y
 _atom_site_fract_z
 _atom_site_occupancy
  Cs  Cs0  1  0.00138649  -0.00138634  0.00290946  1
  Cs  Cs1  1  0.00156713  -0.00156713  0.33258153  1
  Cs  Cs2  1  0.00281857  -0.00281861  0.66739816  1
  Cs  Cs3  1  -0.00256145  0.33569900  0.00084794  1
  Cs  Cs4  1  -0.00119291  0.33391446  0.33297560  1
  Cs  Cs5  1  0.00073102  0.33236287  0.66565388  1
  Cs  Cs6  1  0.00211945  0.66510300  0.00010398  1
  Cs  Cs7  1  0.00023998  0.66781936  0.33411471  1
  Cs  Cs8  1  -0.00297607  0.67063841  0.66541624  1
  Cs  Cs9  1  0.33489692  -0.00211953  0.00010401  1
  Cs  Cs10  1  0.33218086  -0.00023994  0.33411470  1
  Cs  Cs11  1  0.32936162  0.00297593  0.66541644  1
  Cs  Cs12  1  0.33008039  0.33974611  -0.00058549  1
  Cs  Cs13  1  0.33323829  0.33529441  0.33445221  1
  Cs  Cs14  1  0.33289969  0.33145354  0.66735364  1
  Cs  Cs15  1  0.33889255  0.66110736  -0.00464489  1
  Cs  Cs16  1  0.33331806  0.66668197  0.33198852  1
  Cs  Cs17  1  0.33571361  0.66428636  0.67071146  1
  Cs  Cs18  1  0.66430096  0.00256166  0.00084778  1
  Cs  Cs19  1  0.66608540  0.00119296  0.33297558  1
  Cs  Cs20  1  0.66763702  -0.00073105  0.66565395  1
  Cs  Cs21  1  0.67138005  0.32861997  -0.00210622  1
  Cs  Cs22  1  0.66790558  0.33209435  0.33461920  1
  Cs  Cs23  1  0.66645290  0.33354702  0.66630066  1
  Cs  Cs24  1  0.66025419  0.66991935  -0.00058553  1
  Cs  Cs25  1  0.66470569  0.66676173  0.33445209  1
  Cs  Cs26  1  0.66854663  0.66710026  0.66735372  1
  Sn  Sn27  1  0.83312259  0.50165384  0.16677530  1
  Sn  Sn28  1  0.50042148  0.16656488  0.83306153  1
  Sn  Sn29  1  0.49893113  0.83405763  0.49989717  1
  Sn  Sn30  1  0.83296229  0.16703771  0.50087475  1
  Sn  Sn31  1  0.16645169  0.83354831  0.16703374  1
  Sn  Sn32  1  0.83410944  0.49927396  0.50001048  1
  Sn  Sn33  1  0.83364214  0.83221450  0.16680118  1
  Sn  Sn34  1  0.50072606  0.16589058  0.50001049  1
  Sn  Sn35  1  0.83311059  0.16688944  0.83192625  1
  Sn  Sn36  1  0.16594236  0.50106893  0.49989721  1
  Sn  Sn37  1  0.83343510  0.49957846  0.83306154  1
  Sn  Sn38  1  0.16778559  0.16635784  0.16680122  1
  Sn  Sn39  1  0.49834612  0.16687744  0.16677526  1
  Sn  Sn40  1  0.16782827  0.83217168  0.49934160  1
  Pb  Pb41  1  0.16500214  0.50056008  0.16836523  1
  Pb  Pb42  1  0.83334946  0.83378760  0.83656853  1
  Pb  Pb43  1  0.49943996  0.83499782  0.16836520  1
  Pb  Pb44  1  0.50001624  0.83608585  0.83004982  1
  Pb  Pb45  1  0.50300108  0.49699895  0.16669622  1
  Pb  Pb46  1  0.83345004  0.16655004  0.16686809  1
  Pb  Pb47  1  0.50016245  0.49983754  0.49999108  1
  Pb  Pb48  1  0.16641953  0.16662618  0.49835839  1
  Pb  Pb49  1  0.50271679  0.49728325  0.83323598  1
  Pb  Pb50  1  0.83337384  0.83358051  0.49835842  1
  Pb  Pb51  1  0.16391411  0.49998378  0.83004980  1
  Pb  Pb52  1  0.16682213  0.83317790  0.83369839  1
  Pb  Pb53  1  0.16621253  0.16665059  0.83656854  1
  I  I54  1  0.16309054  -0.00055082  0.17259358  1
  I  I55  1  0.16712396  -0.00240034  0.49698356  1
  I  I56  1  0.16339302  0.00025128  0.82885549  1
  I  I57  1  0.16845064  0.33109529  0.16851207  1
  I  I58  1  0.16450805  0.33527781  0.49798600  1
  I  I59  1  0.16853029  0.33316314  0.83328803  1
  I  I60  1  0.16187993  0.66964520  0.17090678  1
  I  I61  1  0.16535853  0.66734170  0.49390355  1
  I  I62  1  0.16436959  0.66643894  0.83693996  1
  I  I63  1  0.50261389  0.00355111  0.16583803  1
  I  I64  1  0.50080431  0.00154266  0.49944829  1
  I  I65  1  0.50804024  0.00445601  0.83620455  1
  I  I66  1  0.49593210  0.32838915  0.17066693  1
  I  I67  1  0.50152687  0.32975697  0.50002046  1
  I  I68  1  0.50220592  0.32884735  0.82983127  1
  I  I69  1  0.49917940  0.66672395  0.16906357  1
  I  I70  1  0.49986805  0.66937073  0.49764688  1
  I  I71  1  0.50106274  0.66663311  0.83268178  1
  I  I72  1  0.83452660  -0.00179728  0.16794387  1
  I  I73  1  0.83201137  0.00285520  0.50195040  1
  I  I74  1  0.82916546  0.00363455  0.82960107  1
  I  I75  1  0.83309179  0.33525136  0.16726722  1
  I  I76  1  0.83329046  0.33325258  0.49785058  1
  I  I77  1  0.82938963  0.33275227  0.83480682  1
  I  I78  1  0.83960796  0.66640122  0.16831388  1
  I  I79  1  0.83410397  0.66409895  0.50162229  1
  I  I80  1  0.83549116  0.66357183  0.82939781  1
  I  I81  1  0.16851603  0.16080174  0.00467296  1
  I  I82  1  0.16849935  0.16519881  0.33051343  1
  I  I83  1  0.16830934  0.16653102  0.66643771  1
  I  I84  1  0.16463200  0.49930134  0.00009846  1
  I  I85  1  0.15981205  0.50016772  0.33644092  1
  I  I86  1  0.16183654  0.50411642  0.66181981  1
  I  I87  1  0.16068969  0.83931041  0.00391443  1
  I  I88  1  0.16564698  0.83435281  0.33354818  1
  I  I89  1  0.16922989  0.83077011  0.66285284  1
  I  I90  1  0.50298619  0.16726692  0.00005341  1
  I  I91  1  0.50192450  0.16300920  0.33425639  1
  I  I92  1  0.50572304  0.16323312  0.66572784  1
  I  I93  1  0.50061846  0.49938132  0.00000203  1
  I  I94  1  0.50390410  0.49609590  0.33358604  1
  I  I95  1  0.50115088  0.49884921  0.66633704  1
  I  I96  1  0.50069850  0.83536836  0.00009839  1
  I  I97  1  0.49983210  0.84018773  0.33644093  1
  I  I98  1  0.49588374  0.83816356  0.66181982  1
  I  I99  1  0.83016229  0.16983753  -0.00194496  1
  I  I100  1  0.83028947  0.16971056  0.33575537  1
  I  I101  1  0.82595551  0.17404468  0.66579321  1
  I  I102  1  0.83273279  0.49701396  0.00005341  1
  I  I103  1  0.83699097  0.49807545  0.33425639  1
  I  I104  1  0.83676683  0.49427711  0.66572785  1
  I  I105  1  0.83919828  0.83148396  0.00467299  1
  I  I106  1  0.83480150  0.83150063  0.33051341  1
  I  I107  1  0.83346879  0.83169046  0.66643769  1
  I  I108  1  0.00179721  0.16547355  0.16794385  1
  I  I109  1  -0.00285515  0.16798842  0.50195022  1
  I  I110  1  -0.00363458  0.17083456  0.82960131  1
  I  I111  1  -0.00355109  0.49738637  0.16583761  1
  I  I112  1  -0.00154267  0.49919585  0.49944851  1
  I  I113  1  -0.00445602  0.49195986  0.83620481  1
  I  I114  1  0.00055084  0.83690902  0.17259352  1
  I  I115  1  0.00240035  0.83287599  0.49698377  1
  I  I116  1  -0.00025131  0.83660676  0.82885525  1
  I  I117  1  0.33359879  0.16039176  0.16831384  1
  I  I118  1  0.33590103  0.16589598  0.50162240  1
  I  I119  1  0.33642817  0.16450897  0.82939772  1
  I  I120  1  0.33327605  0.50082021  0.16906373  1
  I  I121  1  0.33062931  0.50013184  0.49764680  1
  I  I122  1  0.33336687  0.49893679  0.83268154  1
  I  I123  1  0.33035478  0.83812060  0.17090689  1
  I  I124  1  0.33265831  0.83464157  0.49390364  1
  I  I125  1  0.33356105  0.83563091  0.83693961  1
  I  I126  1  0.66474859  0.16690823  0.16726734  1
  I  I127  1  0.66674746  0.16670984  0.49785051  1
  I  I128  1  0.66724775  0.17061022  0.83480683  1
  I  I129  1  0.67161081  0.50406804  0.17066694  1
  I  I130  1  0.67024305  0.49847296  0.50002033  1
  I  I131  1  0.67115260  0.49779453  0.82983138  1
  I  I132  1  0.66890470  0.83154923  0.16851229  1
  I  I133  1  0.66472215  0.83549185  0.49798581  1
  I  I134  1  0.66683690  0.83146940  0.83328818  1
