# generated using pymatgen
data_Cs27Sn13Pb14I81
_symmetry_space_group_name_H-M   'P 1'
_cell_length_a   18.99860989
_cell_length_b   18.98838478
_cell_length_c   18.98758149
_cell_angle_alpha   89.99676671
_cell_angle_beta   89.99818303
_cell_angle_gamma   89.99958867
_symmetry_Int_Tables_number   1
_chemical_formula_structural   Cs27Sn13Pb14I81
_chemical_formula_sum   'Cs27 Sn13 Pb14 I81'
_cell_volume   6849.82535492
_cell_formula_units_Z   1
loop_
 _symmetry_equiv_pos_site_id
 _symmetry_equiv_pos_as_xyz
  1  'x, y, z'
loop_
 _atom_site_type_symbol
 _atom_site_label
 _atom_site_symmetry_multiplicity
 _atom_site_fract_x
 _atom_site_fract_y
 _atom_site_fract_z
 _atom_site_occupancy
  Cs  Cs0  1  0.00121778  -0.00023686  -0.00039576  1
  Cs  Cs1  1  0.00012536  0.00112307  0.33376542  1
  Cs  Cs2  1  -0.00141846  -0.00085458  0.66492305  1
  Cs  Cs3  1  0.00401523  0.33087834  0.00114159  1
  Cs  Cs4  1  -0.00113040  0.33290639  0.33266111  1
  Cs  Cs5  1  0.00391419  0.33596207  0.66415490  1
  Cs  Cs6  1  -0.00129377  0.67066910  0.00241693  1
  Cs  Cs7  1  0.00178873  0.66603508  0.33510649  1
  Cs  Cs8  1  -0.00552344  0.66270184  0.65694293  1
  Cs  Cs9  1  0.33199044  -0.00046110  0.00029475  1
  Cs  Cs10  1  0.34382328  0.00077319  0.33573849  1
  Cs  Cs11  1  0.33493363  -0.00110443  0.66596974  1
  Cs  Cs12  1  0.32842574  0.33223645  -0.00276351  1
  Cs  Cs13  1  0.33739337  0.33121075  0.33226437  1
  Cs  Cs14  1  0.33127238  0.33650790  0.67096572  1
  Cs  Cs15  1  0.33394809  0.66792582  -0.00017869  1
  Cs  Cs16  1  0.33271433  0.66832667  0.33453838  1
  Cs  Cs17  1  0.32905278  0.66441803  0.66635501  1
  Cs  Cs18  1  0.66653104  -0.00122775  -0.00188827  1
  Cs  Cs19  1  0.65785812  0.00078065  0.33511349  1
  Cs  Cs20  1  0.66649122  0.00042050  0.66757051  1
  Cs  Cs21  1  0.66725736  0.33537427  -0.00094940  1
  Cs  Cs22  1  0.66583410  0.33291032  0.33357984  1
  Cs  Cs23  1  0.66555067  0.33299282  0.66789121  1
  Cs  Cs24  1  0.66694232  0.66627675  -0.00094896  1
  Cs  Cs25  1  0.66442602  0.66625042  0.33244844  1
  Cs  Cs26  1  0.67758790  0.66495650  0.67041682  1
  Sn  Sn27  1  0.16630027  0.83311910  0.16632610  1
  Sn  Sn28  1  0.50035909  0.16605221  0.83383075  1
  Sn  Sn29  1  0.83315053  0.16619888  0.16667351  1
  Sn  Sn30  1  0.49928933  0.83361738  0.83331770  1
  Sn  Sn31  1  0.16673194  0.83303917  0.83333462  1
  Sn  Sn32  1  0.16659303  0.16630327  0.49966981  1
  Sn  Sn33  1  0.83374274  0.83375131  0.16688394  1
  Sn  Sn34  1  0.50016181  0.50037131  0.49985692  1
  Sn  Sn35  1  0.49970261  0.49986709  0.16715226  1
  Sn  Sn36  1  0.83307483  0.16680109  0.83355743  1
  Sn  Sn37  1  0.83352875  0.50003729  0.16662532  1
  Sn  Sn38  1  0.16671749  0.50056159  0.16660263  1
  Sn  Sn39  1  0.83394613  0.16666266  0.49977413  1
  Pb  Pb40  1  0.49980412  0.83128256  0.16497031  1
  Pb  Pb41  1  0.50014119  0.83011125  0.50362978  1
  Pb  Pb42  1  0.16621451  0.50334775  0.83554051  1
  Pb  Pb43  1  0.16861000  0.49779324  0.49709923  1
  Pb  Pb44  1  0.50030073  0.16842212  0.50260619  1
  Pb  Pb45  1  0.16623576  0.16447203  0.83137653  1
  Pb  Pb46  1  0.49997481  0.50041396  0.83349566  1
  Pb  Pb47  1  0.83385866  0.49721023  0.83572844  1
  Pb  Pb48  1  0.83149401  0.49754208  0.49739828  1
  Pb  Pb49  1  0.16674662  0.83534215  0.49936079  1
  Pb  Pb50  1  0.83312955  0.83590393  0.49664412  1
  Pb  Pb51  1  0.83387092  0.83523507  0.83511052  1
  Pb  Pb52  1  0.16505289  0.16580583  0.16849889  1
  Pb  Pb53  1  0.50242245  0.16899675  0.16403622  1
  I  I54  1  0.16046449  -0.00311158  0.16304614  1
  I  I55  1  0.16207587  0.00317491  0.49811436  1
  I  I56  1  0.16804893  -0.00295781  0.84175086  1
  I  I57  1  0.16575342  0.33572831  0.16911654  1
  I  I58  1  0.16146703  0.33015582  0.49959419  1
  I  I59  1  0.16801614  0.33311518  0.83406910  1
  I  I60  1  0.16159485  0.66670916  0.16253012  1
  I  I61  1  0.16855731  0.66654510  0.50223424  1
  I  I62  1  0.17546526  0.67126598  0.83555605  1
  I  I63  1  0.49994001  0.00005674  0.16761813  1
  I  I64  1  0.50000832  0.00016549  0.49872758  1
  I  I65  1  0.50090962  0.00031922  0.83385527  1
  I  I66  1  0.49957299  0.33694055  0.16834008  1
  I  I67  1  0.50088694  0.33583494  0.49585071  1
  I  I68  1  0.50577893  0.33087072  0.83341283  1
  I  I69  1  0.50525898  0.66335915  0.16743914  1
  I  I70  1  0.49830785  0.66267773  0.49397208  1
  I  I71  1  0.49481299  0.66945737  0.83522878  1
  I  I72  1  0.83994060  0.00028709  0.16545721  1
  I  I73  1  0.83622653  0.00431316  0.49831934  1
  I  I74  1  0.83171760  0.00339305  0.83657618  1
  I  I75  1  0.83258225  0.33311014  0.16665105  1
  I  I76  1  0.83638012  0.32953740  0.49785997  1
  I  I77  1  0.82556859  0.32871880  0.83537487  1
  I  I78  1  0.83368807  0.66654240  0.16511949  1
  I  I79  1  0.83222574  0.66640081  0.50033979  1
  I  I80  1  0.83085054  0.66695138  0.83566627  1
  I  I81  1  0.16619892  0.16919836  0.00014573  1
  I  I82  1  0.16019331  0.16656580  0.33602353  1
  I  I83  1  0.16092512  0.16534839  0.66380368  1
  I  I84  1  0.16962065  0.49793194  0.00434565  1
  I  I85  1  0.16322000  0.50647284  0.32898215  1
  I  I86  1  0.17006658  0.49977208  0.66626586  1
  I  I87  1  0.16655535  0.83058449  0.00113778  1
  I  I88  1  0.16077721  0.82908975  0.32960323  1
  I  I89  1  0.17277472  0.83770234  0.66942732  1
  I  I90  1  0.50480191  0.16509052  -0.00355707  1
  I  I91  1  0.50058674  0.16599579  0.33325983  1
  I  I92  1  0.50618918  0.16539893  0.67009270  1
  I  I93  1  0.50146793  0.49979784  0.00309076  1
  I  I94  1  0.50095935  0.49845661  0.33162878  1
  I  I95  1  0.49933089  0.49768577  0.66443138  1
  I  I96  1  0.49935594  0.83558582  -0.00270941  1
  I  I97  1  0.49961917  0.83501041  0.33323665  1
  I  I98  1  0.49353110  0.83728627  0.67138233  1
  I  I99  1  0.82812938  0.16738943  0.00069356  1
  I  I100  1  0.83943329  0.16814121  0.33258884  1
  I  I101  1  0.83224811  0.16543934  0.66688473  1
  I  I102  1  0.82901649  0.49791551  0.00465769  1
  I  I103  1  0.83544897  0.49754357  0.32897938  1
  I  I104  1  0.83018595  0.49952269  0.66632482  1
  I  I105  1  0.83427465  0.83510784  0.00347352  1
  I  I106  1  0.84028691  0.83363545  0.32818823  1
  I  I107  1  0.83314777  0.83484411  0.66676044  1
  I  I108  1  -0.00348190  0.17128372  0.16188595  1
  I  I109  1  -0.00142196  0.16676631  0.50128134  1
  I  I110  1  -0.00300076  0.16564711  0.83656313  1
  I  I111  1  -0.00037289  0.49988738  0.16445748  1
  I  I112  1  -0.00008698  0.50023510  0.49970435  1
  I  I113  1  0.00006042  0.49842788  0.83456875  1
  I  I114  1  0.00004085  0.82918851  0.16019252  1
  I  I115  1  -0.00007500  0.83154364  0.50528838  1
  I  I116  1  0.00252102  0.83604049  0.83851875  1
  I  I117  1  0.33350911  0.16748774  0.16756003  1
  I  I118  1  0.33144861  0.16810346  0.50081356  1
  I  I119  1  0.33559377  0.16558368  0.83093767  1
  I  I120  1  0.33313190  0.50551146  0.17048993  1
  I  I121  1  0.33619711  0.49630161  0.49404634  1
  I  I122  1  0.33333823  0.49386582  0.83618280  1
  I  I123  1  0.33057490  0.82802439  0.16398800  1
  I  I124  1  0.33346636  0.83792359  0.49467350  1
  I  I125  1  0.33333329  0.83963803  0.84042649  1
  I  I126  1  0.67085787  0.16564718  0.17184468  1
  I  I127  1  0.66955512  0.16855122  0.49738075  1
  I  I128  1  0.66714562  0.16093223  0.83239449  1
  I  I129  1  0.66714080  0.49874480  0.17027593  1
  I  I130  1  0.66392564  0.49739970  0.49390711  1
  I  I131  1  0.66669559  0.50418715  0.83613140  1
  I  I132  1  0.66934250  0.83322595  0.16504720  1
  I  I133  1  0.66658736  0.83611036  0.49913959  1
  I  I134  1  0.66464508  0.83565374  0.83510228  1
