# generated using pymatgen
data_Cs27Sn14Pb13I81
_symmetry_space_group_name_H-M   'P 1'
_cell_length_a   18.95928762
_cell_length_b   18.96108275
_cell_length_c   18.96162826
_cell_angle_alpha   89.99941703
_cell_angle_beta   89.99884067
_cell_angle_gamma   89.99820078
_symmetry_Int_Tables_number   1
_chemical_formula_structural   Cs27Sn14Pb13I81
_chemical_formula_sum   'Cs27 Sn14 Pb13 I81'
_cell_volume   6816.48959914
_cell_formula_units_Z   1
loop_
 _symmetry_equiv_pos_site_id
 _symmetry_equiv_pos_as_xyz
  1  'x, y, z'
loop_
 _atom_site_type_symbol
 _atom_site_label
 _atom_site_symmetry_multiplicity
 _atom_site_fract_x
 _atom_site_fract_y
 _atom_site_fract_z
 _atom_site_occupancy
  Cs  Cs0  1  -0.00358738  0.00272284  0.00182167  1
  Cs  Cs1  1  0.00224366  -0.00093981  0.33149925  1
  Cs  Cs2  1  -0.00265807  -0.00109841  0.66666977  1
  Cs  Cs3  1  0.00436221  0.33013412  -0.00182157  1
  Cs  Cs4  1  0.00723999  0.34002853  0.33416434  1
  Cs  Cs5  1  -0.00219361  0.33752073  0.66850851  1
  Cs  Cs6  1  0.00021728  0.66520813  0.00194364  1
  Cs  Cs7  1  -0.00305373  0.66062323  0.33541601  1
  Cs  Cs8  1  0.00662226  0.66487805  0.66483382  1
  Cs  Cs9  1  0.33454905  -0.00177357  0.00037718  1
  Cs  Cs10  1  0.33181978  0.00113458  0.33464205  1
  Cs  Cs11  1  0.33261365  -0.00336983  0.66350602  1
  Cs  Cs12  1  0.33279532  0.33484668  0.00218805  1
  Cs  Cs13  1  0.32819738  0.33047706  0.33066245  1
  Cs  Cs14  1  0.33539521  0.33213260  0.66455773  1
  Cs  Cs15  1  0.33265294  0.66653120  -0.00199396  1
  Cs  Cs16  1  0.33549486  0.66759174  0.33234026  1
  Cs  Cs17  1  0.32853027  0.67021784  0.66886144  1
  Cs  Cs18  1  0.66714873  -0.00018905  -0.00065236  1
  Cs  Cs19  1  0.66587957  -0.00122114  0.33398257  1
  Cs  Cs20  1  0.66593989  0.00079231  0.66701030  1
  Cs  Cs21  1  0.66553449  0.33165776  -0.00261230  1
  Cs  Cs22  1  0.66495977  0.33664803  0.33496657  1
  Cs  Cs23  1  0.66653350  0.33227234  0.66705114  1
  Cs  Cs24  1  0.66573885  0.66700166  0.00278774  1
  Cs  Cs25  1  0.66693902  0.66576020  0.33203282  1
  Cs  Cs26  1  0.66531904  0.66651038  0.66597281  1
  Sn  Sn27  1  0.83305301  0.16658922  0.83318183  1
  Sn  Sn28  1  0.83243642  0.83403506  0.50082439  1
  Sn  Sn29  1  0.83255392  0.16683166  0.16736882  1
  Sn  Sn30  1  0.50091124  0.83252018  0.49930041  1
  Sn  Sn31  1  0.16730367  0.83335301  0.16671498  1
  Sn  Sn32  1  0.49977736  0.16717988  0.83396026  1
  Sn  Sn33  1  0.50093640  0.49939243  0.83236021  1
  Sn  Sn34  1  0.16717071  0.16605087  0.83279463  1
  Sn  Sn35  1  0.83317600  0.16631930  0.49951393  1
  Sn  Sn36  1  0.50107069  0.16581640  0.16608136  1
  Sn  Sn37  1  0.83233684  0.50021566  0.83345953  1
  Sn  Sn38  1  0.83310429  0.83288483  0.83254593  1
  Sn  Sn39  1  0.49922021  0.83434548  0.16743404  1
  Sn  Sn40  1  0.50017118  0.50091049  0.50094845  1
  Pb  Pb41  1  0.16729707  0.49774320  0.83331582  1
  Pb  Pb42  1  0.17064980  0.50004777  0.50027628  1
  Pb  Pb43  1  0.50006395  0.49970506  0.16636485  1
  Pb  Pb44  1  0.16675755  0.50323247  0.16641148  1
  Pb  Pb45  1  0.16625614  0.83339445  0.49777826  1
  Pb  Pb46  1  0.16302225  0.16649068  0.50279645  1
  Pb  Pb47  1  0.83312971  0.49623213  0.16372373  1
  Pb  Pb48  1  0.50151719  0.16646492  0.49981748  1
  Pb  Pb49  1  0.83282601  0.83477664  0.16716336  1
  Pb  Pb50  1  0.50152204  0.83336761  0.83332929  1
  Pb  Pb51  1  0.16698563  0.16522895  0.16492046  1
  Pb  Pb52  1  0.83161430  0.50020022  0.50206000  1
  Pb  Pb53  1  0.16333809  0.83561265  0.83541103  1
  I  I54  1  0.16823692  -0.00246153  0.16530036  1
  I  I55  1  0.17156053  -0.00004124  0.50060349  1
  I  I56  1  0.16717175  0.00360937  0.83435619  1
  I  I57  1  0.16677734  0.33299041  0.16557731  1
  I  I58  1  0.16649037  0.33310156  0.49905709  1
  I  I59  1  0.16134884  0.32959374  0.83517624  1
  I  I60  1  0.17281203  0.67131562  0.16516121  1
  I  I61  1  0.16158936  0.66694547  0.49981606  1
  I  I62  1  0.16623343  0.66694401  0.83490171  1
  I  I63  1  0.50060178  0.00042383  0.16568203  1
  I  I64  1  0.50268738  -0.00260050  0.49930549  1
  I  I65  1  0.50225673  0.00296272  0.83458364  1
  I  I66  1  0.50490358  0.32990993  0.16501259  1
  I  I67  1  0.50282454  0.33517382  0.50218993  1
  I  I68  1  0.50485570  0.33214701  0.83310295  1
  I  I69  1  0.49638109  0.66971995  0.16708016  1
  I  I70  1  0.50621809  0.66793228  0.49922352  1
  I  I71  1  0.50551171  0.66441397  0.83317613  1
  I  I72  1  0.83179953  0.00300613  0.16089413  1
  I  I73  1  0.82740910  -0.00019608  0.50561886  1
  I  I74  1  0.83292478  0.00139072  0.83311037  1
  I  I75  1  0.82634132  0.32788374  0.16684099  1
  I  I76  1  0.83100912  0.33066492  0.50197122  1
  I  I77  1  0.83252682  0.33177254  0.83347532  1
  I  I78  1  0.83391047  0.66668877  0.16566051  1
  I  I79  1  0.83116321  0.66973336  0.50370926  1
  I  I80  1  0.82780388  0.66688623  0.82952929  1
  I  I81  1  0.16136164  0.16548316  -0.00303739  1
  I  I82  1  0.16684605  0.16598488  0.33316749  1
  I  I83  1  0.16848919  0.16600723  0.67101406  1
  I  I84  1  0.16824976  0.49982093  -0.00043887  1
  I  I85  1  0.16650201  0.49795752  0.33337621  1
  I  I86  1  0.16421010  0.50051431  0.66707836  1
  I  I87  1  0.17282455  0.83468907  0.00298788  1
  I  I88  1  0.16699352  0.83656568  0.32994530  1
  I  I89  1  0.16865075  0.83414548  0.66684428  1
  I  I90  1  0.50477148  0.16620650  -0.00085058  1
  I  I91  1  0.50507307  0.16560445  0.33073101  1
  I  I92  1  0.50195879  0.16753926  0.66961743  1
  I  I93  1  0.50382188  0.49849945  -0.00332115  1
  I  I94  1  0.50087466  0.50138879  0.33598462  1
  I  I95  1  0.50496866  0.49859701  0.66785579  1
  I  I96  1  0.49886072  0.83479180  0.00229434  1
  I  I97  1  0.50220566  0.83329521  0.33352173  1
  I  I98  1  0.50351160  0.83336804  0.66430857  1
  I  I99  1  0.83266833  0.16578942  -0.00140708  1
  I  I100  1  0.82691398  0.15940165  0.33327310  1
  I  I101  1  0.83271671  0.16559977  0.66810828  1
  I  I102  1  0.82630461  0.50203065  -0.00480382  1
  I  I103  1  0.83224318  0.50035493  0.33359738  1
  I  I104  1  0.83042997  0.49441267  0.67031409  1
  I  I105  1  0.83295240  0.83531833  -0.00247469  1
  I  I106  1  0.83208578  0.83890773  0.33614401  1
  I  I107  1  0.82752390  0.83953885  0.66665449  1
  I  I108  1  -0.00283392  0.16393336  0.16388496  1
  I  I109  1  -0.00550338  0.15976862  0.49951686  1
  I  I110  1  -0.00221379  0.16614535  0.83418211  1
  I  I111  1  -0.00033995  0.50049262  0.16512392  1
  I  I112  1  -0.00028125  0.50019455  0.50108262  1
  I  I113  1  -0.00320015  0.49841351  0.83392488  1
  I  I114  1  0.00133990  0.83661695  0.16434404  1
  I  I115  1  -0.00369107  0.83854990  0.50306495  1
  I  I116  1  -0.00499396  0.83406596  0.82958272  1
  I  I117  1  0.33669505  0.16511649  0.16203500  1
  I  I118  1  0.33353069  0.16691190  0.50039429  1
  I  I119  1  0.33500053  0.17158570  0.83907554  1
  I  I120  1  0.33387337  0.49500551  0.16515949  1
  I  I121  1  0.33887035  0.50554155  0.50713484  1
  I  I122  1  0.33717470  0.49570646  0.83044474  1
  I  I123  1  0.33564213  0.83952330  0.17122241  1
  I  I124  1  0.33670891  0.82979527  0.49852544  1
  I  I125  1  0.33341376  0.83393713  0.83160542  1
  I  I126  1  0.66615698  0.16042552  0.16058527  1
  I  I127  1  0.66970956  0.16493046  0.50503343  1
  I  I128  1  0.66738806  0.16755717  0.83442623  1
  I  I129  1  0.66650882  0.50524685  0.16793107  1
  I  I130  1  0.66360936  0.50125224  0.50250977  1
  I  I131  1  0.66638117  0.49411487  0.83007973  1
  I  I132  1  0.66390074  0.83593734  0.16749476  1
  I  I133  1  0.66660996  0.83398480  0.49814469  1
  I  I134  1  0.66974549  0.83848367  0.83431670  1
