# generated using pymatgen
data_Cs27Sn14Pb13I81
_symmetry_space_group_name_H-M   'P 1'
_cell_length_a   18.96766796
_cell_length_b   18.97733310
_cell_length_c   18.98516857
_cell_angle_alpha   89.99956518
_cell_angle_beta   89.99951052
_cell_angle_gamma   90.00361835
_symmetry_Int_Tables_number   1
_chemical_formula_structural   Cs27Sn14Pb13I81
_chemical_formula_sum   'Cs27 Sn14 Pb13 I81'
_cell_volume   6833.82063490
_cell_formula_units_Z   1
loop_
 _symmetry_equiv_pos_site_id
 _symmetry_equiv_pos_as_xyz
  1  'x, y, z'
loop_
 _atom_site_type_symbol
 _atom_site_label
 _atom_site_symmetry_multiplicity
 _atom_site_fract_x
 _atom_site_fract_y
 _atom_site_fract_z
 _atom_site_occupancy
  Cs  Cs0  1  -0.00044351  -0.00100939  -0.00046213  1
  Cs  Cs1  1  0.00061022  0.00255828  0.33298373  1
  Cs  Cs2  1  0.00099940  0.00010165  0.66872600  1
  Cs  Cs3  1  0.00276455  0.33196849  -0.00064850  1
  Cs  Cs4  1  -0.00052962  0.32971224  0.34251237  1
  Cs  Cs5  1  0.00073437  0.33208982  0.66192524  1
  Cs  Cs6  1  -0.00096678  0.66907309  -0.00001231  1
  Cs  Cs7  1  -0.00023239  0.66663942  0.33176246  1
  Cs  Cs8  1  -0.00199134  0.66731250  0.66779306  1
  Cs  Cs9  1  0.33499291  0.00159369  -0.00016786  1
  Cs  Cs10  1  0.33258373  -0.00424755  0.33475378  1
  Cs  Cs11  1  0.33421198  -0.00192048  0.66490322  1
  Cs  Cs12  1  0.33077566  0.33366183  -0.00040088  1
  Cs  Cs13  1  0.33252792  0.33592639  0.33624915  1
  Cs  Cs14  1  0.33514886  0.33386014  0.66578194  1
  Cs  Cs15  1  0.33047279  0.66427664  0.00195738  1
  Cs  Cs16  1  0.33318629  0.66889226  0.33469304  1
  Cs  Cs17  1  0.33328797  0.66816530  0.66294207  1
  Cs  Cs18  1  0.66206922  0.00282450  0.00086478  1
  Cs  Cs19  1  0.66640397  0.00229523  0.32765908  1
  Cs  Cs20  1  0.66468212  -0.00326528  0.67131264  1
  Cs  Cs21  1  0.66604598  0.33300523  0.00025352  1
  Cs  Cs22  1  0.66742183  0.33226252  0.33459682  1
  Cs  Cs23  1  0.66522960  0.33515807  0.66534722  1
  Cs  Cs24  1  0.66920347  0.66580063  0.00013597  1
  Cs  Cs25  1  0.66653261  0.66571831  0.33190464  1
  Cs  Cs26  1  0.66783487  0.66554721  0.66734773  1
  Sn  Sn27  1  0.83281482  0.49950338  0.83420449  1
  Sn  Sn28  1  0.16613401  0.83415615  0.83437220  1
  Sn  Sn29  1  0.83390713  0.83299264  0.16642697  1
  Sn  Sn30  1  0.50082273  0.50002638  0.16636479  1
  Sn  Sn31  1  0.16571707  0.83436234  0.16545009  1
  Sn  Sn32  1  0.83314687  0.83364761  0.49967406  1
  Sn  Sn33  1  0.16600222  0.16581875  0.83414589  1
  Sn  Sn34  1  0.50050996  0.49951409  0.49994285  1
  Sn  Sn35  1  0.16644002  0.16605946  0.16612010  1
  Sn  Sn36  1  0.83378052  0.83361617  0.83381748  1
  Sn  Sn37  1  0.50028434  0.16656931  0.49999530  1
  Sn  Sn38  1  0.83305023  0.49998658  0.16595108  1
  Sn  Sn39  1  0.83377823  0.16685736  0.83360434  1
  Sn  Sn40  1  0.50055126  0.50022855  0.83370398  1
  Pb  Pb41  1  0.83164905  0.50160315  0.49987324  1
  Pb  Pb42  1  0.16930571  0.50024531  0.50007309  1
  Pb  Pb43  1  0.83101750  0.16395134  0.50295712  1
  Pb  Pb44  1  0.49987300  0.83123640  0.16634123  1
  Pb  Pb45  1  0.49954429  0.16886321  0.83208222  1
  Pb  Pb46  1  0.49712594  0.16937613  0.16854460  1
  Pb  Pb47  1  0.16877722  0.16635739  0.50057872  1
  Pb  Pb48  1  0.16538190  0.50006135  0.16664206  1
  Pb  Pb49  1  0.16398874  0.83343819  0.50006021  1
  Pb  Pb50  1  0.83512846  0.16708027  0.16468758  1
  Pb  Pb51  1  0.50270297  0.83328113  0.49990790  1
  Pb  Pb52  1  0.16575754  0.50019829  0.83326633  1
  Pb  Pb53  1  0.49953394  0.83077697  0.83365714  1
  I  I54  1  0.16086244  -0.00110763  0.16314319  1
  I  I55  1  0.17147029  -0.00011723  0.49974350  1
  I  I56  1  0.15818437  -0.00038405  0.83671501  1
  I  I57  1  0.16864414  0.33077112  0.16112051  1
  I  I58  1  0.16347699  0.33300430  0.49935137  1
  I  I59  1  0.16450457  0.33046222  0.83766556  1
  I  I60  1  0.16598210  0.66973789  0.16178303  1
  I  I61  1  0.17023026  0.66715014  0.50022646  1
  I  I62  1  0.16389579  0.66985628  0.83800277  1
  I  I63  1  0.50250566  0.00019525  0.16965010  1
  I  I64  1  0.50008487  0.00241181  0.50181578  1
  I  I65  1  0.50289168  0.00009879  0.82971604  1
  I  I66  1  0.50535203  0.33746656  0.16404771  1
  I  I67  1  0.50028318  0.33482224  0.50073302  1
  I  I68  1  0.50397479  0.33699505  0.83495642  1
  I  I69  1  0.49910147  0.66284939  0.16939976  1
  I  I70  1  0.50079866  0.66346444  0.50034056  1
  I  I71  1  0.50422329  0.66249886  0.83023397  1
  I  I72  1  0.83581726  -0.00301879  0.16669265  1
  I  I73  1  0.83114763  -0.00380156  0.49872780  1
  I  I74  1  0.83826700  -0.00078927  0.83187331  1
  I  I75  1  0.82989978  0.33632205  0.16153313  1
  I  I76  1  0.83441427  0.33316655  0.49976386  1
  I  I77  1  0.83270840  0.33408144  0.83824316  1
  I  I78  1  0.83453887  0.66720092  0.16250951  1
  I  I79  1  0.83109525  0.66944435  0.50476681  1
  I  I80  1  0.83290597  0.66708344  0.83322283  1
  I  I81  1  0.16375162  0.16291447  -0.00101474  1
  I  I82  1  0.16837440  0.16303865  0.33058389  1
  I  I83  1  0.16354856  0.16266904  0.67028812  1
  I  I84  1  0.17399240  0.49903380  -0.00006472  1
  I  I85  1  0.16661672  0.49991949  0.33289724  1
  I  I86  1  0.16666832  0.50016526  0.66714144  1
  I  I87  1  0.15821200  0.83661599  -0.00023330  1
  I  I88  1  0.16348061  0.83639205  0.32991683  1
  I  I89  1  0.16329235  0.83684716  0.67013166  1
  I  I90  1  0.50110756  0.16816839  -0.00000938  1
  I  I91  1  0.49953417  0.17282253  0.33622104  1
  I  I92  1  0.49908084  0.17390638  0.66442659  1
  I  I93  1  0.50460030  0.50173053  -0.00011031  1
  I  I94  1  0.50367026  0.49624448  0.33301243  1
  I  I95  1  0.50369579  0.49628248  0.66705970  1
  I  I96  1  0.50386849  0.83212461  -0.00003545  1
  I  I97  1  0.49960894  0.83045672  0.33316538  1
  I  I98  1  0.50011023  0.83009551  0.66682301  1
  I  I99  1  0.83343247  0.16346848  -0.00359843  1
  I  I100  1  0.83445518  0.16684893  0.33332188  1
  I  I101  1  0.83969341  0.16842462  0.67116433  1
  I  I102  1  0.82432472  0.50552820  -0.00059250  1
  I  I103  1  0.82977755  0.50581474  0.33031134  1
  I  I104  1  0.82977732  0.50159500  0.66985713  1
  I  I105  1  0.83816670  0.83053060  -0.00033398  1
  I  I106  1  0.83615671  0.82701266  0.33167732  1
  I  I107  1  0.83598070  0.83254331  0.66865370  1
  I  I108  1  0.00309924  0.16762633  0.16509947  1
  I  I109  1  -0.00023766  0.16604070  0.49856406  1
  I  I110  1  -0.00021314  0.16789581  0.83666645  1
  I  I111  1  -0.00367776  0.50295163  0.15908758  1
  I  I112  1  -0.00069111  0.50076555  0.49974118  1
  I  I113  1  -0.00378716  0.50128222  0.83971194  1
  I  I114  1  -0.00106874  0.83000258  0.16570813  1
  I  I115  1  -0.00387777  0.83261789  0.50116998  1
  I  I116  1  -0.00132263  0.83132180  0.83347238  1
  I  I117  1  0.32934075  0.16154646  0.15950688  1
  I  I118  1  0.33650971  0.17271185  0.50215170  1
  I  I119  1  0.33024326  0.16335422  0.83541693  1
  I  I120  1  0.33586658  0.49964074  0.16684657  1
  I  I121  1  0.33828847  0.49703078  0.50044449  1
  I  I122  1  0.33602196  0.49954678  0.83299227  1
  I  I123  1  0.32989378  0.83537035  0.16223998  1
  I  I124  1  0.33341014  0.83195595  0.50026811  1
  I  I125  1  0.32978370  0.83701034  0.83757546  1
  I  I126  1  0.66674622  0.16387177  0.16620737  1
  I  I127  1  0.66363188  0.17265154  0.50111986  1
  I  I128  1  0.66950648  0.16373637  0.83116830  1
  I  I129  1  0.66748560  0.50607494  0.16595518  1
  I  I130  1  0.66351432  0.49718495  0.50065510  1
  I  I131  1  0.66786287  0.50046910  0.83313326  1
  I  I132  1  0.67026856  0.83067415  0.16580523  1
  I  I133  1  0.67057033  0.83206431  0.50187261  1
  I  I134  1  0.67031051  0.83573358  0.83362228  1
