# generated using pymatgen
data_Cs27Sn14Pb13I81
_symmetry_space_group_name_H-M   'P 1'
_cell_length_a   18.98121095
_cell_length_b   18.98083333
_cell_length_c   18.96716916
_cell_angle_alpha   89.99990277
_cell_angle_beta   90.00124011
_cell_angle_gamma   89.99917315
_symmetry_Int_Tables_number   1
_chemical_formula_structural   Cs27Sn14Pb13I81
_chemical_formula_sum   'Cs27 Sn14 Pb13 I81'
_cell_volume   6833.47655240
_cell_formula_units_Z   1
loop_
 _symmetry_equiv_pos_site_id
 _symmetry_equiv_pos_as_xyz
  1  'x, y, z'
loop_
 _atom_site_type_symbol
 _atom_site_label
 _atom_site_symmetry_multiplicity
 _atom_site_fract_x
 _atom_site_fract_y
 _atom_site_fract_z
 _atom_site_occupancy
  Cs  Cs0  1  0.00254491  0.00284797  -0.00207594  1
  Cs  Cs1  1  0.00096612  -0.00394068  0.33533740  1
  Cs  Cs2  1  -0.00298233  0.00029453  0.66505686  1
  Cs  Cs3  1  -0.00652711  0.33392845  -0.00080831  1
  Cs  Cs4  1  -0.00015591  0.33420035  0.33356372  1
  Cs  Cs5  1  0.00300380  0.33573513  0.66740736  1
  Cs  Cs6  1  0.00112384  0.66195471  -0.00349739  1
  Cs  Cs7  1  -0.00217648  0.67092014  0.33246995  1
  Cs  Cs8  1  0.00145498  0.66359689  0.67258208  1
  Cs  Cs9  1  0.33332122  0.00119434  0.00008140  1
  Cs  Cs10  1  0.33235183  0.00044316  0.33211589  1
  Cs  Cs11  1  0.33296502  0.00161265  0.67036959  1
  Cs  Cs12  1  0.33477590  0.33200692  0.00004529  1
  Cs  Cs13  1  0.33474321  0.33225090  0.33874042  1
  Cs  Cs14  1  0.33297002  0.33421162  0.66177503  1
  Cs  Cs15  1  0.33419438  0.66630808  0.00074191  1
  Cs  Cs16  1  0.33379052  0.66683854  0.33105499  1
  Cs  Cs17  1  0.33278105  0.66267768  0.67116557  1
  Cs  Cs18  1  0.66686249  0.00457820  -0.00330563  1
  Cs  Cs19  1  0.66642591  -0.00121572  0.33318753  1
  Cs  Cs20  1  0.67047695  -0.00321743  0.66836768  1
  Cs  Cs21  1  0.67099368  0.33167368  0.00104999  1
  Cs  Cs22  1  0.66543939  0.33099701  0.33200367  1
  Cs  Cs23  1  0.66432397  0.33361303  0.66608490  1
  Cs  Cs24  1  0.66344914  0.66424651  -0.00130964  1
  Cs  Cs25  1  0.66767440  0.66775152  0.33436539  1
  Cs  Cs26  1  0.66576213  0.66956457  0.66454550  1
  Sn  Sn27  1  0.16747102  0.16670432  0.83395866  1
  Sn  Sn28  1  0.49929243  0.50034331  0.16624103  1
  Sn  Sn29  1  0.16682535  0.16693347  0.16625302  1
  Sn  Sn30  1  0.83327580  0.16676442  0.49951122  1
  Sn  Sn31  1  0.49924705  0.16774764  0.83336465  1
  Sn  Sn32  1  0.50017868  0.83290159  0.16733948  1
  Sn  Sn33  1  0.49936299  0.83337699  0.49930711  1
  Sn  Sn34  1  0.16697186  0.83308436  0.49985777  1
  Sn  Sn35  1  0.16655229  0.83309144  0.16709598  1
  Sn  Sn36  1  0.49993979  0.49881223  0.83410744  1
  Sn  Sn37  1  0.83337707  0.50035437  0.49969000  1
  Sn  Sn38  1  0.16731685  0.49996461  0.16703453  1
  Sn  Sn39  1  0.83362294  0.83300096  0.49915806  1
  Sn  Sn40  1  0.83326153  0.83337184  0.16634615  1
  Pb  Pb41  1  0.16888140  0.49725153  0.83595908  1
  Pb  Pb42  1  0.49985620  0.83329407  0.83398706  1
  Pb  Pb43  1  0.50146025  0.50214687  0.49927222  1
  Pb  Pb44  1  0.49826270  0.16655052  0.16533184  1
  Pb  Pb45  1  0.16509122  0.16469553  0.49980778  1
  Pb  Pb46  1  0.16476335  0.50284362  0.49738696  1
  Pb  Pb47  1  0.16669311  0.83524085  0.83393320  1
  Pb  Pb48  1  0.83608533  0.16401967  0.16881783  1
  Pb  Pb49  1  0.83358359  0.16678744  0.83102278  1
  Pb  Pb50  1  0.83289464  0.50210818  0.16831179  1
  Pb  Pb51  1  0.83353476  0.83309690  0.83387005  1
  Pb  Pb52  1  0.83032658  0.50003977  0.83076830  1
  Pb  Pb53  1  0.50189799  0.16377498  0.50244395  1
  I  I54  1  0.16648285  -0.00119589  0.16671073  1
  I  I55  1  0.16426360  -0.00351768  0.49443636  1
  I  I56  1  0.17332775  0.00305945  0.83878264  1
  I  I57  1  0.17127303  0.33345160  0.16188008  1
  I  I58  1  0.16330191  0.33345712  0.49907247  1
  I  I59  1  0.16784371  0.32948977  0.83731191  1
  I  I60  1  0.16750452  0.66771349  0.17240721  1
  I  I61  1  0.16472258  0.67105960  0.49434971  1
  I  I62  1  0.16759477  0.66626937  0.83271197  1
  I  I63  1  0.49941723  -0.00323379  0.16955176  1
  I  I64  1  0.50227415  -0.00429991  0.49446088  1
  I  I65  1  0.49654328  0.00243696  0.83260466  1
  I  I66  1  0.49580742  0.33612718  0.16444026  1
  I  I67  1  0.50336347  0.33333673  0.49818886  1
  I  I68  1  0.49656447  0.33357327  0.83852675  1
  I  I69  1  0.49572019  0.66744899  0.16459799  1
  I  I70  1  0.50306953  0.67032866  0.50065957  1
  I  I71  1  0.50140649  0.66424588  0.83449089  1
  I  I72  1  0.83164907  -0.00416644  0.17321275  1
  I  I73  1  0.83372752  -0.00187388  0.49726103  1
  I  I74  1  0.83004300  0.00014108  0.83056504  1
  I  I75  1  0.83362000  0.33329082  0.16975169  1
  I  I76  1  0.83332760  0.33343758  0.50136687  1
  I  I77  1  0.83508933  0.33334352  0.83129035  1
  I  I78  1  0.83717876  0.67023877  0.17421887  1
  I  I79  1  0.83219775  0.66848607  0.49542457  1
  I  I80  1  0.83183591  0.66648601  0.83010503  1
  I  I81  1  0.17056906  0.16244983  0.00096740  1
  I  I82  1  0.16473673  0.16659091  0.33033825  1
  I  I83  1  0.16886900  0.16384813  0.66900999  1
  I  I84  1  0.16699085  0.50768022  0.00411359  1
  I  I85  1  0.17414226  0.49483800  0.32929039  1
  I  I86  1  0.16652824  0.50023975  0.66660191  1
  I  I87  1  0.16754008  0.83193443  0.00411175  1
  I  I88  1  0.16598301  0.83588631  0.33214091  1
  I  I89  1  0.16528764  0.83604277  0.66366163  1
  I  I90  1  0.49870089  0.16444363  -0.00274837  1
  I  I91  1  0.49943246  0.16908939  0.33342207  1
  I  I92  1  0.49311049  0.17191908  0.67028557  1
  I  I93  1  0.49622133  0.50395248  0.00131093  1
  I  I94  1  0.49729432  0.50342723  0.33011154  1
  I  I95  1  0.50322544  0.49790820  0.66878434  1
  I  I96  1  0.49892733  0.83236125  0.00368489  1
  I  I97  1  0.50062423  0.82812908  0.33233137  1
  I  I98  1  0.50233054  0.83394581  0.66385180  1
  I  I99  1  0.83213692  0.16436089  0.00023044  1
  I  I100  1  0.83425516  0.16710940  0.33674593  1
  I  I101  1  0.83469887  0.16132824  0.66300732  1
  I  I102  1  0.83531673  0.50197943  0.00032356  1
  I  I103  1  0.83130879  0.49980861  0.33632350  1
  I  I104  1  0.83257033  0.50417454  0.66254415  1
  I  I105  1  0.83324875  0.83331593  0.00396447  1
  I  I106  1  0.83365721  0.83349756  0.33420059  1
  I  I107  1  0.83221335  0.83440124  0.66262366  1
  I  I108  1  0.00419391  0.16731412  0.16011164  1
  I  I109  1  -0.00280888  0.16271011  0.50117633  1
  I  I110  1  0.00298360  0.16408306  0.83689770  1
  I  I111  1  0.00265690  0.50109372  0.16957442  1
  I  I112  1  -0.00317614  0.50221527  0.49796876  1
  I  I113  1  0.00023969  0.49913932  0.83360169  1
  I  I114  1  0.00076964  0.83427919  0.17395352  1
  I  I115  1  -0.00047406  0.83473878  0.49303364  1
  I  I116  1  0.00021267  0.83626084  0.83240700  1
  I  I117  1  0.33015710  0.16089063  0.16572118  1
  I  I118  1  0.33327459  0.16452714  0.49932200  1
  I  I119  1  0.33326152  0.16843218  0.83707136  1
  I  I120  1  0.33366334  0.50627589  0.16305553  1
  I  I121  1  0.33334652  0.50155245  0.50224334  1
  I  I122  1  0.33672663  0.49995275  0.83329683  1
  I  I123  1  0.33314382  0.83286530  0.17264020  1
  I  I124  1  0.33327463  0.83424020  0.49286566  1
  I  I125  1  0.33340960  0.83274269  0.83066238  1
  I  I126  1  0.66679768  0.16635202  0.16543873  1
  I  I127  1  0.66982336  0.16352889  0.50133756  1
  I  I128  1  0.66382295  0.16932346  0.83174076  1
  I  I129  1  0.66358548  0.50532314  0.16420427  1
  I  I130  1  0.66939043  0.50351433  0.49880964  1
  I  I131  1  0.66248538  0.49381652  0.84133810  1
  I  I132  1  0.66594413  0.82805982  0.17363318  1
  I  I133  1  0.66722010  0.83329687  0.49473065  1
  I  I134  1  0.66642570  0.83630038  0.83225628  1
