# generated using pymatgen
data_Cs27Sn13Pb14I81
_symmetry_space_group_name_H-M   'P 1'
_cell_length_a   19.26568210
_cell_length_b   19.24219218
_cell_length_c   19.28342829
_cell_angle_alpha   90.00000049
_cell_angle_beta   90.00000005
_cell_angle_gamma   90.01855262
_symmetry_Int_Tables_number   1
_chemical_formula_structural   Cs27Sn13Pb14I81
_chemical_formula_sum   'Cs27 Sn13 Pb14 I81'
_cell_volume   7148.63563994
_cell_formula_units_Z   1
loop_
 _symmetry_equiv_pos_site_id
 _symmetry_equiv_pos_as_xyz
  1  'x, y, z'
loop_
 _atom_site_type_symbol
 _atom_site_label
 _atom_site_symmetry_multiplicity
 _atom_site_fract_x
 _atom_site_fract_y
 _atom_site_fract_z
 _atom_site_occupancy
  Cs  Cs0  1  -0.00502500  -0.01710618  -0.00673253  1
  Cs  Cs1  1  0.00990349  -0.01523763  0.33333353  1
  Cs  Cs2  1  -0.00502569  -0.01710547  0.67339904  1
  Cs  Cs3  1  0.00569337  0.35967651  -0.00430474  1
  Cs  Cs4  1  0.01751555  0.34895445  0.33333318  1
  Cs  Cs5  1  0.00569152  0.35967657  0.67097216  1
  Cs  Cs6  1  -0.00295097  0.69746457  -0.00540860  1
  Cs  Cs7  1  -0.00900922  0.69974714  0.33333386  1
  Cs  Cs8  1  -0.00295078  0.69746402  0.67207540  1
  Cs  Cs9  1  0.32782633  -0.00244334  -0.00792478  1
  Cs  Cs10  1  0.32172958  0.00980594  0.33333315  1
  Cs  Cs11  1  0.32783015  -0.00244226  0.67459202  1
  Cs  Cs12  1  0.31696024  0.35411797  -0.00812081  1
  Cs  Cs13  1  0.29617639  0.32093574  0.33333363  1
  Cs  Cs14  1  0.31696010  0.35411786  0.67478752  1
  Cs  Cs15  1  0.35756710  0.64981256  -0.00241656  1
  Cs  Cs16  1  0.37652331  0.66825897  0.33333285  1
  Cs  Cs17  1  0.35756699  0.64981270  0.66908327  1
  Cs  Cs18  1  0.66533683  0.01319024  0.01387226  1
  Cs  Cs19  1  0.66311745  0.01289805  0.33333327  1
  Cs  Cs20  1  0.66533636  0.01319050  0.65279505  1
  Cs  Cs21  1  0.67565000  0.29361277  0.01085391  1
  Cs  Cs22  1  0.67511683  0.32715963  0.33333379  1
  Cs  Cs23  1  0.67565004  0.29361294  0.65581279  1
  Cs  Cs24  1  0.64061115  0.66111417  -0.00024966  1
  Cs  Cs25  1  0.67160854  0.63315737  0.33333351  1
  Cs  Cs26  1  0.64061075  0.66111430  0.66691648  1
  Sn  Sn27  1  0.83693792  0.16554092  0.49625958  1
  Sn  Sn28  1  0.83203975  0.50245725  0.83333345  1
  Sn  Sn29  1  0.82866716  0.83189871  0.83333331  1
  Sn  Sn30  1  0.83139448  0.83395960  0.16704175  1
  Sn  Sn31  1  0.16517638  0.16348406  0.83333316  1
  Sn  Sn32  1  0.49827701  0.16605879  0.16839801  1
  Sn  Sn33  1  0.16780311  0.83324028  0.16714222  1
  Sn  Sn34  1  0.49626907  0.16448915  0.83333350  1
  Sn  Sn35  1  0.83693781  0.16554103  0.17040714  1
  Sn  Sn36  1  0.16780318  0.83324055  0.49952476  1
  Sn  Sn37  1  0.16792880  0.83452570  0.83333306  1
  Sn  Sn38  1  0.49827701  0.16605876  0.49826857  1
  Sn  Sn39  1  0.83139437  0.83395975  0.49962499  1
  Pb  Pb40  1  0.16288404  0.50503263  0.83333326  1
  Pb  Pb41  1  0.16262312  0.50779527  0.16748669  1
  Pb  Pb42  1  0.83632103  0.16688255  0.83333331  1
  Pb  Pb43  1  0.50105190  0.83694163  0.16651548  1
  Pb  Pb44  1  0.83433257  0.50060194  0.16415576  1
  Pb  Pb45  1  0.16366656  0.16398649  0.50404059  1
  Pb  Pb46  1  0.50268274  0.49182157  0.49993998  1
  Pb  Pb47  1  0.16366638  0.16398658  0.16262623  1
  Pb  Pb48  1  0.50926741  0.49071346  0.83333333  1
  Pb  Pb49  1  0.50268297  0.49182150  0.16672659  1
  Pb  Pb50  1  0.50105178  0.83694159  0.50015116  1
  Pb  Pb51  1  0.50249431  0.83741373  0.83333343  1
  Pb  Pb52  1  0.16262303  0.50779528  0.49918008  1
  Pb  Pb53  1  0.83433278  0.50060201  0.50251085  1
  I  I54  1  0.17138269  -0.00216062  0.18171375  1
  I  I55  1  0.17138223  -0.00216070  0.48495197  1
  I  I56  1  0.15794927  -0.00149911  0.83333407  1
  I  I57  1  0.17990558  0.33165977  0.16054373  1
  I  I58  1  0.17990576  0.33165960  0.50612275  1
  I  I59  1  0.18528406  0.33249577  0.83333350  1
  I  I60  1  0.13076067  0.67018748  0.15956798  1
  I  I61  1  0.13076037  0.67018763  0.50709896  1
  I  I62  1  0.15054924  0.67063683  0.83333330  1
  I  I63  1  0.50307029  0.00309291  0.16364493  1
  I  I64  1  0.50307050  0.00309283  0.50302186  1
  I  I65  1  0.51298596  0.00287507  0.83333257  1
  I  I66  1  0.53553196  0.33010117  0.16401063  1
  I  I67  1  0.53553144  0.33010110  0.50265598  1
  I  I68  1  0.46797419  0.33053690  0.83333336  1
  I  I69  1  0.48987283  0.66686133  0.16105075  1
  I  I70  1  0.48987322  0.66686129  0.50561563  1
  I  I71  1  0.48646055  0.66625769  0.83333332  1
  I  I72  1  0.82865852  -0.00047917  0.15168543  1
  I  I73  1  0.82865820  -0.00047922  0.51498134  1
  I  I74  1  0.83573397  -0.00385840  0.83333326  1
  I  I75  1  0.80235657  0.33098363  0.16978235  1
  I  I76  1  0.80235721  0.33098357  0.49688456  1
  I  I77  1  0.82204148  0.33685813  0.83333273  1
  I  I78  1  0.85890672  0.66968420  0.17661065  1
  I  I79  1  0.85890615  0.66968423  0.49005582  1
  I  I80  1  0.86615815  0.66770772  0.83333345  1
  I  I81  1  0.18089213  0.15590003  -0.00220024  1
  I  I82  1  0.17043986  0.16843432  0.33333323  1
  I  I83  1  0.18089492  0.15589975  0.66886686  1
  I  I84  1  0.17103299  0.49019127  0.00035348  1
  I  I85  1  0.17253479  0.48334115  0.33333332  1
  I  I86  1  0.17103292  0.49019110  0.66631324  1
  I  I87  1  0.15012835  0.84567907  0.00036277  1
  I  I88  1  0.14598419  0.83100553  0.33333327  1
  I  I89  1  0.15012592  0.84567845  0.66630397  1
  I  I90  1  0.51158931  0.16212240  -0.00030510  1
  I  I91  1  0.52564994  0.16249257  0.33333324  1
  I  I92  1  0.51158755  0.16212184  0.66697163  1
  I  I93  1  0.49438037  0.50454206  -0.00118458  1
  I  I94  1  0.50474219  0.51178617  0.33333323  1
  I  I95  1  0.49438030  0.50454212  0.66785121  1
  I  I96  1  0.49668492  0.82628992  -0.00058012  1
  I  I97  1  0.48542450  0.83461811  0.33333339  1
  I  I98  1  0.49668617  0.82629006  0.66724680  1
  I  I99  1  0.82559050  0.16215679  0.00049990  1
  I  I100  1  0.80583008  0.15408917  0.33333346  1
  I  I101  1  0.82559067  0.16215686  0.66616666  1
  I  I102  1  0.84249918  0.50225389  -0.00282324  1
  I  I103  1  0.82358217  0.49821369  0.33333330  1
  I  I104  1  0.84249899  0.50225391  0.66948985  1
  I  I105  1  0.85047908  0.83455028  -0.00116766  1
  I  I106  1  0.84973430  0.85009218  0.33333314  1
  I  I107  1  0.85048024  0.83455023  0.66783436  1
  I  I108  1  -0.00434987  0.16966060  0.17701614  1
  I  I109  1  -0.00434971  0.16965932  0.48965137  1
  I  I110  1  0.00437810  0.17323051  0.83333163  1
  I  I111  1  -0.00124399  0.46130363  0.16762488  1
  I  I112  1  -0.00124388  0.46130354  0.49904183  1
  I  I113  1  0.00017634  0.47204967  0.83333354  1
  I  I114  1  -0.00255722  0.85280990  0.16517697  1
  I  I115  1  -0.00255751  0.85280987  0.50148852  1
  I  I116  1  0.00046809  0.84190434  0.83333422  1
  I  I117  1  0.33804576  0.16707234  0.18223075  1
  I  I118  1  0.33804578  0.16707212  0.48443455  1
  I  I119  1  0.33473343  0.13760150  0.83333455  1
  I  I120  1  0.33298977  0.50571047  0.15984861  1
  I  I121  1  0.33298969  0.50571080  0.50681806  1
  I  I122  1  0.33308672  0.50801524  0.83333343  1
  I  I123  1  0.32776016  0.83471193  0.16687634  1
  I  I124  1  0.32776006  0.83471212  0.49979192  1
  I  I125  1  0.33015965  0.84850674  0.83333200  1
  I  I126  1  0.66789299  0.14954624  0.15853644  1
  I  I127  1  0.66789279  0.14954667  0.50813075  1
  I  I128  1  0.66492674  0.17776120  0.83333271  1
  I  I129  1  0.66738703  0.53286524  0.16045070  1
  I  I130  1  0.66738694  0.53286435  0.50621575  1
  I  I131  1  0.66863056  0.54000804  0.83333336  1
  I  I132  1  0.67030953  0.83168424  0.15759647  1
  I  I133  1  0.67030968  0.83168448  0.50907027  1
  I  I134  1  0.66986098  0.80552942  0.83333300  1
