# generated using pymatgen
data_Cs27Sn14Pb13I81
_symmetry_space_group_name_H-M   'P 1'
_cell_length_a   18.96769888
_cell_length_b   18.97735950
_cell_length_c   18.98139145
_cell_angle_alpha   89.99849667
_cell_angle_beta   89.99981705
_cell_angle_gamma   90.00223091
_symmetry_Int_Tables_number   1
_chemical_formula_structural   Cs27Sn14Pb13I81
_chemical_formula_sum   'Cs27 Sn14 Pb13 I81'
_cell_volume   6832.48169079
_cell_formula_units_Z   1
loop_
 _symmetry_equiv_pos_site_id
 _symmetry_equiv_pos_as_xyz
  1  'x, y, z'
loop_
 _atom_site_type_symbol
 _atom_site_label
 _atom_site_symmetry_multiplicity
 _atom_site_fract_x
 _atom_site_fract_y
 _atom_site_fract_z
 _atom_site_occupancy
  Cs  Cs0  1  -0.00168810  0.00440358  -0.00610813  1
  Cs  Cs1  1  -0.00372652  -0.00018178  0.33720484  1
  Cs  Cs2  1  -0.00128531  0.00192312  0.66635695  1
  Cs  Cs3  1  -0.00057029  0.33182722  0.00168897  1
  Cs  Cs4  1  0.00027904  0.33454377  0.33308284  1
  Cs  Cs5  1  0.00058823  0.33059722  0.66497848  1
  Cs  Cs6  1  -0.00506492  0.66317251  0.00424920  1
  Cs  Cs7  1  -0.00124147  0.66427977  0.33314356  1
  Cs  Cs8  1  0.00443014  0.66784936  0.66324361  1
  Cs  Cs9  1  0.33407472  -0.00052869  -0.00055884  1
  Cs  Cs10  1  0.33530957  -0.00119946  0.33164541  1
  Cs  Cs11  1  0.33246938  -0.00223751  0.66808255  1
  Cs  Cs12  1  0.33003080  0.32942796  0.00454920  1
  Cs  Cs13  1  0.33594050  0.33013603  0.33125865  1
  Cs  Cs14  1  0.33530271  0.33772494  0.66462770  1
  Cs  Cs15  1  0.33411341  0.66935574  0.00009032  1
  Cs  Cs16  1  0.33247248  0.66833270  0.33235585  1
  Cs  Cs17  1  0.33274216  0.66713604  0.66719095  1
  Cs  Cs18  1  0.66576574  -0.00067858  -0.00190098  1
  Cs  Cs19  1  0.66745182  0.00206448  0.33335189  1
  Cs  Cs20  1  0.66794172  -0.00194991  0.66889591  1
  Cs  Cs21  1  0.66936097  0.33788866  -0.00386809  1
  Cs  Cs22  1  0.66457613  0.32758408  0.33599274  1
  Cs  Cs23  1  0.66391617  0.33842221  0.66709537  1
  Cs  Cs24  1  0.67057727  0.66286046  0.00062609  1
  Cs  Cs25  1  0.66826564  0.66894855  0.33051119  1
  Cs  Cs26  1  0.66635909  0.66366839  0.66996328  1
  Sn  Sn27  1  0.16630808  0.49996833  0.50038829  1
  Sn  Sn28  1  0.49953023  0.83327578  0.50009147  1
  Sn  Sn29  1  0.83369306  0.49932765  0.49993516  1
  Sn  Sn30  1  0.16671360  0.16657800  0.49977688  1
  Sn  Sn31  1  0.16690735  0.50069217  0.83320946  1
  Sn  Sn32  1  0.16751705  0.83348624  0.49973090  1
  Sn  Sn33  1  0.49935610  0.83390614  0.83339679  1
  Sn  Sn34  1  0.49959970  0.50051052  0.16693149  1
  Sn  Sn35  1  0.83347407  0.16642365  0.16695699  1
  Sn  Sn36  1  0.49955168  0.16639994  0.83302285  1
  Sn  Sn37  1  0.83389987  0.16776415  0.49942476  1
  Sn  Sn38  1  0.16696098  0.83234159  0.83362470  1
  Sn  Sn39  1  0.49944850  0.83242763  0.16653130  1
  Sn  Sn40  1  0.16660103  0.83357166  0.16656486  1
  Pb  Pb41  1  0.49959068  0.50260685  0.49814093  1
  Pb  Pb42  1  0.16856891  0.16670634  0.83098603  1
  Pb  Pb43  1  0.50184563  0.16600314  0.16452161  1
  Pb  Pb44  1  0.83087333  0.16678678  0.83223221  1
  Pb  Pb45  1  0.83349654  0.83318285  0.50013719  1
  Pb  Pb46  1  0.83338757  0.83541348  0.16657903  1
  Pb  Pb47  1  0.83691088  0.50006860  0.83047670  1
  Pb  Pb48  1  0.83392642  0.83294505  0.83337310  1
  Pb  Pb49  1  0.16809840  0.50190305  0.16705716  1
  Pb  Pb50  1  0.49746301  0.50072404  0.83551049  1
  Pb  Pb51  1  0.16469255  0.16365682  0.16921704  1
  Pb  Pb52  1  0.83094984  0.49766005  0.16934736  1
  Pb  Pb53  1  0.50009267  0.16425895  0.50197103  1
  I  I54  1  0.17443839  -0.00444052  0.16576919  1
  I  I55  1  0.16615242  -0.00102190  0.50003200  1
  I  I56  1  0.16898404  -0.00321995  0.83267438  1
  I  I57  1  0.16853064  0.33320064  0.16616833  1
  I  I58  1  0.16147990  0.33381112  0.50537022  1
  I  I59  1  0.16876042  0.33580233  0.82767126  1
  I  I60  1  0.16868844  0.67024660  0.17119044  1
  I  I61  1  0.16632971  0.66725711  0.50121932  1
  I  I62  1  0.17289858  0.66815579  0.82681208  1
  I  I63  1  0.49721661  -0.00353669  0.16827611  1
  I  I64  1  0.49598504  -0.00383838  0.49531794  1
  I  I65  1  0.49491314  -0.00233021  0.83502911  1
  I  I66  1  0.50142752  0.33522660  0.16570870  1
  I  I67  1  0.49765725  0.33339238  0.49965778  1
  I  I68  1  0.49956273  0.33162847  0.83461488  1
  I  I69  1  0.49642646  0.66889298  0.16559396  1
  I  I70  1  0.49595197  0.67069965  0.50479697  1
  I  I71  1  0.49724851  0.67015831  0.83097091  1
  I  I72  1  0.83169534  0.00299134  0.17533327  1
  I  I73  1  0.83647168  0.00275856  0.49644478  1
  I  I74  1  0.83713655  0.00012600  0.83083302  1
  I  I75  1  0.83168407  0.33004639  0.16905272  1
  I  I76  1  0.84158651  0.33283569  0.49616998  1
  I  I77  1  0.83129039  0.33338209  0.83596927  1
  I  I78  1  0.83400798  0.66649771  0.16799236  1
  I  I79  1  0.83711924  0.66407611  0.50078191  1
  I  I80  1  0.82727221  0.66635011  0.83228600  1
  I  I81  1  0.16530045  0.16711089  -0.00001828  1
  I  I82  1  0.16658759  0.16761392  0.33754076  1
  I  I83  1  0.16053094  0.16180361  0.66290540  1
  I  I84  1  0.17062120  0.50507695  -0.00233272  1
  I  I85  1  0.16363840  0.50155937  0.33665724  1
  I  I86  1  0.16406372  0.50500262  0.66526129  1
  I  I87  1  0.17397765  0.82885425  -0.00060288  1
  I  I88  1  0.17294836  0.83374544  0.33433062  1
  I  I89  1  0.17216867  0.83239816  0.66601728  1
  I  I90  1  0.50065470  0.16044066  -0.00296686  1
  I  I91  1  0.49918747  0.16563668  0.33352406  1
  I  I92  1  0.50096238  0.16067486  0.66947971  1
  I  I93  1  0.49860919  0.50534058  0.00300150  1
  I  I94  1  0.49821238  0.50578784  0.33060654  1
  I  I95  1  0.50265925  0.50022222  0.66656307  1
  I  I96  1  0.49338997  0.83466593  -0.00007679  1
  I  I97  1  0.49376911  0.82913569  0.33321875  1
  I  I98  1  0.49422566  0.83859428  0.66685844  1
  I  I99  1  0.83096973  0.16388968  0.00210626  1
  I  I100  1  0.83581327  0.16927446  0.33501726  1
  I  I101  1  0.83753997  0.16925832  0.66298800  1
  I  I102  1  0.83357901  0.49835272  0.00021920  1
  I  I103  1  0.84124333  0.49950545  0.33700039  1
  I  I104  1  0.83201437  0.49320933  0.66248318  1
  I  I105  1  0.83382326  0.83670582  0.00011309  1
  I  I106  1  0.83258898  0.83248218  0.33354326  1
  I  I107  1  0.83165074  0.83640028  0.66642948  1
  I  I108  1  -0.00300072  0.16567089  0.16792886  1
  I  I109  1  0.00059534  0.16433736  0.49731628  1
  I  I110  1  0.00024333  0.16578411  0.83490956  1
  I  I111  1  0.00007300  0.50125314  0.16466591  1
  I  I112  1  0.00156352  0.50192008  0.50321124  1
  I  I113  1  0.00491788  0.50666326  0.83315784  1
  I  I114  1  0.00334071  0.83434472  0.16834230  1
  I  I115  1  0.00369969  0.83350245  0.50030410  1
  I  I116  1  0.00440117  0.83026435  0.83179861  1
  I  I117  1  0.33333471  0.16848600  0.16758262  1
  I  I118  1  0.33053283  0.16871813  0.50220106  1
  I  I119  1  0.33618664  0.16314223  0.83280480  1
  I  I120  1  0.33601949  0.50142449  0.16896168  1
  I  I121  1  0.32996687  0.49817043  0.50312453  1
  I  I122  1  0.32986324  0.50210507  0.82461268  1
  I  I123  1  0.33380460  0.83055754  0.16759277  1
  I  I124  1  0.33203955  0.83348421  0.50006756  1
  I  I125  1  0.33313830  0.83381670  0.83241537  1
  I  I126  1  0.66940195  0.16484295  0.17493606  1
  I  I127  1  0.66929624  0.16953465  0.49739949  1
  I  I128  1  0.66300382  0.15878628  0.83217008  1
  I  I129  1  0.66319657  0.50827675  0.16661554  1
  I  I130  1  0.66878136  0.49571629  0.49708465  1
  I  I131  1  0.66642166  0.49991437  0.83289031  1
  I  I132  1  0.66310664  0.83099665  0.16732410  1
  I  I133  1  0.66361546  0.83398833  0.49939704  1
  I  I134  1  0.66296184  0.83844774  0.83269555  1
