# generated using pymatgen
data_Cs27Sn14Pb13I81
_symmetry_space_group_name_H-M   'P 1'
_cell_length_a   18.96095814
_cell_length_b   18.96091221
_cell_length_c   18.96073934
_cell_angle_alpha   90.00123144
_cell_angle_beta   89.99898681
_cell_angle_gamma   90.00149580
_symmetry_Int_Tables_number   1
_chemical_formula_structural   Cs27Sn14Pb13I81
_chemical_formula_sum   'Cs27 Sn14 Pb13 I81'
_cell_volume   6816.70930877
_cell_formula_units_Z   1
loop_
 _symmetry_equiv_pos_site_id
 _symmetry_equiv_pos_as_xyz
  1  'x, y, z'
loop_
 _atom_site_type_symbol
 _atom_site_label
 _atom_site_symmetry_multiplicity
 _atom_site_fract_x
 _atom_site_fract_y
 _atom_site_fract_z
 _atom_site_occupancy
  Cs  Cs0  1  -0.00069083  0.00269316  0.00170181  1
  Cs  Cs1  1  0.00004965  -0.00131571  0.33385042  1
  Cs  Cs2  1  -0.00024882  0.00221379  0.66375791  1
  Cs  Cs3  1  0.00280926  0.33314958  -0.00041258  1
  Cs  Cs4  1  -0.00083228  0.33327248  0.33286812  1
  Cs  Cs5  1  0.00124922  0.33453135  0.66819914  1
  Cs  Cs6  1  -0.00157598  0.66424480  0.00106301  1
  Cs  Cs7  1  0.00169148  0.66776210  0.33264499  1
  Cs  Cs8  1  -0.00415461  0.66200968  0.66750369  1
  Cs  Cs9  1  0.33156657  -0.00253192  -0.00378131  1
  Cs  Cs10  1  0.33133926  -0.00247745  0.33581934  1
  Cs  Cs11  1  0.33384316  0.00055779  0.66685228  1
  Cs  Cs12  1  0.33180794  0.33512505  -0.00190128  1
  Cs  Cs13  1  0.33856943  0.33423468  0.33353808  1
  Cs  Cs14  1  0.33216007  0.33172987  0.66819633  1
  Cs  Cs15  1  0.33515993  0.66709140  0.00085985  1
  Cs  Cs16  1  0.33075669  0.66779167  0.33176440  1
  Cs  Cs17  1  0.33330410  0.66980240  0.66826006  1
  Cs  Cs18  1  0.66781560  -0.00105460  -0.00054548  1
  Cs  Cs19  1  0.66833248  0.00232913  0.33319219  1
  Cs  Cs20  1  0.66643351  -0.00155837  0.66800472  1
  Cs  Cs21  1  0.66339394  0.32961616  0.00526420  1
  Cs  Cs22  1  0.65890397  0.33370615  0.33301165  1
  Cs  Cs23  1  0.66648815  0.33482810  0.66289520  1
  Cs  Cs24  1  0.66652463  0.67002179  -0.00215219  1
  Cs  Cs25  1  0.66695166  0.66457383  0.33359998  1
  Cs  Cs26  1  0.67049569  0.66692268  0.66868316  1
  Sn  Sn27  1  0.16610287  0.16776217  0.49882808  1
  Sn  Sn28  1  0.50106735  0.83334805  0.49904913  1
  Sn  Sn29  1  0.16605946  0.49887176  0.16766294  1
  Sn  Sn30  1  0.83236477  0.16687214  0.83251834  1
  Sn  Sn31  1  0.16667820  0.49900803  0.49933592  1
  Sn  Sn32  1  0.16559102  0.83307827  0.83320524  1
  Sn  Sn33  1  0.83236229  0.83385124  0.49913781  1
  Sn  Sn34  1  0.16691320  0.16745082  0.16781206  1
  Sn  Sn35  1  0.83244656  0.83256015  0.16754075  1
  Sn  Sn36  1  0.50041924  0.49905988  0.83312530  1
  Sn  Sn37  1  0.50087909  0.83358922  0.16776525  1
  Sn  Sn38  1  0.50112688  0.16768040  0.83315451  1
  Sn  Sn39  1  0.83378747  0.16635683  0.50058937  1
  Sn  Sn40  1  0.83363231  0.50043619  0.16696307  1
  Pb  Pb41  1  0.49901919  0.83358953  0.83316935  1
  Pb  Pb42  1  0.50006073  0.16484848  0.50166531  1
  Pb  Pb43  1  0.49981087  0.50205361  0.16520887  1
  Pb  Pb44  1  0.16607472  0.83310381  0.16513710  1
  Pb  Pb45  1  0.83471070  0.16671901  0.16742532  1
  Pb  Pb46  1  0.16583190  0.83328358  0.50177609  1
  Pb  Pb47  1  0.16641165  0.16545860  0.83292882  1
  Pb  Pb48  1  0.83094044  0.49695027  0.83615729  1
  Pb  Pb49  1  0.49739825  0.50277578  0.50210491  1
  Pb  Pb50  1  0.49683511  0.16391711  0.16454033  1
  Pb  Pb51  1  0.16800408  0.50208967  0.83350604  1
  Pb  Pb52  1  0.83564824  0.83510964  0.83327332  1
  Pb  Pb53  1  0.83497485  0.49959290  0.49790601  1
  I  I54  1  0.16643508  0.00210657  0.16865680  1
  I  I55  1  0.16567805  0.00258099  0.49762617  1
  I  I56  1  0.16981148  -0.00203966  0.83420687  1
  I  I57  1  0.16058934  0.33390872  0.16835183  1
  I  I58  1  0.16127357  0.33229013  0.49763242  1
  I  I59  1  0.16655672  0.33336344  0.83386550  1
  I  I60  1  0.16610512  0.66411981  0.16925725  1
  I  I61  1  0.16769833  0.66451805  0.49699644  1
  I  I62  1  0.17011990  0.66944764  0.83322777  1
  I  I63  1  0.50471884  -0.00394033  0.16740548  1
  I  I64  1  0.49802925  -0.00323273  0.49940694  1
  I  I65  1  0.50113650  0.00221711  0.83338090  1
  I  I66  1  0.50205397  0.33319530  0.16593008  1
  I  I67  1  0.50172074  0.33334333  0.50035433  1
  I  I68  1  0.50130445  0.33248824  0.83398699  1
  I  I69  1  0.49826438  0.67007330  0.16666998  1
  I  I70  1  0.50363521  0.67077913  0.49932406  1
  I  I71  1  0.49535549  0.66523681  0.83416812  1
  I  I72  1  0.83178923  -0.00251989  0.16689990  1
  I  I73  1  0.83605086  -0.00009979  0.49835365  1
  I  I74  1  0.82839342  0.00304799  0.83443404  1
  I  I75  1  0.83756731  0.33551237  0.16488261  1
  I  I76  1  0.83724343  0.33033714  0.50335406  1
  I  I77  1  0.83453957  0.32909521  0.82816997  1
  I  I78  1  0.83622254  0.66771485  0.17117454  1
  I  I79  1  0.83182965  0.66939914  0.49805123  1
  I  I80  1  0.83303896  0.66651773  0.83134843  1
  I  I81  1  0.16622697  0.16841110  0.00206289  1
  I  I82  1  0.16072152  0.16825496  0.33414499  1
  I  I83  1  0.16560642  0.16842649  0.66383091  1
  I  I84  1  0.16441617  0.49720924  0.00304830  1
  I  I85  1  0.16361601  0.49766986  0.33260773  1
  I  I86  1  0.16833388  0.49732765  0.66416844  1
  I  I87  1  0.16880380  0.83483109  -0.00218972  1
  I  I88  1  0.16789300  0.83368535  0.33341580  1
  I  I89  1  0.16931313  0.83463179  0.66896237  1
  I  I90  1  0.50419919  0.16713125  -0.00342309  1
  I  I91  1  0.50187986  0.16680070  0.33330233  1
  I  I92  1  0.49808513  0.16643308  0.66971311  1
  I  I93  1  0.49729538  0.49900663  -0.00259801  1
  I  I94  1  0.50070411  0.49997497  0.33335825  1
  I  I95  1  0.49750064  0.49866019  0.66979978  1
  I  I96  1  0.50182890  0.83315996  0.00217572  1
  I  I97  1  0.50173391  0.83328980  0.33331287  1
  I  I98  1  0.50167553  0.83370706  0.66434209  1
  I  I99  1  0.83201804  0.16590297  -0.00176181  1
  I  I100  1  0.83759317  0.16391555  0.33618434  1
  I  I101  1  0.83589271  0.16038441  0.66548987  1
  I  I102  1  0.84046324  0.50588807  0.00392793  1
  I  I103  1  0.83539927  0.50043616  0.32986629  1
  I  I104  1  0.83462728  0.50291473  0.66660156  1
  I  I105  1  0.83081509  0.83149168  0.00282698  1
  I  I106  1  0.83067076  0.83606676  0.33347803  1
  I  I107  1  0.83061257  0.83604957  0.66374868  1
  I  I108  1  0.00279108  0.16503403  0.16493275  1
  I  I109  1  -0.00010772  0.16335717  0.50228679  1
  I  I110  1  -0.00217062  0.16280896  0.83260481  1
  I  I111  1  0.00079630  0.50308549  0.16906179  1
  I  I112  1  0.00319523  0.50166116  0.49935726  1
  I  I113  1  -0.00024039  0.50038596  0.83257050  1
  I  I114  1  -0.00276641  0.83294336  0.16978555  1
  I  I115  1  -0.00295064  0.83534960  0.49649400  1
  I  I116  1  0.00284903  0.83533325  0.83373418  1
  I  I117  1  0.32890277  0.17068618  0.17046514  1
  I  I118  1  0.33048371  0.16766880  0.49857147  1
  I  I119  1  0.33523320  0.16718213  0.83399867  1
  I  I120  1  0.33037782  0.49840016  0.16816193  1
  I  I121  1  0.32931158  0.49601810  0.49443347  1
  I  I122  1  0.33578783  0.49528313  0.83508481  1
  I  I123  1  0.33517350  0.83381248  0.16811405  1
  I  I124  1  0.33507093  0.83319331  0.49833522  1
  I  I125  1  0.33137642  0.83572065  0.83363519  1
  I  I126  1  0.66654710  0.16882831  0.16757422  1
  I  I127  1  0.66949431  0.16324954  0.50277432  1
  I  I128  1  0.66700519  0.16816418  0.82885995  1
  I  I129  1  0.66908733  0.50261981  0.16442005  1
  I  I130  1  0.66666624  0.49797437  0.49911711  1
  I  I131  1  0.66334270  0.50146521  0.83422628  1
  I  I132  1  0.66765223  0.82834725  0.16859349  1
  I  I133  1  0.66767909  0.83892493  0.49729676  1
  I  I134  1  0.66702984  0.83269408  0.83377309  1
