# generated using pymatgen
data_Cs27Sn14Pb13I81
_symmetry_space_group_name_H-M   'P 1'
_cell_length_a   18.98505801
_cell_length_b   18.97741158
_cell_length_c   18.96655929
_cell_angle_alpha   89.99795490
_cell_angle_beta   89.99868126
_cell_angle_gamma   90.00025535
_symmetry_Int_Tables_number   1
_chemical_formula_structural   Cs27Sn14Pb13I81
_chemical_formula_sum   'Cs27 Sn14 Pb13 I81'
_cell_volume   6833.40966451
_cell_formula_units_Z   1
loop_
 _symmetry_equiv_pos_site_id
 _symmetry_equiv_pos_as_xyz
  1  'x, y, z'
loop_
 _atom_site_type_symbol
 _atom_site_label
 _atom_site_symmetry_multiplicity
 _atom_site_fract_x
 _atom_site_fract_y
 _atom_site_fract_z
 _atom_site_occupancy
  Cs  Cs0  1  0.00057825  -0.00263786  0.00046387  1
  Cs  Cs1  1  -0.00183686  0.00112105  0.33310892  1
  Cs  Cs2  1  0.00054833  0.00022710  0.66590954  1
  Cs  Cs3  1  -0.00050755  0.33441281  0.00254797  1
  Cs  Cs4  1  0.00000412  0.33222806  0.33008914  1
  Cs  Cs5  1  -0.00211754  0.33216955  0.66731339  1
  Cs  Cs6  1  -0.00214112  0.66848070  -0.00239341  1
  Cs  Cs7  1  0.00088593  0.66737111  0.33494108  1
  Cs  Cs8  1  0.00026736  0.66822778  0.66771003  1
  Cs  Cs9  1  0.33486164  -0.00079028  -0.00175896  1
  Cs  Cs10  1  0.33750997  -0.00285105  0.33174038  1
  Cs  Cs11  1  0.33049562  0.00315427  0.66947653  1
  Cs  Cs12  1  0.33436806  0.33280441  0.00507309  1
  Cs  Cs13  1  0.33114639  0.34454141  0.32823401  1
  Cs  Cs14  1  0.33422019  0.33045444  0.66660121  1
  Cs  Cs15  1  0.33303838  0.66833685  -0.00030951  1
  Cs  Cs16  1  0.34183287  0.65732588  0.33872841  1
  Cs  Cs17  1  0.33251078  0.66501076  0.66411706  1
  Cs  Cs18  1  0.66426865  0.00036850  0.00133128  1
  Cs  Cs19  1  0.66601975  -0.00254712  0.33213939  1
  Cs  Cs20  1  0.66719066  0.00271723  0.66564195  1
  Cs  Cs21  1  0.66661425  0.33043288  0.00053262  1
  Cs  Cs22  1  0.66890708  0.33363307  0.33351960  1
  Cs  Cs23  1  0.66854791  0.33172773  0.66704791  1
  Cs  Cs24  1  0.66918799  0.66697932  -0.00130379  1
  Cs  Cs25  1  0.66060833  0.66815297  0.33395328  1
  Cs  Cs26  1  0.66795476  0.66568673  0.66724224  1
  Sn  Sn27  1  0.16618147  0.83294634  0.16661221  1
  Sn  Sn28  1  0.83432666  0.16554865  0.83291402  1
  Sn  Sn29  1  0.83360350  0.16736044  0.50073075  1
  Sn  Sn30  1  0.49894156  0.50041461  0.83327464  1
  Sn  Sn31  1  0.50000695  0.83247651  0.83295578  1
  Sn  Sn32  1  0.16669185  0.83325478  0.83374751  1
  Sn  Sn33  1  0.16684558  0.16655636  0.50004649  1
  Sn  Sn34  1  0.83445470  0.83226511  0.16590089  1
  Sn  Sn35  1  0.16554893  0.16709866  0.83314025  1
  Sn  Sn36  1  0.49955998  0.16683598  0.49969734  1
  Sn  Sn37  1  0.83376341  0.49960759  0.49889918  1
  Sn  Sn38  1  0.16771910  0.49968213  0.83329387  1
  Sn  Sn39  1  0.83316798  0.83470847  0.83380806  1
  Sn  Sn40  1  0.83358672  0.50128673  0.16791671  1
  Pb  Pb41  1  0.16681855  0.83525627  0.49972339  1
  Pb  Pb42  1  0.50238818  0.49772490  0.50260304  1
  Pb  Pb43  1  0.16430900  0.49756513  0.50232073  1
  Pb  Pb44  1  0.16446203  0.50301891  0.16423369  1
  Pb  Pb45  1  0.83338282  0.16598955  0.16647833  1
  Pb  Pb46  1  0.16669387  0.16418654  0.16640317  1
  Pb  Pb47  1  0.49990684  0.16672931  0.83244439  1
  Pb  Pb48  1  0.49977905  0.83543117  0.50306704  1
  Pb  Pb49  1  0.83358579  0.49977516  0.83336248  1
  Pb  Pb50  1  0.50290058  0.50018416  0.16374533  1
  Pb  Pb51  1  0.49969155  0.16682141  0.17039744  1
  Pb  Pb52  1  0.83341204  0.83350980  0.49984195  1
  Pb  Pb53  1  0.49982992  0.83315893  0.16444934  1
  I  I54  1  0.15844109  -0.00359395  0.15980787  1
  I  I55  1  0.16223830  0.00380945  0.50722785  1
  I  I56  1  0.16609091  -0.00015768  0.83273416  1
  I  I57  1  0.16559967  0.33366704  0.16550748  1
  I  I58  1  0.16781053  0.32929725  0.50703467  1
  I  I59  1  0.16552959  0.33252023  0.82727130  1
  I  I60  1  0.16283015  0.67076985  0.15852955  1
  I  I61  1  0.16397324  0.66636937  0.50214405  1
  I  I62  1  0.16575760  0.66753020  0.83819593  1
  I  I63  1  0.50311995  -0.00033404  0.16409296  1
  I  I64  1  0.50433497  0.00365557  0.50301583  1
  I  I65  1  0.49860971  -0.00253860  0.83191165  1
  I  I66  1  0.50212270  0.33371480  0.16145840  1
  I  I67  1  0.49913678  0.32993334  0.50553332  1
  I  I68  1  0.49862476  0.33548987  0.83096237  1
  I  I69  1  0.49899319  0.66674033  0.16960829  1
  I  I70  1  0.50195745  0.66624709  0.49898844  1
  I  I71  1  0.49857400  0.66736986  0.83376507  1
  I  I72  1  0.83693133  -0.00319365  0.16500490  1
  I  I73  1  0.83362887  0.00334760  0.50214726  1
  I  I74  1  0.83547425  -0.00025692  0.83275050  1
  I  I75  1  0.83215272  0.33552347  0.16650117  1
  I  I76  1  0.83305838  0.33186222  0.50191545  1
  I  I77  1  0.83546514  0.33087968  0.83203211  1
  I  I78  1  0.83727015  0.66772549  0.16386267  1
  I  I79  1  0.83320536  0.66415974  0.50117551  1
  I  I80  1  0.83531388  0.66905613  0.83375334  1
  I  I81  1  0.16090795  0.16818523  -0.00394090  1
  I  I82  1  0.16415308  0.16392651  0.33648280  1
  I  I83  1  0.16524057  0.16403278  0.66818356  1
  I  I84  1  0.16749400  0.49427797  -0.00426724  1
  I  I85  1  0.16696860  0.49963824  0.33329192  1
  I  I86  1  0.16705501  0.50571622  0.67078033  1
  I  I87  1  0.16505193  0.83555437  -0.00239912  1
  I  I88  1  0.15837194  0.83760526  0.33019725  1
  I  I89  1  0.16494528  0.83236150  0.67060183  1
  I  I90  1  0.50112862  0.16664601  -0.00037202  1
  I  I91  1  0.50292670  0.16535973  0.33864863  1
  I  I92  1  0.50158657  0.16615418  0.66458109  1
  I  I93  1  0.49848054  0.50277001  -0.00435592  1
  I  I94  1  0.49915971  0.49810082  0.33353850  1
  I  I95  1  0.49905212  0.50450455  0.67043958  1
  I  I96  1  0.50059321  0.83159581  -0.00420514  1
  I  I97  1  0.50086345  0.83641053  0.33330808  1
  I  I98  1  0.50085152  0.82945759  0.67156949  1
  I  I99  1  0.83812051  0.16677544  -0.00337901  1
  I  I100  1  0.83363750  0.16769732  0.33653067  1
  I  I101  1  0.83380375  0.16715348  0.66707141  1
  I  I102  1  0.83332527  0.50132508  0.00168853  1
  I  I103  1  0.83384256  0.49827145  0.33362260  1
  I  I104  1  0.83280127  0.49763416  0.66502214  1
  I  I105  1  0.83413210  0.83258596  -0.00156514  1
  I  I106  1  0.83867251  0.83349039  0.33027335  1
  I  I107  1  0.83466053  0.83396146  0.67014880  1
  I  I108  1  -0.00015213  0.16863858  0.17064587  1
  I  I109  1  -0.00066380  0.16986173  0.50568669  1
  I  I110  1  -0.00015606  0.16410595  0.82541800  1
  I  I111  1  -0.00343518  0.50074613  0.16727119  1
  I  I112  1  -0.00358120  0.49411826  0.49984919  1
  I  I113  1  0.00215461  0.50178254  0.83305845  1
  I  I114  1  -0.00098947  0.83058207  0.15689216  1
  I  I115  1  -0.00013524  0.83544934  0.50497602  1
  I  I116  1  -0.00012486  0.83385857  0.83710782  1
  I  I117  1  0.33297428  0.16334001  0.16398556  1
  I  I118  1  0.33246894  0.16292298  0.50806271  1
  I  I119  1  0.33042936  0.16356918  0.82848320  1
  I  I120  1  0.33312864  0.50061490  0.16798715  1
  I  I121  1  0.33324409  0.49850667  0.49914149  1
  I  I122  1  0.33253506  0.50301887  0.83239895  1
  I  I123  1  0.33026831  0.83773907  0.16037337  1
  I  I124  1  0.33324684  0.83659624  0.49992241  1
  I  I125  1  0.33219250  0.83442764  0.83693248  1
  I  I126  1  0.66707129  0.16457938  0.16395203  1
  I  I127  1  0.66822568  0.17028465  0.50578802  1
  I  I128  1  0.66949761  0.16464158  0.82940273  1
  I  I129  1  0.67094990  0.50623348  0.16815463  1
  I  I130  1  0.67029571  0.49384594  0.49974362  1
  I  I131  1  0.66522006  0.50315625  0.83294556  1
  I  I132  1  0.67000479  0.83077394  0.16237696  1
  I  I133  1  0.66690512  0.83652032  0.50084242  1
  I  I134  1  0.66783088  0.83316801  0.83646788  1
