# generated using pymatgen
data_Cs27Sn13Pb14I81
_symmetry_space_group_name_H-M   'P 1'
_cell_length_a   18.99747736
_cell_length_b   18.99121871
_cell_length_c   18.98621885
_cell_angle_alpha   90.00174793
_cell_angle_beta   90.00063160
_cell_angle_gamma   89.99907579
_symmetry_Int_Tables_number   1
_chemical_formula_structural   Cs27Sn13Pb14I81
_chemical_formula_sum   'Cs27 Sn13 Pb14 I81'
_cell_volume   6849.94766342
_cell_formula_units_Z   1
loop_
 _symmetry_equiv_pos_site_id
 _symmetry_equiv_pos_as_xyz
  1  'x, y, z'
loop_
 _atom_site_type_symbol
 _atom_site_label
 _atom_site_symmetry_multiplicity
 _atom_site_fract_x
 _atom_site_fract_y
 _atom_site_fract_z
 _atom_site_occupancy
  Cs  Cs0  1  -0.00004546  0.00019973  0.00048382  1
  Cs  Cs1  1  0.00390621  0.00015401  0.33784998  1
  Cs  Cs2  1  -0.00169629  -0.00135652  0.66129557  1
  Cs  Cs3  1  -0.00085558  0.33359650  0.00139170  1
  Cs  Cs4  1  0.00466670  0.33295069  0.32937798  1
  Cs  Cs5  1  -0.01275058  0.33681425  0.67058501  1
  Cs  Cs6  1  0.00103880  0.66770086  0.00073741  1
  Cs  Cs7  1  0.00056490  0.66694796  0.33374621  1
  Cs  Cs8  1  0.00037029  0.66642054  0.66259506  1
  Cs  Cs9  1  0.33415263  0.00036442  -0.00137797  1
  Cs  Cs10  1  0.33063218  0.00379734  0.33658545  1
  Cs  Cs11  1  0.33450449  -0.00203829  0.66790289  1
  Cs  Cs12  1  0.33257457  0.33170111  -0.00203947  1
  Cs  Cs13  1  0.33233238  0.33043368  0.33742725  1
  Cs  Cs14  1  0.33745897  0.33602362  0.66764088  1
  Cs  Cs15  1  0.33447779  0.66664400  -0.00037825  1
  Cs  Cs16  1  0.33346133  0.66579219  0.33102488  1
  Cs  Cs17  1  0.33181057  0.66730106  0.67047518  1
  Cs  Cs18  1  0.66578402  -0.00069123  -0.00025051  1
  Cs  Cs19  1  0.66584709  0.00008040  0.33337980  1
  Cs  Cs20  1  0.66577982  0.00154693  0.66746103  1
  Cs  Cs21  1  0.66875185  0.33084908  -0.00083039  1
  Cs  Cs22  1  0.66329423  0.33452417  0.33984726  1
  Cs  Cs23  1  0.67381758  0.33884432  0.65751069  1
  Cs  Cs24  1  0.66312170  0.66923215  0.00344896  1
  Cs  Cs25  1  0.66495162  0.66403201  0.33075722  1
  Cs  Cs26  1  0.66728880  0.66225861  0.66284296  1
  Sn  Sn27  1  0.83349435  0.83333480  0.83395752  1
  Sn  Sn28  1  0.49982535  0.16628120  0.83393341  1
  Sn  Sn29  1  0.83235810  0.16618645  0.16652378  1
  Sn  Sn30  1  0.83383811  0.50030016  0.16623946  1
  Sn  Sn31  1  0.16679666  0.49981408  0.49959163  1
  Sn  Sn32  1  0.50063811  0.16648325  0.16587165  1
  Sn  Sn33  1  0.16684966  0.16594655  0.83306067  1
  Sn  Sn34  1  0.16610507  0.83290706  0.16597948  1
  Sn  Sn35  1  0.83425089  0.83359997  0.16591521  1
  Sn  Sn36  1  0.16613404  0.83440466  0.83417428  1
  Sn  Sn37  1  0.49979488  0.83338064  0.50089254  1
  Sn  Sn38  1  0.16637034  0.50091269  0.16721200  1
  Sn  Sn39  1  0.50018692  0.83389157  0.83239191  1
  Pb  Pb40  1  0.50039114  0.49945796  0.83357917  1
  Pb  Pb41  1  0.49946374  0.83515846  0.16626242  1
  Pb  Pb42  1  0.16664008  0.50002813  0.83392239  1
  Pb  Pb43  1  0.49738356  0.50283166  0.49987406  1
  Pb  Pb44  1  0.83598260  0.50036114  0.49661180  1
  Pb  Pb45  1  0.16666418  0.16968505  0.50449810  1
  Pb  Pb46  1  0.49948298  0.49671952  0.16635223  1
  Pb  Pb47  1  0.16850042  0.83204006  0.50000922  1
  Pb  Pb48  1  0.83321121  0.50334176  0.83635950  1
  Pb  Pb49  1  0.83097966  0.83333859  0.49938514  1
  Pb  Pb50  1  0.49987647  0.16474150  0.50104918  1
  Pb  Pb51  1  0.83300468  0.16450580  0.83498860  1
  Pb  Pb52  1  0.83356461  0.16641497  0.49658136  1
  Pb  Pb53  1  0.16665811  0.16641291  0.16513352  1
  I  I54  1  0.16385047  -0.00286523  0.16372357  1
  I  I55  1  0.16806461  -0.00001227  0.49637978  1
  I  I56  1  0.16843109  -0.00177322  0.84051482  1
  I  I57  1  0.16352797  0.33556480  0.16845769  1
  I  I58  1  0.16760966  0.33710488  0.49000402  1
  I  I59  1  0.17364746  0.33039334  0.83444349  1
  I  I60  1  0.15976270  0.66767618  0.16496279  1
  I  I61  1  0.16794874  0.66426051  0.49913770  1
  I  I62  1  0.16779734  0.67017647  0.83470227  1
  I  I63  1  0.50384246  0.00276937  0.16474972  1
  I  I64  1  0.49799305  -0.00302874  0.50118668  1
  I  I65  1  0.49853348  -0.00106157  0.83423808  1
  I  I66  1  0.50337515  0.32880332  0.16005474  1
  I  I67  1  0.49959195  0.33336373  0.49967404  1
  I  I68  1  0.49199950  0.32927987  0.83975852  1
  I  I69  1  0.50228097  0.66685173  0.16673497  1
  I  I70  1  0.50068416  0.67060969  0.50622869  1
  I  I71  1  0.49801881  0.67062557  0.83010965  1
  I  I72  1  0.83298263  -0.00096575  0.16156046  1
  I  I73  1  0.83460570  -0.00045302  0.49697042  1
  I  I74  1  0.83315941  -0.00358880  0.84090301  1
  I  I75  1  0.83479277  0.33338201  0.16707579  1
  I  I76  1  0.83225017  0.33361693  0.50142469  1
  I  I77  1  0.83412856  0.33316108  0.83481131  1
  I  I78  1  0.83856776  0.66760236  0.16276486  1
  I  I79  1  0.83200322  0.66688773  0.49924220  1
  I  I80  1  0.83441050  0.67177033  0.83881412  1
  I  I81  1  0.16846661  0.16631745  -0.00265149  1
  I  I82  1  0.16679927  0.16420404  0.33327252  1
  I  I83  1  0.17482649  0.15908820  0.67218144  1
  I  I84  1  0.16204777  0.50178148  0.00326535  1
  I  I85  1  0.16236070  0.50639967  0.33114117  1
  I  I86  1  0.17011479  0.50117480  0.66463892  1
  I  I87  1  0.16803945  0.83076323  0.00005103  1
  I  I88  1  0.16343780  0.83130163  0.33013813  1
  I  I89  1  0.16481117  0.83509003  0.67008115  1
  I  I90  1  0.49968877  0.15998285  -0.00066711  1
  I  I91  1  0.50489410  0.16510196  0.33070206  1
  I  I92  1  0.49322019  0.16275872  0.67059705  1
  I  I93  1  0.49682507  0.50593308  0.00030831  1
  I  I94  1  0.50242001  0.50147944  0.33294965  1
  I  I95  1  0.49700126  0.49658476  0.66659425  1
  I  I96  1  0.49992055  0.83562640  -0.00289153  1
  I  I97  1  0.49992562  0.83454864  0.33472164  1
  I  I98  1  0.49865061  0.83913001  0.66908664  1
  I  I99  1  0.83227364  0.16846057  0.00335055  1
  I  I100  1  0.82744753  0.16321006  0.32756898  1
  I  I101  1  0.83338117  0.16559135  0.66713437  1
  I  I102  1  0.84187964  0.49732207  0.00434368  1
  I  I103  1  0.83424552  0.50386771  0.32855944  1
  I  I104  1  0.83440322  0.50024491  0.66656266  1
  I  I105  1  0.83208320  0.83299174  0.00093559  1
  I  I106  1  0.83664509  0.83315646  0.32919381  1
  I  I107  1  0.83682442  0.83486160  0.66994435  1
  I  I108  1  -0.00229725  0.16718178  0.16440148  1
  I  I109  1  0.00036443  0.16460209  0.49971661  1
  I  I110  1  0.00240985  0.16318033  0.83541547  1
  I  I111  1  0.00031692  0.49897726  0.17038304  1
  I  I112  1  0.00344418  0.50307532  0.49913236  1
  I  I113  1  0.00007719  0.49779192  0.83054718  1
  I  I114  1  -0.00001401  0.83402763  0.15910762  1
  I  I115  1  0.00013926  0.83172825  0.50237493  1
  I  I116  1  0.00074146  0.83685865  0.83987331  1
  I  I117  1  0.33537955  0.16559351  0.16405189  1
  I  I118  1  0.33323842  0.16707501  0.49244464  1
  I  I119  1  0.33388823  0.15805048  0.84096235  1
  I  I120  1  0.32986455  0.50522747  0.16962270  1
  I  I121  1  0.32991145  0.50005703  0.49134232  1
  I  I122  1  0.33314137  0.50454163  0.83605382  1
  I  I123  1  0.33042475  0.82934130  0.16364062  1
  I  I124  1  0.33610635  0.83236793  0.50393637  1
  I  I125  1  0.33296497  0.83673113  0.83355235  1
  I  I126  1  0.66696754  0.16511669  0.15993492  1
  I  I127  1  0.66654241  0.16693172  0.50358533  1
  I  I128  1  0.66377023  0.16016189  0.83786455  1
  I  I129  1  0.66970231  0.50485884  0.16450601  1
  I  I130  1  0.66683505  0.49983804  0.49956047  1
  I  I131  1  0.66693967  0.50030250  0.83548423  1
  I  I132  1  0.66933189  0.83093267  0.16404520  1
  I  I133  1  0.66323435  0.83438875  0.50391617  1
  I  I134  1  0.66639441  0.83733185  0.83496256  1
