# generated using pymatgen
data_Cs27Sn14Pb13I81
_symmetry_space_group_name_H-M   'P 1'
_cell_length_a   18.97189692
_cell_length_b   18.98384020
_cell_length_c   18.97196446
_cell_angle_alpha   89.99737049
_cell_angle_beta   90.00073954
_cell_angle_gamma   90.00095503
_symmetry_Int_Tables_number   1
_chemical_formula_structural   Cs27Sn14Pb13I81
_chemical_formula_sum   'Cs27 Sn14 Pb13 I81'
_cell_volume   6832.93245564
_cell_formula_units_Z   1
loop_
 _symmetry_equiv_pos_site_id
 _symmetry_equiv_pos_as_xyz
  1  'x, y, z'
loop_
 _atom_site_type_symbol
 _atom_site_label
 _atom_site_symmetry_multiplicity
 _atom_site_fract_x
 _atom_site_fract_y
 _atom_site_fract_z
 _atom_site_occupancy
  Cs  Cs0  1  -0.00322413  -0.00399076  0.00231930  1
  Cs  Cs1  1  0.00416748  0.00142795  0.33953078  1
  Cs  Cs2  1  0.00178603  0.00129521  0.65986494  1
  Cs  Cs3  1  0.00092671  0.33399408  -0.00114903  1
  Cs  Cs4  1  -0.00194326  0.33122399  0.33303365  1
  Cs  Cs5  1  0.00382808  0.33187316  0.66721424  1
  Cs  Cs6  1  -0.00006149  0.66645768  -0.00024584  1
  Cs  Cs7  1  0.00144449  0.66879358  0.33313170  1
  Cs  Cs8  1  -0.00380039  0.66570536  0.66834943  1
  Cs  Cs9  1  0.33527298  -0.00059374  -0.00358467  1
  Cs  Cs10  1  0.32809133  -0.00400107  0.33583790  1
  Cs  Cs11  1  0.33586408  0.00587745  0.66792952  1
  Cs  Cs12  1  0.33193933  0.33122312  0.00078423  1
  Cs  Cs13  1  0.33605658  0.33607721  0.33168865  1
  Cs  Cs14  1  0.32953695  0.33340912  0.66726991  1
  Cs  Cs15  1  0.33153670  0.66662260  0.00151957  1
  Cs  Cs16  1  0.33364576  0.66637331  0.33177556  1
  Cs  Cs17  1  0.33715192  0.66335289  0.66745016  1
  Cs  Cs18  1  0.66724906  0.00112910  -0.00179706  1
  Cs  Cs19  1  0.66827892  0.00314457  0.33263825  1
  Cs  Cs20  1  0.66330284  -0.00263917  0.66977498  1
  Cs  Cs21  1  0.66745853  0.33196886  0.00480527  1
  Cs  Cs22  1  0.66642680  0.33032585  0.33047144  1
  Cs  Cs23  1  0.66800566  0.33763143  0.66414910  1
  Cs  Cs24  1  0.66839123  0.66721042  -0.00067885  1
  Cs  Cs25  1  0.66525585  0.66552494  0.33423315  1
  Cs  Cs26  1  0.66718207  0.66643788  0.66629821  1
  Sn  Sn27  1  0.83422597  0.50089271  0.16606583  1
  Sn  Sn28  1  0.83238898  0.49964955  0.83427042  1
  Sn  Sn29  1  0.83249289  0.83252165  0.16657002  1
  Sn  Sn30  1  0.50025538  0.83333526  0.49900691  1
  Sn  Sn31  1  0.83449261  0.83350539  0.83384700  1
  Sn  Sn32  1  0.50070476  0.49981672  0.83327085  1
  Sn  Sn33  1  0.16566920  0.49917061  0.16748360  1
  Sn  Sn34  1  0.50100770  0.83318474  0.16731370  1
  Sn  Sn35  1  0.83336741  0.16676042  0.83310034  1
  Sn  Sn36  1  0.49932931  0.49976369  0.50063238  1
  Sn  Sn37  1  0.16702930  0.50057451  0.49907462  1
  Sn  Sn38  1  0.16583852  0.83326013  0.83292747  1
  Sn  Sn39  1  0.50023686  0.16703164  0.49983340  1
  Sn  Sn40  1  0.16656198  0.16730343  0.16638578  1
  Pb  Pb41  1  0.83506139  0.16634536  0.16517996  1
  Pb  Pb42  1  0.16435331  0.16393566  0.83533243  1
  Pb  Pb43  1  0.16884076  0.16933829  0.49797425  1
  Pb  Pb44  1  0.49774469  0.16345547  0.16861728  1
  Pb  Pb45  1  0.50050846  0.83157475  0.83344971  1
  Pb  Pb46  1  0.16927637  0.83073918  0.50299662  1
  Pb  Pb47  1  0.50025684  0.50138594  0.16666151  1
  Pb  Pb48  1  0.83335011  0.50005401  0.49943541  1
  Pb  Pb49  1  0.16617635  0.83288116  0.16547769  1
  Pb  Pb50  1  0.83109584  0.16667662  0.50274510  1
  Pb  Pb51  1  0.50209526  0.17002023  0.83162071  1
  Pb  Pb52  1  0.16631270  0.50121419  0.83365916  1
  Pb  Pb53  1  0.83122258  0.83329901  0.49969759  1
  I  I54  1  0.16775180  0.00140453  0.16344736  1
  I  I55  1  0.16800738  -0.00009634  0.49896467  1
  I  I56  1  0.16325390  -0.00382055  0.83638896  1
  I  I57  1  0.16152917  0.33540539  0.16975806  1
  I  I58  1  0.17259010  0.33722109  0.50068276  1
  I  I59  1  0.16624557  0.33341678  0.83147551  1
  I  I60  1  0.16602482  0.66391958  0.16893120  1
  I  I61  1  0.17267508  0.66309045  0.49301248  1
  I  I62  1  0.16183834  0.66888022  0.83589803  1
  I  I63  1  0.50467486  -0.00448312  0.17005699  1
  I  I64  1  0.50223533  -0.00073966  0.49535739  1
  I  I65  1  0.50014926  -0.00004524  0.83199369  1
  I  I66  1  0.50232281  0.33338211  0.16738735  1
  I  I67  1  0.49600067  0.33481329  0.50610691  1
  I  I68  1  0.50396625  0.33806221  0.82850921  1
  I  I69  1  0.49903807  0.66920590  0.17135928  1
  I  I70  1  0.49644664  0.66594445  0.50055214  1
  I  I71  1  0.50480779  0.66386863  0.82761168  1
  I  I72  1  0.82995705  -0.00311473  0.16130126  1
  I  I73  1  0.83147726  -0.00014120  0.49966951  1
  I  I74  1  0.83716029  -0.00149302  0.83795230  1
  I  I75  1  0.83525615  0.33630397  0.16250916  1
  I  I76  1  0.83013767  0.33363634  0.49999620  1
  I  I77  1  0.82752561  0.33497866  0.83706915  1
  I  I78  1  0.83497958  0.66630301  0.15842124  1
  I  I79  1  0.83057701  0.66653649  0.50484995  1
  I  I80  1  0.83316168  0.66647314  0.83741112  1
  I  I81  1  0.16781900  0.17503779  0.00295230  1
  I  I82  1  0.16515329  0.16597269  0.33013368  1
  I  I83  1  0.16644171  0.16699169  0.66660071  1
  I  I84  1  0.16607947  0.49871990  0.00270375  1
  I  I85  1  0.16812006  0.49765118  0.33258860  1
  I  I86  1  0.16904853  0.50279957  0.66473711  1
  I  I87  1  0.16768298  0.83019897  -0.00231351  1
  I  I88  1  0.16495932  0.83500463  0.33352463  1
  I  I89  1  0.16012134  0.83117459  0.67051114  1
  I  I90  1  0.49935071  0.16619541  0.00005186  1
  I  I91  1  0.50076180  0.17376725  0.33652561  1
  I  I92  1  0.50011899  0.16044988  0.66356458  1
  I  I93  1  0.50112883  0.50385638  -0.00218693  1
  I  I94  1  0.49881901  0.49965227  0.33599576  1
  I  I95  1  0.50006124  0.50322663  0.66583161  1
  I  I96  1  0.50044121  0.83027473  0.00220489  1
  I  I97  1  0.50471838  0.82990189  0.33338022  1
  I  I98  1  0.49956817  0.83345338  0.66431426  1
  I  I99  1  0.83283624  0.16681290  -0.00290092  1
  I  I100  1  0.83346683  0.16701871  0.33314526  1
  I  I101  1  0.83375769  0.16715403  0.67102505  1
  I  I102  1  0.83318265  0.50147227  -0.00044989  1
  I  I103  1  0.83405230  0.50534801  0.32988437  1
  I  I104  1  0.83178443  0.50176669  0.66979588  1
  I  I105  1  0.83093005  0.83183354  -0.00026408  1
  I  I106  1  0.83070558  0.82715027  0.32985014  1
  I  I107  1  0.83541206  0.83134165  0.67015533  1
  I  I108  1  0.00281354  0.16687369  0.16583400  1
  I  I109  1  0.00037274  0.16784407  0.50011463  1
  I  I110  1  -0.00353726  0.17341837  0.83391035  1
  I  I111  1  -0.00058426  0.50258871  0.16561984  1
  I  I112  1  0.00265061  0.50002640  0.49959901  1
  I  I113  1  -0.00313971  0.49977491  0.83410805  1
  I  I114  1  -0.00289839  0.83134143  0.16164381  1
  I  I115  1  0.00025421  0.83219702  0.49800060  1
  I  I116  1  -0.00208562  0.82979277  0.84057971  1
  I  I117  1  0.33014046  0.17354773  0.16628558  1
  I  I118  1  0.33677607  0.16380658  0.50087902  1
  I  I119  1  0.33335023  0.16543610  0.83323963  1
  I  I120  1  0.33113734  0.49896193  0.16727258  1
  I  I121  1  0.33461883  0.50076154  0.50041898  1
  I  I122  1  0.33537445  0.50395847  0.83174219  1
  I  I123  1  0.33534710  0.83249601  0.16881845  1
  I  I124  1  0.33732116  0.83400506  0.49442138  1
  I  I125  1  0.33192326  0.82975362  0.83446807  1
  I  I126  1  0.66669209  0.16892265  0.16728964  1
  I  I127  1  0.66287904  0.17042303  0.49872163  1
  I  I128  1  0.66995313  0.16033789  0.83428317  1
  I  I129  1  0.66932865  0.50297880  0.16505649  1
  I  I130  1  0.66343116  0.50100208  0.50214072  1
  I  I131  1  0.66776822  0.50326940  0.83220311  1
  I  I132  1  0.66766537  0.82716834  0.16426438  1
  I  I133  1  0.66281328  0.82871207  0.50176082  1
  I  I134  1  0.66965667  0.83391672  0.83404493  1
