# generated using pymatgen
data_Cs27Sn13Pb14I81
_symmetry_space_group_name_H-M   'P 1'
_cell_length_a   18.97038157
_cell_length_b   18.98723676
_cell_length_c   18.97524456
_cell_angle_alpha   89.99995289
_cell_angle_beta   89.99832321
_cell_angle_gamma   90.00161672
_symmetry_Int_Tables_number   1
_chemical_formula_structural   Cs27Sn13Pb14I81
_chemical_formula_sum   'Cs27 Sn13 Pb14 I81'
_cell_volume   6834.79060855
_cell_formula_units_Z   1
loop_
 _symmetry_equiv_pos_site_id
 _symmetry_equiv_pos_as_xyz
  1  'x, y, z'
loop_
 _atom_site_type_symbol
 _atom_site_label
 _atom_site_symmetry_multiplicity
 _atom_site_fract_x
 _atom_site_fract_y
 _atom_site_fract_z
 _atom_site_occupancy
  Cs  Cs0  1  0.00045330  -0.00036549  0.00007599  1
  Cs  Cs1  1  0.00150936  0.00185556  0.33330393  1
  Cs  Cs2  1  -0.00100451  -0.00184324  0.66693141  1
  Cs  Cs3  1  0.00129458  0.33843039  0.00275215  1
  Cs  Cs4  1  -0.00053240  0.33116168  0.33304039  1
  Cs  Cs5  1  0.00101553  0.33161340  0.66470191  1
  Cs  Cs6  1  -0.00146196  0.66274270  -0.00001117  1
  Cs  Cs7  1  -0.00156378  0.66720469  0.33443857  1
  Cs  Cs8  1  0.00104103  0.66979436  0.66675033  1
  Cs  Cs9  1  0.33328246  -0.00157194  0.00024561  1
  Cs  Cs10  1  0.33315585  0.00020115  0.33429850  1
  Cs  Cs11  1  0.33279568  -0.00053036  0.66537883  1
  Cs  Cs12  1  0.33217901  0.34078839  -0.00427761  1
  Cs  Cs13  1  0.33322598  0.33087255  0.33374566  1
  Cs  Cs14  1  0.33404283  0.33377752  0.66851627  1
  Cs  Cs15  1  0.33451285  0.66258955  0.00412720  1
  Cs  Cs16  1  0.33747510  0.66890666  0.32987853  1
  Cs  Cs17  1  0.33104622  0.66851512  0.66651666  1
  Cs  Cs18  1  0.66685912  0.00123041  -0.00229477  1
  Cs  Cs19  1  0.66489306  0.00128727  0.33266187  1
  Cs  Cs20  1  0.66950340  0.00025547  0.67062981  1
  Cs  Cs21  1  0.66642758  0.33144326  -0.00264936  1
  Cs  Cs22  1  0.66751257  0.33387933  0.33533222  1
  Cs  Cs23  1  0.66474216  0.33214948  0.66774775  1
  Cs  Cs24  1  0.66907921  0.66663606  0.00387325  1
  Cs  Cs25  1  0.66544693  0.66273931  0.33289654  1
  Cs  Cs26  1  0.66762908  0.66771040  0.66234569  1
  Sn  Sn27  1  0.16667046  0.16600960  0.83285874  1
  Sn  Sn28  1  0.16759526  0.83398490  0.83313569  1
  Sn  Sn29  1  0.49938256  0.83444157  0.50091308  1
  Sn  Sn30  1  0.83252019  0.16650191  0.16668677  1
  Sn  Sn31  1  0.16701397  0.50021188  0.49974413  1
  Sn  Sn32  1  0.83324164  0.49960001  0.16612524  1
  Sn  Sn33  1  0.83349566  0.83375706  0.16688193  1
  Sn  Sn34  1  0.50031230  0.16668289  0.16684664  1
  Sn  Sn35  1  0.16749046  0.83337457  0.50048763  1
  Sn  Sn36  1  0.83302807  0.49995400  0.83296078  1
  Sn  Sn37  1  0.49939582  0.16568141  0.49963505  1
  Sn  Sn38  1  0.16750826  0.16650545  0.50101063  1
  Sn  Sn39  1  0.49933236  0.83319952  0.83283875  1
  Pb  Pb40  1  0.83288745  0.83360162  0.49791484  1
  Pb  Pb41  1  0.83617448  0.16856631  0.83575422  1
  Pb  Pb42  1  0.83359579  0.83182038  0.83519801  1
  Pb  Pb43  1  0.83531863  0.49990139  0.50017747  1
  Pb  Pb44  1  0.50247270  0.50343091  0.83300334  1
  Pb  Pb45  1  0.16481772  0.50012849  0.16951447  1
  Pb  Pb46  1  0.49753490  0.49999201  0.50015151  1
  Pb  Pb47  1  0.16484470  0.83328060  0.16655175  1
  Pb  Pb48  1  0.50192914  0.83522612  0.16686236  1
  Pb  Pb49  1  0.83301036  0.16646158  0.49839358  1
  Pb  Pb50  1  0.16515586  0.50058292  0.83139925  1
  Pb  Pb51  1  0.16735185  0.16666017  0.16634734  1
  Pb  Pb52  1  0.50236467  0.49667466  0.16669400  1
  Pb  Pb53  1  0.49779567  0.16490272  0.83310958  1
  I  I54  1  0.16139381  0.00009080  0.16978301  1
  I  I55  1  0.17033921  -0.00001789  0.50333157  1
  I  I56  1  0.16833530  -0.00067539  0.82601038  1
  I  I57  1  0.16371472  0.33312367  0.16675791  1
  I  I58  1  0.16853610  0.33175609  0.50292841  1
  I  I59  1  0.16441720  0.33096308  0.82967101  1
  I  I60  1  0.16373808  0.66682207  0.16672363  1
  I  I61  1  0.16806620  0.66826240  0.50392778  1
  I  I62  1  0.16773276  0.66989187  0.82848993  1
  I  I63  1  0.50668525  0.00293920  0.16870800  1
  I  I64  1  0.49188411  0.00005126  0.49832614  1
  I  I65  1  0.49970792  -0.00306213  0.83250503  1
  I  I66  1  0.50448106  0.32862512  0.17328959  1
  I  I67  1  0.49668464  0.32987206  0.49496163  1
  I  I68  1  0.49935000  0.33313066  0.83379793  1
  I  I69  1  0.50217116  0.66685308  0.16762644  1
  I  I70  1  0.49683357  0.67018699  0.50359717  1
  I  I71  1  0.49328220  0.67151384  0.82760336  1
  I  I72  1  0.83023619  0.00067135  0.16844319  1
  I  I73  1  0.83841859  -0.00001185  0.49715041  1
  I  I74  1  0.83278345  -0.00004680  0.83586827  1
  I  I75  1  0.83032143  0.33312777  0.16330637  1
  I  I76  1  0.83483211  0.33317069  0.49721249  1
  I  I77  1  0.83560830  0.33624456  0.83901271  1
  I  I78  1  0.83557821  0.66633789  0.16266610  1
  I  I79  1  0.83398875  0.66682291  0.49629928  1
  I  I80  1  0.83549867  0.66419553  0.84041558  1
  I  I81  1  0.16500204  0.16117557  -0.00287478  1
  I  I82  1  0.16642889  0.16557073  0.33658565  1
  I  I83  1  0.17144658  0.16658387  0.66521503  1
  I  I84  1  0.16625395  0.49912309  -0.00022390  1
  I  I85  1  0.16435039  0.49927140  0.33764452  1
  I  I86  1  0.16276590  0.49963363  0.66355436  1
  I  I87  1  0.16910662  0.83892543  -0.00348165  1
  I  I88  1  0.16927534  0.83475572  0.33701468  1
  I  I89  1  0.16904785  0.83375688  0.66595653  1
  I  I90  1  0.50435232  0.16441845  0.00225520  1
  I  I91  1  0.49840213  0.16110905  0.33453085  1
  I  I92  1  0.49686632  0.16505362  0.66357116  1
  I  I93  1  0.49691682  0.50011057  -0.00007240  1
  I  I94  1  0.50204861  0.50472325  0.33344338  1
  I  I95  1  0.50496663  0.49458012  0.66653658  1
  I  I96  1  0.49703734  0.83496063  -0.00249355  1
  I  I97  1  0.49594634  0.83548729  0.33641716  1
  I  I98  1  0.49663852  0.83853819  0.66565986  1
  I  I99  1  0.82835755  0.16426303  0.00392618  1
  I  I100  1  0.83496052  0.16948491  0.32985591  1
  I  I101  1  0.83141849  0.16921710  0.66698011  1
  I  I102  1  0.83533761  0.50037617  0.00116775  1
  I  I103  1  0.83520175  0.49982518  0.33017039  1
  I  I104  1  0.83549485  0.50173514  0.66921945  1
  I  I105  1  0.83320377  0.83519640  0.00320183  1
  I  I106  1  0.83417561  0.83074191  0.32979952  1
  I  I107  1  0.83352352  0.83013288  0.66679344  1
  I  I108  1  -0.00268261  0.16756942  0.16695865  1
  I  I109  1  0.00350635  0.16590216  0.50164438  1
  I  I110  1  0.00401389  0.16020777  0.82750754  1
  I  I111  1  -0.00376161  0.49702589  0.16314298  1
  I  I112  1  0.00354535  0.50002975  0.49908718  1
  I  I113  1  -0.00260722  0.50163074  0.83854432  1
  I  I114  1  -0.00343205  0.83572921  0.16694224  1
  I  I115  1  0.00347038  0.83400436  0.50302547  1
  I  I116  1  0.00312268  0.83561708  0.82936211  1
  I  I117  1  0.33615364  0.16385441  0.16991325  1
  I  I118  1  0.33277735  0.16588651  0.49642914  1
  I  I119  1  0.32976319  0.16598994  0.83403117  1
  I  I120  1  0.33351088  0.49895863  0.16671190  1
  I  I121  1  0.32941033  0.49941675  0.50193552  1
  I  I122  1  0.33310315  0.49786827  0.83240530  1
  I  I123  1  0.33361207  0.83572842  0.16666103  1
  I  I124  1  0.33261295  0.83416904  0.50320970  1
  I  I125  1  0.33241328  0.83754826  0.82901161  1
  I  I126  1  0.66686502  0.16672692  0.17277749  1
  I  I127  1  0.66317128  0.16201576  0.49700005  1
  I  I128  1  0.66657481  0.16609407  0.83126267  1
  I  I129  1  0.67080749  0.50344490  0.16444765  1
  I  I130  1  0.66658639  0.50051971  0.49892123  1
  I  I131  1  0.67045965  0.50021605  0.83836397  1
  I  I132  1  0.66994155  0.83123226  0.16655471  1
  I  I133  1  0.66302831  0.83839462  0.50358738  1
  I  I134  1  0.66408716  0.83202173  0.82964178  1
