# generated using pymatgen
data_Cs27Sn13Pb14I81
_symmetry_space_group_name_H-M   'P 1'
_cell_length_a   18.97541694
_cell_length_b   18.97892585
_cell_length_c   18.97498732
_cell_angle_alpha   90.00046092
_cell_angle_beta   89.99842028
_cell_angle_gamma   89.99730416
_symmetry_Int_Tables_number   1
_chemical_formula_structural   Cs27Sn13Pb14I81
_chemical_formula_sum   'Cs27 Sn13 Pb14 I81'
_cell_volume   6833.51968778
_cell_formula_units_Z   1
loop_
 _symmetry_equiv_pos_site_id
 _symmetry_equiv_pos_as_xyz
  1  'x, y, z'
loop_
 _atom_site_type_symbol
 _atom_site_label
 _atom_site_symmetry_multiplicity
 _atom_site_fract_x
 _atom_site_fract_y
 _atom_site_fract_z
 _atom_site_occupancy
  Cs  Cs0  1  0.00131925  0.00003523  0.00109077  1
  Cs  Cs1  1  -0.00190019  -0.00596801  0.32981309  1
  Cs  Cs2  1  -0.00212655  0.00277479  0.66902765  1
  Cs  Cs3  1  0.00227911  0.33162170  -0.00206554  1
  Cs  Cs4  1  0.00062609  0.33122602  0.34169753  1
  Cs  Cs5  1  -0.00106612  0.33408985  0.66563432  1
  Cs  Cs6  1  -0.00289103  0.66859999  -0.00157633  1
  Cs  Cs7  1  -0.00381629  0.67497076  0.34015165  1
  Cs  Cs8  1  0.00172945  0.66203740  0.66492213  1
  Cs  Cs9  1  0.33320086  0.00079626  -0.00060755  1
  Cs  Cs10  1  0.33175596  -0.00052858  0.33093067  1
  Cs  Cs11  1  0.33752323  -0.00067897  0.66855706  1
  Cs  Cs12  1  0.33293398  0.33362951  0.00041339  1
  Cs  Cs13  1  0.33511045  0.33301896  0.33310427  1
  Cs  Cs14  1  0.33327555  0.33275049  0.66671470  1
  Cs  Cs15  1  0.33390329  0.66190425  -0.00123660  1
  Cs  Cs16  1  0.33218972  0.66674410  0.33775210  1
  Cs  Cs17  1  0.33308067  0.66781044  0.66430880  1
  Cs  Cs18  1  0.66494770  0.00144190  -0.00175660  1
  Cs  Cs19  1  0.66817710  0.00033172  0.33521951  1
  Cs  Cs20  1  0.66371448  -0.00133784  0.66604498  1
  Cs  Cs21  1  0.66640743  0.33488376  0.00161421  1
  Cs  Cs22  1  0.66496327  0.33297856  0.33204089  1
  Cs  Cs23  1  0.66826000  0.33181514  0.66585880  1
  Cs  Cs24  1  0.66990881  0.66194873  0.00500549  1
  Cs  Cs25  1  0.67195820  0.66961616  0.32646266  1
  Cs  Cs26  1  0.66560058  0.66911204  0.66584275  1
  Sn  Sn27  1  0.49893532  0.16739305  0.49920921  1
  Sn  Sn28  1  0.16767179  0.16625953  0.50076862  1
  Sn  Sn29  1  0.16757735  0.49995645  0.83430665  1
  Sn  Sn30  1  0.83384041  0.83418624  0.83346409  1
  Sn  Sn31  1  0.16624594  0.83342515  0.83348421  1
  Sn  Sn32  1  0.50025237  0.49931464  0.50072577  1
  Sn  Sn33  1  0.16616205  0.16651891  0.83255737  1
  Sn  Sn34  1  0.83294380  0.16728235  0.16586358  1
  Sn  Sn35  1  0.83397672  0.16591953  0.83433700  1
  Sn  Sn36  1  0.16588089  0.50014169  0.16681350  1
  Sn  Sn37  1  0.50055193  0.16584106  0.16728529  1
  Sn  Sn38  1  0.49939708  0.83412995  0.16634751  1
  Sn  Sn39  1  0.49955133  0.49969773  0.83236358  1
  Pb  Pb40  1  0.83149356  0.83583916  0.16414498  1
  Pb  Pb41  1  0.49998954  0.83344461  0.49739312  1
  Pb  Pb42  1  0.16658800  0.16793321  0.16675181  1
  Pb  Pb43  1  0.16682774  0.83663988  0.50291444  1
  Pb  Pb44  1  0.50025269  0.83047010  0.83532092  1
  Pb  Pb45  1  0.16847016  0.83050914  0.16436047  1
  Pb  Pb46  1  0.50013701  0.16831339  0.83345117  1
  Pb  Pb47  1  0.83371771  0.49971995  0.83328324  1
  Pb  Pb48  1  0.83331683  0.83355465  0.50330460  1
  Pb  Pb49  1  0.16820279  0.49826838  0.50032098  1
  Pb  Pb50  1  0.49860089  0.49961744  0.16708043  1
  Pb  Pb51  1  0.83311367  0.16655866  0.50019073  1
  Pb  Pb52  1  0.83726763  0.49718912  0.16675017  1
  Pb  Pb53  1  0.82982582  0.49996936  0.49982750  1
  I  I54  1  0.16607629  0.00009860  0.16614377  1
  I  I55  1  0.17353827  0.00488307  0.50395279  1
  I  I56  1  0.16232916  0.00095701  0.82921162  1
  I  I57  1  0.16984125  0.33551818  0.15931228  1
  I  I58  1  0.16855711  0.33013598  0.50531992  1
  I  I59  1  0.16686009  0.33287592  0.83368774  1
  I  I60  1  0.17149867  0.66281118  0.16008223  1
  I  I61  1  0.16887353  0.66661059  0.50038027  1
  I  I62  1  0.16717413  0.66608535  0.83912650  1
  I  I63  1  0.50255720  0.00200349  0.17070603  1
  I  I64  1  0.49710243  0.00353239  0.49859117  1
  I  I65  1  0.49780187  0.00008356  0.83186488  1
  I  I66  1  0.50225856  0.33052773  0.16761836  1
  I  I67  1  0.49579705  0.33209525  0.49811838  1
  I  I68  1  0.49555482  0.33607988  0.83475075  1
  I  I69  1  0.49745751  0.66820921  0.16445893  1
  I  I70  1  0.49876427  0.66370017  0.50415023  1
  I  I71  1  0.49550915  0.66274196  0.82970902  1
  I  I72  1  0.83304428  0.00388428  0.16461895  1
  I  I73  1  0.83088744  0.00054938  0.49857093  1
  I  I74  1  0.84127577  0.00132936  0.83709148  1
  I  I75  1  0.82493340  0.32907390  0.15892976  1
  I  I76  1  0.83562941  0.33278302  0.50312107  1
  I  I77  1  0.83633115  0.33003165  0.83629259  1
  I  I78  1  0.82999441  0.66692132  0.16450091  1
  I  I79  1  0.83251001  0.66675834  0.50129118  1
  I  I80  1  0.83581182  0.66926214  0.83295465  1
  I  I81  1  0.16620590  0.16610022  -0.00308695  1
  I  I82  1  0.16849831  0.17152424  0.33551798  1
  I  I83  1  0.16671351  0.16888454  0.66838397  1
  I  I84  1  0.17383665  0.49669880  -0.00246313  1
  I  I85  1  0.17041619  0.49515931  0.33136465  1
  I  I86  1  0.16880590  0.50121744  0.67013523  1
  I  I87  1  0.16406626  0.83902030  -0.00405272  1
  I  I88  1  0.16823819  0.83255106  0.33323923  1
  I  I89  1  0.16451721  0.82758875  0.67147681  1
  I  I90  1  0.50041488  0.16535005  0.00228387  1
  I  I91  1  0.49960389  0.16946829  0.33333450  1
  I  I92  1  0.49892461  0.16978755  0.66455637  1
  I  I93  1  0.49702170  0.49964449  -0.00222427  1
  I  I94  1  0.49711911  0.49715577  0.33567975  1
  I  I95  1  0.49429290  0.49453906  0.66720907  1
  I  I96  1  0.49932109  0.83960477  0.00272454  1
  I  I97  1  0.49969511  0.83304774  0.32960371  1
  I  I98  1  0.50051281  0.83503447  0.66700589  1
  I  I99  1  0.83321637  0.16359211  -0.00109755  1
  I  I100  1  0.83185968  0.16871586  0.33062270  1
  I  I101  1  0.83448618  0.16348693  0.67001345  1
  I  I102  1  0.82715173  0.50065298  -0.00015976  1
  I  I103  1  0.83324222  0.49724101  0.33305400  1
  I  I104  1  0.83697794  0.49741476  0.66704639  1
  I  I105  1  0.83733696  0.83553986  -0.00367402  1
  I  I106  1  0.83192176  0.83399999  0.33281473  1
  I  I107  1  0.83515264  0.84093156  0.67169399  1
  I  I108  1  -0.00217328  0.16968363  0.16435260  1
  I  I109  1  0.00278407  0.16803058  0.50196624  1
  I  I110  1  0.00101629  0.16812931  0.83348193  1
  I  I111  1  0.00475054  0.49772217  0.15640488  1
  I  I112  1  0.00038309  0.49728057  0.50091859  1
  I  I113  1  0.00350478  0.49937692  0.83766197  1
  I  I114  1  -0.00004297  0.83401042  0.16730829  1
  I  I115  1  0.00030793  0.83474197  0.49563436  1
  I  I116  1  0.00083763  0.83308254  0.83463957  1
  I  I117  1  0.33590340  0.16546903  0.16716696  1
  I  I118  1  0.33407972  0.17080625  0.50043032  1
  I  I119  1  0.33064674  0.16531825  0.83293279  1
  I  I120  1  0.33101523  0.49658009  0.16270732  1
  I  I121  1  0.33627284  0.49649668  0.50165401  1
  I  I122  1  0.33224210  0.49906385  0.83412755  1
  I  I123  1  0.33624317  0.84100734  0.16407682  1
  I  I124  1  0.33343732  0.83234877  0.50272731  1
  I  I125  1  0.33054738  0.83612428  0.83486151  1
  I  I126  1  0.66567364  0.16397161  0.16592824  1
  I  I127  1  0.66340650  0.17081363  0.49916648  1
  I  I128  1  0.66902801  0.16379808  0.83410425  1
  I  I129  1  0.66658955  0.50151032  0.16605710  1
  I  I130  1  0.66135466  0.49179327  0.50658394  1
  I  I131  1  0.66390381  0.49923617  0.82975117  1
  I  I132  1  0.66348377  0.83296558  0.16434185  1
  I  I133  1  0.66631033  0.83512986  0.50341072  1
  I  I134  1  0.66911898  0.83829634  0.83445873  1
