# generated using pymatgen
data_Cs27Sn13Pb14I81
_symmetry_space_group_name_H-M   'P 1'
_cell_length_a   18.98664024
_cell_length_b   18.98738404
_cell_length_c   19.00228737
_cell_angle_alpha   90.00104588
_cell_angle_beta   90.00094145
_cell_angle_gamma   89.99988609
_symmetry_Int_Tables_number   1
_chemical_formula_structural   Cs27Sn13Pb14I81
_chemical_formula_sum   'Cs27 Sn13 Pb14 I81'
_cell_volume   6850.45057435
_cell_formula_units_Z   1
loop_
 _symmetry_equiv_pos_site_id
 _symmetry_equiv_pos_as_xyz
  1  'x, y, z'
loop_
 _atom_site_type_symbol
 _atom_site_label
 _atom_site_symmetry_multiplicity
 _atom_site_fract_x
 _atom_site_fract_y
 _atom_site_fract_z
 _atom_site_occupancy
  Cs  Cs0  1  0.00191619  0.00399755  -0.00638832  1
  Cs  Cs1  1  0.00021105  0.00754766  0.33469853  1
  Cs  Cs2  1  0.00863370  0.00372937  0.67235486  1
  Cs  Cs3  1  -0.00743236  0.32657166  0.00341995  1
  Cs  Cs4  1  -0.00740192  0.32446499  0.33492339  1
  Cs  Cs5  1  -0.00987871  0.32851672  0.66119045  1
  Cs  Cs6  1  -0.00078853  0.66774399  -0.00179009  1
  Cs  Cs7  1  -0.00135558  0.66588930  0.33144483  1
  Cs  Cs8  1  -0.00103567  0.66824038  0.67274100  1
  Cs  Cs9  1  0.33389312  0.00374912  -0.00037453  1
  Cs  Cs10  1  0.33264524  -0.00110308  0.33526442  1
  Cs  Cs11  1  0.32523862  0.00016057  0.66587770  1
  Cs  Cs12  1  0.33464070  0.33586047  -0.00043816  1
  Cs  Cs13  1  0.33395900  0.33597437  0.33318362  1
  Cs  Cs14  1  0.33522175  0.33682459  0.66864003  1
  Cs  Cs15  1  0.33350400  0.66411532  0.00182897  1
  Cs  Cs16  1  0.33415432  0.66584284  0.33313991  1
  Cs  Cs17  1  0.33292230  0.66524604  0.66514457  1
  Cs  Cs18  1  0.66500292  -0.00120355  -0.00279912  1
  Cs  Cs19  1  0.66499249  -0.00481521  0.33310708  1
  Cs  Cs20  1  0.66625496  0.00110742  0.67022708  1
  Cs  Cs21  1  0.66875687  0.33096639  -0.00125155  1
  Cs  Cs22  1  0.66923565  0.33328825  0.33424297  1
  Cs  Cs23  1  0.67038369  0.33043424  0.66583925  1
  Cs  Cs24  1  0.66654736  0.66743044  0.00131740  1
  Cs  Cs25  1  0.66642933  0.66911121  0.33283744  1
  Cs  Cs26  1  0.66790103  0.66707349  0.66704350  1
  Sn  Sn27  1  0.49972913  0.50114769  0.83345174  1
  Sn  Sn28  1  0.49969401  0.16693313  0.16790180  1
  Sn  Sn29  1  0.49971325  0.49976155  0.16675154  1
  Sn  Sn30  1  0.83390135  0.83326681  0.49967954  1
  Sn  Sn31  1  0.83398787  0.83316636  0.16750158  1
  Sn  Sn32  1  0.16686950  0.50049917  0.16677448  1
  Sn  Sn33  1  0.16678358  0.50029375  0.49957496  1
  Sn  Sn34  1  0.49938032  0.83230943  0.83384769  1
  Sn  Sn35  1  0.16667791  0.83286866  0.16699823  1
  Sn  Sn36  1  0.49938683  0.83335624  0.16593631  1
  Sn  Sn37  1  0.49961744  0.49932779  0.49977831  1
  Sn  Sn38  1  0.16698385  0.49966099  0.83372237  1
  Sn  Sn39  1  0.49960058  0.16719773  0.49922798  1
  Pb  Pb40  1  0.16951614  0.83115816  0.83601624  1
  Pb  Pb41  1  0.83326522  0.50211987  0.49977507  1
  Pb  Pb42  1  0.49971287  0.16715388  0.83306646  1
  Pb  Pb43  1  0.83357650  0.50192598  0.16668547  1
  Pb  Pb44  1  0.16922694  0.16736999  0.16670577  1
  Pb  Pb45  1  0.83322960  0.16644776  0.83332548  1
  Pb  Pb46  1  0.16950108  0.16980768  0.49981994  1
  Pb  Pb47  1  0.83334771  0.50004409  0.83346737  1
  Pb  Pb48  1  0.83005662  0.16299791  0.16668091  1
  Pb  Pb49  1  0.83031161  0.16305648  0.49987106  1
  Pb  Pb50  1  0.16400905  0.83090032  0.49755802  1
  Pb  Pb51  1  0.16723199  0.17096055  0.83341907  1
  Pb  Pb52  1  0.83126127  0.83316503  0.83365029  1
  Pb  Pb53  1  0.50070529  0.83312389  0.50032471  1
  I  I54  1  0.16826433  -0.00305031  0.16724419  1
  I  I55  1  0.16723336  -0.00003152  0.49870767  1
  I  I56  1  0.16725805  -0.00014484  0.83424004  1
  I  I57  1  0.17342636  0.33741075  0.16574316  1
  I  I58  1  0.16844814  0.33833655  0.49659364  1
  I  I59  1  0.17800611  0.33915740  0.83712978  1
  I  I60  1  0.17233620  0.66587777  0.16695003  1
  I  I61  1  0.17585099  0.66280922  0.50109869  1
  I  I62  1  0.16948484  0.66305823  0.83106299  1
  I  I63  1  0.50114985  -0.00122458  0.16664245  1
  I  I64  1  0.50462251  0.00192675  0.49573626  1
  I  I65  1  0.50321060  -0.00274799  0.83771294  1
  I  I66  1  0.49426381  0.33483134  0.16657469  1
  I  I67  1  0.49621440  0.33499485  0.49665715  1
  I  I68  1  0.49536663  0.33708940  0.83616257  1
  I  I69  1  0.50015204  0.66657779  0.16640845  1
  I  I70  1  0.49785634  0.66351490  0.49779377  1
  I  I71  1  0.49765301  0.66563372  0.83673870  1
  I  I72  1  0.83291411  -0.00500596  0.17162340  1
  I  I73  1  0.82955783  -0.00423515  0.49261655  1
  I  I74  1  0.82894707  -0.00066258  0.83390839  1
  I  I75  1  0.83386703  0.33293877  0.16605625  1
  I  I76  1  0.83536182  0.33307939  0.50104035  1
  I  I77  1  0.83050592  0.33350293  0.83293923  1
  I  I78  1  0.82676657  0.66999131  0.16995859  1
  I  I79  1  0.82835040  0.66948708  0.49480871  1
  I  I80  1  0.83350815  0.66685216  0.83289204  1
  I  I81  1  0.16920880  0.16720112  0.00024748  1
  I  I82  1  0.16599830  0.16811876  0.33320111  1
  I  I83  1  0.16969606  0.16499702  0.66654936  1
  I  I84  1  0.17584099  0.50580253  0.00084408  1
  I  I85  1  0.17569907  0.50555190  0.33253995  1
  I  I86  1  0.17590551  0.50002998  0.66657218  1
  I  I87  1  0.16260874  0.82730206  0.00409122  1
  I  I88  1  0.17413265  0.82682794  0.32940542  1
  I  I89  1  0.16609295  0.83217239  0.66683436  1
  I  I90  1  0.50009452  0.16788954  0.00300037  1
  I  I91  1  0.49995238  0.16965482  0.33248031  1
  I  I92  1  0.50136416  0.17042191  0.66376297  1
  I  I93  1  0.49472068  0.50130803  0.00088950  1
  I  I94  1  0.49487853  0.50041650  0.33265945  1
  I  I95  1  0.49420270  0.50088173  0.66658418  1
  I  I96  1  0.50275373  0.83047918  0.00199392  1
  I  I97  1  0.49944771  0.83100367  0.33008740  1
  I  I98  1  0.50422398  0.82951877  0.66900716  1
  I  I99  1  0.83065448  0.16595465  0.00055415  1
  I  I100  1  0.83443823  0.16878449  0.33323347  1
  I  I101  1  0.82934163  0.16546792  0.66609828  1
  I  I102  1  0.83193006  0.50297784  0.00016344  1
  I  I103  1  0.83181365  0.50081971  0.33318730  1
  I  I104  1  0.83224866  0.50365162  0.66653354  1
  I  I105  1  0.83301882  0.83206126  0.00343934  1
  I  I106  1  0.82796164  0.83092566  0.33170368  1
  I  I107  1  0.82830772  0.83129786  0.66424441  1
  I  I108  1  -0.00008346  0.16791941  0.16616970  1
  I  I109  1  -0.00009041  0.16848532  0.50044188  1
  I  I110  1  0.00039035  0.16685434  0.83360114  1
  I  I111  1  0.00369599  0.50618303  0.16594027  1
  I  I112  1  0.00320407  0.50395170  0.49993412  1
  I  I113  1  0.00363804  0.50140352  0.83379215  1
  I  I114  1  0.00053879  0.82472126  0.17237106  1
  I  I115  1  -0.00354913  0.82934821  0.49320276  1
  I  I116  1  0.00043971  0.83149105  0.83433324  1
  I  I117  1  0.33750945  0.16192572  0.16992587  1
  I  I118  1  0.33750382  0.16559807  0.49523803  1
  I  I119  1  0.33393315  0.16260684  0.83360074  1
  I  I120  1  0.33476113  0.50456532  0.16695895  1
  I  I121  1  0.33481977  0.49742912  0.49966149  1
  I  I122  1  0.33493448  0.50424170  0.83357428  1
  I  I123  1  0.33463903  0.83172308  0.16223866  1
  I  I124  1  0.33322960  0.83574889  0.49991753  1
  I  I125  1  0.33757066  0.83135063  0.83767531  1
  I  I126  1  0.66178889  0.16935184  0.16995644  1
  I  I127  1  0.66251287  0.17521789  0.49604364  1
  I  I128  1  0.66569150  0.16834687  0.83360728  1
  I  I129  1  0.66274802  0.50086627  0.16680493  1
  I  I130  1  0.66291522  0.49735043  0.49960509  1
  I  I131  1  0.66246642  0.50358610  0.83379547  1
  I  I132  1  0.66491988  0.83315011  0.16702605  1
  I  I133  1  0.66815580  0.83119135  0.49333279  1
  I  I134  1  0.66277445  0.82712025  0.83936487  1
