# generated using pymatgen
data_Cs27Sn13Pb14I81
_symmetry_space_group_name_H-M   'P 1'
_cell_length_a   18.97807999
_cell_length_b   18.98275880
_cell_length_c   18.97288231
_cell_angle_alpha   90.00007103
_cell_angle_beta   90.00020965
_cell_angle_gamma   90.00035614
_symmetry_Int_Tables_number   1
_chemical_formula_structural   Cs27Sn13Pb14I81
_chemical_formula_sum   'Cs27 Sn13 Pb14 I81'
_cell_volume   6835.10066834
_cell_formula_units_Z   1
loop_
 _symmetry_equiv_pos_site_id
 _symmetry_equiv_pos_as_xyz
  1  'x, y, z'
loop_
 _atom_site_type_symbol
 _atom_site_label
 _atom_site_symmetry_multiplicity
 _atom_site_fract_x
 _atom_site_fract_y
 _atom_site_fract_z
 _atom_site_occupancy
  Cs  Cs0  1  -0.00011956  -0.00344834  0.00147113  1
  Cs  Cs1  1  -0.00345349  -0.00029963  0.33318507  1
  Cs  Cs2  1  -0.00368240  -0.00480809  0.66675552  1
  Cs  Cs3  1  0.00446111  0.33313457  0.00150566  1
  Cs  Cs4  1  0.00171251  0.33299188  0.33429491  1
  Cs  Cs5  1  -0.00309269  0.33327148  0.66459435  1
  Cs  Cs6  1  0.00009103  0.66935081  0.00140332  1
  Cs  Cs7  1  -0.00227771  0.66661676  0.33296852  1
  Cs  Cs8  1  -0.00234042  0.67161241  0.66675687  1
  Cs  Cs9  1  0.33284213  0.00202568  0.00007204  1
  Cs  Cs10  1  0.33488380  0.00293189  0.33420417  1
  Cs  Cs11  1  0.33390960  -0.00761920  0.66615365  1
  Cs  Cs12  1  0.33210372  0.33292759  0.00062819  1
  Cs  Cs13  1  0.33360274  0.33313075  0.33348899  1
  Cs  Cs14  1  0.33251072  0.33336224  0.66403540  1
  Cs  Cs15  1  0.33304390  0.66454340  0.00044712  1
  Cs  Cs16  1  0.33475758  0.66451497  0.33406347  1
  Cs  Cs17  1  0.33283898  0.67404465  0.66610296  1
  Cs  Cs18  1  0.66905909  0.00110771  -0.00337899  1
  Cs  Cs19  1  0.66639567  -0.00095908  0.33357940  1
  Cs  Cs20  1  0.67150792  -0.00205673  0.67452861  1
  Cs  Cs21  1  0.66519878  0.33321968  -0.00363429  1
  Cs  Cs22  1  0.66434453  0.33345224  0.33385890  1
  Cs  Cs23  1  0.67444392  0.33189659  0.67293602  1
  Cs  Cs24  1  0.66868080  0.66582303  -0.00125152  1
  Cs  Cs25  1  0.66603661  0.66776151  0.33213754  1
  Cs  Cs26  1  0.67218415  0.67081716  0.67497835  1
  Sn  Sn27  1  0.50013260  0.49976961  0.16718304  1
  Sn  Sn28  1  0.16676061  0.50081561  0.16699677  1
  Sn  Sn29  1  0.49958357  0.16763052  0.49981590  1
  Sn  Sn30  1  0.49974256  0.49920398  0.49989313  1
  Sn  Sn31  1  0.16722857  0.16742632  0.83144947  1
  Sn  Sn32  1  0.50097873  0.16687475  0.16724847  1
  Sn  Sn33  1  0.16724177  0.49909077  0.83266841  1
  Sn  Sn34  1  0.83200284  0.16800227  0.16705140  1
  Sn  Sn35  1  0.16798611  0.83228483  0.16737512  1
  Sn  Sn36  1  0.16752819  0.49929743  0.50032141  1
  Sn  Sn37  1  0.16748565  0.16728007  0.50127625  1
  Sn  Sn38  1  0.49882745  0.83335004  0.16685222  1
  Sn  Sn39  1  0.83307904  0.49850519  0.16704503  1
  Pb  Pb40  1  0.83679060  0.16702561  0.83633863  1
  Pb  Pb41  1  0.83280761  0.16682137  0.49800461  1
  Pb  Pb42  1  0.16663767  0.83326431  0.49720490  1
  Pb  Pb43  1  0.50018749  0.83314151  0.49821506  1
  Pb  Pb44  1  0.83358470  0.83326918  0.83384570  1
  Pb  Pb45  1  0.83661389  0.49977252  0.83619905  1
  Pb  Pb46  1  0.83269980  0.50002555  0.49801357  1
  Pb  Pb47  1  0.16696491  0.83324772  0.83590125  1
  Pb  Pb48  1  0.83285357  0.83325218  0.49959234  1
  Pb  Pb49  1  0.49764016  0.16697582  0.83245683  1
  Pb  Pb50  1  0.49967080  0.83326248  0.83639189  1
  Pb  Pb51  1  0.16699817  0.16680999  0.16735437  1
  Pb  Pb52  1  0.83272755  0.83321369  0.16691367  1
  Pb  Pb53  1  0.49766051  0.49980458  0.83229452  1
  I  I54  1  0.16893192  -0.00168121  0.16585061  1
  I  I55  1  0.17098452  0.00341216  0.50206462  1
  I  I56  1  0.16719043  0.00303819  0.83188964  1
  I  I57  1  0.16782506  0.33628034  0.16587425  1
  I  I58  1  0.17009433  0.33415283  0.49702207  1
  I  I59  1  0.16731847  0.33414611  0.83774961  1
  I  I60  1  0.16849365  0.66446597  0.16579129  1
  I  I61  1  0.17110880  0.66286230  0.50130554  1
  I  I62  1  0.16707930  0.66328648  0.83287886  1
  I  I63  1  0.49877873  0.00088384  0.17041508  1
  I  I64  1  0.49390031  0.00351892  0.49313654  1
  I  I65  1  0.49643735  0.00024780  0.83462762  1
  I  I66  1  0.49950348  0.33383733  0.16986809  1
  I  I67  1  0.49324982  0.33349093  0.48842956  1
  I  I68  1  0.49986244  0.33339151  0.84121332  1
  I  I69  1  0.49879191  0.66520019  0.17008728  1
  I  I70  1  0.49323641  0.66287206  0.49325937  1
  I  I71  1  0.49690699  0.66640210  0.83372560  1
  I  I72  1  0.83212208  0.00292223  0.16700514  1
  I  I73  1  0.83535325  0.00057010  0.49491842  1
  I  I74  1  0.83592463  0.00051240  0.83694021  1
  I  I75  1  0.83236186  0.33400636  0.16706482  1
  I  I76  1  0.83513396  0.33342403  0.49924600  1
  I  I77  1  0.83188358  0.33338356  0.83352544  1
  I  I78  1  0.83265942  0.66342299  0.16681736  1
  I  I79  1  0.83484303  0.66609788  0.49560596  1
  I  I80  1  0.83524660  0.66619259  0.83631537  1
  I  I81  1  0.16602921  0.16956371  -0.00116698  1
  I  I82  1  0.16743909  0.16965955  0.33574096  1
  I  I83  1  0.17228709  0.17581032  0.66546812  1
  I  I84  1  0.16623624  0.49936594  0.00155676  1
  I  I85  1  0.16708744  0.49937755  0.33253956  1
  I  I86  1  0.17225057  0.49396370  0.66563570  1
  I  I87  1  0.16975511  0.83013266  0.00419973  1
  I  I88  1  0.17018684  0.82953667  0.32909962  1
  I  I89  1  0.16535783  0.83100389  0.66652966  1
  I  I90  1  0.50161945  0.16694244  0.00347156  1
  I  I91  1  0.49674737  0.16742765  0.33196541  1
  I  I92  1  0.49646170  0.17303688  0.66272293  1
  I  I93  1  0.49900647  0.49995679  0.00374761  1
  I  I94  1  0.49499424  0.49925212  0.33151267  1
  I  I95  1  0.49385095  0.49368052  0.66256507  1
  I  I96  1  0.49529648  0.83287102  0.00551113  1
  I  I97  1  0.49567072  0.83303983  0.32927087  1
  I  I98  1  0.50048093  0.83335035  0.66639051  1
  I  I99  1  0.82847804  0.17021664  0.00459203  1
  I  I100  1  0.83569707  0.17030570  0.32955261  1
  I  I101  1  0.83086848  0.16532372  0.66680118  1
  I  I102  1  0.83193191  0.49698953  0.00497180  1
  I  I103  1  0.83878124  0.49665330  0.32917064  1
  I  I104  1  0.83284838  0.50108157  0.66675241  1
  I  I105  1  0.83476538  0.83372094  0.00111799  1
  I  I106  1  0.83537303  0.83372828  0.33215057  1
  I  I107  1  0.83403225  0.83335588  0.66688350  1
  I  I108  1  -0.00146301  0.16944135  0.16587768  1
  I  I109  1  0.00332673  0.17144791  0.50075460  1
  I  I110  1  0.00476138  0.17180317  0.83019665  1
  I  I111  1  0.00134122  0.49986129  0.16610261  1
  I  I112  1  0.00360729  0.49561332  0.49779304  1
  I  I113  1  0.00500453  0.49552829  0.83397689  1
  I  I114  1  0.00274304  0.83058840  0.16589500  1
  I  I115  1  0.00055047  0.83362697  0.49592110  1
  I  I116  1  0.00079462  0.83364495  0.83787432  1
  I  I117  1  0.33600277  0.16816927  0.16672174  1
  I  I118  1  0.33313517  0.17102958  0.49554544  1
  I  I119  1  0.32967206  0.17143829  0.83784045  1
  I  I120  1  0.33310864  0.50057128  0.16646305  1
  I  I121  1  0.33248618  0.49550908  0.49308803  1
  I  I122  1  0.32938810  0.49599728  0.84107619  1
  I  I123  1  0.33341773  0.83023649  0.16656993  1
  I  I124  1  0.33326807  0.83386427  0.50019694  1
  I  I125  1  0.33291397  0.83348482  0.83316718  1
  I  I126  1  0.66503142  0.16873091  0.17204812  1
  I  I127  1  0.66274593  0.17144834  0.49431860  1
  I  I128  1  0.66678613  0.16512661  0.83201848  1
  I  I129  1  0.66533252  0.50046136  0.17182689  1
  I  I130  1  0.66264887  0.49532753  0.49170625  1
  I  I131  1  0.66673403  0.50123483  0.83404771  1
  I  I132  1  0.66323477  0.83087597  0.16772868  1
  I  I133  1  0.66602580  0.83300122  0.49445313  1
  I  I134  1  0.66658754  0.83348622  0.83562166  1
