# generated using pymatgen
data_Cs27Sn13Pb14I81
_symmetry_space_group_name_H-M   'P 1'
_cell_length_a   18.98775028
_cell_length_b   19.00500416
_cell_length_c   18.98229077
_cell_angle_alpha   89.99924414
_cell_angle_beta   90.00584450
_cell_angle_gamma   89.99983139
_symmetry_Int_Tables_number   1
_chemical_formula_structural   Cs27Sn13Pb14I81
_chemical_formula_sum   'Cs27 Sn13 Pb14 I81'
_cell_volume   6849.99256101
_cell_formula_units_Z   1
loop_
 _symmetry_equiv_pos_site_id
 _symmetry_equiv_pos_as_xyz
  1  'x, y, z'
loop_
 _atom_site_type_symbol
 _atom_site_label
 _atom_site_symmetry_multiplicity
 _atom_site_fract_x
 _atom_site_fract_y
 _atom_site_fract_z
 _atom_site_occupancy
  Cs  Cs0  1  -0.00136199  -0.00303259  -0.00094277  1
  Cs  Cs1  1  0.00215021  -0.00177740  0.33340800  1
  Cs  Cs2  1  0.00005222  0.00136129  0.66758022  1
  Cs  Cs3  1  -0.00154155  0.32951577  -0.00195624  1
  Cs  Cs4  1  0.00070106  0.33604796  0.33407671  1
  Cs  Cs5  1  0.00479812  0.33236997  0.66806089  1
  Cs  Cs6  1  -0.00126725  0.67039702  0.00226137  1
  Cs  Cs7  1  -0.00047687  0.66605731  0.33162101  1
  Cs  Cs8  1  -0.00166382  0.66651173  0.66710267  1
  Cs  Cs9  1  0.33509494  0.00004958  0.00230854  1
  Cs  Cs10  1  0.33186361  -0.00204486  0.33316572  1
  Cs  Cs11  1  0.33337324  -0.00456839  0.66528399  1
  Cs  Cs12  1  0.33467483  0.33318153  -0.00416883  1
  Cs  Cs13  1  0.33527972  0.33421858  0.33203751  1
  Cs  Cs14  1  0.32427245  0.33582091  0.67401437  1
  Cs  Cs15  1  0.33328490  0.66647759  0.00054682  1
  Cs  Cs16  1  0.33325517  0.66706430  0.33278306  1
  Cs  Cs17  1  0.33488477  0.66790914  0.66936418  1
  Cs  Cs18  1  0.66521021  0.01120421  0.00074707  1
  Cs  Cs19  1  0.66677799  0.00387403  0.33422002  1
  Cs  Cs20  1  0.66629950  -0.00182368  0.66575417  1
  Cs  Cs21  1  0.66588894  0.32207510  -0.00037248  1
  Cs  Cs22  1  0.66452782  0.33408858  0.33587949  1
  Cs  Cs23  1  0.66830737  0.33516016  0.66211814  1
  Cs  Cs24  1  0.66759654  0.66629416  -0.00079713  1
  Cs  Cs25  1  0.66774518  0.66361999  0.33325163  1
  Cs  Cs26  1  0.66657612  0.66668929  0.66703613  1
  Sn  Sn27  1  0.16620961  0.83299042  0.83393659  1
  Sn  Sn28  1  0.50002352  0.49924623  0.49979870  1
  Sn  Sn29  1  0.16653042  0.16681399  0.16684045  1
  Sn  Sn30  1  0.83363217  0.83249756  0.83270685  1
  Sn  Sn31  1  0.50003522  0.83250899  0.16678816  1
  Sn  Sn32  1  0.49966662  0.16791031  0.50022847  1
  Sn  Sn33  1  0.83311411  0.16700135  0.49990714  1
  Sn  Sn34  1  0.16737366  0.49995110  0.16666896  1
  Sn  Sn35  1  0.83290693  0.50002800  0.50086781  1
  Sn  Sn36  1  0.16756622  0.83307548  0.16589841  1
  Sn  Sn37  1  0.83340580  0.83300906  0.50046387  1
  Sn  Sn38  1  0.83294179  0.50060289  0.83293182  1
  Sn  Sn39  1  0.49959245  0.50078532  0.16695756  1
  Pb  Pb40  1  0.16665498  0.16356577  0.83596321  1
  Pb  Pb41  1  0.16724059  0.16678056  0.49834238  1
  Pb  Pb42  1  0.83250060  0.49987447  0.16621506  1
  Pb  Pb43  1  0.83327788  0.16640151  0.83038449  1
  Pb  Pb44  1  0.16405383  0.50242167  0.83636238  1
  Pb  Pb45  1  0.83263231  0.83340330  0.16614855  1
  Pb  Pb46  1  0.50087001  0.83328990  0.83619857  1
  Pb  Pb47  1  0.16435487  0.83306984  0.49997272  1
  Pb  Pb48  1  0.50233194  0.83271217  0.49785520  1
  Pb  Pb49  1  0.50254977  0.49994357  0.83342601  1
  Pb  Pb50  1  0.49976929  0.16684643  0.82919515  1
  Pb  Pb51  1  0.16709562  0.50018975  0.49833132  1
  Pb  Pb52  1  0.83587885  0.16677313  0.16966229  1
  Pb  Pb53  1  0.49792613  0.16717924  0.16865173  1
  I  I54  1  0.16985559  -0.00138256  0.16369389  1
  I  I55  1  0.16622633  -0.00017605  0.49624264  1
  I  I56  1  0.15864077  -0.00435661  0.83884638  1
  I  I57  1  0.16952304  0.33414477  0.17082231  1
  I  I58  1  0.16101429  0.33350592  0.49685919  1
  I  I59  1  0.16501099  0.33356742  0.83444977  1
  I  I60  1  0.17059086  0.66715203  0.16352427  1
  I  I61  1  0.16616313  0.66672275  0.49598398  1
  I  I62  1  0.16415280  0.67003647  0.83952935  1
  I  I63  1  0.49609190  -0.00220319  0.16761516  1
  I  I64  1  0.50491241  0.00191671  0.49782047  1
  I  I65  1  0.50233254  -0.00024874  0.83468779  1
  I  I66  1  0.49633572  0.33639663  0.16948071  1
  I  I67  1  0.51114575  0.33453072  0.49149545  1
  I  I68  1  0.50231744  0.33358212  0.84061480  1
  I  I69  1  0.49168617  0.66597726  0.17285080  1
  I  I70  1  0.50490168  0.66361905  0.49668754  1
  I  I71  1  0.49858803  0.66671949  0.82865184  1
  I  I72  1  0.83299356  -0.00013505  0.16740414  1
  I  I73  1  0.82993887  -0.00019714  0.50242378  1
  I  I74  1  0.83810742  -0.00331202  0.83002886  1
  I  I75  1  0.83472148  0.33350344  0.16509561  1
  I  I76  1  0.82884060  0.33420631  0.50202061  1
  I  I77  1  0.83247284  0.33616489  0.83068628  1
  I  I78  1  0.83781944  0.66666443  0.17196371  1
  I  I79  1  0.83004577  0.66611638  0.50366550  1
  I  I80  1  0.83696662  0.66736123  0.82454519  1
  I  I81  1  0.16727167  0.16986618  0.00423201  1
  I  I82  1  0.16527327  0.16250923  0.33012652  1
  I  I83  1  0.16660348  0.16504778  0.66674479  1
  I  I84  1  0.17205671  0.49815203  0.00444314  1
  I  I85  1  0.16437521  0.50371864  0.32978741  1
  I  I86  1  0.16925491  0.50129919  0.66707060  1
  I  I87  1  0.16279781  0.83308141  0.00127691  1
  I  I88  1  0.16871994  0.83386699  0.32979317  1
  I  I89  1  0.16369337  0.83373615  0.66958021  1
  I  I90  1  0.49977434  0.16634098  0.00038987  1
  I  I91  1  0.50539526  0.16793608  0.33629194  1
  I  I92  1  0.50577084  0.17177414  0.66102661  1
  I  I93  1  0.49617256  0.50565942  0.00344035  1
  I  I94  1  0.50272757  0.50013773  0.33345374  1
  I  I95  1  0.50396087  0.49588651  0.66320200  1
  I  I96  1  0.49947935  0.82650492  0.00430915  1
  I  I97  1  0.49403171  0.83220626  0.33003910  1
  I  I98  1  0.49648368  0.83396281  0.66658087  1
  I  I99  1  0.83395257  0.16655160  -0.00019511  1
  I  I100  1  0.82929331  0.16667604  0.33772533  1
  I  I101  1  0.82981894  0.16615511  0.66240263  1
  I  I102  1  0.83561110  0.50827913  -0.00276346  1
  I  I103  1  0.83308703  0.50089272  0.33641524  1
  I  I104  1  0.82731872  0.50141897  0.66500169  1
  I  I105  1  0.83603541  0.82627115  -0.00299232  1
  I  I106  1  0.83356246  0.83232370  0.33608577  1
  I  I107  1  0.83907100  0.83283986  0.66644195  1
  I  I108  1  0.00386774  0.16576803  0.16860361  1
  I  I109  1  -0.00314671  0.16698908  0.49819291  1
  I  I110  1  -0.00010390  0.16896821  0.83156572  1
  I  I111  1  0.00257867  0.50198841  0.16744916  1
  I  I112  1  -0.00339761  0.49939849  0.50161971  1
  I  I113  1  -0.00366854  0.50172650  0.82687714  1
  I  I114  1  0.00280065  0.83239291  0.16642527  1
  I  I115  1  -0.00410722  0.83319994  0.49794895  1
  I  I116  1  -0.00060392  0.82961986  0.83638821  1
  I  I117  1  0.33028675  0.16485396  0.17061085  1
  I  I118  1  0.33662051  0.17153536  0.49659615  1
  I  I119  1  0.33297821  0.16547891  0.83065063  1
  I  I120  1  0.33365714  0.50168722  0.17372647  1
  I  I121  1  0.33687283  0.49465639  0.49595136  1
  I  I122  1  0.33321107  0.50126171  0.82993053  1
  I  I123  1  0.33211235  0.83307751  0.16207335  1
  I  I124  1  0.33353361  0.83450424  0.50228301  1
  I  I125  1  0.33061935  0.83450396  0.83663269  1
  I  I126  1  0.66632989  0.16576674  0.16468869  1
  I  I127  1  0.66744865  0.16715409  0.49823258  1
  I  I128  1  0.66694195  0.16335880  0.83980108  1
  I  I129  1  0.66337244  0.50674538  0.16908692  1
  I  I130  1  0.66730381  0.49949618  0.49673618  1
  I  I131  1  0.67052684  0.50852101  0.83324286  1
  I  I132  1  0.66380839  0.82655520  0.16869978  1
  I  I133  1  0.67042819  0.83337475  0.50434070  1
  I  I134  1  0.67030109  0.82883249  0.82895727  1
