# generated using pymatgen
data_Cs27Sn13Pb14I81
_symmetry_space_group_name_H-M   'P 1'
_cell_length_a   19.00320764
_cell_length_b   18.98300318
_cell_length_c   18.98908540
_cell_angle_alpha   90.00318028
_cell_angle_beta   90.00054754
_cell_angle_gamma   90.00004125
_symmetry_Int_Tables_number   1
_chemical_formula_structural   Cs27Sn13Pb14I81
_chemical_formula_sum   'Cs27 Sn13 Pb14 I81'
_cell_volume   6850.08374904
_cell_formula_units_Z   1
loop_
 _symmetry_equiv_pos_site_id
 _symmetry_equiv_pos_as_xyz
  1  'x, y, z'
loop_
 _atom_site_type_symbol
 _atom_site_label
 _atom_site_symmetry_multiplicity
 _atom_site_fract_x
 _atom_site_fract_y
 _atom_site_fract_z
 _atom_site_occupancy
  Cs  Cs0  1  -0.00127388  0.00018944  0.00001437  1
  Cs  Cs1  1  -0.00148714  -0.00003331  0.33138366  1
  Cs  Cs2  1  0.00137084  -0.00280591  0.66884953  1
  Cs  Cs3  1  0.00255652  0.33503052  -0.00253081  1
  Cs  Cs4  1  0.00045760  0.33462157  0.33419610  1
  Cs  Cs5  1  0.00901844  0.33414025  0.66773280  1
  Cs  Cs6  1  -0.00928195  0.66047763  0.00775856  1
  Cs  Cs7  1  0.00353647  0.66455486  0.33012042  1
  Cs  Cs8  1  -0.00112306  0.66926800  0.66682466  1
  Cs  Cs9  1  0.33407046  -0.00014025  -0.00103985  1
  Cs  Cs10  1  0.33497343  0.00038872  0.33330238  1
  Cs  Cs11  1  0.33369589  -0.00158216  0.66787270  1
  Cs  Cs12  1  0.33372042  0.33836169  -0.00412552  1
  Cs  Cs13  1  0.32916741  0.33213123  0.33763884  1
  Cs  Cs14  1  0.32389580  0.33382715  0.66699356  1
  Cs  Cs15  1  0.33596610  0.66040033  0.00809251  1
  Cs  Cs16  1  0.33205271  0.66705714  0.32715970  1
  Cs  Cs17  1  0.33518358  0.67024604  0.66640311  1
  Cs  Cs18  1  0.66692480  0.00027474  -0.00132053  1
  Cs  Cs19  1  0.66562449  0.00189996  0.33386816  1
  Cs  Cs20  1  0.66535950  -0.00109795  0.66706702  1
  Cs  Cs21  1  0.66513133  0.33470640  -0.00065138  1
  Cs  Cs22  1  0.66784647  0.33014796  0.33514737  1
  Cs  Cs23  1  0.66576743  0.33392583  0.66539376  1
  Cs  Cs24  1  0.67166710  0.65640500  0.00479217  1
  Cs  Cs25  1  0.66526021  0.66578017  0.33371812  1
  Cs  Cs26  1  0.66666602  0.66686385  0.66667828  1
  Sn  Sn27  1  0.83262315  0.16643775  0.83279972  1
  Sn  Sn28  1  0.50056889  0.16603605  0.83359076  1
  Sn  Sn29  1  0.83319223  0.83326029  0.49991344  1
  Sn  Sn30  1  0.83347135  0.16670099  0.50084972  1
  Sn  Sn31  1  0.50035245  0.50077582  0.50049667  1
  Sn  Sn32  1  0.16699492  0.16622440  0.16648260  1
  Sn  Sn33  1  0.49967554  0.16630910  0.16559818  1
  Sn  Sn34  1  0.16746461  0.83303190  0.83387209  1
  Sn  Sn35  1  0.49995021  0.83257766  0.50055295  1
  Sn  Sn36  1  0.83333869  0.16635069  0.16632916  1
  Sn  Sn37  1  0.49959546  0.83339934  0.83342458  1
  Sn  Sn38  1  0.83260427  0.49996923  0.50045349  1
  Sn  Sn39  1  0.16697284  0.83380416  0.50045750  1
  Pb  Pb40  1  0.16675254  0.83498208  0.16573084  1
  Pb  Pb41  1  0.83299804  0.83531346  0.16915813  1
  Pb  Pb42  1  0.50022975  0.83507236  0.16595978  1
  Pb  Pb43  1  0.50011618  0.49642868  0.16994355  1
  Pb  Pb44  1  0.49993082  0.50034959  0.83080847  1
  Pb  Pb45  1  0.16704300  0.16482003  0.83533864  1
  Pb  Pb46  1  0.83309570  0.49674047  0.16959108  1
  Pb  Pb47  1  0.16671809  0.49689686  0.16672492  1
  Pb  Pb48  1  0.16679485  0.50468370  0.83327826  1
  Pb  Pb49  1  0.16674026  0.50332081  0.50025467  1
  Pb  Pb50  1  0.83264239  0.83470036  0.83193100  1
  Pb  Pb51  1  0.16363382  0.16391461  0.49833101  1
  Pb  Pb52  1  0.50120275  0.16661364  0.50085907  1
  Pb  Pb53  1  0.83329217  0.49691925  0.83035129  1
  I  I54  1  0.16524836  0.00324937  0.16841797  1
  I  I55  1  0.16832181  -0.00380166  0.50308597  1
  I  I56  1  0.16797718  -0.00275616  0.82783872  1
  I  I57  1  0.16534053  0.32833218  0.16802832  1
  I  I58  1  0.16708231  0.33322972  0.49775978  1
  I  I59  1  0.16658666  0.33313076  0.83473980  1
  I  I60  1  0.16686694  0.66683812  0.16761326  1
  I  I61  1  0.16135873  0.67123760  0.50365993  1
  I  I62  1  0.17347253  0.67254709  0.82543864  1
  I  I63  1  0.50132915  0.00373000  0.16970563  1
  I  I64  1  0.50102357  -0.00277809  0.50008161  1
  I  I65  1  0.50024958  0.00026559  0.83013918  1
  I  I66  1  0.50176252  0.32818948  0.16162545  1
  I  I67  1  0.50691283  0.33512098  0.49782129  1
  I  I68  1  0.50546265  0.32998881  0.83705257  1
  I  I69  1  0.49898547  0.66637863  0.16460430  1
  I  I70  1  0.50555830  0.66840341  0.50594048  1
  I  I71  1  0.49465760  0.67035227  0.82819081  1
  I  I72  1  0.83329540  0.00433531  0.17041757  1
  I  I73  1  0.83289921  0.00021269  0.49881338  1
  I  I74  1  0.83223402  0.00340986  0.83075225  1
  I  I75  1  0.83282822  0.32828394  0.16974603  1
  I  I76  1  0.82640335  0.33263884  0.49803287  1
  I  I77  1  0.82676918  0.32815299  0.83289416  1
  I  I78  1  0.83430958  0.66621262  0.16671341  1
  I  I79  1  0.83242284  0.66747234  0.50149993  1
  I  I80  1  0.83388188  0.66668159  0.83133268  1
  I  I81  1  0.16091305  0.16276644  0.00295576  1
  I  I82  1  0.16815847  0.16408370  0.33047154  1
  I  I83  1  0.16643161  0.16829169  0.66674884  1
  I  I84  1  0.16699923  0.50140849  0.00006961  1
  I  I85  1  0.16640975  0.50165082  0.33379789  1
  I  I86  1  0.16611940  0.49288019  0.66630555  1
  I  I87  1  0.17337996  0.83806770  -0.00346330  1
  I  I88  1  0.16628828  0.83488944  0.33634076  1
  I  I89  1  0.16705811  0.83581827  0.66555917  1
  I  I90  1  0.50546406  0.15991890  -0.00065349  1
  I  I91  1  0.50170593  0.16676471  0.33154438  1
  I  I92  1  0.50612627  0.16486994  0.66942445  1
  I  I93  1  0.49909226  0.50257806  0.00005359  1
  I  I94  1  0.50477338  0.50574046  0.33773228  1
  I  I95  1  0.50578756  0.49905587  0.66287898  1
  I  I96  1  0.49307962  0.83899259  -0.00371620  1
  I  I97  1  0.50004990  0.83163496  0.33678507  1
  I  I98  1  0.49949249  0.83682988  0.66559418  1
  I  I99  1  0.83265032  0.16438778  -0.00009916  1
  I  I100  1  0.83279405  0.16615508  0.33383565  1
  I  I101  1  0.82670487  0.16564233  0.66623391  1
  I  I102  1  0.83422272  0.50023641  0.00008078  1
  I  I103  1  0.82934859  0.49846470  0.33768923  1
  I  I104  1  0.82855505  0.49837840  0.66217125  1
  I  I105  1  0.83489112  0.83661618  -0.00020643  1
  I  I106  1  0.83323717  0.83635220  0.33845462  1
  I  I107  1  0.83338138  0.83712782  0.66293949  1
  I  I108  1  -0.00101834  0.16513216  0.16903104  1
  I  I109  1  -0.00478251  0.16759335  0.50028947  1
  I  I110  1  -0.00266074  0.16513645  0.83301802  1
  I  I111  1  -0.00030282  0.49871705  0.16967452  1
  I  I112  1  -0.00311459  0.49835371  0.49917944  1
  I  I113  1  -0.00007654  0.49789527  0.83031150  1
  I  I114  1  -0.00006204  0.83798407  0.16747743  1
  I  I115  1  -0.00045103  0.83589027  0.50396210  1
  I  I116  1  0.00198726  0.83752717  0.82630799  1
  I  I117  1  0.33411335  0.16478735  0.16283855  1
  I  I118  1  0.33312907  0.16764622  0.49835769  1
  I  I119  1  0.33638894  0.16444290  0.83774478  1
  I  I120  1  0.33362635  0.49778838  0.17004052  1
  I  I121  1  0.33628389  0.50289119  0.49979025  1
  I  I122  1  0.33354045  0.49211710  0.82936502  1
  I  I123  1  0.33348864  0.83857944  0.17344991  1
  I  I124  1  0.33422861  0.82972212  0.50383066  1
  I  I125  1  0.33447006  0.84202524  0.82196446  1
  I  I126  1  0.66701763  0.16586190  0.16764302  1
  I  I127  1  0.66952640  0.16256061  0.49542948  1
  I  I128  1  0.66642344  0.16059140  0.83706220  1
  I  I129  1  0.66663746  0.49834134  0.16561034  1
  I  I130  1  0.66724383  0.50436124  0.49984648  1
  I  I131  1  0.66665853  0.50400946  0.83399203  1
  I  I132  1  0.66657776  0.83821263  0.16799676  1
  I  I133  1  0.66651446  0.83389289  0.50325684  1
  I  I134  1  0.66351560  0.83860558  0.82663391  1
