# generated using pymatgen
data_Cs27Sn14Pb13I81
_symmetry_space_group_name_H-M   'P 1'
_cell_length_a   18.97752671
_cell_length_b   18.98263083
_cell_length_c   18.96842044
_cell_angle_alpha   90.00066076
_cell_angle_beta   90.00434608
_cell_angle_gamma   89.99942365
_symmetry_Int_Tables_number   1
_chemical_formula_structural   Cs27Sn14Pb13I81
_chemical_formula_sum   'Cs27 Sn14 Pb13 I81'
_cell_volume   6833.24794400
_cell_formula_units_Z   1
loop_
 _symmetry_equiv_pos_site_id
 _symmetry_equiv_pos_as_xyz
  1  'x, y, z'
loop_
 _atom_site_type_symbol
 _atom_site_label
 _atom_site_symmetry_multiplicity
 _atom_site_fract_x
 _atom_site_fract_y
 _atom_site_fract_z
 _atom_site_occupancy
  Cs  Cs0  1  0.00084690  -0.00014440  0.00058995  1
  Cs  Cs1  1  0.00164001  -0.00109979  0.33211631  1
  Cs  Cs2  1  0.00284460  -0.00318715  0.66932157  1
  Cs  Cs3  1  -0.00071040  0.33300824  -0.00036705  1
  Cs  Cs4  1  -0.00184409  0.33382265  0.33388508  1
  Cs  Cs5  1  0.00020302  0.33874238  0.66721453  1
  Cs  Cs6  1  -0.00223839  0.66612703  0.00267126  1
  Cs  Cs7  1  0.00017999  0.66739376  0.33371171  1
  Cs  Cs8  1  0.00059535  0.66446736  0.66534704  1
  Cs  Cs9  1  0.33222247  -0.00374526  -0.00212371  1
  Cs  Cs10  1  0.33128359  -0.00027710  0.33492825  1
  Cs  Cs11  1  0.33208059  0.00031227  0.66524796  1
  Cs  Cs12  1  0.33363823  0.33489162  -0.00252212  1
  Cs  Cs13  1  0.33477119  0.33086229  0.33167749  1
  Cs  Cs14  1  0.33369798  0.33502365  0.66983583  1
  Cs  Cs15  1  0.33710290  0.66779187  0.00161865  1
  Cs  Cs16  1  0.33325922  0.66795740  0.33245531  1
  Cs  Cs17  1  0.33383973  0.66466880  0.66583314  1
  Cs  Cs18  1  0.66555493  -0.00029444  -0.00213410  1
  Cs  Cs19  1  0.66665794  0.00800136  0.33389839  1
  Cs  Cs20  1  0.66593224  0.00061958  0.66782486  1
  Cs  Cs21  1  0.66765195  0.33427044  -0.00107421  1
  Cs  Cs22  1  0.66680424  0.32301017  0.33432744  1
  Cs  Cs23  1  0.66632481  0.33294818  0.66711386  1
  Cs  Cs24  1  0.66575697  0.66580924  -0.00094174  1
  Cs  Cs25  1  0.66679598  0.66658166  0.33338886  1
  Cs  Cs26  1  0.66636540  0.66630081  0.66726080  1
  Sn  Sn27  1  0.50103176  0.49934675  0.83245438  1
  Sn  Sn28  1  0.16647916  0.83380874  0.49933811  1
  Sn  Sn29  1  0.83270896  0.49930656  0.83388079  1
  Sn  Sn30  1  0.16598123  0.50019487  0.16671431  1
  Sn  Sn31  1  0.83296628  0.16734573  0.83324903  1
  Sn  Sn32  1  0.83370093  0.50038820  0.16652358  1
  Sn  Sn33  1  0.16584848  0.83314068  0.16747940  1
  Sn  Sn34  1  0.50030384  0.50027548  0.50005467  1
  Sn  Sn35  1  0.16626818  0.16662797  0.49959036  1
  Sn  Sn36  1  0.83334118  0.83331562  0.49902208  1
  Sn  Sn37  1  0.50065321  0.16725299  0.83332562  1
  Sn  Sn38  1  0.83356441  0.83273046  0.16773961  1
  Sn  Sn39  1  0.50021846  0.83271549  0.49976090  1
  Sn  Sn40  1  0.16661341  0.16659660  0.16734662  1
  Pb  Pb41  1  0.16658835  0.83292185  0.83355317  1
  Pb  Pb42  1  0.50063031  0.83351408  0.16942537  1
  Pb  Pb43  1  0.83523500  0.16641417  0.16477992  1
  Pb  Pb44  1  0.49788105  0.16675613  0.50198585  1
  Pb  Pb45  1  0.16877358  0.50016911  0.49752497  1
  Pb  Pb46  1  0.16657273  0.50027716  0.83605436  1
  Pb  Pb47  1  0.50004594  0.83284103  0.83080822  1
  Pb  Pb48  1  0.50103607  0.49991106  0.16683291  1
  Pb  Pb49  1  0.49710408  0.16653573  0.16356265  1
  Pb  Pb50  1  0.83617036  0.16396646  0.50272932  1
  Pb  Pb51  1  0.83339908  0.83268200  0.83385229  1
  Pb  Pb52  1  0.83113490  0.50166120  0.49943968  1
  Pb  Pb53  1  0.16651002  0.16674962  0.83312587  1
  I  I54  1  0.16304035  -0.00088145  0.17049698  1
  I  I55  1  0.16877253  -0.00134089  0.49301004  1
  I  I56  1  0.16698484  0.00016050  0.83736359  1
  I  I57  1  0.16347532  0.33343745  0.16980820  1
  I  I58  1  0.16946985  0.33113509  0.49601195  1
  I  I59  1  0.16711922  0.33344318  0.83309945  1
  I  I60  1  0.16268806  0.66739811  0.17013791  1
  I  I61  1  0.16553873  0.66976915  0.49636584  1
  I  I62  1  0.16711480  0.66637289  0.83178445  1
  I  I63  1  0.50081151  -0.00000494  0.16555296  1
  I  I64  1  0.50036467  -0.00275230  0.50104077  1
  I  I65  1  0.50373073  0.00265606  0.83314030  1
  I  I66  1  0.49846405  0.33340932  0.17260449  1
  I  I67  1  0.49783113  0.33575620  0.50227292  1
  I  I68  1  0.50327274  0.33444780  0.82719859  1
  I  I69  1  0.49454344  0.66661998  0.16196713  1
  I  I70  1  0.49738300  0.66712816  0.50621857  1
  I  I71  1  0.50439423  0.66331417  0.83192540  1
  I  I72  1  0.83771717  -0.00290886  0.16907752  1
  I  I73  1  0.82822926  -0.00412508  0.49481295  1
  I  I74  1  0.82937250  0.00232045  0.83272936  1
  I  I75  1  0.83781865  0.33600952  0.16319585  1
  I  I76  1  0.83294157  0.33320827  0.49777202  1
  I  I77  1  0.82965002  0.33450604  0.83917539  1
  I  I78  1  0.84159956  0.66655030  0.16416376  1
  I  I79  1  0.83882535  0.66991312  0.50141772  1
  I  I80  1  0.82856244  0.66348095  0.83497638  1
  I  I81  1  0.16662655  0.16535387  0.00297609  1
  I  I82  1  0.16713497  0.16477144  0.33285882  1
  I  I83  1  0.16732837  0.15951084  0.66397954  1
  I  I84  1  0.16776874  0.49993481  0.00434420  1
  I  I85  1  0.16180910  0.50059597  0.32949915  1
  I  I86  1  0.16489728  0.49963289  0.66644849  1
  I  I87  1  0.16133444  0.83511436  0.00414053  1
  I  I88  1  0.16638345  0.83415123  0.33330767  1
  I  I89  1  0.16611401  0.83942807  0.66275444  1
  I  I90  1  0.50221859  0.17402117  -0.00435111  1
  I  I91  1  0.50071104  0.16752078  0.33361402  1
  I  I92  1  0.50128364  0.16777656  0.66977649  1
  I  I93  1  0.50004610  0.49507625  -0.00284859  1
  I  I94  1  0.49789164  0.50650799  0.33597530  1
  I  I95  1  0.50456876  0.50071161  0.66745209  1
  I  I96  1  0.49865455  0.83308851  0.00003582  1
  I  I97  1  0.49831306  0.82620438  0.33759711  1
  I  I98  1  0.49955140  0.83230668  0.66254221  1
  I  I99  1  0.83205333  0.16586221  -0.00311412  1
  I  I100  1  0.83206954  0.16954308  0.33340780  1
  I  I101  1  0.83133176  0.17190349  0.67039757  1
  I  I102  1  0.83203221  0.50244032  0.00011657  1
  I  I103  1  0.83727101  0.50379664  0.33030245  1
  I  I104  1  0.83062956  0.49779747  0.66920811  1
  I  I105  1  0.84000955  0.83278075  0.00326050  1
  I  I106  1  0.83530415  0.82662934  0.33284290  1
  I  I107  1  0.83418862  0.83407708  0.66370855  1
  I  I108  1  0.00337025  0.16617893  0.16749738  1
  I  I109  1  0.00391155  0.16175656  0.49755845  1
  I  I110  1  -0.00259362  0.17082151  0.83384683  1
  I  I111  1  -0.00039743  0.50127660  0.16102730  1
  I  I112  1  -0.00006529  0.50055007  0.50369007  1
  I  I113  1  -0.00330141  0.49549848  0.83516060  1
  I  I114  1  0.00047204  0.83229297  0.17396060  1
  I  I115  1  0.00049474  0.83806789  0.49614777  1
  I  I116  1  -0.00029283  0.83450668  0.82761105  1
  I  I117  1  0.32865988  0.16620561  0.16906106  1
  I  I118  1  0.33015291  0.16049707  0.49800892  1
  I  I119  1  0.33580608  0.17164122  0.83326861  1
  I  I120  1  0.33065705  0.50126973  0.16701211  1
  I  I121  1  0.33654749  0.50538003  0.50535745  1
  I  I122  1  0.33645693  0.49557934  0.83052615  1
  I  I123  1  0.32998505  0.83263679  0.16961629  1
  I  I124  1  0.33250327  0.83367861  0.49693133  1
  I  I125  1  0.33354708  0.83420949  0.83445948  1
  I  I126  1  0.66692915  0.16719605  0.16765636  1
  I  I127  1  0.66678819  0.16520233  0.49940941  1
  I  I128  1  0.66675384  0.17066383  0.83285280  1
  I  I129  1  0.67017161  0.50672285  0.16423713  1
  I  I130  1  0.66330969  0.50650127  0.50040590  1
  I  I131  1  0.66697552  0.49611303  0.83570926  1
  I  I132  1  0.67027993  0.82675016  0.16913809  1
  I  I133  1  0.66684743  0.82721488  0.49751581  1
  I  I134  1  0.66677140  0.83471870  0.83352131  1
