# generated using pymatgen
data_Cs27Sn14Pb13I81
_symmetry_space_group_name_H-M   'P 1'
_cell_length_a   18.98625977
_cell_length_b   18.96721131
_cell_length_c   18.97394108
_cell_angle_alpha   90.00147515
_cell_angle_beta   89.99949305
_cell_angle_gamma   90.00082223
_symmetry_Int_Tables_number   1
_chemical_formula_structural   Cs27Sn14Pb13I81
_chemical_formula_sum   'Cs27 Sn14 Pb13 I81'
_cell_volume   6832.82736955
_cell_formula_units_Z   1
loop_
 _symmetry_equiv_pos_site_id
 _symmetry_equiv_pos_as_xyz
  1  'x, y, z'
loop_
 _atom_site_type_symbol
 _atom_site_label
 _atom_site_symmetry_multiplicity
 _atom_site_fract_x
 _atom_site_fract_y
 _atom_site_fract_z
 _atom_site_occupancy
  Cs  Cs0  1  -0.00213714  -0.00321646  0.00127706  1
  Cs  Cs1  1  -0.00148604  -0.00395244  0.34181924  1
  Cs  Cs2  1  0.00551855  0.00162038  0.65729324  1
  Cs  Cs3  1  -0.00233789  0.33516908  0.00229886  1
  Cs  Cs4  1  0.00019119  0.33298845  0.33219303  1
  Cs  Cs5  1  0.00197323  0.33377690  0.66575798  1
  Cs  Cs6  1  0.00135929  0.66811837  -0.00369178  1
  Cs  Cs7  1  -0.00068790  0.66837074  0.33188268  1
  Cs  Cs8  1  0.00343261  0.66356804  0.67357841  1
  Cs  Cs9  1  0.33099817  0.00163950  -0.00204627  1
  Cs  Cs10  1  0.33373433  -0.00787123  0.33403950  1
  Cs  Cs11  1  0.32445919  0.00246327  0.66801085  1
  Cs  Cs12  1  0.33509572  0.33090582  0.00296751  1
  Cs  Cs13  1  0.33466923  0.33579175  0.33114058  1
  Cs  Cs14  1  0.33499985  0.33052542  0.66696140  1
  Cs  Cs15  1  0.33180928  0.66896006  0.00006566  1
  Cs  Cs16  1  0.33552712  0.66627658  0.33397370  1
  Cs  Cs17  1  0.33360727  0.66769534  0.66600166  1
  Cs  Cs18  1  0.66753257  0.00095211  -0.00156006  1
  Cs  Cs19  1  0.66849873  -0.00656649  0.33554871  1
  Cs  Cs20  1  0.66774066  -0.00042104  0.66859120  1
  Cs  Cs21  1  0.66698287  0.33170480  0.00097926  1
  Cs  Cs22  1  0.66590195  0.33421158  0.33191297  1
  Cs  Cs23  1  0.66556942  0.33395846  0.66553039  1
  Cs  Cs24  1  0.66759082  0.66775675  -0.00229326  1
  Cs  Cs25  1  0.66519941  0.66880056  0.33398053  1
  Cs  Cs26  1  0.66616242  0.66599645  0.66880781  1
  Sn  Sn27  1  0.83301150  0.49955052  0.16744584  1
  Sn  Sn28  1  0.83338475  0.16701555  0.16641848  1
  Sn  Sn29  1  0.16639028  0.16707833  0.16692486  1
  Sn  Sn30  1  0.50021374  0.16696179  0.16801935  1
  Sn  Sn31  1  0.16669394  0.49939385  0.16752038  1
  Sn  Sn32  1  0.50041741  0.83305673  0.83336441  1
  Sn  Sn33  1  0.50013597  0.49929112  0.49989019  1
  Sn  Sn34  1  0.83325206  0.49977823  0.49915776  1
  Sn  Sn35  1  0.50005760  0.50056897  0.83373162  1
  Sn  Sn36  1  0.16683778  0.49953033  0.49902019  1
  Sn  Sn37  1  0.83274282  0.83488663  0.83312364  1
  Sn  Sn38  1  0.83342341  0.16589647  0.83341005  1
  Sn  Sn39  1  0.50026395  0.49972661  0.16640814  1
  Sn  Sn40  1  0.50040205  0.16712472  0.49869848  1
  Pb  Pb41  1  0.50012163  0.83368669  0.16437464  1
  Pb  Pb42  1  0.16652223  0.83356145  0.83339888  1
  Pb  Pb43  1  0.17001634  0.49955467  0.83402096  1
  Pb  Pb44  1  0.16299716  0.16706998  0.83609315  1
  Pb  Pb45  1  0.83133269  0.16868024  0.49932199  1
  Pb  Pb46  1  0.83152431  0.49945896  0.83369143  1
  Pb  Pb47  1  0.50133958  0.16671141  0.83345217  1
  Pb  Pb48  1  0.50004471  0.83355508  0.50276145  1
  Pb  Pb49  1  0.83317924  0.82976590  0.50316978  1
  Pb  Pb50  1  0.83318321  0.83326228  0.16502159  1
  Pb  Pb51  1  0.16676886  0.82981507  0.49975217  1
  Pb  Pb52  1  0.16657940  0.83323746  0.16682459  1
  Pb  Pb53  1  0.16952942  0.16911756  0.49692708  1
  I  I54  1  0.16805020  0.00362792  0.16344097  1
  I  I55  1  0.16839690  0.00050088  0.49961863  1
  I  I56  1  0.17312441  0.00037311  0.83597187  1
  I  I57  1  0.16712018  0.33452437  0.16959566  1
  I  I58  1  0.16474044  0.33732135  0.49877925  1
  I  I59  1  0.16679028  0.33347657  0.83067138  1
  I  I60  1  0.16721393  0.66235550  0.17010119  1
  I  I61  1  0.17038549  0.66126928  0.49341108  1
  I  I62  1  0.16199222  0.66623646  0.83516857  1
  I  I63  1  0.50017358  0.00383440  0.16978166  1
  I  I64  1  0.50156713  0.00320532  0.49502531  1
  I  I65  1  0.50385539  -0.00207180  0.83427979  1
  I  I66  1  0.50013304  0.33449958  0.16451542  1
  I  I67  1  0.50026873  0.33542829  0.50200284  1
  I  I68  1  0.50166787  0.33604317  0.83322567  1
  I  I69  1  0.49984737  0.66287654  0.16936448  1
  I  I70  1  0.49955724  0.66273549  0.49730016  1
  I  I71  1  0.50630945  0.66529684  0.83343225  1
  I  I72  1  0.83233794  0.00353881  0.16296632  1
  I  I73  1  0.83113046  0.00010353  0.49775480  1
  I  I74  1  0.82505232  0.00053367  0.84135043  1
  I  I75  1  0.83269080  0.33383422  0.16340712  1
  I  I76  1  0.83393224  0.33709829  0.50175320  1
  I  I77  1  0.83099460  0.33103094  0.83596735  1
  I  I78  1  0.83296598  0.66280451  0.16907127  1
  I  I79  1  0.82952866  0.66140058  0.49420405  1
  I  I80  1  0.83011611  0.66819430  0.83257942  1
  I  I81  1  0.17413314  0.17443149  0.00437496  1
  I  I82  1  0.16056707  0.17001747  0.32898404  1
  I  I83  1  0.16754470  0.16694971  0.66616058  1
  I  I84  1  0.16557462  0.49698028  0.00390108  1
  I  I85  1  0.17067255  0.49618284  0.33234134  1
  I  I86  1  0.16547438  0.50197512  0.66374334  1
  I  I87  1  0.16721010  0.82949135  0.00002930  1
  I  I88  1  0.16662099  0.83532833  0.33324998  1
  I  I89  1  0.16700395  0.83170302  0.66666708  1
  I  I90  1  0.49868444  0.17041061  0.00319700  1
  I  I91  1  0.50176399  0.17670703  0.33198997  1
  I  I92  1  0.50318207  0.17159784  0.66456316  1
  I  I93  1  0.50087576  0.49946577  0.00125432  1
  I  I94  1  0.49986422  0.49540304  0.33296913  1
  I  I95  1  0.50111256  0.49975292  0.66578926  1
  I  I96  1  0.50433392  0.82805166  -0.00339407  1
  I  I97  1  0.49905087  0.83103683  0.33341114  1
  I  I98  1  0.50544165  0.82742613  0.67050323  1
  I  I99  1  0.83038245  0.16949843  0.00157042  1
  I  I100  1  0.83485982  0.17069561  0.32980206  1
  I  I101  1  0.82864566  0.16508531  0.66871273  1
  I  I102  1  0.83317467  0.49915429  0.00308683  1
  I  I103  1  0.82960234  0.49436021  0.33210132  1
  I  I104  1  0.83223726  0.50061087  0.66440332  1
  I  I105  1  0.82856245  0.83162464  -0.00301322  1
  I  I106  1  0.83441330  0.83542121  0.33362050  1
  I  I107  1  0.82710787  0.83804189  0.67103997  1
  I  I108  1  -0.00068762  0.17483774  0.15925384  1
  I  I109  1  0.00008405  0.16783941  0.50130888  1
  I  I110  1  -0.00509826  0.16201363  0.83790182  1
  I  I111  1  -0.00043911  0.49408838  0.17297301  1
  I  I112  1  -0.00020416  0.50097768  0.49350867  1
  I  I113  1  -0.00010279  0.50149076  0.83247154  1
  I  I114  1  -0.00016709  0.83137933  0.16179164  1
  I  I115  1  -0.00019565  0.83394484  0.50262590  1
  I  I116  1  -0.00338022  0.83547494  0.83514916  1
  I  I117  1  0.33423438  0.17414105  0.17013233  1
  I  I118  1  0.33744799  0.17304883  0.49793643  1
  I  I119  1  0.33340326  0.16594950  0.83355474  1
  I  I120  1  0.33407381  0.49478739  0.16842311  1
  I  I121  1  0.33435186  0.49707311  0.49754393  1
  I  I122  1  0.33829230  0.50565738  0.83330079  1
  I  I123  1  0.33351218  0.83283925  0.16308767  1
  I  I124  1  0.33367977  0.83180559  0.50284920  1
  I  I125  1  0.33647731  0.82731698  0.83371418  1
  I  I126  1  0.66658298  0.17394162  0.16487620  1
  I  I127  1  0.66353000  0.17433665  0.49583807  1
  I  I128  1  0.66907506  0.16673408  0.83968061  1
  I  I129  1  0.66632141  0.49465129  0.16822427  1
  I  I130  1  0.66574754  0.49667674  0.49809120  1
  I  I131  1  0.66352374  0.50087448  0.83324607  1
  I  I132  1  0.66658155  0.83206675  0.16697317  1
  I  I133  1  0.66656745  0.83011833  0.49842139  1
  I  I134  1  0.66647753  0.83189885  0.83435909  1
