# generated using pymatgen
data_Cs27Sn13Pb14I81
_symmetry_space_group_name_H-M   'P 1'
_cell_length_a   18.97436691
_cell_length_b   18.98492059
_cell_length_c   18.97349329
_cell_angle_alpha   89.99980116
_cell_angle_beta   90.00217751
_cell_angle_gamma   89.99922801
_symmetry_Int_Tables_number   1
_chemical_formula_structural   Cs27Sn13Pb14I81
_chemical_formula_sum   'Cs27 Sn13 Pb14 I81'
_cell_volume   6834.76169801
_cell_formula_units_Z   1
loop_
 _symmetry_equiv_pos_site_id
 _symmetry_equiv_pos_as_xyz
  1  'x, y, z'
loop_
 _atom_site_type_symbol
 _atom_site_label
 _atom_site_symmetry_multiplicity
 _atom_site_fract_x
 _atom_site_fract_y
 _atom_site_fract_z
 _atom_site_occupancy
  Cs  Cs0  1  -0.00019664  0.00117080  0.00077880  1
  Cs  Cs1  1  -0.00025353  0.00003207  0.33366915  1
  Cs  Cs2  1  -0.00011903  0.00027348  0.66568532  1
  Cs  Cs3  1  0.00055462  0.33608024  0.00128663  1
  Cs  Cs4  1  -0.00057297  0.33170431  0.33292811  1
  Cs  Cs5  1  0.00179480  0.33192104  0.66679060  1
  Cs  Cs6  1  -0.00228126  0.66080562  -0.00210706  1
  Cs  Cs7  1  -0.00046266  0.66877042  0.33309782  1
  Cs  Cs8  1  0.00102809  0.66646419  0.66803951  1
  Cs  Cs9  1  0.33891704  -0.00193607  0.00232747  1
  Cs  Cs10  1  0.33195942  -0.00194486  0.33170636  1
  Cs  Cs11  1  0.33087034  0.00019778  0.66488571  1
  Cs  Cs12  1  0.33437549  0.33235770  -0.00117138  1
  Cs  Cs13  1  0.33365777  0.33197249  0.33441624  1
  Cs  Cs14  1  0.33105860  0.33718976  0.66569297  1
  Cs  Cs15  1  0.33925401  0.67059323  -0.00184861  1
  Cs  Cs16  1  0.33389264  0.67034067  0.33154521  1
  Cs  Cs17  1  0.33302652  0.66173975  0.66713308  1
  Cs  Cs18  1  0.65950358  -0.00079150  -0.00799512  1
  Cs  Cs19  1  0.67000007  0.00051909  0.33500116  1
  Cs  Cs20  1  0.66816381  -0.00076470  0.66925528  1
  Cs  Cs21  1  0.66012190  0.33811994  -0.00348182  1
  Cs  Cs22  1  0.66703066  0.33605731  0.33306592  1
  Cs  Cs23  1  0.66351824  0.33180440  0.66753785  1
  Cs  Cs24  1  0.66236820  0.66240651  -0.00481499  1
  Cs  Cs25  1  0.66840801  0.66236448  0.33339818  1
  Cs  Cs26  1  0.66307674  0.66960327  0.66877888  1
  Sn  Sn27  1  0.16600004  0.83419780  0.83350643  1
  Sn  Sn28  1  0.50083573  0.83431369  0.49946113  1
  Sn  Sn29  1  0.83317362  0.16675890  0.49939615  1
  Sn  Sn30  1  0.83346990  0.16585166  0.16685636  1
  Sn  Sn31  1  0.16673269  0.49954485  0.16790486  1
  Sn  Sn32  1  0.83334474  0.83421901  0.16672547  1
  Sn  Sn33  1  0.83441168  0.49983247  0.50011158  1
  Sn  Sn34  1  0.83255335  0.83333181  0.49933241  1
  Sn  Sn35  1  0.16544803  0.49932980  0.49842527  1
  Sn  Sn36  1  0.16586867  0.16712932  0.16673850  1
  Sn  Sn37  1  0.50009544  0.16552832  0.49952683  1
  Sn  Sn38  1  0.16668981  0.16715127  0.49958056  1
  Sn  Sn39  1  0.16616291  0.16538551  0.83372096  1
  Pb  Pb40  1  0.49724219  0.83362234  0.83027896  1
  Pb  Pb41  1  0.49688731  0.16667900  0.83031560  1
  Pb  Pb42  1  0.49986120  0.49979622  0.83312993  1
  Pb  Pb43  1  0.83487218  0.49946946  0.16839064  1
  Pb  Pb44  1  0.16466438  0.83338242  0.16430980  1
  Pb  Pb45  1  0.16654869  0.49956953  0.83362356  1
  Pb  Pb46  1  0.83518504  0.16679620  0.83399839  1
  Pb  Pb47  1  0.49989917  0.49997518  0.49973359  1
  Pb  Pb48  1  0.49667054  0.49986777  0.16719241  1
  Pb  Pb49  1  0.16628710  0.83309761  0.50102953  1
  Pb  Pb50  1  0.50064189  0.16660703  0.16902293  1
  Pb  Pb51  1  0.50382516  0.83361936  0.16928803  1
  Pb  Pb52  1  0.83346228  0.49972455  0.83018672  1
  Pb  Pb53  1  0.83515391  0.83355351  0.83359916  1
  I  I54  1  0.16461052  0.00334934  0.17047722  1
  I  I55  1  0.16498828  0.00312980  0.49861933  1
  I  I56  1  0.16535229  0.00151446  0.83024085  1
  I  I57  1  0.16088322  0.33157605  0.16635718  1
  I  I58  1  0.16466825  0.33182851  0.50221911  1
  I  I59  1  0.16641141  0.33006005  0.83142813  1
  I  I60  1  0.16455664  0.66420827  0.17140933  1
  I  I61  1  0.16410158  0.66397292  0.49850826  1
  I  I62  1  0.16611656  0.66885585  0.83079451  1
  I  I63  1  0.49324938  0.00009877  0.16687657  1
  I  I64  1  0.50174824  0.00082926  0.50010894  1
  I  I65  1  0.50014958  0.00013227  0.83353479  1
  I  I66  1  0.50433560  0.33306744  0.16979495  1
  I  I67  1  0.50107271  0.33019484  0.50015269  1
  I  I68  1  0.49772913  0.33282662  0.83025297  1
  I  I69  1  0.49861813  0.66685969  0.16995439  1
  I  I70  1  0.50268412  0.66948981  0.50057389  1
  I  I71  1  0.49612541  0.66714622  0.82993307  1
  I  I72  1  0.84142123  0.00115644  0.17739404  1
  I  I73  1  0.83388657  0.00074789  0.49684743  1
  I  I74  1  0.83488028  0.00016512  0.82771817  1
  I  I75  1  0.83741627  0.32996400  0.17254800  1
  I  I76  1  0.83465999  0.33207113  0.49665013  1
  I  I77  1  0.83722735  0.33310697  0.83293050  1
  I  I78  1  0.83642706  0.66890252  0.17300589  1
  I  I79  1  0.83418386  0.66715021  0.49608346  1
  I  I80  1  0.83821642  0.66680629  0.83322406  1
  I  I81  1  0.16043974  0.16766766  0.00110159  1
  I  I82  1  0.16603024  0.17142444  0.33431452  1
  I  I83  1  0.16676797  0.16673293  0.66488992  1
  I  I84  1  0.16578557  0.49609664  0.00305806  1
  I  I85  1  0.16307730  0.49220625  0.33470225  1
  I  I86  1  0.16393632  0.49680727  0.66339617  1
  I  I87  1  0.16388889  0.83750415  -0.00312768  1
  I  I88  1  0.16879495  0.83445466  0.33332435  1
  I  I89  1  0.16526934  0.83785223  0.66858994  1
  I  I90  1  0.49992539  0.16713761  -0.00000521  1
  I  I91  1  0.49456830  0.16335095  0.33757254  1
  I  I92  1  0.50184141  0.16337684  0.66169262  1
  I  I93  1  0.49864530  0.50039905  0.00023012  1
  I  I94  1  0.50098581  0.50005114  0.33403954  1
  I  I95  1  0.49661466  0.50003136  0.66563506  1
  I  I96  1  0.49998846  0.83229058  -0.00012321  1
  I  I97  1  0.49761583  0.83751692  0.33746966  1
  I  I98  1  0.50726660  0.83725390  0.66229933  1
  I  I99  1  0.84066927  0.16093608  0.00390120  1
  I  I100  1  0.83864192  0.16545995  0.33504506  1
  I  I101  1  0.83454793  0.16588009  0.66274540  1
  I  I102  1  0.83614056  0.50087536  0.00057454  1
  I  I103  1  0.83567768  0.50010514  0.33707610  1
  I  I104  1  0.84137250  0.49971828  0.66093934  1
  I  I105  1  0.83860024  0.83903430  0.00332164  1
  I  I106  1  0.83177540  0.83468932  0.33513380  1
  I  I107  1  0.83100836  0.83424882  0.66288763  1
  I  I108  1  0.00087618  0.16633830  0.17212107  1
  I  I109  1  0.00030171  0.16688040  0.50020939  1
  I  I110  1  0.00380698  0.16356912  0.82687279  1
  I  I111  1  0.00317374  0.49807039  0.16920100  1
  I  I112  1  0.00075290  0.49721331  0.49702487  1
  I  I113  1  0.00053326  0.50107502  0.83360640  1
  I  I114  1  -0.00296235  0.83528367  0.17542861  1
  I  I115  1  -0.00296115  0.83541936  0.49832993  1
  I  I116  1  0.00296544  0.83741676  0.82856599  1
  I  I117  1  0.32980481  0.17102868  0.16765004  1
  I  I118  1  0.33183526  0.16681623  0.50088000  1
  I  I119  1  0.32836062  0.16342431  0.83381323  1
  I  I120  1  0.32790185  0.49360878  0.17408498  1
  I  I121  1  0.32987767  0.49659484  0.49828065  1
  I  I122  1  0.33238023  0.50044711  0.82922499  1
  I  I123  1  0.33326123  0.83251936  0.16671418  1
  I  I124  1  0.33504603  0.83648886  0.50346051  1
  I  I125  1  0.32939008  0.83739706  0.83240423  1
  I  I126  1  0.67053689  0.16224044  0.17390833  1
  I  I127  1  0.66803712  0.16672409  0.49516537  1
  I  I128  1  0.66648753  0.16679868  0.83272914  1
  I  I129  1  0.66710846  0.49965405  0.16844713  1
  I  I130  1  0.66986884  0.49752612  0.50006742  1
  I  I131  1  0.66679622  0.50068914  0.83211961  1
  I  I132  1  0.67192694  0.84022424  0.16926102  1
  I  I133  1  0.66805177  0.83634224  0.49683347  1
  I  I134  1  0.66656366  0.83251077  0.83428649  1
