# generated using pymatgen
data_Cs27Sn14Pb13I81
_symmetry_space_group_name_H-M   'P 1'
_cell_length_a   18.97987615
_cell_length_b   18.97912707
_cell_length_c   18.96967886
_cell_angle_alpha   90.00054628
_cell_angle_beta   89.99969774
_cell_angle_gamma   89.99984503
_symmetry_Int_Tables_number   1
_chemical_formula_structural   Cs27Sn14Pb13I81
_chemical_formula_sum   'Cs27 Sn14 Pb13 I81'
_cell_volume   6833.28581543
_cell_formula_units_Z   1
loop_
 _symmetry_equiv_pos_site_id
 _symmetry_equiv_pos_as_xyz
  1  'x, y, z'
loop_
 _atom_site_type_symbol
 _atom_site_label
 _atom_site_symmetry_multiplicity
 _atom_site_fract_x
 _atom_site_fract_y
 _atom_site_fract_z
 _atom_site_occupancy
  Cs  Cs0  1  0.00442317  -0.00044860  0.00418931  1
  Cs  Cs1  1  0.00115812  -0.00187755  0.33207213  1
  Cs  Cs2  1  -0.00176453  -0.00222898  0.66490183  1
  Cs  Cs3  1  0.00600227  0.33944012  -0.00876824  1
  Cs  Cs4  1  0.00128838  0.33314143  0.33318890  1
  Cs  Cs5  1  -0.00254966  0.33195592  0.67344853  1
  Cs  Cs6  1  -0.00281038  0.66115703  0.00546786  1
  Cs  Cs7  1  -0.00191523  0.66840290  0.33228053  1
  Cs  Cs8  1  -0.00005891  0.66837247  0.66505253  1
  Cs  Cs9  1  0.33258882  0.00278693  -0.00248325  1
  Cs  Cs10  1  0.33247327  0.00006258  0.33334198  1
  Cs  Cs11  1  0.33470826  -0.00221516  0.66899488  1
  Cs  Cs12  1  0.32488182  0.33272920  -0.00038323  1
  Cs  Cs13  1  0.33563261  0.33388965  0.33396103  1
  Cs  Cs14  1  0.33301145  0.33271291  0.66656486  1
  Cs  Cs15  1  0.33634502  0.66579198  -0.00129797  1
  Cs  Cs16  1  0.33492664  0.66617878  0.33597557  1
  Cs  Cs17  1  0.33307638  0.66808123  0.66466787  1
  Cs  Cs18  1  0.66439735  0.00010573  0.00000825  1
  Cs  Cs19  1  0.66702003  0.00321338  0.33263795  1
  Cs  Cs20  1  0.66771399  0.00404138  0.66949785  1
  Cs  Cs21  1  0.67020064  0.33451042  0.00139845  1
  Cs  Cs22  1  0.66447906  0.33015950  0.33352736  1
  Cs  Cs23  1  0.66974413  0.32583061  0.66737324  1
  Cs  Cs24  1  0.66648372  0.66597165  0.00046709  1
  Cs  Cs25  1  0.66580804  0.66650464  0.33306110  1
  Cs  Cs26  1  0.66643949  0.66791885  0.66620478  1
  Sn  Sn27  1  0.50055220  0.16678470  0.16679383  1
  Sn  Sn28  1  0.16638944  0.49993215  0.50004105  1
  Sn  Sn29  1  0.83280983  0.83282358  0.50051393  1
  Sn  Sn30  1  0.16525059  0.83269213  0.83288253  1
  Sn  Sn31  1  0.50049917  0.83319342  0.49935727  1
  Sn  Sn32  1  0.50025639  0.49970533  0.83258886  1
  Sn  Sn33  1  0.83446877  0.83313923  0.83314496  1
  Sn  Sn34  1  0.50064565  0.50038569  0.50041208  1
  Sn  Sn35  1  0.83362255  0.16703669  0.16631995  1
  Sn  Sn36  1  0.49991087  0.83356710  0.16751064  1
  Sn  Sn37  1  0.50001215  0.49979955  0.16658997  1
  Sn  Sn38  1  0.16668665  0.83325063  0.50050065  1
  Sn  Sn39  1  0.16664723  0.16652024  0.50007391  1
  Sn  Sn40  1  0.83283686  0.50040478  0.49988265  1
  Pb  Pb41  1  0.16922933  0.83303188  0.16676899  1
  Pb  Pb42  1  0.83350977  0.16375895  0.83650274  1
  Pb  Pb43  1  0.16658992  0.16386479  0.83035582  1
  Pb  Pb44  1  0.50014831  0.83204334  0.83288845  1
  Pb  Pb45  1  0.49834586  0.16647544  0.49867663  1
  Pb  Pb46  1  0.83560568  0.16639443  0.49851055  1
  Pb  Pb47  1  0.83107513  0.83467090  0.16693756  1
  Pb  Pb48  1  0.50002003  0.17007460  0.83655066  1
  Pb  Pb49  1  0.83137998  0.49777754  0.16900787  1
  Pb  Pb50  1  0.16652539  0.16682342  0.16845445  1
  Pb  Pb51  1  0.83123345  0.50237234  0.83080721  1
  Pb  Pb52  1  0.16855600  0.50282613  0.83061640  1
  Pb  Pb53  1  0.16888863  0.50027879  0.16906776  1
  I  I54  1  0.17036617  -0.00018065  0.16993665  1
  I  I55  1  0.16717504  -0.00164459  0.50250295  1
  I  I56  1  0.16571921  -0.00415603  0.82732883  1
  I  I57  1  0.17011868  0.33346871  0.17037360  1
  I  I58  1  0.16898431  0.33437699  0.49604512  1
  I  I59  1  0.16867186  0.33372851  0.83262312  1
  I  I60  1  0.16755432  0.66679552  0.16887521  1
  I  I61  1  0.16861618  0.66722823  0.50365547  1
  I  I62  1  0.16484923  0.67045914  0.82577721  1
  I  I63  1  0.50351369  -0.00060698  0.17265339  1
  I  I64  1  0.49942296  -0.00328823  0.49545846  1
  I  I65  1  0.49939277  -0.00012691  0.83376165  1
  I  I66  1  0.50422540  0.33401381  0.16906141  1
  I  I67  1  0.49932766  0.33663836  0.49860809  1
  I  I68  1  0.50004997  0.33802493  0.82872006  1
  I  I69  1  0.49851968  0.66648992  0.16889495  1
  I  I70  1  0.49628290  0.66662658  0.49545109  1
  I  I71  1  0.49952845  0.66426634  0.83680610  1
  I  I72  1  0.82567390  0.00229145  0.16946192  1
  I  I73  1  0.83306940  -0.00344622  0.50191459  1
  I  I74  1  0.83427445  -0.00428122  0.82426396  1
  I  I75  1  0.82544444  0.33029357  0.17097524  1
  I  I76  1  0.83164665  0.33610934  0.49665080  1
  I  I77  1  0.83125216  0.33361668  0.83215207  1
  I  I78  1  0.83211098  0.66664178  0.16541326  1
  I  I79  1  0.83600108  0.66757041  0.50231275  1
  I  I80  1  0.83625716  0.67032654  0.83181684  1
  I  I81  1  0.16799918  0.16434833  -0.00013230  1
  I  I82  1  0.16775543  0.16327887  0.33669377  1
  I  I83  1  0.16715231  0.16965789  0.66222509  1
  I  I84  1  0.16915538  0.50056442  -0.00043087  1
  I  I85  1  0.16935131  0.50389441  0.33807032  1
  I  I86  1  0.17038157  0.49867328  0.66207822  1
  I  I87  1  0.16409860  0.83462768  -0.00291253  1
  I  I88  1  0.16467308  0.83312780  0.33731291  1
  I  I89  1  0.16921205  0.83327173  0.66422265  1
  I  I90  1  0.50334119  0.16262342  0.00486331  1
  I  I91  1  0.50239743  0.17016948  0.33055029  1
  I  I92  1  0.49841427  0.16625092  0.66668478  1
  I  I93  1  0.50071596  0.50204795  0.00081745  1
  I  I94  1  0.49916983  0.50079265  0.33441651  1
  I  I95  1  0.49842833  0.50766713  0.66459524  1
  I  I96  1  0.50014510  0.83183637  0.00242966  1
  I  I97  1  0.49966134  0.82892112  0.33481739  1
  I  I98  1  0.49878404  0.82783784  0.66325329  1
  I  I99  1  0.82568108  0.16445412  0.00420186  1
  I  I100  1  0.82797866  0.16466227  0.33102261  1
  I  I101  1  0.83472239  0.16846245  0.66654787  1
  I  I102  1  0.83037819  0.50109540  -0.00007713  1
  I  I103  1  0.83204901  0.50727147  0.33749841  1
  I  I104  1  0.83114320  0.50094697  0.66230995  1
  I  I105  1  0.83583174  0.83640637  -0.00240288  1
  I  I106  1  0.83577580  0.83075542  0.33684096  1
  I  I107  1  0.83186589  0.82984308  0.66456030  1
  I  I108  1  -0.00252318  0.16293981  0.17087708  1
  I  I109  1  0.00329592  0.16567951  0.49601433  1
  I  I110  1  0.00006025  0.17025675  0.83653786  1
  I  I111  1  -0.00021450  0.49770853  0.16827250  1
  I  I112  1  0.00012618  0.50368507  0.49927637  1
  I  I113  1  -0.00002152  0.49843459  0.83253036  1
  I  I114  1  -0.00016996  0.83753038  0.16934212  1
  I  I115  1  0.00007499  0.83114679  0.50442349  1
  I  I116  1  0.00008550  0.83431045  0.82260574  1
  I  I117  1  0.33658253  0.16700272  0.16872544  1
  I  I118  1  0.33050739  0.16602404  0.49676095  1
  I  I119  1  0.33336546  0.16337947  0.83559285  1
  I  I120  1  0.33796658  0.49787627  0.16940239  1
  I  I121  1  0.33424335  0.50301135  0.49897555  1
  I  I122  1  0.33655736  0.50339875  0.83229648  1
  I  I123  1  0.33771420  0.83495048  0.17133625  1
  I  I124  1  0.33350947  0.83088708  0.49969112  1
  I  I125  1  0.33139264  0.83175953  0.82915568  1
  I  I126  1  0.66501518  0.16633715  0.16979705  1
  I  I127  1  0.66672857  0.16674587  0.49977402  1
  I  I128  1  0.66663452  0.16330216  0.82912718  1
  I  I129  1  0.66261920  0.50291901  0.16999011  1
  I  I130  1  0.66546277  0.50794606  0.49883033  1
  I  I131  1  0.66331336  0.50420689  0.83189520  1
  I  I132  1  0.66283519  0.83070678  0.17070376  1
  I  I133  1  0.66633334  0.82595441  0.49954362  1
  I  I134  1  0.66879434  0.83135858  0.82986171  1
