# generated using pymatgen
data_Cs27Sn14Pb13I81
_symmetry_space_group_name_H-M   'P 1'
_cell_length_a   18.98287461
_cell_length_b   18.95932903
_cell_length_c   18.98634523
_cell_angle_alpha   89.99879459
_cell_angle_beta   89.99999404
_cell_angle_gamma   89.99961621
_symmetry_Int_Tables_number   1
_chemical_formula_structural   Cs27Sn14Pb13I81
_chemical_formula_sum   'Cs27 Sn14 Pb13 I81'
_cell_volume   6833.23435978
_cell_formula_units_Z   1
loop_
 _symmetry_equiv_pos_site_id
 _symmetry_equiv_pos_as_xyz
  1  'x, y, z'
loop_
 _atom_site_type_symbol
 _atom_site_label
 _atom_site_symmetry_multiplicity
 _atom_site_fract_x
 _atom_site_fract_y
 _atom_site_fract_z
 _atom_site_occupancy
  Cs  Cs0  1  0.00091210  0.00395938  0.00296430  1
  Cs  Cs1  1  0.00353728  0.00442959  0.33070918  1
  Cs  Cs2  1  0.00020752  -0.00143865  0.66739332  1
  Cs  Cs3  1  -0.00162883  0.32690138  0.00283006  1
  Cs  Cs4  1  -0.00888662  0.32788724  0.33307833  1
  Cs  Cs5  1  0.00021491  0.32748745  0.66353479  1
  Cs  Cs6  1  0.00004067  0.66736155  -0.00321295  1
  Cs  Cs7  1  -0.00130038  0.66592137  0.33641779  1
  Cs  Cs8  1  0.00152198  0.66769478  0.66760292  1
  Cs  Cs9  1  0.33063128  0.00187177  0.00458292  1
  Cs  Cs10  1  0.33509111  0.00058609  0.33154649  1
  Cs  Cs11  1  0.33496345  0.00753953  0.66399973  1
  Cs  Cs12  1  0.33596258  0.33621955  -0.00015437  1
  Cs  Cs13  1  0.33305794  0.33589834  0.33283126  1
  Cs  Cs14  1  0.33265502  0.33312433  0.66705061  1
  Cs  Cs15  1  0.33305407  0.66532199  -0.00036742  1
  Cs  Cs16  1  0.33380771  0.66709757  0.33329755  1
  Cs  Cs17  1  0.33036610  0.66489375  0.66762318  1
  Cs  Cs18  1  0.66830937  -0.00073714  -0.00232827  1
  Cs  Cs19  1  0.66070163  -0.00329006  0.33719599  1
  Cs  Cs20  1  0.66398933  0.00404036  0.66542139  1
  Cs  Cs21  1  0.66510189  0.33192823  0.00206692  1
  Cs  Cs22  1  0.67444510  0.33404869  0.33071583  1
  Cs  Cs23  1  0.66660470  0.32708563  0.66472913  1
  Cs  Cs24  1  0.66714723  0.66693966  -0.00224553  1
  Cs  Cs25  1  0.66747367  0.66726103  0.33432900  1
  Cs  Cs26  1  0.66816992  0.66721862  0.66914828  1
  Sn  Sn27  1  0.83356516  0.50000104  0.83316423  1
  Sn  Sn28  1  0.49961510  0.49958865  0.16679684  1
  Sn  Sn29  1  0.83351875  0.83268111  0.16664862  1
  Sn  Sn30  1  0.83424656  0.83268781  0.50034170  1
  Sn  Sn31  1  0.49932725  0.83273324  0.83318788  1
  Sn  Sn32  1  0.16628417  0.83254431  0.50073509  1
  Sn  Sn33  1  0.49981677  0.50047263  0.50027013  1
  Sn  Sn34  1  0.83357257  0.83255622  0.83313012  1
  Sn  Sn35  1  0.50034943  0.50074936  0.83289219  1
  Sn  Sn36  1  0.49996391  0.16747847  0.16661843  1
  Sn  Sn37  1  0.16652156  0.50045893  0.16678274  1
  Sn  Sn38  1  0.16699225  0.50057732  0.49990540  1
  Sn  Sn39  1  0.16707135  0.83299110  0.83260030  1
  Sn  Sn40  1  0.16606712  0.50025296  0.83335820  1
  Pb  Pb41  1  0.83337318  0.50176910  0.16434957  1
  Pb  Pb42  1  0.83369355  0.50160576  0.50269465  1
  Pb  Pb43  1  0.49981205  0.16707206  0.83514754  1
  Pb  Pb44  1  0.83331372  0.16640156  0.83331223  1
  Pb  Pb45  1  0.50156325  0.83221915  0.16431182  1
  Pb  Pb46  1  0.83046335  0.16320066  0.16656869  1
  Pb  Pb47  1  0.16487220  0.83108822  0.16672791  1
  Pb  Pb48  1  0.16685011  0.16669892  0.83333803  1
  Pb  Pb49  1  0.83335117  0.16262612  0.50010367  1
  Pb  Pb50  1  0.16683350  0.16679385  0.49996079  1
  Pb  Pb51  1  0.49913603  0.83118026  0.50261840  1
  Pb  Pb52  1  0.49983151  0.17049481  0.49718397  1
  Pb  Pb53  1  0.16895166  0.17022208  0.16671614  1
  I  I54  1  0.16689058  -0.00021536  0.16639297  1
  I  I55  1  0.16148413  -0.00389760  0.50560280  1
  I  I56  1  0.16580069  -0.00420247  0.82860967  1
  I  I57  1  0.16734497  0.33874608  0.16499697  1
  I  I58  1  0.17228005  0.33758563  0.50218926  1
  I  I59  1  0.16791506  0.33794043  0.83264977  1
  I  I60  1  0.17467088  0.66295993  0.16565091  1
  I  I61  1  0.16658031  0.66599064  0.50167433  1
  I  I62  1  0.16676284  0.66602876  0.83290978  1
  I  I63  1  0.50393179  0.00144064  0.16379092  1
  I  I64  1  0.50080131  -0.00020130  0.49972584  1
  I  I65  1  0.50179068  -0.00327406  0.83499430  1
  I  I66  1  0.49573527  0.33605599  0.16379373  1
  I  I67  1  0.49333511  0.33878291  0.50731297  1
  I  I68  1  0.49940978  0.33764874  0.83180697  1
  I  I69  1  0.49696972  0.66298947  0.16719584  1
  I  I70  1  0.49867808  0.66302346  0.49433497  1
  I  I71  1  0.50055364  0.66540488  0.83618006  1
  I  I72  1  0.83318658  -0.00476886  0.16255341  1
  I  I73  1  0.83853491  -0.00585775  0.50374937  1
  I  I74  1  0.83269139  -0.00459234  0.83331496  1
  I  I75  1  0.83553223  0.33355110  0.16481488  1
  I  I76  1  0.83342143  0.33360818  0.50126593  1
  I  I77  1  0.83279686  0.33693233  0.83424928  1
  I  I78  1  0.83018242  0.66966071  0.16704762  1
  I  I79  1  0.83424355  0.66990381  0.49882293  1
  I  I80  1  0.83257697  0.66761229  0.83386881  1
  I  I81  1  0.16658493  0.16496539  0.00011835  1
  I  I82  1  0.16791674  0.16451218  0.33326543  1
  I  I83  1  0.16771723  0.17077501  0.66664382  1
  I  I84  1  0.17042404  0.50426864  -0.00101997  1
  I  I85  1  0.17570317  0.50500428  0.33394937  1
  I  I86  1  0.17031590  0.50473082  0.66717237  1
  I  I87  1  0.16619799  0.82890189  -0.00320569  1
  I  I88  1  0.16156915  0.82849942  0.33617469  1
  I  I89  1  0.16113304  0.82453128  0.66743806  1
  I  I90  1  0.50008996  0.17354961  0.00270713  1
  I  I91  1  0.49975903  0.16960576  0.32947784  1
  I  I92  1  0.50073481  0.16644812  0.66646530  1
  I  I93  1  0.49736674  0.49979055  -0.00061681  1
  I  I94  1  0.49265040  0.49612902  0.33307416  1
  I  I95  1  0.49730676  0.50614759  0.66761680  1
  I  I96  1  0.50007762  0.82758113  -0.00381407  1
  I  I97  1  0.50197228  0.83321831  0.33346675  1
  I  I98  1  0.50498599  0.82756099  0.67061127  1
  I  I99  1  0.83301770  0.16434544  0.00004703  1
  I  I100  1  0.83272603  0.16784437  0.33316160  1
  I  I101  1  0.83181153  0.16674695  0.66678054  1
  I  I102  1  0.83293324  0.50732209  -0.00364401  1
  I  I103  1  0.83257317  0.50257756  0.33348740  1
  I  I104  1  0.83230958  0.50698325  0.67066354  1
  I  I105  1  0.83208535  0.82934690  -0.00169585  1
  I  I106  1  0.83693049  0.83282867  0.33396875  1
  I  I107  1  0.83448660  0.82859889  0.66772831  1
  I  I108  1  -0.00013581  0.16731906  0.16675546  1
  I  I109  1  0.00010992  0.17262692  0.49836185  1
  I  I110  1  0.00004981  0.16760098  0.83488343  1
  I  I111  1  0.00263749  0.50435264  0.16637706  1
  I  I112  1  0.00317645  0.50280663  0.49970582  1
  I  I113  1  0.00086016  0.50740918  0.83379582  1
  I  I114  1  -0.00293654  0.82997815  0.16152154  1
  I  I115  1  0.00060193  0.82665997  0.50505432  1
  I  I116  1  0.00000746  0.82677277  0.83230229  1
  I  I117  1  0.33671227  0.16624060  0.16535932  1
  I  I118  1  0.33351804  0.16054698  0.49965981  1
  I  I119  1  0.33338577  0.16533563  0.83444515  1
  I  I120  1  0.33385300  0.49729263  0.16243191  1
  I  I121  1  0.33269933  0.50528038  0.50307874  1
  I  I122  1  0.33334673  0.50524218  0.83413644  1
  I  I123  1  0.33335627  0.83605757  0.16661680  1
  I  I124  1  0.33013880  0.83052114  0.50408958  1
  I  I125  1  0.33268390  0.82603798  0.82993500  1
  I  I126  1  0.66319122  0.17659905  0.16570212  1
  I  I127  1  0.66639351  0.16642940  0.50010904  1
  I  I128  1  0.66654502  0.16612749  0.83437125  1
  I  I129  1  0.66370081  0.49751838  0.16637546  1
  I  I130  1  0.66422614  0.50175684  0.49929974  1
  I  I131  1  0.66594095  0.50697018  0.83448074  1
  I  I132  1  0.66951558  0.83150533  0.16627054  1
  I  I133  1  0.66878479  0.83190594  0.50054164  1
  I  I134  1  0.66704833  0.82703794  0.83459202  1
