# generated using pymatgen
data_Cs27Sn14Pb13I81
_symmetry_space_group_name_H-M   'P 1'
_cell_length_a   18.97189047
_cell_length_b   18.96707134
_cell_length_c   18.98678987
_cell_angle_alpha   90.00012468
_cell_angle_beta   89.99940183
_cell_angle_gamma   90.00177807
_symmetry_Int_Tables_number   1
_chemical_formula_structural   Cs27Sn14Pb13I81
_chemical_formula_sum   'Cs27 Sn14 Pb13 I81'
_cell_volume   6832.22924595
_cell_formula_units_Z   1
loop_
 _symmetry_equiv_pos_site_id
 _symmetry_equiv_pos_as_xyz
  1  'x, y, z'
loop_
 _atom_site_type_symbol
 _atom_site_label
 _atom_site_symmetry_multiplicity
 _atom_site_fract_x
 _atom_site_fract_y
 _atom_site_fract_z
 _atom_site_occupancy
  Cs  Cs0  1  -0.00066981  -0.00783698  -0.00058126  1
  Cs  Cs1  1  -0.00025344  -0.00076801  0.33216591  1
  Cs  Cs2  1  0.00646229  -0.00133804  0.66870036  1
  Cs  Cs3  1  -0.00079450  0.33379360  0.00256953  1
  Cs  Cs4  1  -0.00278766  0.33374233  0.33110639  1
  Cs  Cs5  1  -0.00220205  0.33416924  0.66559677  1
  Cs  Cs6  1  0.00243240  0.67394785  0.00203707  1
  Cs  Cs7  1  0.00270440  0.66765753  0.32932408  1
  Cs  Cs8  1  -0.00089826  0.66572784  0.66832137  1
  Cs  Cs9  1  0.33540786  0.00567187  -0.00519743  1
  Cs  Cs10  1  0.33555580  0.00126364  0.34605983  1
  Cs  Cs11  1  0.32428357  0.00590664  0.65813834  1
  Cs  Cs12  1  0.33456265  0.33374737  -0.00035754  1
  Cs  Cs13  1  0.33204969  0.33270962  0.33091401  1
  Cs  Cs14  1  0.33075518  0.33107821  0.66828243  1
  Cs  Cs15  1  0.33540768  0.66379017  0.00156025  1
  Cs  Cs16  1  0.33214308  0.66781376  0.33215012  1
  Cs  Cs17  1  0.33619719  0.66636563  0.66586365  1
  Cs  Cs18  1  0.66769780  -0.00110541  0.00161268  1
  Cs  Cs19  1  0.66550421  0.00019056  0.33432347  1
  Cs  Cs20  1  0.66621461  -0.00130871  0.66345264  1
  Cs  Cs21  1  0.66625923  0.33279358  0.00057462  1
  Cs  Cs22  1  0.66965529  0.33316902  0.33169743  1
  Cs  Cs23  1  0.67022692  0.33655800  0.66886342  1
  Cs  Cs24  1  0.66505859  0.66778588  -0.00066465  1
  Cs  Cs25  1  0.66591416  0.66591576  0.33448209  1
  Cs  Cs26  1  0.66570725  0.66433242  0.66724661  1
  Sn  Sn27  1  0.83444472  0.16707279  0.16614368  1
  Sn  Sn28  1  0.83332556  0.16530595  0.50016867  1
  Sn  Sn29  1  0.49988202  0.50044954  0.83336226  1
  Sn  Sn30  1  0.49892473  0.49970549  0.49988960  1
  Sn  Sn31  1  0.16601491  0.16626294  0.16650499  1
  Sn  Sn32  1  0.83345673  0.83404663  0.50010726  1
  Sn  Sn33  1  0.50102980  0.50065603  0.16680374  1
  Sn  Sn34  1  0.83383969  0.49966791  0.83500753  1
  Sn  Sn35  1  0.49975892  0.83328228  0.83353221  1
  Sn  Sn36  1  0.49973609  0.83297373  0.16597792  1
  Sn  Sn37  1  0.83316462  0.16689750  0.83373980  1
  Sn  Sn38  1  0.16749143  0.49991008  0.50059034  1
  Sn  Sn39  1  0.83264268  0.49988207  0.16535250  1
  Sn  Sn40  1  0.16642138  0.50002472  0.83284434  1
  Pb  Pb41  1  0.16370827  0.16904172  0.83544510  1
  Pb  Pb42  1  0.50243821  0.16996722  0.50031981  1
  Pb  Pb43  1  0.17072414  0.83703263  0.16660766  1
  Pb  Pb44  1  0.83345564  0.49984000  0.49970437  1
  Pb  Pb45  1  0.17035508  0.83075767  0.83345983  1
  Pb  Pb46  1  0.50207060  0.16664279  0.83302273  1
  Pb  Pb47  1  0.16387400  0.83041224  0.49999549  1
  Pb  Pb48  1  0.16381623  0.16936190  0.49800610  1
  Pb  Pb49  1  0.50135369  0.83124673  0.50041941  1
  Pb  Pb50  1  0.83146643  0.83324923  0.16830865  1
  Pb  Pb51  1  0.50028894  0.16651302  0.16669524  1
  Pb  Pb52  1  0.16671362  0.49903846  0.16624020  1
  Pb  Pb53  1  0.83141070  0.83303779  0.83149753  1
  I  I54  1  0.15725296  0.00452116  0.16601401  1
  I  I55  1  0.16836005  0.00034714  0.49869419  1
  I  I56  1  0.16693818  0.00028517  0.83449472  1
  I  I57  1  0.16540878  0.33134689  0.16730980  1
  I  I58  1  0.16883075  0.33712986  0.50399146  1
  I  I59  1  0.17224992  0.33738989  0.82991106  1
  I  I60  1  0.16356170  0.66665567  0.16736856  1
  I  I61  1  0.16778458  0.66228893  0.50223421  1
  I  I62  1  0.15979519  0.66197739  0.83090718  1
  I  I63  1  0.50146954  -0.00282759  0.16100441  1
  I  I64  1  0.50049421  -0.00005243  0.49885842  1
  I  I65  1  0.50471492  -0.00293289  0.84088183  1
  I  I66  1  0.50175376  0.33672708  0.16561805  1
  I  I67  1  0.49915236  0.33842337  0.49960688  1
  I  I68  1  0.49915626  0.33726948  0.83476136  1
  I  I69  1  0.50594401  0.66433266  0.16597655  1
  I  I70  1  0.50101638  0.66279823  0.50011992  1
  I  I71  1  0.50294283  0.66417144  0.83404093  1
  I  I72  1  0.83524230  0.00300616  0.16490624  1
  I  I73  1  0.83112100  0.00114368  0.49886200  1
  I  I74  1  0.83031928  0.00272549  0.83601666  1
  I  I75  1  0.83094371  0.33394334  0.16876894  1
  I  I76  1  0.83298185  0.33137542  0.49936222  1
  I  I77  1  0.83061395  0.33484486  0.83145311  1
  I  I78  1  0.83099799  0.66347721  0.16449666  1
  I  I79  1  0.83207645  0.66794206  0.50026085  1
  I  I80  1  0.83420014  0.66296346  0.83513370  1
  I  I81  1  0.16187354  0.17068181  0.00302657  1
  I  I82  1  0.16112009  0.17076525  0.33044539  1
  I  I83  1  0.16586594  0.16623005  0.66669584  1
  I  I84  1  0.16899578  0.49729087  -0.00259707  1
  I  I85  1  0.16876703  0.49789362  0.33518023  1
  I  I86  1  0.16874404  0.49954011  0.66729956  1
  I  I87  1  0.16185081  0.83062063  0.00008044  1
  I  I88  1  0.16827751  0.82952067  0.33326091  1
  I  I89  1  0.16824390  0.83583195  0.66672018  1
  I  I90  1  0.50176252  0.17051788  0.00003643  1
  I  I91  1  0.50251263  0.16696773  0.33330080  1
  I  I92  1  0.50296462  0.16664141  0.66666730  1
  I  I93  1  0.50090187  0.50355550  -0.00009443  1
  I  I94  1  0.50155355  0.50319111  0.33245569  1
  I  I95  1  0.50164474  0.50374855  0.66768469  1
  I  I96  1  0.50226299  0.82368362  0.00002792  1
  I  I97  1  0.50250298  0.82856215  0.33101026  1
  I  I98  1  0.50437085  0.82604121  0.66923565  1
  I  I99  1  0.83583114  0.17368362  0.00045583  1
  I  I100  1  0.83632701  0.16896179  0.33251927  1
  I  I101  1  0.82991734  0.16983063  0.66703501  1
  I  I102  1  0.82985802  0.49191110  -0.00016636  1
  I  I103  1  0.83011287  0.49696964  0.33090463  1
  I  I104  1  0.83058011  0.49734318  0.66904391  1
  I  I105  1  0.83326862  0.83542589  -0.00003980  1
  I  I106  1  0.82971042  0.83523060  0.33594897  1
  I  I107  1  0.82958069  0.83518660  0.66387147  1
  I  I108  1  -0.00252877  0.17507565  0.16790058  1
  I  I109  1  -0.00430996  0.16698156  0.50198094  1
  I  I110  1  -0.00452086  0.17321342  0.83020220  1
  I  I111  1  -0.00290712  0.49655391  0.16577664  1
  I  I112  1  0.00176130  0.49918391  0.50324204  1
  I  I113  1  -0.00109496  0.49372877  0.83128195  1
  I  I114  1  -0.00000215  0.83007100  0.16890397  1
  I  I115  1  -0.00403819  0.83511102  0.49958360  1
  I  I116  1  -0.00004143  0.83228284  0.83154945  1
  I  I117  1  0.33118220  0.16921094  0.16613981  1
  I  I118  1  0.33294933  0.16534135  0.49762098  1
  I  I119  1  0.33301581  0.16792205  0.83635503  1
  I  I120  1  0.33623498  0.50120688  0.16497163  1
  I  I121  1  0.33423552  0.50117423  0.50240015  1
  I  I122  1  0.33435198  0.50499100  0.83315974  1
  I  I123  1  0.33839462  0.82408613  0.16358963  1
  I  I124  1  0.33345316  0.83392772  0.49949306  1
  I  I125  1  0.33835029  0.82613394  0.83796681  1
  I  I126  1  0.67012469  0.16917019  0.16686414  1
  I  I127  1  0.67086499  0.16592765  0.49585973  1
  I  I128  1  0.67059480  0.17386461  0.83664956  1
  I  I129  1  0.66683886  0.49732974  0.16506916  1
  I  I130  1  0.66463252  0.50006834  0.50183070  1
  I  I131  1  0.66671222  0.49951454  0.83286652  1
  I  I132  1  0.66365328  0.83222187  0.16368681  1
  I  I133  1  0.66921419  0.83458800  0.49958790  1
  I  I134  1  0.66375109  0.82596603  0.83641491  1
