# generated using pymatgen
data_Cs27Sn13Pb14I81
_symmetry_space_group_name_H-M   'P 1'
_cell_length_a   18.97746581
_cell_length_b   18.97440360
_cell_length_c   18.97714581
_cell_angle_alpha   89.99840708
_cell_angle_beta   90.00175031
_cell_angle_gamma   89.99951476
_symmetry_Int_Tables_number   1
_chemical_formula_structural   Cs27Sn13Pb14I81
_chemical_formula_sum   'Cs27 Sn13 Pb14 I81'
_cell_volume   6833.40633678
_cell_formula_units_Z   1
loop_
 _symmetry_equiv_pos_site_id
 _symmetry_equiv_pos_as_xyz
  1  'x, y, z'
loop_
 _atom_site_type_symbol
 _atom_site_label
 _atom_site_symmetry_multiplicity
 _atom_site_fract_x
 _atom_site_fract_y
 _atom_site_fract_z
 _atom_site_occupancy
  Cs  Cs0  1  0.00154428  -0.00173042  0.00100732  1
  Cs  Cs1  1  0.00430428  -0.00265249  0.32528574  1
  Cs  Cs2  1  0.00046354  0.00166506  0.66868813  1
  Cs  Cs3  1  -0.00690135  0.33676487  -0.00289465  1
  Cs  Cs4  1  0.00096298  0.33298918  0.33713582  1
  Cs  Cs5  1  0.00209320  0.33686392  0.66577508  1
  Cs  Cs6  1  -0.00112724  0.66608300  0.00064239  1
  Cs  Cs7  1  -0.00939149  0.66963395  0.33349214  1
  Cs  Cs8  1  0.00058766  0.66075587  0.66551102  1
  Cs  Cs9  1  0.33160058  -0.00108144  0.00011212  1
  Cs  Cs10  1  0.32780856  0.00176697  0.33011022  1
  Cs  Cs11  1  0.33282151  -0.00164377  0.66763919  1
  Cs  Cs12  1  0.33637662  0.33579415  0.00038078  1
  Cs  Cs13  1  0.33350289  0.33294463  0.33460523  1
  Cs  Cs14  1  0.33212396  0.33334648  0.66552167  1
  Cs  Cs15  1  0.33485315  0.66589063  0.00191563  1
  Cs  Cs16  1  0.33498553  0.66572430  0.32881761  1
  Cs  Cs17  1  0.33418399  0.66907359  0.66690286  1
  Cs  Cs18  1  0.66757769  0.00416854  -0.00311290  1
  Cs  Cs19  1  0.67014702  -0.00013155  0.33470735  1
  Cs  Cs20  1  0.66705689  -0.00034512  0.66759725  1
  Cs  Cs21  1  0.66595224  0.33260865  0.00132998  1
  Cs  Cs22  1  0.66468675  0.33259688  0.33103597  1
  Cs  Cs23  1  0.66585852  0.33041551  0.66738984  1
  Cs  Cs24  1  0.66392229  0.66379206  0.00040828  1
  Cs  Cs25  1  0.67136964  0.66874985  0.33618875  1
  Cs  Cs26  1  0.66606659  0.67120174  0.66222002  1
  Sn  Sn27  1  0.50030031  0.83327175  0.16666546  1
  Sn  Sn28  1  0.49988254  0.49946960  0.83267321  1
  Sn  Sn29  1  0.16672443  0.83309916  0.50054729  1
  Sn  Sn30  1  0.49975483  0.49966645  0.50016301  1
  Sn  Sn31  1  0.83356336  0.16588794  0.83228365  1
  Sn  Sn32  1  0.50048344  0.16698694  0.50082737  1
  Sn  Sn33  1  0.16685566  0.49975494  0.16678213  1
  Sn  Sn34  1  0.83423243  0.83358983  0.83316273  1
  Sn  Sn35  1  0.83305126  0.16633125  0.50075098  1
  Sn  Sn36  1  0.16571198  0.83356686  0.83244288  1
  Sn  Sn37  1  0.49953730  0.16747412  0.83246199  1
  Sn  Sn38  1  0.49925743  0.50105790  0.16707066  1
  Sn  Sn39  1  0.16671685  0.16651534  0.83339428  1
  Pb  Pb40  1  0.83286002  0.49990345  0.16685240  1
  Pb  Pb41  1  0.16804414  0.83131605  0.16596992  1
  Pb  Pb42  1  0.83034881  0.49995391  0.83302785  1
  Pb  Pb43  1  0.49845401  0.83434928  0.49772314  1
  Pb  Pb44  1  0.49996523  0.16685000  0.16701113  1
  Pb  Pb45  1  0.16882728  0.50249945  0.49771199  1
  Pb  Pb46  1  0.83061112  0.49723738  0.50022531  1
  Pb  Pb47  1  0.49985856  0.83381256  0.83466118  1
  Pb  Pb48  1  0.16683846  0.16515022  0.50190682  1
  Pb  Pb49  1  0.16658493  0.16979696  0.16337733  1
  Pb  Pb50  1  0.83038106  0.83349797  0.16360170  1
  Pb  Pb51  1  0.16883330  0.50030367  0.83470577  1
  Pb  Pb52  1  0.83599603  0.83609834  0.50239927  1
  Pb  Pb53  1  0.83353090  0.16666053  0.16671826  1
  I  I54  1  0.16890341  -0.00018781  0.16816570  1
  I  I55  1  0.17020370  -0.00267591  0.50162194  1
  I  I56  1  0.16909705  0.00017167  0.83031314  1
  I  I57  1  0.17647579  0.33722621  0.16637659  1
  I  I58  1  0.16531571  0.33331055  0.50004294  1
  I  I59  1  0.16510106  0.33053033  0.83516231  1
  I  I60  1  0.17270031  0.66377389  0.16367902  1
  I  I61  1  0.16945941  0.67015209  0.50796112  1
  I  I62  1  0.16421843  0.66961757  0.83167155  1
  I  I63  1  0.49965046  -0.00223514  0.16493984  1
  I  I64  1  0.50272669  0.00334895  0.50497905  1
  I  I65  1  0.50033574  0.00310435  0.83068731  1
  I  I66  1  0.49660841  0.33649128  0.16579446  1
  I  I67  1  0.50268849  0.33306718  0.49893481  1
  I  I68  1  0.49986682  0.33244127  0.83546999  1
  I  I69  1  0.49538258  0.66504615  0.16448936  1
  I  I70  1  0.49681177  0.66416207  0.50241650  1
  I  I71  1  0.49941715  0.66433022  0.83284727  1
  I  I72  1  0.83090086  -0.00011313  0.16809174  1
  I  I73  1  0.82387792  0.00381038  0.50328644  1
  I  I74  1  0.83069226  0.00128568  0.83029509  1
  I  I75  1  0.83072265  0.33329283  0.16270227  1
  I  I76  1  0.83343842  0.32916790  0.50768590  1
  I  I77  1  0.83585895  0.32971815  0.83059455  1
  I  I78  1  0.83413211  0.66683747  0.16457724  1
  I  I79  1  0.83245405  0.66703867  0.50065070  1
  I  I80  1  0.83706812  0.66953635  0.83545594  1
  I  I81  1  0.16828079  0.15914383  -0.00510926  1
  I  I82  1  0.16720878  0.16448476  0.33349221  1
  I  I83  1  0.16802301  0.16560044  0.67037294  1
  I  I84  1  0.17513532  0.50110104  0.00239045  1
  I  I85  1  0.17480540  0.50088359  0.33007284  1
  I  I86  1  0.16874643  0.49911722  0.66668467  1
  I  I87  1  0.16463712  0.83683716  -0.00328785  1
  I  I88  1  0.17065917  0.83309537  0.33516701  1
  I  I89  1  0.16602050  0.83711384  0.66842514  1
  I  I90  1  0.50103957  0.16927417  -0.00335631  1
  I  I91  1  0.50473566  0.16938940  0.33667078  1
  I  I92  1  0.50051451  0.17387187  0.66769695  1
  I  I93  1  0.49671746  0.50003474  -0.00012496  1
  I  I94  1  0.49558298  0.49901864  0.33331480  1
  I  I95  1  0.50039128  0.49465768  0.66683258  1
  I  I96  1  0.49811882  0.82844947  0.00228830  1
  I  I97  1  0.49672339  0.82882098  0.33021464  1
  I  I98  1  0.50072502  0.82995132  0.66675101  1
  I  I99  1  0.83169716  0.16375872  -0.00419838  1
  I  I100  1  0.82584536  0.16853489  0.33690082  1
  I  I101  1  0.83028275  0.16265318  0.66820157  1
  I  I102  1  0.82998267  0.49746626  -0.00033852  1
  I  I103  1  0.83150958  0.49842061  0.33360165  1
  I  I104  1  0.83306934  0.50249905  0.66679238  1
  I  I105  1  0.83969540  0.84042533  -0.00436549  1
  I  I106  1  0.83458115  0.83452296  0.33356675  1
  I  I107  1  0.83157360  0.83599782  0.67039665  1
  I  I108  1  0.00023216  0.16793627  0.16789877  1
  I  I109  1  -0.00247033  0.16477327  0.50497174  1
  I  I110  1  -0.00027859  0.16139779  0.83045954  1
  I  I111  1  0.00283320  0.49973078  0.16399897  1
  I  I112  1  0.00013833  0.49919582  0.49745301  1
  I  I113  1  0.00009623  0.49759319  0.83701050  1
  I  I114  1  0.00002950  0.83143925  0.16838765  1
  I  I115  1  0.00363747  0.83443561  0.50054747  1
  I  I116  1  0.00073167  0.84211381  0.83105603  1
  I  I117  1  0.33348305  0.16429891  0.16634526  1
  I  I118  1  0.33639883  0.16953659  0.50404688  1
  I  I119  1  0.33415693  0.16627545  0.83016386  1
  I  I120  1  0.33560816  0.50397473  0.16539188  1
  I  I121  1  0.33734234  0.49311471  0.50181023  1
  I  I122  1  0.33716161  0.49635135  0.83278614  1
  I  I123  1  0.33598806  0.83072092  0.16376514  1
  I  I124  1  0.33089903  0.83520153  0.50731286  1
  I  I125  1  0.33091190  0.83654360  0.83197237  1
  I  I126  1  0.66635068  0.16859047  0.16150522  1
  I  I127  1  0.66537248  0.17018952  0.50812993  1
  I  I128  1  0.66616195  0.16608774  0.83044308  1
  I  I129  1  0.66245980  0.50292999  0.16563523  1
  I  I130  1  0.66190507  0.50053076  0.49782003  1
  I  I131  1  0.66196069  0.49635645  0.83707945  1
  I  I132  1  0.66256352  0.82596801  0.16631528  1
  I  I133  1  0.66672426  0.83124278  0.49999815  1
  I  I134  1  0.66855548  0.83675020  0.83621865  1
