# generated using pymatgen
data_Cs27Sn13Pb14I81
_symmetry_space_group_name_H-M   'P 1'
_cell_length_a   18.97735898
_cell_length_b   18.97731692
_cell_length_c   18.97718852
_cell_angle_alpha   89.99872715
_cell_angle_beta   90.00045006
_cell_angle_gamma   90.00201127
_symmetry_Int_Tables_number   1
_chemical_formula_structural   Cs27Sn13Pb14I81
_chemical_formula_sum   'Cs27 Sn13 Pb14 I81'
_cell_volume   6834.43243704
_cell_formula_units_Z   1
loop_
 _symmetry_equiv_pos_site_id
 _symmetry_equiv_pos_as_xyz
  1  'x, y, z'
loop_
 _atom_site_type_symbol
 _atom_site_label
 _atom_site_symmetry_multiplicity
 _atom_site_fract_x
 _atom_site_fract_y
 _atom_site_fract_z
 _atom_site_occupancy
  Cs  Cs0  1  -0.00003787  -0.00132446  0.00020809  1
  Cs  Cs1  1  0.00135632  -0.00057288  0.33250033  1
  Cs  Cs2  1  0.00078762  -0.00000812  0.66662643  1
  Cs  Cs3  1  -0.00977688  0.34041848  0.00390690  1
  Cs  Cs4  1  -0.00199446  0.33382472  0.32746892  1
  Cs  Cs5  1  0.00102827  0.33303665  0.66967455  1
  Cs  Cs6  1  -0.00070549  0.66395508  0.00166190  1
  Cs  Cs7  1  0.00003776  0.66774377  0.33277004  1
  Cs  Cs8  1  0.00122520  0.66632708  0.66600400  1
  Cs  Cs9  1  0.33269041  0.00050034  -0.00099178  1
  Cs  Cs10  1  0.33194867  0.00592081  0.33066402  1
  Cs  Cs11  1  0.33287546  0.00024982  0.66844368  1
  Cs  Cs12  1  0.33282313  0.33292787  -0.00139663  1
  Cs  Cs13  1  0.33539668  0.33079031  0.33342707  1
  Cs  Cs14  1  0.33146110  0.33368210  0.66747807  1
  Cs  Cs15  1  0.33443507  0.66655246  0.00082735  1
  Cs  Cs16  1  0.33277416  0.66564307  0.33244864  1
  Cs  Cs17  1  0.33376433  0.66649271  0.66761272  1
  Cs  Cs18  1  0.66759259  -0.00208604  -0.00067727  1
  Cs  Cs19  1  0.66712207  0.00575503  0.33955129  1
  Cs  Cs20  1  0.66804068  -0.00164946  0.66078270  1
  Cs  Cs21  1  0.67267316  0.33179855  0.00000395  1
  Cs  Cs22  1  0.66528480  0.32825312  0.33194765  1
  Cs  Cs23  1  0.66898302  0.33186546  0.66811031  1
  Cs  Cs24  1  0.66517691  0.66844652  0.00133158  1
  Cs  Cs25  1  0.66729409  0.66650443  0.33323433  1
  Cs  Cs26  1  0.66370355  0.66952416  0.66464113  1
  Sn  Sn27  1  0.50077216  0.83328749  0.16704011  1
  Sn  Sn28  1  0.49961902  0.16728392  0.83317687  1
  Sn  Sn29  1  0.16643561  0.49972119  0.50012383  1
  Sn  Sn30  1  0.16693126  0.16648454  0.83316707  1
  Sn  Sn31  1  0.49983084  0.50057333  0.16666280  1
  Sn  Sn32  1  0.83414756  0.83311419  0.83357425  1
  Sn  Sn33  1  0.16588796  0.83361524  0.83271867  1
  Sn  Sn34  1  0.83326250  0.49992274  0.50032849  1
  Sn  Sn35  1  0.50023867  0.50013718  0.50004372  1
  Sn  Sn36  1  0.16674176  0.16688891  0.50082925  1
  Sn  Sn37  1  0.49991951  0.49902294  0.83335612  1
  Sn  Sn38  1  0.16715737  0.83345137  0.50074050  1
  Sn  Sn39  1  0.83215415  0.83327673  0.16634765  1
  Pb  Pb40  1  0.83648395  0.16954505  0.50024312  1
  Pb  Pb41  1  0.16806780  0.50000697  0.83198222  1
  Pb  Pb42  1  0.16685834  0.83329829  0.16609694  1
  Pb  Pb43  1  0.83049128  0.50278326  0.83133411  1
  Pb  Pb44  1  0.16647412  0.16692767  0.16532604  1
  Pb  Pb45  1  0.83058728  0.50216759  0.16895295  1
  Pb  Pb46  1  0.50001959  0.16673327  0.16384538  1
  Pb  Pb47  1  0.49800541  0.16912694  0.50257723  1
  Pb  Pb48  1  0.16901262  0.49987643  0.16925266  1
  Pb  Pb49  1  0.83388307  0.16418307  0.83323357  1
  Pb  Pb50  1  0.83321857  0.16340657  0.16664948  1
  Pb  Pb51  1  0.49963199  0.83351262  0.83459808  1
  Pb  Pb52  1  0.49732536  0.83178272  0.49728686  1
  Pb  Pb53  1  0.83544466  0.83182000  0.49987432  1
  I  I54  1  0.16908169  -0.00023502  0.17240901  1
  I  I55  1  0.16630877  -0.00029463  0.50415006  1
  I  I56  1  0.16935759  -0.00044268  0.82539860  1
  I  I57  1  0.16905673  0.33347105  0.16734224  1
  I  I58  1  0.16835685  0.33364790  0.50440275  1
  I  I59  1  0.17177133  0.33072129  0.82732617  1
  I  I60  1  0.16631600  0.66677772  0.16721966  1
  I  I61  1  0.16721904  0.66644985  0.50362590  1
  I  I62  1  0.16527482  0.66944016  0.82884700  1
  I  I63  1  0.50274768  -0.00295482  0.16395496  1
  I  I64  1  0.49904414  0.00015859  0.49983266  1
  I  I65  1  0.49769351  0.00206740  0.83636139  1
  I  I66  1  0.49782524  0.33664589  0.17034525  1
  I  I67  1  0.49763004  0.33766705  0.49474590  1
  I  I68  1  0.49309702  0.33398184  0.83358877  1
  I  I69  1  0.50269301  0.66607715  0.16458619  1
  I  I70  1  0.49703781  0.66310412  0.50526722  1
  I  I71  1  0.49970222  0.66416031  0.83143158  1
  I  I72  1  0.82722425  -0.00494175  0.16345845  1
  I  I73  1  0.83437204  -0.00014453  0.49941415  1
  I  I74  1  0.83252937  -0.00394839  0.83640069  1
  I  I75  1  0.83325296  0.33382149  0.16754621  1
  I  I76  1  0.83307690  0.33769840  0.50033570  1
  I  I77  1  0.83533679  0.33369489  0.83230350  1
  I  I78  1  0.83187627  0.66989875  0.16308352  1
  I  I79  1  0.83509263  0.66382230  0.50026270  1
  I  I80  1  0.83888752  0.67047540  0.83664287  1
  I  I81  1  0.17268269  0.15875347  -0.00435486  1
  I  I82  1  0.16676501  0.16568819  0.33666817  1
  I  I83  1  0.17122692  0.16564031  0.66675581  1
  I  I84  1  0.16923533  0.50081790  -0.00015245  1
  I  I85  1  0.16838770  0.50158593  0.33830159  1
  I  I86  1  0.17004044  0.50104537  0.66326576  1
  I  I87  1  0.16655336  0.83878830  -0.00336246  1
  I  I88  1  0.16704298  0.83248313  0.33626537  1
  I  I89  1  0.16189327  0.83335281  0.66705706  1
  I  I90  1  0.49232459  0.17146897  -0.00395070  1
  I  I91  1  0.49819740  0.16708138  0.33354229  1
  I  I92  1  0.49750628  0.17058837  0.67038379  1
  I  I93  1  0.49882735  0.50128192  -0.00019263  1
  I  I94  1  0.49866380  0.50641993  0.33385751  1
  I  I95  1  0.49874567  0.49637172  0.66628990  1
  I  I96  1  0.49899850  0.82718252  0.00244134  1
  I  I97  1  0.50435028  0.82705387  0.32949261  1
  I  I98  1  0.50228688  0.83169918  0.66659721  1
  I  I99  1  0.83558694  0.16974863  -0.00033219  1
  I  I100  1  0.83453930  0.16482445  0.33367888  1
  I  I101  1  0.83014227  0.16397911  0.66673208  1
  I  I102  1  0.83240629  0.49928576  0.00001419  1
  I  I103  1  0.83390503  0.50333581  0.33680377  1
  I  I104  1  0.83214158  0.50282101  0.66346035  1
  I  I105  1  0.83528831  0.83304989  -0.00037205  1
  I  I106  1  0.83096329  0.83023740  0.33094836  1
  I  I107  1  0.83565389  0.83179880  0.66909357  1
  I  I108  1  0.00000238  0.16510183  0.16618444  1
  I  I109  1  0.00483825  0.16748041  0.50732023  1
  I  I110  1  0.00365280  0.16304654  0.82752209  1
  I  I111  1  -0.00046205  0.50114514  0.16824469  1
  I  I112  1  0.00110035  0.50122075  0.50126846  1
  I  I113  1  -0.00018534  0.49808027  0.83094103  1
  I  I114  1  -0.00243098  0.83395484  0.16614383  1
  I  I115  1  0.00366262  0.83037307  0.49938690  1
  I  I116  1  0.00117077  0.83858602  0.83463369  1
  I  I117  1  0.33344810  0.16391006  0.16903184  1
  I  I118  1  0.32975901  0.16789760  0.50157544  1
  I  I119  1  0.33256055  0.16429671  0.82937047  1
  I  I120  1  0.33750171  0.50735502  0.16805625  1
  I  I121  1  0.33332321  0.50072461  0.49986053  1
  I  I122  1  0.33650153  0.50197395  0.83089213  1
  I  I123  1  0.33606037  0.82848655  0.16677241  1
  I  I124  1  0.32925894  0.83037687  0.50576009  1
  I  I125  1  0.33065587  0.83388156  0.83035089  1
  I  I126  1  0.66628904  0.16881311  0.16535823  1
  I  I127  1  0.66656216  0.16757562  0.50078338  1
  I  I128  1  0.66390874  0.17077884  0.83532717  1
  I  I129  1  0.66259462  0.50278563  0.16850494  1
  I  I130  1  0.66557804  0.50246995  0.50013511  1
  I  I131  1  0.66227922  0.49595791  0.83110183  1
  I  I132  1  0.66649732  0.82766593  0.15943391  1
  I  I133  1  0.66657624  0.83055651  0.50262156  1
  I  I134  1  0.66851620  0.83177905  0.83658088  1
