# generated using pymatgen
data_Cs27Sn14Pb13I81
_symmetry_space_group_name_H-M   'P 1'
_cell_length_a   18.98188102
_cell_length_b   18.97621381
_cell_length_c   18.96948847
_cell_angle_alpha   89.99962666
_cell_angle_beta   90.00060633
_cell_angle_gamma   89.99986469
_symmetry_Int_Tables_number   1
_chemical_formula_structural   Cs27Sn14Pb13I81
_chemical_formula_sum   'Cs27 Sn14 Pb13 I81'
_cell_volume   6832.89003799
_cell_formula_units_Z   1
loop_
 _symmetry_equiv_pos_site_id
 _symmetry_equiv_pos_as_xyz
  1  'x, y, z'
loop_
 _atom_site_type_symbol
 _atom_site_label
 _atom_site_symmetry_multiplicity
 _atom_site_fract_x
 _atom_site_fract_y
 _atom_site_fract_z
 _atom_site_occupancy
  Cs  Cs0  1  -0.00070054  -0.00121283  0.00664829  1
  Cs  Cs1  1  0.00189968  0.00091402  0.33148710  1
  Cs  Cs2  1  0.00032855  0.00258230  0.66557364  1
  Cs  Cs3  1  -0.00188096  0.33639198  0.00045529  1
  Cs  Cs4  1  0.00079372  0.33230336  0.33454117  1
  Cs  Cs5  1  0.00160956  0.33013233  0.66475981  1
  Cs  Cs6  1  -0.00883499  0.66491343  -0.00114123  1
  Cs  Cs7  1  0.00269074  0.66647791  0.33369627  1
  Cs  Cs8  1  0.00101620  0.66632537  0.66774032  1
  Cs  Cs9  1  0.33431175  0.00073757  0.00066165  1
  Cs  Cs10  1  0.33144857  -0.00222472  0.33307809  1
  Cs  Cs11  1  0.33319102  -0.00069944  0.66619806  1
  Cs  Cs12  1  0.34191164  0.33310297  -0.00310709  1
  Cs  Cs13  1  0.33282812  0.33580763  0.33229554  1
  Cs  Cs14  1  0.33264473  0.33364576  0.66916002  1
  Cs  Cs15  1  0.33131279  0.66804083  -0.00352670  1
  Cs  Cs16  1  0.33333648  0.66757162  0.33401329  1
  Cs  Cs17  1  0.33221049  0.66748016  0.66600635  1
  Cs  Cs18  1  0.66636752  0.00103302  0.00056630  1
  Cs  Cs19  1  0.66703570  -0.00010953  0.33602383  1
  Cs  Cs20  1  0.66740323  -0.00026737  0.66624162  1
  Cs  Cs21  1  0.65844134  0.33864345  0.00910192  1
  Cs  Cs22  1  0.66589451  0.33725615  0.32834867  1
  Cs  Cs23  1  0.66409240  0.33011967  0.66668978  1
  Cs  Cs24  1  0.67827494  0.66270142  0.00115753  1
  Cs  Cs25  1  0.66340302  0.66385819  0.33409962  1
  Cs  Cs26  1  0.66723131  0.66773930  0.66657048  1
  Sn  Sn27  1  0.16561744  0.16550565  0.83279001  1
  Sn  Sn28  1  0.16700926  0.16662348  0.50032499  1
  Sn  Sn29  1  0.83321945  0.16687096  0.50031411  1
  Sn  Sn30  1  0.16679351  0.83450737  0.83262682  1
  Sn  Sn31  1  0.49965733  0.16603232  0.49990609  1
  Sn  Sn32  1  0.50005997  0.83322098  0.16623427  1
  Sn  Sn33  1  0.83378160  0.83329072  0.50018025  1
  Sn  Sn34  1  0.83391697  0.16688638  0.83293220  1
  Sn  Sn35  1  0.49982528  0.83422558  0.50030528  1
  Sn  Sn36  1  0.16587657  0.49997978  0.49929658  1
  Sn  Sn37  1  0.16695674  0.50012471  0.16686039  1
  Sn  Sn38  1  0.49975161  0.83323801  0.83339069  1
  Sn  Sn39  1  0.16641744  0.83340568  0.50061777  1
  Sn  Sn40  1  0.83422812  0.49973719  0.50052658  1
  Pb  Pb41  1  0.16680012  0.16884888  0.16589942  1
  Pb  Pb42  1  0.50025542  0.50352700  0.83306531  1
  Pb  Pb43  1  0.16658248  0.49979544  0.83287116  1
  Pb  Pb44  1  0.83589600  0.49993514  0.16961740  1
  Pb  Pb45  1  0.49969367  0.16419693  0.16979646  1
  Pb  Pb46  1  0.16802062  0.83162129  0.16600082  1
  Pb  Pb47  1  0.83394684  0.83544082  0.83121115  1
  Pb  Pb48  1  0.83343220  0.16666405  0.16659130  1
  Pb  Pb49  1  0.49997967  0.16471962  0.83133660  1
  Pb  Pb50  1  0.49964690  0.50002903  0.50035634  1
  Pb  Pb51  1  0.49721636  0.50313396  0.16679159  1
  Pb  Pb52  1  0.83341457  0.49618987  0.83030930  1
  Pb  Pb53  1  0.83072100  0.83349353  0.16981194  1
  I  I54  1  0.16801697  -0.00017132  0.16967867  1
  I  I55  1  0.16564969  -0.00022436  0.50382399  1
  I  I56  1  0.16767821  -0.00030360  0.82416438  1
  I  I57  1  0.16537775  0.33652318  0.17443979  1
  I  I58  1  0.16408935  0.33256389  0.49974277  1
  I  I59  1  0.16213849  0.32998353  0.82854772  1
  I  I60  1  0.16910357  0.66407116  0.17420138  1
  I  I61  1  0.16501530  0.66765458  0.49978484  1
  I  I62  1  0.17284574  0.66984916  0.82888417  1
  I  I63  1  0.49751152  -0.00376756  0.16610258  1
  I  I64  1  0.50015474  -0.00129456  0.49990686  1
  I  I65  1  0.49806315  -0.00352154  0.83328484  1
  I  I66  1  0.50034995  0.33351991  0.16782210  1
  I  I67  1  0.50001644  0.33016016  0.50097831  1
  I  I68  1  0.49857898  0.33276458  0.83123448  1
  I  I69  1  0.49874655  0.67084653  0.17304195  1
  I  I70  1  0.50000456  0.67042053  0.49974759  1
  I  I71  1  0.49199667  0.67224938  0.82766733  1
  I  I72  1  0.83448397  -0.00011926  0.17053220  1
  I  I73  1  0.83402024  0.00024717  0.50325027  1
  I  I74  1  0.83402596  0.00308191  0.82450830  1
  I  I75  1  0.83304059  0.33343336  0.16896746  1
  I  I76  1  0.83707812  0.33247952  0.50360761  1
  I  I77  1  0.84208320  0.32835046  0.82552988  1
  I  I78  1  0.83285715  0.66673869  0.16715685  1
  I  I79  1  0.83547497  0.66726640  0.49849581  1
  I  I80  1  0.83284213  0.66675190  0.83234530  1
  I  I81  1  0.16160673  0.16213068  -0.00389225  1
  I  I82  1  0.16559889  0.16338860  0.33721922  1
  I  I83  1  0.16611932  0.16762655  0.66466820  1
  I  I84  1  0.16914775  0.50109021  0.00226949  1
  I  I85  1  0.16325034  0.50073879  0.33638417  1
  I  I86  1  0.16297289  0.50057054  0.66296266  1
  I  I87  1  0.17273824  0.83665238  -0.00343860  1
  I  I88  1  0.16727240  0.83561343  0.33696458  1
  I  I89  1  0.17139572  0.83170594  0.66483343  1
  I  I90  1  0.49966988  0.16515057  -0.00027055  1
  I  I91  1  0.50009755  0.16087542  0.33849098  1
  I  I92  1  0.50018779  0.16065389  0.66285458  1
  I  I93  1  0.49672081  0.49900595  0.00016796  1
  I  I94  1  0.50203443  0.50207660  0.33387256  1
  I  I95  1  0.49704211  0.50229402  0.66606502  1
  I  I96  1  0.49148354  0.83307667  -0.00090654  1
  I  I97  1  0.49986712  0.83679286  0.33555807  1
  I  I98  1  0.49874571  0.83715293  0.66514450  1
  I  I99  1  0.84026788  0.16362926  -0.00355908  1
  I  I100  1  0.83415687  0.16633333  0.33808268  1
  I  I101  1  0.83475041  0.16623225  0.66418715  1
  I  I102  1  0.83461826  0.49997964  -0.00004133  1
  I  I103  1  0.83411155  0.49755277  0.33808270  1
  I  I104  1  0.84117190  0.50359645  0.66204886  1
  I  I105  1  0.83320706  0.83478537  -0.00023793  1
  I  I106  1  0.83517751  0.83657665  0.33889336  1
  I  I107  1  0.82882926  0.83139147  0.66244031  1
  I  I108  1  0.00024242  0.16549540  0.17203546  1
  I  I109  1  0.00043035  0.16508294  0.50325848  1
  I  I110  1  0.00122872  0.16108290  0.82256702  1
  I  I111  1  0.00350933  0.50200345  0.16944156  1
  I  I112  1  0.00098138  0.50055811  0.49621497  1
  I  I113  1  0.00011724  0.50659401  0.83632404  1
  I  I114  1  -0.00001548  0.83186087  0.16697619  1
  I  I115  1  0.00091480  0.83453124  0.50434364  1
  I  I116  1  0.00320940  0.83406418  0.82749677  1
  I  I117  1  0.33322904  0.16766782  0.16760634  1
  I  I118  1  0.33236087  0.16382464  0.50302883  1
  I  I119  1  0.33036438  0.16535739  0.82844982  1
  I  I120  1  0.32982935  0.49979981  0.17657528  1
  I  I121  1  0.32983059  0.50055582  0.49663665  1
  I  I122  1  0.33297440  0.49525691  0.83089741  1
  I  I123  1  0.33590433  0.83223076  0.17334060  1
  I  I124  1  0.33313093  0.83525300  0.49990344  1
  I  I125  1  0.33241808  0.83802505  0.82796622  1
  I  I126  1  0.66649464  0.16657959  0.16679721  1
  I  I127  1  0.66721910  0.16276036  0.50395877  1
  I  I128  1  0.66900359  0.16426680  0.82572825  1
  I  I129  1  0.66663343  0.50038951  0.16747704  1
  I  I130  1  0.66956752  0.50065371  0.50138284  1
  I  I131  1  0.66700339  0.50046288  0.83087828  1
  I  I132  1  0.66255173  0.83394776  0.16670294  1
  I  I133  1  0.66612358  0.83609568  0.49963618  1
  I  I134  1  0.66427836  0.83486354  0.83077971  1
