# generated using pymatgen
data_Cs27Sn14Pb13I81
_symmetry_space_group_name_H-M   'P 1'
_cell_length_a   18.97094493
_cell_length_b   18.97911880
_cell_length_c   18.97693856
_cell_angle_alpha   89.99877386
_cell_angle_beta   90.00044777
_cell_angle_gamma   90.00076354
_symmetry_Int_Tables_number   1
_chemical_formula_structural   Cs27Sn14Pb13I81
_chemical_formula_sum   'Cs27 Sn14 Pb13 I81'
_cell_volume   6832.68121906
_cell_formula_units_Z   1
loop_
 _symmetry_equiv_pos_site_id
 _symmetry_equiv_pos_as_xyz
  1  'x, y, z'
loop_
 _atom_site_type_symbol
 _atom_site_label
 _atom_site_symmetry_multiplicity
 _atom_site_fract_x
 _atom_site_fract_y
 _atom_site_fract_z
 _atom_site_occupancy
  Cs  Cs0  1  -0.00058123  -0.00011836  0.00231809  1
  Cs  Cs1  1  0.00151768  -0.00144261  0.33496990  1
  Cs  Cs2  1  -0.00248915  0.00479213  0.66270819  1
  Cs  Cs3  1  -0.00191955  0.33470389  0.00009961  1
  Cs  Cs4  1  0.00112196  0.33615510  0.33161829  1
  Cs  Cs5  1  0.00198338  0.33129806  0.66746739  1
  Cs  Cs6  1  -0.00131501  0.66564789  -0.00037800  1
  Cs  Cs7  1  -0.00132600  0.66482797  0.33343829  1
  Cs  Cs8  1  0.00207784  0.66591217  0.66623722  1
  Cs  Cs9  1  0.33520177  -0.00640822  0.00607758  1
  Cs  Cs10  1  0.33622716  0.00252655  0.32262863  1
  Cs  Cs11  1  0.33323149  -0.00163666  0.66937208  1
  Cs  Cs12  1  0.33432807  0.33280113  -0.00179778  1
  Cs  Cs13  1  0.33460734  0.33182950  0.33415663  1
  Cs  Cs14  1  0.33209714  0.33379239  0.66693414  1
  Cs  Cs15  1  0.33284724  0.67324103  -0.00458779  1
  Cs  Cs16  1  0.33488445  0.66596187  0.33544702  1
  Cs  Cs17  1  0.33330786  0.66980934  0.66963141  1
  Cs  Cs18  1  0.66661937  -0.00167327  -0.00101297  1
  Cs  Cs19  1  0.66035278  -0.00017930  0.34063874  1
  Cs  Cs20  1  0.66815728  0.00026978  0.65991073  1
  Cs  Cs21  1  0.66837612  0.33445409  -0.00145687  1
  Cs  Cs22  1  0.66244609  0.33513930  0.33305148  1
  Cs  Cs23  1  0.66492386  0.33067180  0.66865304  1
  Cs  Cs24  1  0.66901648  0.66480790  0.00035742  1
  Cs  Cs25  1  0.66798016  0.66524241  0.33537129  1
  Cs  Cs26  1  0.66434940  0.66808392  0.66555430  1
  Sn  Sn27  1  0.83333804  0.49997212  0.16673941  1
  Sn  Sn28  1  0.83363414  0.83262771  0.83348996  1
  Sn  Sn29  1  0.83392287  0.49955249  0.50047265  1
  Sn  Sn30  1  0.16599149  0.50006748  0.49948129  1
  Sn  Sn31  1  0.50066164  0.49932919  0.83419782  1
  Sn  Sn32  1  0.16685558  0.83333863  0.49977326  1
  Sn  Sn33  1  0.16721552  0.49999891  0.16687322  1
  Sn  Sn34  1  0.83328699  0.83346131  0.16642472  1
  Sn  Sn35  1  0.83268873  0.50065021  0.83277670  1
  Sn  Sn36  1  0.49962758  0.50001557  0.16539362  1
  Sn  Sn37  1  0.16685352  0.16665330  0.50028529  1
  Sn  Sn38  1  0.83305034  0.16644852  0.16722707  1
  Sn  Sn39  1  0.49900868  0.16711713  0.83358796  1
  Sn  Sn40  1  0.16764000  0.16675149  0.83353879  1
  Pb  Pb41  1  0.83525641  0.16949958  0.49711973  1
  Pb  Pb42  1  0.16443640  0.83040734  0.16859378  1
  Pb  Pb43  1  0.49652838  0.83334560  0.49987366  1
  Pb  Pb44  1  0.83479192  0.83112584  0.49992553  1
  Pb  Pb45  1  0.16666782  0.49891155  0.83334969  1
  Pb  Pb46  1  0.50304047  0.83025333  0.16662410  1
  Pb  Pb47  1  0.83326205  0.16661667  0.83469140  1
  Pb  Pb48  1  0.49692396  0.16687108  0.50254513  1
  Pb  Pb49  1  0.16518141  0.16863938  0.16644956  1
  Pb  Pb50  1  0.50264077  0.16884460  0.16418410  1
  Pb  Pb51  1  0.49957479  0.49997793  0.50065905  1
  Pb  Pb52  1  0.16369593  0.83650048  0.83155459  1
  Pb  Pb53  1  0.50271877  0.83329225  0.83330714  1
  I  I54  1  0.16351858  -0.00007007  0.16805206  1
  I  I55  1  0.16518120  0.00056350  0.50727981  1
  I  I56  1  0.17025549  0.00437382  0.82821239  1
  I  I57  1  0.16258264  0.33698797  0.17167513  1
  I  I58  1  0.16213988  0.33430560  0.50026412  1
  I  I59  1  0.16478758  0.33116481  0.82821230  1
  I  I60  1  0.16369578  0.66207930  0.17113612  1
  I  I61  1  0.16147785  0.66508364  0.49480675  1
  I  I62  1  0.16886907  0.66667935  0.83234600  1
  I  I63  1  0.50089346  0.00007505  0.16583720  1
  I  I64  1  0.50192871  0.00028772  0.50272435  1
  I  I65  1  0.49670578  0.00290142  0.83190514  1
  I  I66  1  0.50323095  0.33720483  0.16554778  1
  I  I67  1  0.49866965  0.33366577  0.49798281  1
  I  I68  1  0.50284431  0.33473072  0.83675516  1
  I  I69  1  0.50131280  0.66179135  0.16025462  1
  I  I70  1  0.49822344  0.66609896  0.50188460  1
  I  I71  1  0.50220856  0.66324956  0.83708258  1
  I  I72  1  0.83617689  -0.00040232  0.15911129  1
  I  I73  1  0.83563560  0.00009754  0.50040910  1
  I  I74  1  0.83502319  -0.00219595  0.83920460  1
  I  I75  1  0.83425720  0.33566589  0.16576263  1
  I  I76  1  0.83952127  0.33777300  0.50113060  1
  I  I77  1  0.83302945  0.33641224  0.83483708  1
  I  I78  1  0.83360035  0.66470219  0.16582934  1
  I  I79  1  0.83930932  0.66280072  0.49587627  1
  I  I80  1  0.82913905  0.66447573  0.83801739  1
  I  I81  1  0.16763763  0.17072942  -0.00250386  1
  I  I82  1  0.16235578  0.16654469  0.33593295  1
  I  I83  1  0.16858908  0.17047275  0.66635005  1
  I  I84  1  0.16256438  0.49661206  0.00240574  1
  I  I85  1  0.16212144  0.49817987  0.33377989  1
  I  I86  1  0.16275642  0.50050091  0.66388765  1
  I  I87  1  0.16724309  0.83334760  0.00009774  1
  I  I88  1  0.16295594  0.83736226  0.33651559  1
  I  I89  1  0.16394457  0.82613352  0.66370577  1
  I  I90  1  0.49334766  0.17005797  -0.00356785  1
  I  I91  1  0.49976780  0.16775252  0.33301402  1
  I  I92  1  0.50098700  0.17490342  0.67059481  1
  I  I93  1  0.50463094  0.49551996  -0.00020677  1
  I  I94  1  0.50338632  0.50095335  0.33055199  1
  I  I95  1  0.50381120  0.49643166  0.67007744  1
  I  I96  1  0.49599806  0.83528794  -0.00006555  1
  I  I97  1  0.50341183  0.83136911  0.33305030  1
  I  I98  1  0.50335555  0.83001327  0.66694581  1
  I  I99  1  0.83610428  0.17266875  0.00245731  1
  I  I100  1  0.83642409  0.16756615  0.32924050  1
  I  I101  1  0.83223433  0.16676134  0.66648908  1
  I  I102  1  0.83341095  0.50026716  0.00070533  1
  I  I103  1  0.83453337  0.50016085  0.33208250  1
  I  I104  1  0.83424985  0.50467612  0.66737665  1
  I  I105  1  0.83412227  0.82730914  0.00035739  1
  I  I106  1  0.83572165  0.83057968  0.33060934  1
  I  I107  1  0.83456946  0.82834985  0.66913762  1
  I  I108  1  -0.00283860  0.17125606  0.16365354  1
  I  I109  1  0.00331880  0.16619145  0.50765834  1
  I  I110  1  0.00207783  0.16761369  0.82982979  1
  I  I111  1  -0.00147994  0.49980462  0.16752517  1
  I  I112  1  0.00034241  0.49995930  0.49661537  1
  I  I113  1  -0.00286551  0.50149990  0.83594806  1
  I  I114  1  -0.00367901  0.82968981  0.16289440  1
  I  I115  1  0.00273512  0.83413356  0.50011396  1
  I  I116  1  -0.00387980  0.82612929  0.83768313  1
  I  I117  1  0.33344357  0.16923735  0.16888809  1
  I  I118  1  0.32860521  0.17207524  0.50024028  1
  I  I119  1  0.33323583  0.17514183  0.82827998  1
  I  I120  1  0.33309588  0.49776710  0.16817693  1
  I  I121  1  0.32966146  0.49935615  0.49619647  1
  I  I122  1  0.33573302  0.49652859  0.83611761  1
  I  I123  1  0.33321540  0.83248927  0.16859812  1
  I  I124  1  0.32829480  0.82750720  0.50186327  1
  I  I125  1  0.33312029  0.83052756  0.83059285  1
  I  I126  1  0.67067658  0.17051384  0.16354372  1
  I  I127  1  0.66680332  0.16785595  0.50074374  1
  I  I128  1  0.66464538  0.16962595  0.83744406  1
  I  I129  1  0.66823458  0.49995382  0.16607650  1
  I  I130  1  0.66965270  0.50106130  0.49668985  1
  I  I131  1  0.66771584  0.49760658  0.83681777  1
  I  I132  1  0.67132615  0.83049920  0.16225207  1
  I  I133  1  0.66708741  0.83151236  0.50025940  1
  I  I134  1  0.67075005  0.83266985  0.83759161  1
