# generated using pymatgen
data_Cs27Sn14Pb13I81
_symmetry_space_group_name_H-M   'P 1'
_cell_length_a   18.98037042
_cell_length_b   18.96996751
_cell_length_c   18.98104305
_cell_angle_alpha   89.99816863
_cell_angle_beta   89.99924064
_cell_angle_gamma   90.00016809
_symmetry_Int_Tables_number   1
_chemical_formula_structural   Cs27Sn14Pb13I81
_chemical_formula_sum   'Cs27 Sn14 Pb13 I81'
_cell_volume   6834.25760382
_cell_formula_units_Z   1
loop_
 _symmetry_equiv_pos_site_id
 _symmetry_equiv_pos_as_xyz
  1  'x, y, z'
loop_
 _atom_site_type_symbol
 _atom_site_label
 _atom_site_symmetry_multiplicity
 _atom_site_fract_x
 _atom_site_fract_y
 _atom_site_fract_z
 _atom_site_occupancy
  Cs  Cs0  1  0.00057758  0.00036057  -0.00102950  1
  Cs  Cs1  1  -0.00132514  0.00054703  0.33185259  1
  Cs  Cs2  1  -0.00090401  0.00024037  0.66908970  1
  Cs  Cs3  1  0.00000124  0.33923823  0.00347562  1
  Cs  Cs4  1  0.00092657  0.33290029  0.33037736  1
  Cs  Cs5  1  -0.00126521  0.33150930  0.66648719  1
  Cs  Cs6  1  -0.00226326  0.66495965  -0.00035478  1
  Cs  Cs7  1  0.00298188  0.66623325  0.33505517  1
  Cs  Cs8  1  0.00566377  0.66850398  0.66595837  1
  Cs  Cs9  1  0.33078268  -0.00220437  -0.00077043  1
  Cs  Cs10  1  0.33465193  0.00038502  0.33098000  1
  Cs  Cs11  1  0.33223495  0.00030868  0.66986694  1
  Cs  Cs12  1  0.33290158  0.33501464  0.00084961  1
  Cs  Cs13  1  0.33496287  0.33214304  0.33277926  1
  Cs  Cs14  1  0.33542970  0.33397223  0.66690354  1
  Cs  Cs15  1  0.33514097  0.67117267  -0.00496476  1
  Cs  Cs16  1  0.33607385  0.66737794  0.33818949  1
  Cs  Cs17  1  0.32962521  0.66556407  0.66612574  1
  Cs  Cs18  1  0.66780032  -0.00007729  0.00065380  1
  Cs  Cs19  1  0.66782300  0.00032981  0.33268015  1
  Cs  Cs20  1  0.66902932  0.00129902  0.66728388  1
  Cs  Cs21  1  0.66705544  0.33551970  -0.00045498  1
  Cs  Cs22  1  0.66612296  0.33288365  0.33455342  1
  Cs  Cs23  1  0.66575834  0.33159150  0.66372150  1
  Cs  Cs24  1  0.66746643  0.66482367  -0.00036552  1
  Cs  Cs25  1  0.66416974  0.66570064  0.33336459  1
  Cs  Cs26  1  0.66420474  0.66567308  0.66521153  1
  Sn  Sn27  1  0.83345489  0.16734394  0.49980755  1
  Sn  Sn28  1  0.49986048  0.49912530  0.16715399  1
  Sn  Sn29  1  0.16563639  0.83337302  0.16625934  1
  Sn  Sn30  1  0.50087783  0.16731767  0.16701221  1
  Sn  Sn31  1  0.16562089  0.16661316  0.83295444  1
  Sn  Sn32  1  0.83427611  0.83392979  0.16609492  1
  Sn  Sn33  1  0.50103974  0.49876846  0.49900805  1
  Sn  Sn34  1  0.49997852  0.16664198  0.49918521  1
  Sn  Sn35  1  0.16523198  0.83449721  0.83450043  1
  Sn  Sn36  1  0.16658731  0.16645197  0.50053088  1
  Sn  Sn37  1  0.83423165  0.16639534  0.83385060  1
  Sn  Sn38  1  0.83397259  0.83402668  0.83416268  1
  Sn  Sn39  1  0.83260880  0.16625639  0.16639877  1
  Sn  Sn40  1  0.83305447  0.49933386  0.49998385  1
  Pb  Pb41  1  0.83327444  0.83337127  0.50005216  1
  Pb  Pb42  1  0.16992198  0.50365484  0.16671533  1
  Pb  Pb43  1  0.16654527  0.83624386  0.50018047  1
  Pb  Pb44  1  0.50009579  0.83385083  0.50014426  1
  Pb  Pb45  1  0.16634965  0.49967185  0.83347598  1
  Pb  Pb46  1  0.83337958  0.50002312  0.83048873  1
  Pb  Pb47  1  0.16678321  0.49690271  0.49991131  1
  Pb  Pb48  1  0.50019203  0.16666258  0.83367593  1
  Pb  Pb49  1  0.16664472  0.16551689  0.16618799  1
  Pb  Pb50  1  0.50053860  0.83358749  0.83324856  1
  Pb  Pb51  1  0.83183942  0.50024556  0.16887035  1
  Pb  Pb52  1  0.50054608  0.83365845  0.16663577  1
  Pb  Pb53  1  0.50015798  0.49975334  0.83285041  1
  I  I54  1  0.16782378  -0.00240481  0.16594839  1
  I  I55  1  0.16584491  0.00446626  0.50127631  1
  I  I56  1  0.16293363  0.00046871  0.83241909  1
  I  I57  1  0.16458300  0.33318911  0.16644757  1
  I  I58  1  0.16654831  0.32861014  0.50581296  1
  I  I59  1  0.16303385  0.32938670  0.82815485  1
  I  I60  1  0.16035759  0.67170857  0.16023553  1
  I  I61  1  0.16788350  0.66668871  0.50083635  1
  I  I62  1  0.16287601  0.67045151  0.83755100  1
  I  I63  1  0.50148089  0.00320025  0.17208867  1
  I  I64  1  0.50169158  0.00445052  0.49525756  1
  I  I65  1  0.49939974  0.00045998  0.83239031  1
  I  I66  1  0.50533174  0.33174625  0.17112881  1
  I  I67  1  0.50099956  0.33183282  0.49573602  1
  I  I68  1  0.49921113  0.33284467  0.83416873  1
  I  I69  1  0.49940856  0.66402340  0.17245115  1
  I  I70  1  0.50556661  0.66303078  0.49523380  1
  I  I71  1  0.49961672  0.66668204  0.83325931  1
  I  I72  1  0.83075921  0.00142604  0.16873852  1
  I  I73  1  0.83230084  0.00368629  0.49997280  1
  I  I74  1  0.83683111  0.00132312  0.83153848  1
  I  I75  1  0.83145529  0.32997000  0.16426297  1
  I  I76  1  0.83218638  0.33097514  0.50058932  1
  I  I77  1  0.83723519  0.32955487  0.83569423  1
  I  I78  1  0.83522280  0.66966745  0.16285499  1
  I  I79  1  0.82644530  0.66387970  0.49955990  1
  I  I80  1  0.83717520  0.67012037  0.83758486  1
  I  I81  1  0.16463341  0.16350213  -0.00272745  1
  I  I82  1  0.16476050  0.16543803  0.33558521  1
  I  I83  1  0.16420913  0.16117929  0.66680907  1
  I  I84  1  0.16908778  0.49360920  0.00025292  1
  I  I85  1  0.16402842  0.50087815  0.33338223  1
  I  I86  1  0.16976087  0.50577064  0.66644098  1
  I  I87  1  0.16424661  0.84049764  -0.00071167  1
  I  I88  1  0.16280287  0.83451538  0.33055934  1
  I  I89  1  0.16181791  0.83489117  0.67001510  1
  I  I90  1  0.50327227  0.17015280  0.00334807  1
  I  I91  1  0.50237413  0.16998032  0.33361249  1
  I  I92  1  0.50198455  0.17116813  0.66349711  1
  I  I93  1  0.49956467  0.49557362  0.00331216  1
  I  I94  1  0.50412782  0.49558764  0.33416038  1
  I  I95  1  0.50393533  0.49472605  0.66260497  1
  I  I96  1  0.49893339  0.83279599  0.00025395  1
  I  I97  1  0.49906963  0.83347941  0.33310374  1
  I  I98  1  0.49991742  0.83246551  0.66667815  1
  I  I99  1  0.83246585  0.16121163  0.00028289  1
  I  I100  1  0.83271564  0.16594447  0.33335874  1
  I  I101  1  0.83316297  0.16627384  0.66642437  1
  I  I102  1  0.83107818  0.49765936  0.00017579  1
  I  I103  1  0.83111361  0.49540034  0.33670446  1
  I  I104  1  0.82598966  0.49515075  0.66262766  1
  I  I105  1  0.83660446  0.84174855  0.00028297  1
  I  I106  1  0.83657575  0.83762295  0.33027783  1
  I  I107  1  0.83798913  0.83696585  0.66979229  1
  I  I108  1  -0.00302151  0.16384367  0.17010567  1
  I  I109  1  -0.00112978  0.16985509  0.50050180  1
  I  I110  1  -0.00086958  0.16190867  0.82850111  1
  I  I111  1  -0.00011359  0.49748481  0.16824571  1
  I  I112  1  -0.00285605  0.49612158  0.50115718  1
  I  I113  1  -0.00034677  0.49943110  0.83116505  1
  I  I114  1  -0.00124872  0.84023120  0.16331182  1
  I  I115  1  -0.00014688  0.83118335  0.49840660  1
  I  I116  1  -0.00038330  0.83888047  0.83758500  1
  I  I117  1  0.33581969  0.16846562  0.17060689  1
  I  I118  1  0.33392486  0.16950134  0.49972860  1
  I  I119  1  0.33028518  0.16197156  0.82979756  1
  I  I120  1  0.33783325  0.49249665  0.17419552  1
  I  I121  1  0.33672654  0.49648862  0.49600149  1
  I  I122  1  0.33326829  0.50101369  0.83125183  1
  I  I123  1  0.33084595  0.83403650  0.16188312  1
  I  I124  1  0.33311024  0.83328179  0.49982836  1
  I  I125  1  0.32965765  0.83783021  0.83781835  1
  I  I126  1  0.66773972  0.16399324  0.16976028  1
  I  I127  1  0.66722250  0.17042741  0.49989548  1
  I  I128  1  0.67020262  0.16212814  0.83070862  1
  I  I129  1  0.66381761  0.50052742  0.16929354  1
  I  I130  1  0.66623269  0.49159574  0.49704579  1
  I  I131  1  0.66697635  0.50132847  0.83478132  1
  I  I132  1  0.66997604  0.83530606  0.16232844  1
  I  I133  1  0.66695730  0.83740541  0.50047160  1
  I  I134  1  0.67076747  0.83844691  0.83746739  1
