# generated using pymatgen
data_Cs27Sn13Pb14I81
_symmetry_space_group_name_H-M   'P 1'
_cell_length_a   18.97548756
_cell_length_b   18.98090071
_cell_length_c   18.97408011
_cell_angle_alpha   90.00050654
_cell_angle_beta   90.00044052
_cell_angle_gamma   89.99950602
_symmetry_Int_Tables_number   1
_chemical_formula_structural   Cs27Sn13Pb14I81
_chemical_formula_sum   'Cs27 Sn13 Pb14 I81'
_cell_volume   6833.92944355
_cell_formula_units_Z   1
loop_
 _symmetry_equiv_pos_site_id
 _symmetry_equiv_pos_as_xyz
  1  'x, y, z'
loop_
 _atom_site_type_symbol
 _atom_site_label
 _atom_site_symmetry_multiplicity
 _atom_site_fract_x
 _atom_site_fract_y
 _atom_site_fract_z
 _atom_site_occupancy
  Cs  Cs0  1  0.00521179  0.00267161  -0.00042293  1
  Cs  Cs1  1  -0.00040966  0.00099509  0.33043249  1
  Cs  Cs2  1  -0.00183510  -0.00066492  0.66761275  1
  Cs  Cs3  1  -0.00032964  0.33308860  0.00841898  1
  Cs  Cs4  1  -0.00150995  0.32942845  0.32915667  1
  Cs  Cs5  1  0.00077892  0.33563155  0.66496606  1
  Cs  Cs6  1  -0.00153981  0.66409250  0.00427786  1
  Cs  Cs7  1  0.00311842  0.66874671  0.33446732  1
  Cs  Cs8  1  -0.00021168  0.66545370  0.66490015  1
  Cs  Cs9  1  0.32817626  0.00282089  -0.00869531  1
  Cs  Cs10  1  0.33719863  -0.00085709  0.33411849  1
  Cs  Cs11  1  0.33127788  0.00065849  0.67262870  1
  Cs  Cs12  1  0.33277189  0.33206262  -0.00007758  1
  Cs  Cs13  1  0.33502737  0.33424540  0.33511779  1
  Cs  Cs14  1  0.33152313  0.33243762  0.66566276  1
  Cs  Cs15  1  0.33345704  0.66516186  0.00101914  1
  Cs  Cs16  1  0.33278925  0.66670131  0.33349087  1
  Cs  Cs17  1  0.33088757  0.66782585  0.66564505  1
  Cs  Cs18  1  0.66582670  -0.00263211  -0.00034583  1
  Cs  Cs19  1  0.66630218  -0.00018171  0.33358574  1
  Cs  Cs20  1  0.66798632  -0.00034065  0.66704011  1
  Cs  Cs21  1  0.66690798  0.34366798  -0.00160153  1
  Cs  Cs22  1  0.66620210  0.32952595  0.33357505  1
  Cs  Cs23  1  0.66726975  0.33356465  0.66661901  1
  Cs  Cs24  1  0.66674976  0.66254335  -0.00144693  1
  Cs  Cs25  1  0.66505376  0.66985087  0.33452680  1
  Cs  Cs26  1  0.66801267  0.66725215  0.66690033  1
  Sn  Sn27  1  0.83328493  0.83404501  0.83348525  1
  Sn  Sn28  1  0.16651384  0.49893228  0.50041410  1
  Sn  Sn29  1  0.83333066  0.50048706  0.49980990  1
  Sn  Sn30  1  0.50067030  0.83363247  0.49983126  1
  Sn  Sn31  1  0.83293633  0.16668697  0.83344195  1
  Sn  Sn32  1  0.50038672  0.16572673  0.16681947  1
  Sn  Sn33  1  0.50060656  0.83458983  0.16712424  1
  Sn  Sn34  1  0.83258428  0.83355038  0.16684466  1
  Sn  Sn35  1  0.83267807  0.83277666  0.49975753  1
  Sn  Sn36  1  0.50013255  0.50014150  0.50010799  1
  Sn  Sn37  1  0.16720648  0.16693903  0.49997790  1
  Sn  Sn38  1  0.49912813  0.16617231  0.49979807  1
  Sn  Sn39  1  0.16644847  0.50003596  0.83279070  1
  Pb  Pb40  1  0.50004802  0.50032249  0.16899136  1
  Pb  Pb41  1  0.50181964  0.83321507  0.83344061  1
  Pb  Pb42  1  0.16771198  0.83358535  0.16663419  1
  Pb  Pb43  1  0.16976892  0.16643498  0.16940593  1
  Pb  Pb44  1  0.50205623  0.16674559  0.83334708  1
  Pb  Pb45  1  0.49743801  0.50002912  0.83049106  1
  Pb  Pb46  1  0.16405055  0.16889339  0.83104962  1
  Pb  Pb47  1  0.16696486  0.83368357  0.49997843  1
  Pb  Pb48  1  0.83517392  0.50016163  0.83138781  1
  Pb  Pb49  1  0.83311368  0.50267780  0.17012623  1
  Pb  Pb50  1  0.16680102  0.49987502  0.16753787  1
  Pb  Pb51  1  0.83056016  0.16438018  0.16380243  1
  Pb  Pb52  1  0.16357310  0.83072213  0.83333265  1
  Pb  Pb53  1  0.83309103  0.16627409  0.50089610  1
  I  I54  1  0.16342756  0.00014409  0.16908081  1
  I  I55  1  0.16947298  0.00287064  0.49909628  1
  I  I56  1  0.16723786  0.00022012  0.83208730  1
  I  I57  1  0.16737088  0.33312656  0.16521107  1
  I  I58  1  0.16990389  0.33417931  0.50408449  1
  I  I59  1  0.16458943  0.33643603  0.82801040  1
  I  I60  1  0.16796753  0.66665966  0.16884823  1
  I  I61  1  0.16809012  0.66366576  0.50355923  1
  I  I62  1  0.16574483  0.66312353  0.82371462  1
  I  I63  1  0.50505263  -0.00080180  0.17794190  1
  I  I64  1  0.50112047  -0.00027689  0.49561615  1
  I  I65  1  0.49859607  -0.00004457  0.82779740  1
  I  I66  1  0.49869776  0.33049080  0.17190030  1
  I  I67  1  0.49952091  0.33316439  0.49677012  1
  I  I68  1  0.50460828  0.33332689  0.83362013  1
  I  I69  1  0.50415306  0.67026856  0.17116141  1
  I  I70  1  0.50084059  0.66708816  0.49689226  1
  I  I71  1  0.50238196  0.66666511  0.83334738  1
  I  I72  1  0.83132118  -0.00384732  0.17385197  1
  I  I73  1  0.83053813  -0.00320579  0.49927344  1
  I  I74  1  0.83230580  -0.00140671  0.82886868  1
  I  I75  1  0.83279801  0.33317844  0.16566075  1
  I  I76  1  0.83130018  0.33560335  0.50431779  1
  I  I77  1  0.83362475  0.33135878  0.82884955  1
  I  I78  1  0.82659684  0.67100332  0.16122925  1
  I  I79  1  0.83088057  0.66751929  0.50220101  1
  I  I80  1  0.83437750  0.66963243  0.83378386  1
  I  I81  1  0.16725129  0.16832645  -0.00014744  1
  I  I82  1  0.16540749  0.17383288  0.33768621  1
  I  I83  1  0.17347077  0.16851754  0.66291117  1
  I  I84  1  0.16471741  0.50191158  -0.00275096  1
  I  I85  1  0.16731271  0.49740610  0.33786499  1
  I  I86  1  0.16648719  0.49666776  0.66404455  1
  I  I87  1  0.16726548  0.83092426  -0.00012502  1
  I  I88  1  0.16117269  0.83048300  0.33373510  1
  I  I89  1  0.16679666  0.83478753  0.66632578  1
  I  I90  1  0.50225124  0.15997886  0.00308816  1
  I  I91  1  0.49718753  0.16618033  0.33532872  1
  I  I92  1  0.49750255  0.16634639  0.66287228  1
  I  I93  1  0.49818972  0.49994469  0.00008162  1
  I  I94  1  0.49736095  0.50044179  0.33793392  1
  I  I95  1  0.50296577  0.50007035  0.66155107  1
  I  I96  1  0.50435981  0.83835858  0.00349720  1
  I  I97  1  0.50765670  0.83373459  0.33498443  1
  I  I98  1  0.50408063  0.83332655  0.66299008  1
  I  I99  1  0.83293902  0.16164519  -0.00371697  1
  I  I100  1  0.83576953  0.16713416  0.33328283  1
  I  I101  1  0.83173988  0.16078342  0.66841228  1
  I  I102  1  0.83604974  0.50044865  0.00000971  1
  I  I103  1  0.83566985  0.50331974  0.33855597  1
  I  I104  1  0.83136386  0.50559847  0.66292530  1
  I  I105  1  0.82956841  0.83821189  0.00020529  1
  I  I106  1  0.82918217  0.82796317  0.33438284  1
  I  I107  1  0.82978708  0.83287983  0.66538978  1
  I  I108  1  -0.00021850  0.16575673  0.16723325  1
  I  I109  1  0.00195777  0.17037804  0.50376850  1
  I  I110  1  -0.00350840  0.16096174  0.82997318  1
  I  I111  1  -0.00020887  0.50213280  0.16927503  1
  I  I112  1  0.00001112  0.50103546  0.50472639  1
  I  I113  1  0.00264628  0.50105749  0.82372613  1
  I  I114  1  -0.00348844  0.83134074  0.16844158  1
  I  I115  1  -0.00337062  0.82991916  0.50003627  1
  I  I116  1  -0.00482913  0.83737017  0.83082387  1
  I  I117  1  0.33781347  0.16012252  0.16838159  1
  I  I118  1  0.33446914  0.17041039  0.49668877  1
  I  I119  1  0.33315872  0.16780487  0.83463395  1
  I  I120  1  0.33357068  0.50334050  0.16864669  1
  I  I121  1  0.33363910  0.49954702  0.50328855  1
  I  I122  1  0.32968368  0.49929116  0.82670997  1
  I  I123  1  0.33767426  0.83514612  0.17490163  1
  I  I124  1  0.33685601  0.83052684  0.49425789  1
  I  I125  1  0.33322568  0.83257431  0.83287771  1
  I  I126  1  0.66296820  0.16451167  0.17640242  1
  I  I127  1  0.66366429  0.16895450  0.49801775  1
  I  I128  1  0.66977354  0.16253309  0.82878044  1
  I  I129  1  0.66661253  0.49750500  0.16646282  1
  I  I130  1  0.66642475  0.50090774  0.49927262  1
  I  I131  1  0.66704057  0.49997957  0.83200001  1
  I  I132  1  0.66652545  0.83718041  0.16935834  1
  I  I133  1  0.66681910  0.83039964  0.49986852  1
  I  I134  1  0.67029172  0.83547914  0.83115505  1
