# generated using pymatgen
data_Cs27Sn14Pb13I81
_symmetry_space_group_name_H-M   'P 1'
_cell_length_a   18.96092540
_cell_length_b   18.98259511
_cell_length_c   18.98226157
_cell_angle_alpha   90.00109365
_cell_angle_beta   90.00126503
_cell_angle_gamma   89.99782147
_symmetry_Int_Tables_number   1
_chemical_formula_structural   Cs27Sn14Pb13I81
_chemical_formula_sum   'Cs27 Sn14 Pb13 I81'
_cell_volume   6832.23926734
_cell_formula_units_Z   1
loop_
 _symmetry_equiv_pos_site_id
 _symmetry_equiv_pos_as_xyz
  1  'x, y, z'
loop_
 _atom_site_type_symbol
 _atom_site_label
 _atom_site_symmetry_multiplicity
 _atom_site_fract_x
 _atom_site_fract_y
 _atom_site_fract_z
 _atom_site_occupancy
  Cs  Cs0  1  -0.00903604  0.00665275  -0.00031482  1
  Cs  Cs1  1  0.00149097  0.00013414  0.33535326  1
  Cs  Cs2  1  0.00598498  0.00457853  0.66439974  1
  Cs  Cs3  1  -0.00568533  0.32440170  0.00689121  1
  Cs  Cs4  1  0.00028528  0.33570859  0.32277033  1
  Cs  Cs5  1  -0.00202104  0.33357914  0.67056502  1
  Cs  Cs6  1  -0.00335845  0.66661945  0.00287473  1
  Cs  Cs7  1  -0.00205734  0.66510220  0.33067653  1
  Cs  Cs8  1  0.00298952  0.66376491  0.66640207  1
  Cs  Cs9  1  0.33448630  -0.00293253  -0.00149092  1
  Cs  Cs10  1  0.33302566  -0.00217150  0.33503702  1
  Cs  Cs11  1  0.33109108  -0.00106498  0.66586423  1
  Cs  Cs12  1  0.33297197  0.33534590  -0.00005843  1
  Cs  Cs13  1  0.33538559  0.33433992  0.33115596  1
  Cs  Cs14  1  0.33464115  0.33518936  0.66831802  1
  Cs  Cs15  1  0.33313613  0.66650084  -0.00180955  1
  Cs  Cs16  1  0.33330202  0.66760262  0.33299966  1
  Cs  Cs17  1  0.33245845  0.66596828  0.66860081  1
  Cs  Cs18  1  0.67170080  -0.00382266  -0.00125104  1
  Cs  Cs19  1  0.66519126  -0.00046531  0.33450923  1
  Cs  Cs20  1  0.66512137  -0.00131322  0.66537848  1
  Cs  Cs21  1  0.66686340  0.33164629  -0.00163950  1
  Cs  Cs22  1  0.66352227  0.33271528  0.33762150  1
  Cs  Cs23  1  0.66624361  0.33459578  0.66400253  1
  Cs  Cs24  1  0.67150657  0.67208822  -0.00300090  1
  Cs  Cs25  1  0.66675733  0.66719943  0.33508656  1
  Cs  Cs26  1  0.66823297  0.66678937  0.66686625  1
  Sn  Sn27  1  0.16670295  0.83284744  0.83482115  1
  Sn  Sn28  1  0.50043379  0.83310447  0.49950222  1
  Sn  Sn29  1  0.49979880  0.50060252  0.16631282  1
  Sn  Sn30  1  0.49962755  0.16621873  0.16644708  1
  Sn  Sn31  1  0.49991321  0.16646045  0.50019739  1
  Sn  Sn32  1  0.83284596  0.83412218  0.50035555  1
  Sn  Sn33  1  0.49921305  0.83317545  0.16725774  1
  Sn  Sn34  1  0.83281782  0.16594524  0.49993505  1
  Sn  Sn35  1  0.16707204  0.50043842  0.83336117  1
  Sn  Sn36  1  0.49956868  0.16716534  0.83313498  1
  Sn  Sn37  1  0.49973348  0.49947794  0.83331974  1
  Sn  Sn38  1  0.49895768  0.50035304  0.50018471  1
  Sn  Sn39  1  0.16736605  0.83355704  0.16508451  1
  Sn  Sn40  1  0.16750057  0.49960060  0.50035218  1
  Pb  Pb41  1  0.83310696  0.83341777  0.16912026  1
  Pb  Pb42  1  0.83375079  0.50000560  0.83341810  1
  Pb  Pb43  1  0.49893617  0.83310110  0.83312532  1
  Pb  Pb44  1  0.16856176  0.50175989  0.16587093  1
  Pb  Pb45  1  0.83002680  0.16647828  0.16978914  1
  Pb  Pb46  1  0.16699921  0.17023429  0.49986920  1
  Pb  Pb47  1  0.16875674  0.16740307  0.83345589  1
  Pb  Pb48  1  0.16678979  0.83138905  0.49986251  1
  Pb  Pb49  1  0.16929722  0.16353267  0.16667211  1
  Pb  Pb50  1  0.83346770  0.49961596  0.50001984  1
  Pb  Pb51  1  0.83010850  0.16661656  0.83037873  1
  Pb  Pb52  1  0.82967855  0.50006935  0.16660789  1
  Pb  Pb53  1  0.83740070  0.83330280  0.82993336  1
  I  I54  1  0.17391151  -0.00456813  0.16321897  1
  I  I55  1  0.16882645  -0.00005497  0.50051301  1
  I  I56  1  0.16950125  -0.00265561  0.83579077  1
  I  I57  1  0.16733242  0.33350946  0.16749997  1
  I  I58  1  0.17237847  0.33800840  0.50668978  1
  I  I59  1  0.17092693  0.33702403  0.82636610  1
  I  I60  1  0.17442164  0.66960251  0.16726219  1
  I  I61  1  0.17214705  0.66377461  0.50131626  1
  I  I62  1  0.17464425  0.66586975  0.83168271  1
  I  I63  1  0.49573274  -0.00043207  0.17067534  1
  I  I64  1  0.50437249  -0.00018511  0.49772149  1
  I  I65  1  0.49816051  0.00220922  0.83228555  1
  I  I66  1  0.50116062  0.33353629  0.17022435  1
  I  I67  1  0.50049865  0.33343278  0.49804308  1
  I  I68  1  0.49512181  0.33425879  0.83257906  1
  I  I69  1  0.49569796  0.66696909  0.17097028  1
  I  I70  1  0.50004984  0.66661991  0.49734560  1
  I  I71  1  0.49731678  0.66381210  0.83240441  1
  I  I72  1  0.83171429  -0.00006347  0.16542080  1
  I  I73  1  0.82354285  -0.00018301  0.49971705  1
  I  I74  1  0.83229102  -0.00008940  0.83479526  1
  I  I75  1  0.83421469  0.33309183  0.16933096  1
  I  I76  1  0.82695415  0.33059032  0.50074926  1
  I  I77  1  0.83671749  0.33320411  0.83014655  1
  I  I78  1  0.83064706  0.66702407  0.17046117  1
  I  I79  1  0.82871974  0.66921846  0.49920421  1
  I  I80  1  0.82665154  0.66681611  0.83032316  1
  I  I81  1  0.16963547  0.17104851  0.00004591  1
  I  I82  1  0.16900832  0.16636264  0.33350032  1
  I  I83  1  0.16951895  0.16066144  0.66650776  1
  I  I84  1  0.17421448  0.50382304  -0.00303640  1
  I  I85  1  0.17120816  0.50125581  0.33558010  1
  I  I86  1  0.17600490  0.50692605  0.66688367  1
  I  I87  1  0.17656089  0.82676589  0.00016252  1
  I  I88  1  0.16920460  0.83207794  0.33138331  1
  I  I89  1  0.16734531  0.83064850  0.66857109  1
  I  I90  1  0.49636413  0.17022463  0.00019046  1
  I  I91  1  0.50371157  0.16893018  0.33395700  1
  I  I92  1  0.50369655  0.16943779  0.66580006  1
  I  I93  1  0.49566637  0.49649611  -0.00032223  1
  I  I94  1  0.49670767  0.49802846  0.33412908  1
  I  I95  1  0.49667513  0.49731782  0.66608353  1
  I  I96  1  0.49673626  0.83345544  0.00257524  1
  I  I97  1  0.49801621  0.83328456  0.33378973  1
  I  I98  1  0.50179693  0.83375697  0.66371915  1
  I  I99  1  0.83295787  0.16744461  0.00012704  1
  I  I100  1  0.82651104  0.16294643  0.33748110  1
  I  I101  1  0.82649477  0.16306000  0.66262320  1
  I  I102  1  0.83309343  0.50081795  -0.00003925  1
  I  I103  1  0.83527507  0.50051280  0.33372998  1
  I  I104  1  0.82858091  0.50032485  0.66643077  1
  I  I105  1  0.83036508  0.83260960  -0.00005242  1
  I  I106  1  0.83254429  0.83664321  0.33705392  1
  I  I107  1  0.82488676  0.83604956  0.66225763  1
  I  I108  1  -0.00024644  0.16635597  0.16800119  1
  I  I109  1  -0.00267418  0.16079448  0.50112635  1
  I  I110  1  -0.00015003  0.16667709  0.83113458  1
  I  I111  1  0.00040564  0.50254116  0.16866890  1
  I  I112  1  0.00313014  0.50183368  0.50604453  1
  I  I113  1  0.00398637  0.50630837  0.82455655  1
  I  I114  1  0.00298798  0.83077328  0.16493398  1
  I  I115  1  -0.00219685  0.83693180  0.50063070  1
  I  I116  1  0.00528431  0.82545176  0.83821240  1
  I  I117  1  0.33818647  0.16979886  0.17135613  1
  I  I118  1  0.33757847  0.16327760  0.49968306  1
  I  I119  1  0.33752828  0.16816258  0.82927085  1
  I  I120  1  0.33746253  0.49774100  0.16811758  1
  I  I121  1  0.33586925  0.50080734  0.50075925  1
  I  I122  1  0.33481981  0.50014963  0.83127195  1
  I  I123  1  0.33535570  0.83335686  0.17008755  1
  I  I124  1  0.33652602  0.83592442  0.49855190  1
  I  I125  1  0.33112338  0.83180415  0.83145130  1
  I  I126  1  0.66135993  0.16425666  0.16437186  1
  I  I127  1  0.66383454  0.16802346  0.49956977  1
  I  I128  1  0.66149694  0.17249853  0.83596623  1
  I  I129  1  0.66051387  0.50263063  0.16922062  1
  I  I130  1  0.66281162  0.49977592  0.49987503  1
  I  I131  1  0.66249065  0.49567872  0.83165029  1
  I  I132  1  0.66273859  0.83332225  0.16892307  1
  I  I133  1  0.66401664  0.83192033  0.49470223  1
  I  I134  1  0.66666207  0.83320483  0.83579497  1
