# generated using pymatgen
data_Cs27Sn14Pb13I81
_symmetry_space_group_name_H-M   'P 1'
_cell_length_a   18.97466646
_cell_length_b   18.97466668
_cell_length_c   18.97553279
_cell_angle_alpha   89.99847949
_cell_angle_beta   90.00152047
_cell_angle_gamma   89.99860833
_symmetry_Int_Tables_number   1
_chemical_formula_structural   Cs27Sn14Pb13I81
_chemical_formula_sum   'Cs27 Sn14 Pb13 I81'
_cell_volume   6831.91232863
_cell_formula_units_Z   1
loop_
 _symmetry_equiv_pos_site_id
 _symmetry_equiv_pos_as_xyz
  1  'x, y, z'
loop_
 _atom_site_type_symbol
 _atom_site_label
 _atom_site_symmetry_multiplicity
 _atom_site_fract_x
 _atom_site_fract_y
 _atom_site_fract_z
 _atom_site_occupancy
  Cs  Cs0  1  0.00087681  0.00033536  0.00032652  1
  Cs  Cs1  1  0.00100985  -0.00054781  0.33415217  1
  Cs  Cs2  1  -0.00049245  0.00102849  0.66593523  1
  Cs  Cs3  1  -0.00249926  0.33583258  0.00031805  1
  Cs  Cs4  1  -0.00009542  0.33342875  0.33373344  1
  Cs  Cs5  1  0.00290119  0.33043229  0.66479618  1
  Cs  Cs6  1  -0.00118624  0.65976092  0.00249606  1
  Cs  Cs7  1  -0.00000217  0.66563376  0.33170567  1
  Cs  Cs8  1  0.00092672  0.66962278  0.66651805  1
  Cs  Cs9  1  0.33393588  -0.00060259  0.00383645  1
  Cs  Cs10  1  0.33246621  0.00086713  0.32797695  1
  Cs  Cs11  1  0.32951975  0.00381360  0.66729201  1
  Cs  Cs12  1  0.33299786  0.33245654  0.00032663  1
  Cs  Cs13  1  0.33388114  0.33232335  0.33415221  1
  Cs  Cs14  1  0.33230488  0.33382574  0.66593533  1
  Cs  Cs15  1  0.33456342  0.66939165  -0.00151885  1
  Cs  Cs16  1  0.33393455  0.66762679  0.33259139  1
  Cs  Cs17  1  0.33959404  0.66313392  0.66902367  1
  Cs  Cs18  1  0.66394158  -0.00123006  -0.00151891  1
  Cs  Cs19  1  0.66570667  -0.00060131  0.33259133  1
  Cs  Cs20  1  0.67019943  -0.00626067  0.66902370  1
  Cs  Cs21  1  0.67357251  0.33451948  0.00249619  1
  Cs  Cs22  1  0.66769954  0.33333553  0.33170570  1
  Cs  Cs23  1  0.66371052  0.33240660  0.66651815  1
  Cs  Cs24  1  0.67009905  0.66323415  -0.00944504  1
  Cs  Cs25  1  0.66776347  0.66556977  0.33830448  1
  Cs  Cs26  1  0.65552898  0.67780432  0.67040895  1
  Sn  Sn27  1  0.49931244  0.16710564  0.83275545  1
  Sn  Sn28  1  0.83364770  0.49968562  0.50046449  1
  Sn  Sn29  1  0.83310678  0.16738592  0.49918390  1
  Sn  Sn30  1  0.16665705  0.16667628  0.49977691  1
  Sn  Sn31  1  0.16810687  0.49904255  0.16761689  1
  Sn  Sn32  1  0.16594738  0.50022653  0.49918387  1
  Sn  Sn33  1  0.16684586  0.83306042  0.50070491  1
  Sn  Sn34  1  0.16728549  0.16604784  0.83356215  1
  Sn  Sn35  1  0.83331686  0.83418707  0.16673056  1
  Sn  Sn36  1  0.16573419  0.16759911  0.16664903  1
  Sn  Sn37  1  0.16622773  0.83402085  0.83275545  1
  Sn  Sn38  1  0.50027293  0.16648749  0.50070491  1
  Sn  Sn39  1  0.83429082  0.16522647  0.16761684  1
  Sn  Sn40  1  0.49914623  0.50001642  0.16673056  1
  Pb  Pb41  1  0.49989134  0.49799225  0.49866949  1
  Pb  Pb42  1  0.49689574  0.83643758  0.83354103  1
  Pb  Pb43  1  0.50031959  0.16782715  0.16656345  1
  Pb  Pb44  1  0.49979801  0.49682652  0.83602788  1
  Pb  Pb45  1  0.50341660  0.82991676  0.16664081  1
  Pb  Pb46  1  0.16550619  0.83301376  0.16656340  1
  Pb  Pb47  1  0.83368275  0.16691270  0.83301250  1
  Pb  Pb48  1  0.83368659  0.49964668  0.16834702  1
  Pb  Pb49  1  0.49663559  0.83669775  0.49958144  1
  Pb  Pb50  1  0.83534111  0.83344197  0.49866950  1
  Pb  Pb51  1  0.16642062  0.49965058  0.83301256  1
  Pb  Pb52  1  0.83650684  0.83353531  0.83602787  1
  Pb  Pb53  1  0.83341379  0.49991953  0.82820448  1
  I  I54  1  0.16464943  0.00312255  0.16928169  1
  I  I55  1  0.16638945  0.00184795  0.50031458  1
  I  I56  1  0.16980268  0.00186138  0.83021317  1
  I  I57  1  0.16472407  0.33206218  0.16938538  1
  I  I58  1  0.16610843  0.33199205  0.49950435  1
  I  I59  1  0.17027238  0.32975536  0.83100051  1
  I  I60  1  0.16745831  0.66390853  0.16991455  1
  I  I61  1  0.16010121  0.66575050  0.49852107  1
  I  I62  1  0.16453989  0.66931146  0.83065836  1
  I  I63  1  0.49769688  0.00025880  0.16647725  1
  I  I64  1  0.50138497  0.00508333  0.50229176  1
  I  I65  1  0.49829201  0.00432313  0.83047347  1
  I  I66  1  0.49936410  0.33542307  0.16730086  1
  I  I67  1  0.49491911  0.32971336  0.50253515  1
  I  I68  1  0.49137836  0.32905743  0.82834633  1
  I  I69  1  0.49208649  0.66223939  0.16895944  1
  I  I70  1  0.50088277  0.66662881  0.49801276  1
  I  I71  1  0.49968434  0.66671312  0.83451917  1
  I  I72  1  0.84001567  0.00248295  0.17258484  1
  I  I73  1  0.83488807  0.00343916  0.49805583  1
  I  I74  1  0.83176415  0.00040652  0.82946524  1
  I  I75  1  0.83435328  0.33049045  0.16844789  1
  I  I76  1  0.83890457  0.33168508  0.49331700  1
  I  I77  1  0.83562365  0.33297588  0.84049676  1
  I  I78  1  0.83524025  0.66812442  0.16855749  1
  I  I79  1  0.84052449  0.66402311  0.49538513  1
  I  I80  1  0.83646011  0.66677672  0.83714359  1
  I  I81  1  0.16733915  0.16599431  0.00055803  1
  I  I82  1  0.16655101  0.16678238  0.33408604  1
  I  I83  1  0.16686010  0.16647312  0.66527343  1
  I  I84  1  0.16960250  0.49694482  0.00316712  1
  I  I85  1  0.16637863  0.49642542  0.33380313  1
  I  I86  1  0.16204643  0.49666424  0.66305819  1
  I  I87  1  0.16534589  0.83812605  -0.00215622  1
  I  I88  1  0.16468700  0.83629028  0.33589471  1
  I  I89  1  0.16496538  0.83825539  0.66574039  1
  I  I90  1  0.49520732  0.16798762  -0.00215626  1
  I  I91  1  0.49704304  0.16864634  0.33589475  1
  I  I92  1  0.49507789  0.16836776  0.66574038  1
  I  I93  1  0.49324584  0.49774510  0.00400486  1
  I  I94  1  0.49776906  0.49543182  0.33086832  1
  I  I95  1  0.50016461  0.50025143  0.66657003  1
  I  I96  1  0.49669445  0.83663861  0.00008999  1
  I  I97  1  0.49623395  0.83709959  0.33320977  1
  I  I98  1  0.50406182  0.82927161  0.66647944  1
  I  I99  1  0.83638836  0.16373070  0.00316707  1
  I  I100  1  0.83690788  0.16695447  0.33380311  1
  I  I101  1  0.83666924  0.17128716  0.66305821  1
  I  I102  1  0.83342172  0.49991195  0.00027998  1
  I  I103  1  0.83585505  0.49747827  0.33620202  1
  I  I104  1  0.84258775  0.49074548  0.66061413  1
  I  I105  1  0.83558845  0.84008745  0.00400480  1
  I  I106  1  0.83790141  0.83556464  0.33086833  1
  I  I107  1  0.83308203  0.83316860  0.66657001  1
  I  I108  1  0.00127115  0.16860938  0.16938534  1
  I  I109  1  0.00134133  0.16722486  0.49950423  1
  I  I110  1  0.00357798  0.16306101  0.83100068  1
  I  I111  1  0.00284291  0.49898003  0.16844791  1
  I  I112  1  0.00164822  0.49442879  0.49331720  1
  I  I113  1  0.00035743  0.49770936  0.84049640  1
  I  I114  1  -0.00208975  0.83396913  0.16730095  1
  I  I115  1  0.00361995  0.83841418  0.50253508  1
  I  I116  1  0.00427587  0.84195516  0.82834662  1
  I  I117  1  0.33021077  0.16868377  0.16928170  1
  I  I118  1  0.33148540  0.16694400  0.50031455  1
  I  I119  1  0.33147196  0.16353072  0.83021304  1
  I  I120  1  0.33085037  0.49331759  0.17258494  1
  I  I121  1  0.32989417  0.49844534  0.49805559  1
  I  I122  1  0.33292680  0.50156918  0.82946550  1
  I  I123  1  0.33307454  0.83563667  0.16647750  1
  I  I124  1  0.32825005  0.83194815  0.50229175  1
  I  I125  1  0.32901021  0.83504131  0.83047320  1
  I  I126  1  0.66942479  0.16587523  0.16991460  1
  I  I127  1  0.66758293  0.17323211  0.49852116  1
  I  I128  1  0.66402191  0.16879326  0.83065824  1
  I  I129  1  0.66520890  0.49809317  0.16855712  1
  I  I130  1  0.66931023  0.49280877  0.49538516  1
  I  I131  1  0.66655660  0.49687330  0.83714376  1
  I  I132  1  0.67109391  0.84124664  0.16895924  1
  I  I133  1  0.66670447  0.83245072  0.49801275  1
  I  I134  1  0.66662018  0.83364904  0.83451934  1
