# generated using pymatgen
data_Cs27Sn13Pb14I81
_symmetry_space_group_name_H-M   'P 1'
_cell_length_a   18.98196508
_cell_length_b   18.97118692
_cell_length_c   18.97673965
_cell_angle_alpha   90.00089602
_cell_angle_beta   89.99926647
_cell_angle_gamma   89.99852695
_symmetry_Int_Tables_number   1
_chemical_formula_structural   Cs27Sn13Pb14I81
_chemical_formula_sum   'Cs27 Sn13 Pb14 I81'
_cell_volume   6833.72144473
_cell_formula_units_Z   1
loop_
 _symmetry_equiv_pos_site_id
 _symmetry_equiv_pos_as_xyz
  1  'x, y, z'
loop_
 _atom_site_type_symbol
 _atom_site_label
 _atom_site_symmetry_multiplicity
 _atom_site_fract_x
 _atom_site_fract_y
 _atom_site_fract_z
 _atom_site_occupancy
  Cs  Cs0  1  0.00205299  -0.00123826  0.00254135  1
  Cs  Cs1  1  -0.00218183  -0.00075361  0.33176050  1
  Cs  Cs2  1  0.00179798  0.00273949  0.66393809  1
  Cs  Cs3  1  -0.00217343  0.33442938  0.00160836  1
  Cs  Cs4  1  -0.00096959  0.34241352  0.33196257  1
  Cs  Cs5  1  0.00174771  0.33180071  0.66542144  1
  Cs  Cs6  1  0.00126448  0.66702143  -0.00243219  1
  Cs  Cs7  1  0.00243467  0.66372694  0.33553354  1
  Cs  Cs8  1  -0.00369222  0.66383099  0.66805916  1
  Cs  Cs9  1  0.33304215  -0.00013764  0.00091736  1
  Cs  Cs10  1  0.33320777  -0.00123816  0.33160189  1
  Cs  Cs11  1  0.33222719  0.00065944  0.66320967  1
  Cs  Cs12  1  0.33362453  0.33374122  -0.00272135  1
  Cs  Cs13  1  0.33386307  0.34059949  0.33343432  1
  Cs  Cs14  1  0.33095448  0.32970832  0.67100306  1
  Cs  Cs15  1  0.33163609  0.66607522  0.00086656  1
  Cs  Cs16  1  0.33400179  0.66072873  0.33875898  1
  Cs  Cs17  1  0.33566777  0.66961814  0.66219538  1
  Cs  Cs18  1  0.66649418  -0.00003390  0.00082071  1
  Cs  Cs19  1  0.66909298  0.00199734  0.33244803  1
  Cs  Cs20  1  0.66606529  -0.00077473  0.66629747  1
  Cs  Cs21  1  0.66674404  0.33226826  0.00118004  1
  Cs  Cs22  1  0.66771612  0.33514141  0.33228223  1
  Cs  Cs23  1  0.66683672  0.33203202  0.66691647  1
  Cs  Cs24  1  0.66831961  0.66767865  -0.00516061  1
  Cs  Cs25  1  0.66418872  0.66060948  0.33633516  1
  Cs  Cs26  1  0.66775504  0.66735055  0.66852260  1
  Sn  Sn27  1  0.16688546  0.83284741  0.83347186  1
  Sn  Sn28  1  0.83317828  0.83348480  0.16759518  1
  Sn  Sn29  1  0.83262071  0.16585149  0.50050220  1
  Sn  Sn30  1  0.49921573  0.49966759  0.83354641  1
  Sn  Sn31  1  0.16749867  0.16634581  0.16690462  1
  Sn  Sn32  1  0.50073892  0.16687421  0.83333087  1
  Sn  Sn33  1  0.49888293  0.16601229  0.16696845  1
  Sn  Sn34  1  0.83272779  0.16608380  0.83284504  1
  Sn  Sn35  1  0.83328798  0.83411649  0.49910023  1
  Sn  Sn36  1  0.50042097  0.16635899  0.49971145  1
  Sn  Sn37  1  0.49984983  0.83365150  0.16666424  1
  Sn  Sn38  1  0.16764356  0.50116431  0.83354577  1
  Sn  Sn39  1  0.16711371  0.83401160  0.16629317  1
  Pb  Pb40  1  0.83325137  0.49700806  0.83335246  1
  Pb  Pb41  1  0.16435385  0.83352736  0.49942978  1
  Pb  Pb42  1  0.50227135  0.83549421  0.49719441  1
  Pb  Pb43  1  0.50009389  0.49988598  0.16427265  1
  Pb  Pb44  1  0.83313073  0.50426558  0.16641745  1
  Pb  Pb45  1  0.50010832  0.49682707  0.50337573  1
  Pb  Pb46  1  0.49796382  0.83399842  0.83496179  1
  Pb  Pb47  1  0.83554093  0.83581277  0.83323837  1
  Pb  Pb48  1  0.16686274  0.50045504  0.16464085  1
  Pb  Pb49  1  0.16641191  0.16665098  0.49630761  1
  Pb  Pb50  1  0.83308668  0.49954996  0.50018621  1
  Pb  Pb51  1  0.16674492  0.16631104  0.83520414  1
  Pb  Pb52  1  0.83323040  0.16557048  0.16703350  1
  Pb  Pb53  1  0.16684760  0.49993162  0.50367492  1
  I  I54  1  0.16749493  -0.00100156  0.16004118  1
  I  I55  1  0.16800503  0.00019835  0.50641124  1
  I  I56  1  0.16570888  -0.00230329  0.83703644  1
  I  I57  1  0.17137150  0.33045675  0.16539845  1
  I  I58  1  0.16391040  0.33292864  0.49955192  1
  I  I59  1  0.16803672  0.33497601  0.83490770  1
  I  I60  1  0.16593214  0.67039686  0.16369836  1
  I  I61  1  0.16483560  0.66690541  0.49553188  1
  I  I62  1  0.17045123  0.66719021  0.84023971  1
  I  I63  1  0.49915070  0.00101805  0.16372837  1
  I  I64  1  0.50165911  0.00385887  0.50584035  1
  I  I65  1  0.50274765  0.00346078  0.83286506  1
  I  I66  1  0.49545537  0.32950268  0.16795639  1
  I  I67  1  0.50699124  0.32840795  0.49384604  1
  I  I68  1  0.49749777  0.33157867  0.83496419  1
  I  I69  1  0.49987943  0.67000063  0.16423289  1
  I  I70  1  0.50127434  0.66676009  0.49964056  1
  I  I71  1  0.49753138  0.66467076  0.83679582  1
  I  I72  1  0.83401160  -0.00261986  0.16692427  1
  I  I73  1  0.82991343  0.00094229  0.49996310  1
  I  I74  1  0.82796298  0.00363399  0.83267003  1
  I  I75  1  0.83433611  0.33309591  0.16658690  1
  I  I76  1  0.82962445  0.32938288  0.50474817  1
  I  I77  1  0.83430609  0.32886105  0.82816964  1
  I  I78  1  0.83409656  0.67271738  0.17136165  1
  I  I79  1  0.83540040  0.66991243  0.49466366  1
  I  I80  1  0.83151263  0.66697760  0.83359438  1
  I  I81  1  0.16994157  0.16449615  0.00298299  1
  I  I82  1  0.16961226  0.15826266  0.32841502  1
  I  I83  1  0.16822523  0.16697267  0.66678526  1
  I  I84  1  0.17079431  0.50096759  -0.00321744  1
  I  I85  1  0.16534530  0.49974867  0.33321054  1
  I  I86  1  0.17033309  0.50450240  0.67184103  1
  I  I87  1  0.16408900  0.83377892  0.00115851  1
  I  I88  1  0.16751406  0.83935326  0.32955147  1
  I  I89  1  0.16537836  0.82943291  0.66952055  1
  I  I90  1  0.50037047  0.16694098  -0.00005380  1
  I  I91  1  0.50079384  0.16017259  0.33263034  1
  I  I92  1  0.50479363  0.17161304  0.66734020  1
  I  I93  1  0.49625517  0.49344888  -0.00352500  1
  I  I94  1  0.50053429  0.49981423  0.33343724  1
  I  I95  1  0.49563815  0.49551192  0.67130118  1
  I  I96  1  0.50431337  0.83923387  0.00326416  1
  I  I97  1  0.49492522  0.83916505  0.32885543  1
  I  I98  1  0.49974618  0.83368428  0.66661888  1
  I  I99  1  0.83046465  0.16570865  -0.00196594  1
  I  I100  1  0.83003964  0.16305498  0.33586628  1
  I  I101  1  0.82641025  0.16149353  0.66650594  1
  I  I102  1  0.83330820  0.49841453  -0.00042369  1
  I  I103  1  0.83364181  0.49433280  0.33337070  1
  I  I104  1  0.83416123  0.50516784  0.66694394  1
  I  I105  1  0.83251568  0.83564561  0.00272770  1
  I  I106  1  0.83502006  0.84140376  0.33265753  1
  I  I107  1  0.83529272  0.83608259  0.66429859  1
  I  I108  1  0.00207037  0.16166076  0.16438910  1
  I  I109  1  -0.00335680  0.16246522  0.50530368  1
  I  I110  1  -0.00211837  0.16585100  0.83041653  1
  I  I111  1  0.00016793  0.49644408  0.16341025  1
  I  I112  1  -0.00016642  0.49741997  0.50153532  1
  I  I113  1  0.00287013  0.50334029  0.83441502  1
  I  I114  1  0.00056353  0.83861829  0.16590749  1
  I  I115  1  -0.00363139  0.84107015  0.49507981  1
  I  I116  1  0.00329484  0.82961410  0.83934264  1
  I  I117  1  0.33451500  0.15842816  0.16495376  1
  I  I118  1  0.33652512  0.16700049  0.50411821  1
  I  I119  1  0.33615120  0.16797744  0.83185411  1
  I  I120  1  0.33347234  0.50306267  0.16717329  1
  I  I121  1  0.33371268  0.49923494  0.49740939  1
  I  I122  1  0.33365001  0.49595867  0.83513036  1
  I  I123  1  0.33311357  0.83942051  0.15989817  1
  I  I124  1  0.33356148  0.83473659  0.49996564  1
  I  I125  1  0.33006264  0.83463647  0.83978395  1
  I  I126  1  0.66372153  0.16246415  0.16530834  1
  I  I127  1  0.66649780  0.16243030  0.49987195  1
  I  I128  1  0.66530322  0.17146140  0.83523523  1
  I  I129  1  0.66642955  0.49827727  0.16353708  1
  I  I130  1  0.66649329  0.50270987  0.50258748  1
  I  I131  1  0.66362651  0.49721409  0.83389031  1
  I  I132  1  0.66633526  0.83932107  0.16975658  1
  I  I133  1  0.67023389  0.83632804  0.49614521  1
  I  I134  1  0.66666431  0.83078684  0.83504495  1
