# generated using pymatgen
data_Cs27Sn13Pb14I81
_symmetry_space_group_name_H-M   'P 1'
_cell_length_a   18.96852095
_cell_length_b   18.98142453
_cell_length_c   18.98088860
_cell_angle_alpha   89.99989678
_cell_angle_beta   89.99865415
_cell_angle_gamma   90.00114952
_symmetry_Int_Tables_number   1
_chemical_formula_structural   Cs27Sn13Pb14I81
_chemical_formula_sum   'Cs27 Sn13 Pb14 I81'
_cell_volume   6834.06037356
_cell_formula_units_Z   1
loop_
 _symmetry_equiv_pos_site_id
 _symmetry_equiv_pos_as_xyz
  1  'x, y, z'
loop_
 _atom_site_type_symbol
 _atom_site_label
 _atom_site_symmetry_multiplicity
 _atom_site_fract_x
 _atom_site_fract_y
 _atom_site_fract_z
 _atom_site_occupancy
  Cs  Cs0  1  -0.00099573  0.00094841  -0.00035827  1
  Cs  Cs1  1  -0.00174117  0.00065467  0.33406978  1
  Cs  Cs2  1  0.00076147  -0.00103777  0.66534787  1
  Cs  Cs3  1  0.00061367  0.33300021  -0.00001346  1
  Cs  Cs4  1  0.00147599  0.33355861  0.33280735  1
  Cs  Cs5  1  0.00035028  0.33241926  0.66793408  1
  Cs  Cs6  1  -0.00190296  0.66674282  0.00142601  1
  Cs  Cs7  1  0.00012056  0.66569878  0.33164605  1
  Cs  Cs8  1  0.00072395  0.66872537  0.66686051  1
  Cs  Cs9  1  0.33975295  -0.00124461  -0.00067219  1
  Cs  Cs10  1  0.33936823  -0.00190752  0.33110703  1
  Cs  Cs11  1  0.33401558  -0.00957826  0.67104024  1
  Cs  Cs12  1  0.32926915  0.33038214  0.00072285  1
  Cs  Cs13  1  0.33089048  0.33515116  0.33373753  1
  Cs  Cs14  1  0.33507990  0.33343949  0.66564623  1
  Cs  Cs15  1  0.33268428  0.67154837  0.00072596  1
  Cs  Cs16  1  0.33579679  0.66540563  0.33376318  1
  Cs  Cs17  1  0.33761965  0.67375900  0.66667330  1
  Cs  Cs18  1  0.66519756  0.00001186  0.00249159  1
  Cs  Cs19  1  0.66322947  0.00043853  0.33758754  1
  Cs  Cs20  1  0.66493588  0.00263766  0.65683691  1
  Cs  Cs21  1  0.66766305  0.33359531  -0.00278268  1
  Cs  Cs22  1  0.66571076  0.33280894  0.33543140  1
  Cs  Cs23  1  0.65793354  0.33667283  0.66609945  1
  Cs  Cs24  1  0.66931469  0.66590990  -0.00133819  1
  Cs  Cs25  1  0.66574491  0.66657398  0.33351334  1
  Cs  Cs26  1  0.65926199  0.66033099  0.66646276  1
  Sn  Sn27  1  0.50122152  0.49942561  0.16599904  1
  Sn  Sn28  1  0.83356591  0.83462134  0.83354305  1
  Sn  Sn29  1  0.83379481  0.16568523  0.83364890  1
  Sn  Sn30  1  0.16546419  0.49946744  0.50154463  1
  Sn  Sn31  1  0.16556734  0.83485116  0.16674786  1
  Sn  Sn32  1  0.16623775  0.49979291  0.83209328  1
  Sn  Sn33  1  0.16579018  0.16521441  0.16671685  1
  Sn  Sn34  1  0.83403459  0.16650620  0.16622479  1
  Sn  Sn35  1  0.16587690  0.16724368  0.83312216  1
  Sn  Sn36  1  0.83425754  0.83391367  0.16616133  1
  Sn  Sn37  1  0.16634725  0.16695520  0.50022558  1
  Sn  Sn38  1  0.83452511  0.49979338  0.49962032  1
  Sn  Sn39  1  0.83241462  0.49956157  0.16746555  1
  Pb  Pb40  1  0.83487426  0.49953186  0.83320373  1
  Pb  Pb41  1  0.50095159  0.83109256  0.16654796  1
  Pb  Pb42  1  0.49588399  0.16688162  0.50001416  1
  Pb  Pb43  1  0.83495922  0.16894502  0.50038568  1
  Pb  Pb44  1  0.50455042  0.83358204  0.83373938  1
  Pb  Pb45  1  0.50013662  0.83323990  0.49981926  1
  Pb  Pb46  1  0.83342970  0.83056332  0.50008710  1
  Pb  Pb47  1  0.16484581  0.83385385  0.83567659  1
  Pb  Pb48  1  0.49608322  0.49982582  0.83629671  1
  Pb  Pb49  1  0.49920095  0.49980440  0.49794423  1
  Pb  Pb50  1  0.50037923  0.16892490  0.16658784  1
  Pb  Pb51  1  0.16598100  0.49984422  0.16662138  1
  Pb  Pb52  1  0.16641097  0.83334443  0.49709118  1
  Pb  Pb53  1  0.50032255  0.16661927  0.83349213  1
  I  I54  1  0.15893101  0.00132279  0.16707883  1
  I  I55  1  0.16579381  0.00333804  0.50245410  1
  I  I56  1  0.16438724  0.00336993  0.83060284  1
  I  I57  1  0.16412573  0.33062340  0.16632411  1
  I  I58  1  0.16236725  0.33359961  0.49748125  1
  I  I59  1  0.16073743  0.33217843  0.83605446  1
  I  I60  1  0.16372353  0.66831568  0.16611981  1
  I  I61  1  0.16318043  0.66327229  0.50220316  1
  I  I62  1  0.16450654  0.66451951  0.83161554  1
  I  I63  1  0.50067452  0.00004816  0.16704548  1
  I  I64  1  0.50049788  0.00027323  0.49820836  1
  I  I65  1  0.49331931  0.00002359  0.83482560  1
  I  I66  1  0.50298220  0.33664522  0.16747380  1
  I  I67  1  0.50250514  0.33362147  0.49887164  1
  I  I68  1  0.50501560  0.33348617  0.83406295  1
  I  I69  1  0.50193625  0.66324923  0.16762917  1
  I  I70  1  0.49817382  0.66595736  0.49865946  1
  I  I71  1  0.49934991  0.66650829  0.83391602  1
  I  I72  1  0.83964255  0.00048904  0.16126090  1
  I  I73  1  0.83438770  0.00032029  0.49773324  1
  I  I74  1  0.84050524  0.00107986  0.84285819  1
  I  I75  1  0.83472853  0.33299429  0.16604149  1
  I  I76  1  0.83673811  0.33678399  0.49449265  1
  I  I77  1  0.83726951  0.33052573  0.83816555  1
  I  I78  1  0.83458700  0.66663154  0.16609573  1
  I  I79  1  0.84002875  0.66246134  0.49507345  1
  I  I80  1  0.83630890  0.66830204  0.83808828  1
  I  I81  1  0.16247160  0.16944563  0.00022957  1
  I  I82  1  0.16226524  0.16872760  0.33242351  1
  I  I83  1  0.16161339  0.17355228  0.66737053  1
  I  I84  1  0.16623473  0.49659825  -0.00177701  1
  I  I85  1  0.16589350  0.49709428  0.33522988  1
  I  I86  1  0.15979474  0.49158672  0.66609343  1
  I  I87  1  0.16406579  0.83405669  0.00364791  1
  I  I88  1  0.15975488  0.83517540  0.32892166  1
  I  I89  1  0.16580344  0.83469933  0.66692209  1
  I  I90  1  0.49467953  0.16854688  0.00022254  1
  I  I91  1  0.50045732  0.16739325  0.33305085  1
  I  I92  1  0.50309013  0.16879080  0.66670747  1
  I  I93  1  0.50678379  0.50004983  0.00384870  1
  I  I94  1  0.49926165  0.50041968  0.33011109  1
  I  I95  1  0.50335341  0.50019875  0.66672770  1
  I  I96  1  0.49613095  0.83161758  0.00038478  1
  I  I97  1  0.50038522  0.83213600  0.33259617  1
  I  I98  1  0.49902426  0.83173534  0.66702531  1
  I  I99  1  0.84099806  0.16875368  0.00117891  1
  I  I100  1  0.83773047  0.16531418  0.33017847  1
  I  I101  1  0.83871919  0.16281469  0.66969911  1
  I  I102  1  0.83212627  0.50047316  0.00293374  1
  I  I103  1  0.83586988  0.50017674  0.33177956  1
  I  I104  1  0.83742108  0.50034408  0.66435386  1
  I  I105  1  0.83787273  0.83092182  0.00166541  1
  I  I106  1  0.83720412  0.83488841  0.32966094  1
  I  I107  1  0.83493188  0.83757808  0.66978130  1
  I  I108  1  0.00001165  0.16887532  0.16587365  1
  I  I109  1  0.00331857  0.16979811  0.49873213  1
  I  I110  1  0.00059434  0.16751194  0.83559723  1
  I  I111  1  -0.00283946  0.50038910  0.16771340  1
  I  I112  1  0.00071145  0.49680221  0.49598073  1
  I  I113  1  0.00290692  0.49788282  0.83520686  1
  I  I114  1  -0.00112663  0.83085081  0.16371294  1
  I  I115  1  -0.00001848  0.83305119  0.50052600  1
  I  I116  1  -0.00305080  0.83383796  0.83688026  1
  I  I117  1  0.32951865  0.16478896  0.16620916  1
  I  I118  1  0.32732912  0.17541033  0.49780992  1
  I  I119  1  0.32915614  0.17220030  0.83484443  1
  I  I120  1  0.33444637  0.49995713  0.16653083  1
  I  I121  1  0.32951296  0.49521446  0.50071623  1
  I  I122  1  0.32792506  0.49340102  0.82980675  1
  I  I123  1  0.33045219  0.83572006  0.16732204  1
  I  I124  1  0.33265184  0.83103356  0.49765797  1
  I  I125  1  0.33314423  0.83260152  0.83480809  1
  I  I126  1  0.67069404  0.16484276  0.16181447  1
  I  I127  1  0.66692471  0.16800290  0.49965832  1
  I  I128  1  0.67084991  0.16341269  0.84042593  1
  I  I129  1  0.66945714  0.50075489  0.17186058  1
  I  I130  1  0.66955105  0.50107884  0.49765602  1
  I  I131  1  0.66681736  0.50036926  0.83068647  1
  I  I132  1  0.67084661  0.83478179  0.16280696  1
  I  I133  1  0.66733687  0.83176946  0.49797303  1
  I  I134  1  0.67255480  0.83690018  0.84239921  1
