# generated using pymatgen
data_Cs27Sn13Pb14I81
_symmetry_space_group_name_H-M   'P 1'
_cell_length_a   18.97815889
_cell_length_b   18.98623028
_cell_length_c   18.96849299
_cell_angle_alpha   89.99988516
_cell_angle_beta   89.99853754
_cell_angle_gamma   89.99980982
_symmetry_Int_Tables_number   1
_chemical_formula_structural   Cs27Sn13Pb14I81
_chemical_formula_sum   'Cs27 Sn13 Pb14 I81'
_cell_volume   6834.79748017
_cell_formula_units_Z   1
loop_
 _symmetry_equiv_pos_site_id
 _symmetry_equiv_pos_as_xyz
  1  'x, y, z'
loop_
 _atom_site_type_symbol
 _atom_site_label
 _atom_site_symmetry_multiplicity
 _atom_site_fract_x
 _atom_site_fract_y
 _atom_site_fract_z
 _atom_site_occupancy
  Cs  Cs0  1  -0.00006744  0.00245320  -0.00112423  1
  Cs  Cs1  1  -0.00101406  -0.00037850  0.33536769  1
  Cs  Cs2  1  0.00204791  -0.00101746  0.66752487  1
  Cs  Cs3  1  -0.00009214  0.33062585  0.00065015  1
  Cs  Cs4  1  0.00182353  0.33782217  0.33344802  1
  Cs  Cs5  1  0.00162979  0.33180919  0.66521784  1
  Cs  Cs6  1  -0.00205313  0.66649553  0.00050320  1
  Cs  Cs7  1  0.00155658  0.66257140  0.33308757  1
  Cs  Cs8  1  -0.00421582  0.66842849  0.66558388  1
  Cs  Cs9  1  0.33403318  -0.00102137  0.00077510  1
  Cs  Cs10  1  0.33666730  -0.00138028  0.32918205  1
  Cs  Cs11  1  0.33121265  -0.00151753  0.66844943  1
  Cs  Cs12  1  0.33213009  0.33077524  -0.00123205  1
  Cs  Cs13  1  0.33398728  0.33403268  0.33456040  1
  Cs  Cs14  1  0.33430648  0.33481237  0.66708486  1
  Cs  Cs15  1  0.33392760  0.66932177  0.00036085  1
  Cs  Cs16  1  0.32982565  0.66791005  0.33340193  1
  Cs  Cs17  1  0.33378347  0.66874566  0.66674103  1
  Cs  Cs18  1  0.66610134  -0.00034942  0.00062285  1
  Cs  Cs19  1  0.66441147  0.00261721  0.33548938  1
  Cs  Cs20  1  0.66689786  -0.00110726  0.66388475  1
  Cs  Cs21  1  0.66830294  0.33688279  -0.00027831  1
  Cs  Cs22  1  0.66460559  0.33137600  0.33833944  1
  Cs  Cs23  1  0.66331404  0.33879071  0.66004067  1
  Cs  Cs24  1  0.66846789  0.66286959  0.00069702  1
  Cs  Cs25  1  0.66862655  0.66679086  0.32957790  1
  Cs  Cs26  1  0.67076044  0.66271644  0.66717714  1
  Sn  Sn27  1  0.16688320  0.16566246  0.50053896  1
  Sn  Sn28  1  0.16680692  0.16653454  0.83274546  1
  Sn  Sn29  1  0.49947555  0.83325509  0.50085583  1
  Sn  Sn30  1  0.83245886  0.49935127  0.16637526  1
  Sn  Sn31  1  0.83264246  0.16661396  0.83332220  1
  Sn  Sn32  1  0.16659178  0.50036564  0.83341216  1
  Sn  Sn33  1  0.50039207  0.16615936  0.83332741  1
  Sn  Sn34  1  0.49992536  0.49981910  0.16654794  1
  Sn  Sn35  1  0.16710074  0.83317859  0.83285685  1
  Sn  Sn36  1  0.83349052  0.83388143  0.16646577  1
  Sn  Sn37  1  0.83333755  0.16666892  0.16625053  1
  Sn  Sn38  1  0.49993554  0.83386089  0.83254970  1
  Sn  Sn39  1  0.16758744  0.83457570  0.50079525  1
  Pb  Pb40  1  0.50234759  0.16868899  0.16438583  1
  Pb  Pb41  1  0.83354967  0.83342186  0.49770539  1
  Pb  Pb42  1  0.83562386  0.16662102  0.50047506  1
  Pb  Pb43  1  0.83305136  0.83522616  0.83485824  1
  Pb  Pb44  1  0.49964139  0.50319761  0.49748158  1
  Pb  Pb45  1  0.16492053  0.16651042  0.16690178  1
  Pb  Pb46  1  0.50199003  0.83195100  0.16624233  1
  Pb  Pb47  1  0.16457248  0.83355935  0.16666802  1
  Pb  Pb48  1  0.49826230  0.50037849  0.83473115  1
  Pb  Pb49  1  0.83556345  0.49715180  0.83488398  1
  Pb  Pb50  1  0.16684561  0.50049983  0.50276237  1
  Pb  Pb51  1  0.83331373  0.49987216  0.49724210  1
  Pb  Pb52  1  0.49729313  0.16451459  0.50261871  1
  Pb  Pb53  1  0.16686541  0.49993624  0.16435974  1
  I  I54  1  0.16404740  -0.00004739  0.16234302  1
  I  I55  1  0.16815444  -0.00064543  0.50877821  1
  I  I56  1  0.16641846  0.00014164  0.82965188  1
  I  I57  1  0.16406194  0.33325016  0.16592060  1
  I  I58  1  0.16418866  0.33047591  0.50392864  1
  I  I59  1  0.16607743  0.33165560  0.83143207  1
  I  I60  1  0.16284065  0.66679349  0.16587427  1
  I  I61  1  0.17002838  0.67034789  0.50298817  1
  I  I62  1  0.17177105  0.66820527  0.83131324  1
  I  I63  1  0.50213344  -0.00000533  0.16775343  1
  I  I64  1  0.49885277  -0.00338396  0.49959178  1
  I  I65  1  0.49528586  -0.00023014  0.83181219  1
  I  I66  1  0.50493381  0.33638230  0.16401343  1
  I  I67  1  0.49943219  0.33315459  0.49997528  1
  I  I68  1  0.49837175  0.33055969  0.83714782  1
  I  I69  1  0.50701929  0.66431407  0.16426595  1
  I  I70  1  0.49276988  0.67117203  0.50675173  1
  I  I71  1  0.49439223  0.66993294  0.83190323  1
  I  I72  1  0.83568977  0.00071809  0.16217936  1
  I  I73  1  0.83213821  -0.00001778  0.49515374  1
  I  I74  1  0.83829912  0.00322069  0.84039992  1
  I  I75  1  0.83085328  0.33302384  0.16080139  1
  I  I76  1  0.83573682  0.33298559  0.49851172  1
  I  I77  1  0.83418021  0.32901705  0.84001205  1
  I  I78  1  0.82962335  0.66630476  0.16735721  1
  I  I79  1  0.83623536  0.66696624  0.49828372  1
  I  I80  1  0.83430979  0.66665491  0.83618584  1
  I  I81  1  0.16743678  0.16583953  -0.00378310  1
  I  I82  1  0.16409760  0.16158098  0.33652184  1
  I  I83  1  0.16367971  0.16592785  0.66878052  1
  I  I84  1  0.16601095  0.49918018  -0.00371402  1
  I  I85  1  0.16501926  0.50012753  0.33337932  1
  I  I86  1  0.16788929  0.49844819  0.67080502  1
  I  I87  1  0.17008312  0.83486435  -0.00368889  1
  I  I88  1  0.16998030  0.83806803  0.33671176  1
  I  I89  1  0.16983201  0.83451963  0.66797735  1
  I  I90  1  0.49382618  0.16033358  -0.00400741  1
  I  I91  1  0.50003073  0.16598494  0.33349384  1
  I  I92  1  0.50505184  0.16672851  0.67108089  1
  I  I93  1  0.50451333  0.50226848  0.00251238  1
  I  I94  1  0.50518027  0.50070051  0.32946829  1
  I  I95  1  0.49834265  0.49791999  0.66683506  1
  I  I96  1  0.49560356  0.83617678  -0.00325316  1
  I  I97  1  0.49594869  0.83075612  0.33576949  1
  I  I98  1  0.49522293  0.83751005  0.66793824  1
  I  I99  1  0.83660364  0.16654679  -0.00050742  1
  I  I100  1  0.83549274  0.16725647  0.33024270  1
  I  I101  1  0.83375978  0.16468402  0.67016288  1
  I  I102  1  0.83050798  0.50217089  0.00318771  1
  I  I103  1  0.83140057  0.49788187  0.32834284  1
  I  I104  1  0.83439927  0.49932429  0.66711784  1
  I  I105  1  0.83362346  0.83173678  0.00292560  1
  I  I106  1  0.83342027  0.83486570  0.32945713  1
  I  I107  1  0.83371055  0.83547849  0.66681810  1
  I  I108  1  -0.00349694  0.16907209  0.16036896  1
  I  I109  1  0.00366663  0.16006962  0.50575431  1
  I  I110  1  0.00090093  0.16665950  0.83481430  1
  I  I111  1  -0.00311932  0.49974462  0.16532240  1
  I  I112  1  0.00040875  0.50207309  0.49727342  1
  I  I113  1  0.00356998  0.50128538  0.83576477  1
  I  I114  1  -0.00348889  0.83076694  0.16573166  1
  I  I115  1  0.00353157  0.83705212  0.50405790  1
  I  I116  1  0.00312722  0.83423869  0.83083603  1
  I  I117  1  0.33359892  0.16890176  0.16544271  1
  I  I118  1  0.32930383  0.16562791  0.50560753  1
  I  I119  1  0.33252455  0.16645168  0.82928484  1
  I  I120  1  0.33588842  0.50178698  0.16491630  1
  I  I121  1  0.33314176  0.49735325  0.49511727  1
  I  I122  1  0.33034006  0.49549264  0.83693255  1
  I  I123  1  0.33349712  0.83028640  0.16645287  1
  I  I124  1  0.33240684  0.83666255  0.50390447  1
  I  I125  1  0.33266661  0.83732490  0.83133806  1
  I  I126  1  0.67059378  0.16414562  0.16093363  1
  I  I127  1  0.66633827  0.16515838  0.50015059  1
  I  I128  1  0.66653596  0.16076289  0.84060778  1
  I  I129  1  0.66781625  0.50115006  0.16404153  1
  I  I130  1  0.66632137  0.50139632  0.50330878  1
  I  I131  1  0.66675952  0.50025361  0.83401053  1
  I  I132  1  0.66990403  0.83498358  0.16604530  1
  I  I133  1  0.66364756  0.83271660  0.50346938  1
  I  I134  1  0.66365670  0.83822375  0.83111445  1
