# generated using pymatgen
data_Cs27Sn13Pb14I81
_symmetry_space_group_name_H-M   'P 1'
_cell_length_a   18.97274508
_cell_length_b   18.97840467
_cell_length_c   18.98222305
_cell_angle_alpha   89.99915631
_cell_angle_beta   90.00110452
_cell_angle_gamma   90.00176266
_symmetry_Int_Tables_number   1
_chemical_formula_structural   Cs27Sn13Pb14I81
_chemical_formula_sum   'Cs27 Sn13 Pb14 I81'
_cell_volume   6834.97524793
_cell_formula_units_Z   1
loop_
 _symmetry_equiv_pos_site_id
 _symmetry_equiv_pos_as_xyz
  1  'x, y, z'
loop_
 _atom_site_type_symbol
 _atom_site_label
 _atom_site_symmetry_multiplicity
 _atom_site_fract_x
 _atom_site_fract_y
 _atom_site_fract_z
 _atom_site_occupancy
  Cs  Cs0  1  0.00376980  0.00293942  -0.00276128  1
  Cs  Cs1  1  -0.00158578  0.00100453  0.33481131  1
  Cs  Cs2  1  0.00118619  0.00106534  0.66723726  1
  Cs  Cs3  1  0.00071959  0.33096049  -0.00127128  1
  Cs  Cs4  1  0.00018580  0.33401964  0.33447563  1
  Cs  Cs5  1  -0.00112471  0.33199832  0.66539955  1
  Cs  Cs6  1  0.00063266  0.66650282  0.00243598  1
  Cs  Cs7  1  -0.00127934  0.66574214  0.33333197  1
  Cs  Cs8  1  0.00099934  0.66687852  0.66437423  1
  Cs  Cs9  1  0.32947318  0.00176714  0.00343905  1
  Cs  Cs10  1  0.34143843  -0.00405877  0.32856382  1
  Cs  Cs11  1  0.33410820  -0.00353953  0.66626790  1
  Cs  Cs12  1  0.33199411  0.33381760  0.00150597  1
  Cs  Cs13  1  0.33304936  0.33034553  0.33301956  1
  Cs  Cs14  1  0.33570300  0.33533269  0.66496440  1
  Cs  Cs15  1  0.33265645  0.66536184  0.00010594  1
  Cs  Cs16  1  0.33350579  0.67354957  0.33356555  1
  Cs  Cs17  1  0.33326728  0.66845798  0.66550076  1
  Cs  Cs18  1  0.66705826  -0.00116800  -0.00213158  1
  Cs  Cs19  1  0.66489285  0.00130009  0.33319644  1
  Cs  Cs20  1  0.66655839  0.00046077  0.66879144  1
  Cs  Cs21  1  0.66717669  0.33425629  -0.00317711  1
  Cs  Cs22  1  0.66584658  0.33151571  0.33547130  1
  Cs  Cs23  1  0.66425564  0.33989169  0.66904017  1
  Cs  Cs24  1  0.66615794  0.66757192  -0.00070020  1
  Cs  Cs25  1  0.66826887  0.66707017  0.33372939  1
  Cs  Cs26  1  0.66512297  0.66090996  0.66857335  1
  Sn  Sn27  1  0.83301910  0.49954899  0.16657034  1
  Sn  Sn28  1  0.50015798  0.49989864  0.16712471  1
  Sn  Sn29  1  0.83345582  0.83387771  0.16644973  1
  Sn  Sn30  1  0.83328551  0.83403671  0.50025621  1
  Sn  Sn31  1  0.16684261  0.49991735  0.16708174  1
  Sn  Sn32  1  0.83299488  0.83326693  0.83320957  1
  Sn  Sn33  1  0.16642139  0.49921563  0.49965083  1
  Sn  Sn34  1  0.50044213  0.83432625  0.83360610  1
  Sn  Sn35  1  0.16662786  0.16674955  0.49963797  1
  Sn  Sn36  1  0.49987420  0.16595401  0.83339830  1
  Sn  Sn37  1  0.83345481  0.16667213  0.16702982  1
  Sn  Sn38  1  0.83379983  0.16616233  0.49965398  1
  Sn  Sn39  1  0.16617865  0.49992991  0.83312475  1
  Pb  Pb40  1  0.16474660  0.83403478  0.49978718  1
  Pb  Pb41  1  0.16432921  0.83160514  0.16675728  1
  Pb  Pb42  1  0.83477199  0.49965921  0.49811805  1
  Pb  Pb43  1  0.49690715  0.50002868  0.49698717  1
  Pb  Pb44  1  0.83544834  0.50234745  0.83571714  1
  Pb  Pb45  1  0.50242044  0.83151580  0.16444537  1
  Pb  Pb46  1  0.50328354  0.83331700  0.50245169  1
  Pb  Pb47  1  0.16909016  0.16875940  0.83076218  1
  Pb  Pb48  1  0.49786298  0.50047756  0.83513266  1
  Pb  Pb49  1  0.50036774  0.16660993  0.50196991  1
  Pb  Pb50  1  0.16467844  0.16851446  0.16898817  1
  Pb  Pb51  1  0.83209562  0.16489050  0.83282322  1
  Pb  Pb52  1  0.50253477  0.16855159  0.16459240  1
  Pb  Pb53  1  0.16665595  0.83159209  0.83338179  1
  I  I54  1  0.16523773  0.00038195  0.16725686  1
  I  I55  1  0.16207726  0.00316341  0.50231891  1
  I  I56  1  0.16506621  0.00017443  0.83140122  1
  I  I57  1  0.16359852  0.33724965  0.16434364  1
  I  I58  1  0.15967439  0.33392460  0.49970656  1
  I  I59  1  0.16802512  0.33681762  0.83694413  1
  I  I60  1  0.16419048  0.66230863  0.16883175  1
  I  I61  1  0.16514616  0.66363783  0.49962333  1
  I  I62  1  0.16756345  0.66316972  0.83207266  1
  I  I63  1  0.50140741  -0.00001180  0.16726083  1
  I  I64  1  0.49488115  -0.00002959  0.49786519  1
  I  I65  1  0.50581052  -0.00074752  0.83263902  1
  I  I66  1  0.50164488  0.33665439  0.16330719  1
  I  I67  1  0.50541946  0.33339290  0.50419312  1
  I  I68  1  0.49874178  0.33162070  0.83456649  1
  I  I69  1  0.50106521  0.66335715  0.16375770  1
  I  I70  1  0.50020253  0.66659612  0.50269695  1
  I  I71  1  0.50404760  0.66921058  0.83516878  1
  I  I72  1  0.83250605  -0.00017285  0.16781303  1
  I  I73  1  0.83911771  0.00030604  0.49540880  1
  I  I74  1  0.83215911  -0.00332317  0.83793336  1
  I  I75  1  0.83412644  0.33360703  0.17161993  1
  I  I76  1  0.83601321  0.33053481  0.49484022  1
  I  I77  1  0.83161695  0.33344208  0.83375932  1
  I  I78  1  0.83423593  0.66650393  0.16625069  1
  I  I79  1  0.83477994  0.66912957  0.49907444  1
  I  I80  1  0.82721784  0.67048204  0.83227443  1
  I  I81  1  0.16544797  0.16878324  0.00004418  1
  I  I82  1  0.16386801  0.17370808  0.33685518  1
  I  I83  1  0.15857312  0.17337797  0.66314081  1
  I  I84  1  0.16634886  0.50241898  0.00106704  1
  I  I85  1  0.16461456  0.49604381  0.33292718  1
  I  I86  1  0.16630148  0.49689742  0.66608830  1
  I  I87  1  0.16336782  0.83022572  -0.00003586  1
  I  I88  1  0.16473633  0.82919884  0.33336646  1
  I  I89  1  0.16369733  0.82876196  0.66662366  1
  I  I90  1  0.50214823  0.16355367  -0.00306245  1
  I  I91  1  0.49881976  0.16893280  0.33316224  1
  I  I92  1  0.50196375  0.16405997  0.66983824  1
  I  I93  1  0.49903186  0.50035842  0.00297726  1
  I  I94  1  0.50104353  0.49939956  0.32897876  1
  I  I95  1  0.49856524  0.50010333  0.66684191  1
  I  I96  1  0.50706181  0.83524008  -0.00328365  1
  I  I97  1  0.50005460  0.83149793  0.33306248  1
  I  I98  1  0.50507423  0.83520955  0.67051334  1
  I  I99  1  0.83107918  0.16735701  0.00267850  1
  I  I100  1  0.83679587  0.16307042  0.33322893  1
  I  I101  1  0.83658708  0.16158679  0.66363940  1
  I  I102  1  0.83573370  0.49935117  0.00415954  1
  I  I103  1  0.83570885  0.50462077  0.32971502  1
  I  I104  1  0.83515706  0.50029801  0.66670496  1
  I  I105  1  0.82901039  0.83104399  0.00038699  1
  I  I106  1  0.83607514  0.83243750  0.33289153  1
  I  I107  1  0.83059317  0.83851826  0.66653029  1
  I  I108  1  -0.00400028  0.16818451  0.16660308  1
  I  I109  1  -0.00116590  0.16747378  0.49682393  1
  I  I110  1  0.00000763  0.16645214  0.83510975  1
  I  I111  1  -0.00024643  0.50148314  0.16684966  1
  I  I112  1  0.00292126  0.49966944  0.49782012  1
  I  I113  1  0.00328289  0.50115510  0.83545896  1
  I  I114  1  -0.00471224  0.83029798  0.16390172  1
  I  I115  1  -0.00398528  0.83330555  0.50195040  1
  I  I116  1  -0.00339332  0.83089129  0.83401979  1
  I  I117  1  0.33337466  0.16952453  0.16707058  1
  I  I118  1  0.33043942  0.17414035  0.50296783  1
  I  I119  1  0.33672014  0.16049661  0.83269240  1
  I  I120  1  0.33240979  0.49927062  0.16510110  1
  I  I121  1  0.32854119  0.49354813  0.49930297  1
  I  I122  1  0.33002471  0.50158185  0.83580821  1
  I  I123  1  0.33364890  0.83073658  0.16495689  1
  I  I124  1  0.33344433  0.83241052  0.50244323  1
  I  I125  1  0.33628461  0.83476092  0.83304007  1
  I  I126  1  0.67101261  0.16886709  0.17295503  1
  I  I127  1  0.67034387  0.16175129  0.49586028  1
  I  I128  1  0.66428421  0.16638474  0.83266614  1
  I  I129  1  0.66794381  0.50102753  0.16529152  1
  I  I130  1  0.66681547  0.49964755  0.49902772  1
  I  I131  1  0.66670094  0.49880917  0.83513260  1
  I  I132  1  0.67100559  0.82988731  0.16877241  1
  I  I133  1  0.67168033  0.83918164  0.49583773  1
  I  I134  1  0.66779989  0.83621153  0.83409928  1
