# generated using pymatgen
data_Cs27Sn14Pb13I81
_symmetry_space_group_name_H-M   'P 1'
_cell_length_a   18.97161475
_cell_length_b   18.97684107
_cell_length_c   18.97840114
_cell_angle_alpha   90.00038855
_cell_angle_beta   89.99831458
_cell_angle_gamma   90.00132520
_symmetry_Int_Tables_number   1
_chemical_formula_structural   Cs27Sn14Pb13I81
_chemical_formula_sum   'Cs27 Sn14 Pb13 I81'
_cell_volume   6832.62898676
_cell_formula_units_Z   1
loop_
 _symmetry_equiv_pos_site_id
 _symmetry_equiv_pos_as_xyz
  1  'x, y, z'
loop_
 _atom_site_type_symbol
 _atom_site_label
 _atom_site_symmetry_multiplicity
 _atom_site_fract_x
 _atom_site_fract_y
 _atom_site_fract_z
 _atom_site_occupancy
  Cs  Cs0  1  0.00659196  -0.00030869  -0.00145957  1
  Cs  Cs1  1  -0.00088001  -0.00379342  0.33727584  1
  Cs  Cs2  1  -0.00155009  -0.00849566  0.66407434  1
  Cs  Cs3  1  -0.00267511  0.33406912  -0.00088235  1
  Cs  Cs4  1  -0.00028286  0.33401409  0.33384071  1
  Cs  Cs5  1  -0.00162161  0.33402914  0.66736835  1
  Cs  Cs6  1  -0.00082423  0.66716747  0.00173665  1
  Cs  Cs7  1  0.00928402  0.66757173  0.33271025  1
  Cs  Cs8  1  0.00234166  0.67211027  0.66563307  1
  Cs  Cs9  1  0.32567176  0.00994226  -0.00817973  1
  Cs  Cs10  1  0.33397457  0.00174187  0.33101522  1
  Cs  Cs11  1  0.33317184  0.00248054  0.67478794  1
  Cs  Cs12  1  0.33100633  0.32555691  -0.00023254  1
  Cs  Cs13  1  0.33172077  0.33186526  0.33438854  1
  Cs  Cs14  1  0.33252176  0.33338915  0.66527356  1
  Cs  Cs15  1  0.33277110  0.66809714  0.00140877  1
  Cs  Cs16  1  0.33174734  0.66632010  0.33443488  1
  Cs  Cs17  1  0.33443681  0.66675813  0.66438105  1
  Cs  Cs18  1  0.66462623  -0.00096656  0.00055493  1
  Cs  Cs19  1  0.66707635  -0.00057970  0.33378035  1
  Cs  Cs20  1  0.66837203  -0.00519565  0.66574524  1
  Cs  Cs21  1  0.66853173  0.33464100  0.00091990  1
  Cs  Cs22  1  0.66666085  0.33285005  0.33321203  1
  Cs  Cs23  1  0.66789731  0.33535375  0.66539827  1
  Cs  Cs24  1  0.66752359  0.66480529  0.00197874  1
  Cs  Cs25  1  0.66398842  0.66555156  0.32962144  1
  Cs  Cs26  1  0.66542201  0.66527739  0.66813738  1
  Sn  Sn27  1  0.16661150  0.50003742  0.83350469  1
  Sn  Sn28  1  0.50034812  0.50021428  0.16666186  1
  Sn  Sn29  1  0.50022278  0.83318974  0.16690794  1
  Sn  Sn30  1  0.83309922  0.16648161  0.16587718  1
  Sn  Sn31  1  0.83256398  0.83309363  0.16664101  1
  Sn  Sn32  1  0.83299168  0.50031130  0.49968931  1
  Sn  Sn33  1  0.83274558  0.50014578  0.16721651  1
  Sn  Sn34  1  0.16714042  0.16685924  0.50005525  1
  Sn  Sn35  1  0.83345146  0.49956098  0.83309200  1
  Sn  Sn36  1  0.83287352  0.16695279  0.83372374  1
  Sn  Sn37  1  0.49967145  0.49970848  0.83388622  1
  Sn  Sn38  1  0.50016643  0.83323749  0.49928051  1
  Sn  Sn39  1  0.50076112  0.49997840  0.49959073  1
  Sn  Sn40  1  0.49942443  0.16661593  0.50013028  1
  Pb  Pb41  1  0.16693077  0.49877017  0.50184903  1
  Pb  Pb42  1  0.83288684  0.16816899  0.50019081  1
  Pb  Pb43  1  0.83311849  0.83287609  0.83610488  1
  Pb  Pb44  1  0.50004835  0.83117406  0.83439290  1
  Pb  Pb45  1  0.16724917  0.49972668  0.16425318  1
  Pb  Pb46  1  0.83104940  0.82970267  0.49738325  1
  Pb  Pb47  1  0.50179214  0.16664423  0.16828902  1
  Pb  Pb48  1  0.16801270  0.83338486  0.16664185  1
  Pb  Pb49  1  0.17046461  0.83626508  0.49991680  1
  Pb  Pb50  1  0.50274591  0.16922719  0.83075651  1
  Pb  Pb51  1  0.16676862  0.83045631  0.83334642  1
  Pb  Pb52  1  0.16324885  0.16685916  0.16902979  1
  Pb  Pb53  1  0.16343050  0.16884449  0.83082179  1
  I  I54  1  0.16656897  0.00014317  0.16659544  1
  I  I55  1  0.16816197  0.00397071  0.49991242  1
  I  I56  1  0.16566201  0.00059681  0.83285385  1
  I  I57  1  0.16734799  0.33340678  0.16732525  1
  I  I58  1  0.17245266  0.33116275  0.50059573  1
  I  I59  1  0.16878702  0.33665701  0.83260576  1
  I  I60  1  0.16166317  0.66638711  0.16633002  1
  I  I61  1  0.16592706  0.66676830  0.50160467  1
  I  I62  1  0.16320050  0.66199759  0.83184493  1
  I  I63  1  0.50665351  -0.00262502  0.17442400  1
  I  I64  1  0.49612109  -0.00011874  0.49355117  1
  I  I65  1  0.50117946  0.00040305  0.83233006  1
  I  I66  1  0.50470353  0.33659952  0.16742451  1
  I  I67  1  0.50028704  0.33487181  0.50022926  1
  I  I68  1  0.49917736  0.33790962  0.83417607  1
  I  I69  1  0.50855591  0.66526859  0.17122571  1
  I  I70  1  0.50543867  0.66514110  0.50012092  1
  I  I71  1  0.50385462  0.66205089  0.82850420  1
  I  I72  1  0.82847405  -0.00006183  0.16299459  1
  I  I73  1  0.83310549  -0.00030533  0.50035723  1
  I  I74  1  0.83354766  0.00280925  0.83634137  1
  I  I75  1  0.82974989  0.33489875  0.16583798  1
  I  I76  1  0.82795535  0.33651050  0.49658404  1
  I  I77  1  0.83286757  0.33550262  0.83796994  1
  I  I78  1  0.82854408  0.66518418  0.16591703  1
  I  I79  1  0.82858510  0.66155495  0.50346196  1
  I  I80  1  0.83252693  0.66257625  0.83326349  1
  I  I81  1  0.16805245  0.16681112  -0.00041870  1
  I  I82  1  0.16995160  0.16920693  0.33669502  1
  I  I83  1  0.17070130  0.16933927  0.66351176  1
  I  I84  1  0.16559696  0.49912307  -0.00364113  1
  I  I85  1  0.16534739  0.49923983  0.33340809  1
  I  I86  1  0.16587974  0.49769299  0.66965173  1
  I  I87  1  0.16814175  0.83363086  0.00010153  1
  I  I88  1  0.16311386  0.83196914  0.33346579  1
  I  I89  1  0.16670061  0.83325788  0.66633293  1
  I  I90  1  0.49925706  0.16645489  -0.00015364  1
  I  I91  1  0.49980500  0.17231199  0.33646340  1
  I  I92  1  0.49853718  0.16707269  0.66265282  1
  I  I93  1  0.50408054  0.50566342  0.00059154  1
  I  I94  1  0.50741175  0.50026162  0.33364352  1
  I  I95  1  0.50327210  0.49946342  0.66607145  1
  I  I96  1  0.50604027  0.82617947  0.00386840  1
  I  I97  1  0.50463415  0.82777318  0.33324627  1
  I  I98  1  0.49905183  0.83187171  0.66390702  1
  I  I99  1  0.83243633  0.17352047  0.00043962  1
  I  I100  1  0.83293040  0.16888542  0.33089988  1
  I  I101  1  0.83295648  0.17464768  0.66877300  1
  I  I102  1  0.83085429  0.49932187  0.00038792  1
  I  I103  1  0.82584057  0.49806400  0.33258020  1
  I  I104  1  0.82975944  0.49326713  0.66708864  1
  I  I105  1  0.82598227  0.82793657  0.00411444  1
  I  I106  1  0.83107363  0.83575914  0.32950439  1
  I  I107  1  0.83294191  0.83412509  0.66639480  1
  I  I108  1  -0.00513726  0.16923695  0.16479179  1
  I  I109  1  0.00134171  0.17146557  0.49960385  1
  I  I110  1  -0.00410207  0.17472523  0.83593091  1
  I  I111  1  -0.00375635  0.50037818  0.16722975  1
  I  I112  1  -0.00293190  0.49607432  0.49948929  1
  I  I113  1  -0.00175572  0.49513072  0.83346525  1
  I  I114  1  -0.00320145  0.83132119  0.16546958  1
  I  I115  1  -0.00010118  0.83391612  0.49906934  1
  I  I116  1  -0.00041561  0.83122983  0.83441699  1
  I  I117  1  0.33349619  0.16677724  0.16635764  1
  I  I118  1  0.33507232  0.17028870  0.49925061  1
  I  I119  1  0.33341392  0.16811255  0.83396911  1
  I  I120  1  0.33728536  0.50579708  0.16828946  1
  I  I121  1  0.33711869  0.50164576  0.50026713  1
  I  I122  1  0.33454285  0.50216336  0.83138627  1
  I  I123  1  0.33783508  0.82495094  0.17252065  1
  I  I124  1  0.33836891  0.82468368  0.49283178  1
  I  I125  1  0.33370958  0.83143260  0.83497234  1
  I  I126  1  0.67007190  0.16884698  0.16623095  1
  I  I127  1  0.66398199  0.16703913  0.49949524  1
  I  I128  1  0.67033821  0.17408367  0.83539524  1
  I  I129  1  0.66720375  0.50035125  0.16376968  1
  I  I130  1  0.66566196  0.49711577  0.50350277  1
  I  I131  1  0.66700160  0.49669617  0.83279601  1
  I  I132  1  0.66649055  0.83103883  0.17054375  1
  I  I133  1  0.66308154  0.83856112  0.49903765  1
  I  I134  1  0.66661339  0.83208627  0.82979796  1
