# generated using pymatgen
data_Cs27Sn14Pb13I81
_symmetry_space_group_name_H-M   'P 1'
_cell_length_a   18.97546915
_cell_length_b   18.97546885
_cell_length_c   18.97495940
_cell_angle_alpha   89.99983257
_cell_angle_beta   89.99859808
_cell_angle_gamma   89.99998931
_symmetry_Int_Tables_number   1
_chemical_formula_structural   Cs27Sn14Pb13I81
_chemical_formula_sum   'Cs27 Sn14 Pb13 I81'
_cell_volume   6832.28371987
_cell_formula_units_Z   1
loop_
 _symmetry_equiv_pos_site_id
 _symmetry_equiv_pos_as_xyz
  1  'x, y, z'
loop_
 _atom_site_type_symbol
 _atom_site_label
 _atom_site_symmetry_multiplicity
 _atom_site_fract_x
 _atom_site_fract_y
 _atom_site_fract_z
 _atom_site_occupancy
  Cs  Cs0  1  0.00224639  0.00296422  -0.00002600  1
  Cs  Cs1  1  -0.00079291  -0.00156420  0.33341497  1
  Cs  Cs2  1  -0.00247131  -0.00086768  0.66588451  1
  Cs  Cs3  1  0.00609904  0.33763468  0.01067964  1
  Cs  Cs4  1  0.00292363  0.33557279  0.32592069  1
  Cs  Cs5  1  0.00160759  0.33460366  0.66697394  1
  Cs  Cs6  1  -0.00128364  0.66020081  0.00009766  1
  Cs  Cs7  1  0.00132935  0.66874476  0.33535256  1
  Cs  Cs8  1  -0.00026399  0.66661575  0.66467884  1
  Cs  Cs9  1  0.33181695  -0.00167049  -0.00364017  1
  Cs  Cs10  1  0.33532326  -0.00114196  0.33487592  1
  Cs  Cs11  1  0.33084003  0.00177616  0.66697959  1
  Cs  Cs12  1  0.32733186  0.33140790  -0.00015876  1
  Cs  Cs13  1  0.33576978  0.33575430  0.33386092  1
  Cs  Cs14  1  0.33175756  0.33370435  0.66744932  1
  Cs  Cs15  1  0.33909403  0.67000841  -0.01132750  1
  Cs  Cs16  1  0.33305420  0.66639665  0.33324848  1
  Cs  Cs17  1  0.33145972  0.66436775  0.67258873  1
  Cs  Cs18  1  0.66586443  -0.00031658  0.00045006  1
  Cs  Cs19  1  0.66657774  -0.00020047  0.33432659  1
  Cs  Cs20  1  0.66999004  0.00360107  0.66417757  1
  Cs  Cs21  1  0.66837736  0.33534086  0.00019991  1
  Cs  Cs22  1  0.66418935  0.33271161  0.33254481  1
  Cs  Cs23  1  0.66598976  0.33050010  0.66644327  1
  Cs  Cs24  1  0.66285190  0.66389465  -0.00318397  1
  Cs  Cs25  1  0.66580464  0.66825439  0.33369968  1
  Cs  Cs26  1  0.66805638  0.66515712  0.66691651  1
  Sn  Sn27  1  0.16618946  0.83314775  0.16715825  1
  Sn  Sn28  1  0.83456324  0.16728221  0.50009646  1
  Sn  Sn29  1  0.83303287  0.16643707  0.83335622  1
  Sn  Sn30  1  0.16676821  0.83424531  0.49936801  1
  Sn  Sn31  1  0.50089825  0.16653330  0.83474461  1
  Sn  Sn32  1  0.49994439  0.49939756  0.16724025  1
  Sn  Sn33  1  0.83326437  0.83410273  0.83359192  1
  Sn  Sn34  1  0.16520202  0.16603383  0.49961144  1
  Sn  Sn35  1  0.83318428  0.83338527  0.49992205  1
  Sn  Sn36  1  0.50091265  0.50109381  0.49940689  1
  Sn  Sn37  1  0.83254667  0.49950900  0.49964014  1
  Sn  Sn38  1  0.50027012  0.16712002  0.16527656  1
  Sn  Sn39  1  0.83399450  0.83342355  0.16630676  1
  Sn  Sn40  1  0.49982503  0.83235878  0.50019238  1
  Pb  Pb41  1  0.50010275  0.16687530  0.50012712  1
  Pb  Pb42  1  0.16630100  0.49992900  0.83352452  1
  Pb  Pb43  1  0.49985771  0.83318842  0.16805658  1
  Pb  Pb44  1  0.16527175  0.16657144  0.83110650  1
  Pb  Pb45  1  0.16675210  0.50032893  0.49992670  1
  Pb  Pb46  1  0.16944932  0.16423114  0.16945748  1
  Pb  Pb47  1  0.17017399  0.50376767  0.16690832  1
  Pb  Pb48  1  0.83117247  0.50292365  0.16928088  1
  Pb  Pb49  1  0.50027027  0.49699092  0.83284785  1
  Pb  Pb50  1  0.83341915  0.49899432  0.83117255  1
  Pb  Pb51  1  0.50262406  0.83591178  0.82981848  1
  Pb  Pb52  1  0.16342510  0.83342736  0.83310141  1
  Pb  Pb53  1  0.83184680  0.16491010  0.16666989  1
  I  I54  1  0.16458574  -0.00350409  0.17006676  1
  I  I55  1  0.16468955  -0.00117885  0.49710291  1
  I  I56  1  0.17067427  -0.00006942  0.83450121  1
  I  I57  1  0.16587281  0.33339781  0.16730048  1
  I  I58  1  0.16470866  0.33050151  0.50238442  1
  I  I59  1  0.16622446  0.33269800  0.82931738  1
  I  I60  1  0.16260102  0.67131469  0.17675530  1
  I  I61  1  0.16397640  0.67020391  0.49621850  1
  I  I62  1  0.16658590  0.66737015  0.83037502  1
  I  I63  1  0.50062301  0.00199482  0.16588831  1
  I  I64  1  0.50249871  -0.00224156  0.49904414  1
  I  I65  1  0.50176344  0.00348654  0.83812846  1
  I  I66  1  0.50182891  0.33320988  0.17131037  1
  I  I67  1  0.50330468  0.33546605  0.49913415  1
  I  I68  1  0.50729210  0.32927951  0.83045344  1
  I  I69  1  0.50060274  0.66466556  0.17186781  1
  I  I70  1  0.50390604  0.66695026  0.49345787  1
  I  I71  1  0.50044495  0.66688591  0.83591659  1
  I  I72  1  0.83291963  -0.00327846  0.17286387  1
  I  I73  1  0.83291284  -0.00091771  0.50078530  1
  I  I74  1  0.82894340  0.00003333  0.82645555  1
  I  I75  1  0.83300713  0.33352265  0.16709822  1
  I  I76  1  0.83123713  0.33246275  0.50611089  1
  I  I77  1  0.82761325  0.32948805  0.82569560  1
  I  I78  1  0.83472845  0.67114205  0.16748760  1
  I  I79  1  0.83258795  0.66828331  0.49979155  1
  I  I80  1  0.83441936  0.66961413  0.83158745  1
  I  I81  1  0.16577830  0.16564302  0.00034883  1
  I  I82  1  0.16149700  0.16386758  0.33739495  1
  I  I83  1  0.16862318  0.15990866  0.66278567  1
  I  I84  1  0.16734893  0.50088784  0.00076326  1
  I  I85  1  0.16525398  0.49759601  0.33355873  1
  I  I86  1  0.16964795  0.50182058  0.66580714  1
  I  I87  1  0.16372773  0.83267326  0.00290567  1
  I  I88  1  0.16161148  0.83706893  0.33521782  1
  I  I89  1  0.16666669  0.83682542  0.66301442  1
  I  I90  1  0.50661069  0.17094522  0.00010268  1
  I  I91  1  0.50002821  0.16702177  0.33187993  1
  I  I92  1  0.50156040  0.16527512  0.66825784  1
  I  I93  1  0.49939628  0.49950746  0.00270659  1
  I  I94  1  0.50405511  0.49728189  0.33467253  1
  I  I95  1  0.50380281  0.50323573  0.66322533  1
  I  I96  1  0.49975078  0.83081426  -0.00032632  1
  I  I97  1  0.50484916  0.83547933  0.33644566  1
  I  I98  1  0.49905233  0.82882726  0.66161588  1
  I  I99  1  0.82854797  0.15963362  -0.00267345  1
  I  I100  1  0.83411909  0.16450340  0.33668318  1
  I  I101  1  0.82979180  0.16119134  0.66525294  1
  I  I102  1  0.83181826  0.50139233  0.00037379  1
  I  I103  1  0.83096482  0.49938868  0.33762052  1
  I  I104  1  0.82677052  0.50504364  0.66240112  1
  I  I105  1  0.83729513  0.83972849  0.00001402  1
  I  I106  1  0.83349302  0.83360184  0.33520734  1
  I  I107  1  0.83238454  0.83407243  0.66480833  1
  I  I108  1  0.00011714  0.16743371  0.16441065  1
  I  I109  1  -0.00166866  0.16238995  0.50599381  1
  I  I110  1  -0.00395223  0.16044627  0.82821486  1
  I  I111  1  0.00004695  0.49849914  0.16703432  1
  I  I112  1  -0.00311330  0.50306900  0.50227105  1
  I  I113  1  -0.00069312  0.49932430  0.82998260  1
  I  I114  1  -0.00092822  0.83486329  0.17343815  1
  I  I115  1  -0.00134821  0.83385594  0.49976030  1
  I  I116  1  -0.00451163  0.84063324  0.82711956  1
  I  I117  1  0.33738425  0.16805901  0.16354242  1
  I  I118  1  0.33161473  0.16245607  0.49934684  1
  I  I119  1  0.33575727  0.16800578  0.83470585  1
  I  I120  1  0.33778165  0.49656827  0.17632777  1
  I  I121  1  0.33663047  0.50220650  0.49624617  1
  I  I122  1  0.33400122  0.49949451  0.82989325  1
  I  I123  1  0.33122423  0.83400918  0.17466674  1
  I  I124  1  0.33304769  0.83499131  0.49341515  1
  I  I125  1  0.33353235  0.83368864  0.83355494  1
  I  I126  1  0.66382167  0.16643387  0.16957242  1
  I  I127  1  0.66928592  0.16343764  0.50069276  1
  I  I128  1  0.66765728  0.16255900  0.82902376  1
  I  I129  1  0.66340683  0.49864098  0.16978748  1
  I  I130  1  0.66666845  0.50375783  0.49680760  1
  I  I131  1  0.66674043  0.50301780  0.83446916  1
  I  I132  1  0.66914404  0.83408667  0.16954423  1
  I  I133  1  0.66799181  0.83378075  0.49906207  1
  I  I134  1  0.67055670  0.83470455  0.83361461  1
