# generated using pymatgen
data_Cs27Sn13Pb14I81
_symmetry_space_group_name_H-M   'P 1'
_cell_length_a   18.97851940
_cell_length_b   18.97243909
_cell_length_c   18.97899552
_cell_angle_alpha   90.00134390
_cell_angle_beta   89.99646944
_cell_angle_gamma   89.99852782
_symmetry_Int_Tables_number   1
_chemical_formula_structural   Cs27Sn13Pb14I81
_chemical_formula_sum   'Cs27 Sn13 Pb14 I81'
_cell_volume   6833.74418606
_cell_formula_units_Z   1
loop_
 _symmetry_equiv_pos_site_id
 _symmetry_equiv_pos_as_xyz
  1  'x, y, z'
loop_
 _atom_site_type_symbol
 _atom_site_label
 _atom_site_symmetry_multiplicity
 _atom_site_fract_x
 _atom_site_fract_y
 _atom_site_fract_z
 _atom_site_occupancy
  Cs  Cs0  1  0.00016509  0.00096975  0.00266329  1
  Cs  Cs1  1  0.00038479  -0.00001144  0.33351436  1
  Cs  Cs2  1  0.00150035  -0.00173204  0.66336779  1
  Cs  Cs3  1  -0.00478684  0.33807133  -0.00236206  1
  Cs  Cs4  1  -0.00009455  0.33474695  0.33324557  1
  Cs  Cs5  1  -0.00299052  0.33541336  0.66701751  1
  Cs  Cs6  1  0.00292167  0.65867210  -0.00245471  1
  Cs  Cs7  1  -0.00062789  0.66658772  0.33352445  1
  Cs  Cs8  1  0.00120843  0.66605324  0.66833570  1
  Cs  Cs9  1  0.33332611  -0.00051745  0.00119954  1
  Cs  Cs10  1  0.33180519  0.00034908  0.33257961  1
  Cs  Cs11  1  0.33276592  0.00119609  0.66660176  1
  Cs  Cs12  1  0.33220201  0.33349071  0.00295789  1
  Cs  Cs13  1  0.33463205  0.33350171  0.33342422  1
  Cs  Cs14  1  0.33693989  0.32482178  0.66250047  1
  Cs  Cs15  1  0.33188896  0.66516501  -0.00140056  1
  Cs  Cs16  1  0.33396910  0.66667565  0.33225643  1
  Cs  Cs17  1  0.33183698  0.66926214  0.66985828  1
  Cs  Cs18  1  0.66803572  0.00185558  0.00073102  1
  Cs  Cs19  1  0.66969290  -0.00283439  0.33057197  1
  Cs  Cs20  1  0.66586379  -0.00042831  0.66776135  1
  Cs  Cs21  1  0.67452192  0.32999697  -0.00351560  1
  Cs  Cs22  1  0.66642482  0.34626051  0.33460944  1
  Cs  Cs23  1  0.66666450  0.33434665  0.66850831  1
  Cs  Cs24  1  0.66417640  0.66800139  0.00126952  1
  Cs  Cs25  1  0.66699133  0.66338292  0.33339018  1
  Cs  Cs26  1  0.66624787  0.66781198  0.66572042  1
  Sn  Sn27  1  0.49981531  0.16604830  0.16704243  1
  Sn  Sn28  1  0.83273129  0.16596456  0.49955711  1
  Sn  Sn29  1  0.16727677  0.16584303  0.16560758  1
  Sn  Sn30  1  0.49900891  0.83419260  0.16669080  1
  Sn  Sn31  1  0.49963758  0.50014220  0.83343437  1
  Sn  Sn32  1  0.50076214  0.83291131  0.83349755  1
  Sn  Sn33  1  0.16723637  0.50093284  0.50010746  1
  Sn  Sn34  1  0.49990036  0.83370566  0.49980117  1
  Sn  Sn35  1  0.83327785  0.83431698  0.50087175  1
  Sn  Sn36  1  0.16684778  0.83249273  0.49916498  1
  Sn  Sn37  1  0.16652133  0.16636601  0.83435028  1
  Sn  Sn38  1  0.16728455  0.83387493  0.16721283  1
  Sn  Sn39  1  0.83305775  0.83369110  0.83302587  1
  Pb  Pb40  1  0.49769808  0.50263196  0.50222907  1
  Pb  Pb41  1  0.16669362  0.83451833  0.83372853  1
  Pb  Pb42  1  0.83370832  0.83300872  0.16646763  1
  Pb  Pb43  1  0.16917509  0.49683283  0.83076673  1
  Pb  Pb44  1  0.83075932  0.50309286  0.83295915  1
  Pb  Pb45  1  0.49988966  0.50014163  0.16424534  1
  Pb  Pb46  1  0.16531565  0.16620221  0.49920264  1
  Pb  Pb47  1  0.83534159  0.50102098  0.50019586  1
  Pb  Pb48  1  0.83572075  0.16404908  0.83122035  1
  Pb  Pb49  1  0.50274036  0.16442758  0.49711104  1
  Pb  Pb50  1  0.83336043  0.16662498  0.16921805  1
  Pb  Pb51  1  0.49865942  0.16594238  0.83541026  1
  Pb  Pb52  1  0.16687418  0.49997990  0.16856073  1
  Pb  Pb53  1  0.83334477  0.50013385  0.16644662  1
  I  I54  1  0.17085596  -0.00091905  0.16921791  1
  I  I55  1  0.16764764  -0.00333152  0.49922141  1
  I  I56  1  0.16879998  0.00216026  0.83198723  1
  I  I57  1  0.17117953  0.32988526  0.16556517  1
  I  I58  1  0.16387788  0.33493139  0.50108289  1
  I  I59  1  0.16842818  0.32934538  0.83769216  1
  I  I60  1  0.17076391  0.67021447  0.16906385  1
  I  I61  1  0.16491938  0.66960178  0.49540649  1
  I  I62  1  0.16456269  0.66683131  0.83517259  1
  I  I63  1  0.49539081  -0.00188561  0.16490606  1
  I  I64  1  0.49425975  -0.00432988  0.50552486  1
  I  I65  1  0.50229631  -0.00365796  0.83148549  1
  I  I66  1  0.49461773  0.33027684  0.16588229  1
  I  I67  1  0.49969415  0.33326969  0.50056523  1
  I  I68  1  0.49590633  0.33512485  0.83441256  1
  I  I69  1  0.49634779  0.67065486  0.16849238  1
  I  I70  1  0.50501448  0.67143145  0.49478981  1
  I  I71  1  0.50288640  0.66943607  0.83441101  1
  I  I72  1  0.83337415  -0.00033126  0.16569888  1
  I  I73  1  0.83649099  -0.00252253  0.50319126  1
  I  I74  1  0.82608621  -0.00379430  0.83082526  1
  I  I75  1  0.83311945  0.33276832  0.16947668  1
  I  I76  1  0.83717372  0.33097507  0.49807917  1
  I  I77  1  0.83251393  0.33315829  0.83178413  1
  I  I78  1  0.83326178  0.66750710  0.16941334  1
  I  I79  1  0.83164442  0.67085839  0.50314555  1
  I  I80  1  0.83407327  0.67123203  0.82632584  1
  I  I81  1  0.17067512  0.15944301  0.00131925  1
  I  I82  1  0.16892511  0.16477311  0.33048319  1
  I  I83  1  0.16539966  0.16587399  0.66799704  1
  I  I84  1  0.16697541  0.50268331  -0.00022962  1
  I  I85  1  0.16681844  0.50070195  0.33653672  1
  I  I86  1  0.16633643  0.50727963  0.66331278  1
  I  I87  1  0.16993267  0.83691829  0.00275669  1
  I  I88  1  0.16921053  0.83546069  0.33377990  1
  I  I89  1  0.16844162  0.83239457  0.66401197  1
  I  I90  1  0.49772777  0.16010881  0.00326502  1
  I  I91  1  0.49182272  0.16056826  0.32943600  1
  I  I92  1  0.49799064  0.16590757  0.66655395  1
  I  I93  1  0.49844599  0.50819265  -0.00322643  1
  I  I94  1  0.49976693  0.50006539  0.33346713  1
  I  I95  1  0.49907752  0.50584945  0.66983998  1
  I  I96  1  0.49997305  0.83295195  0.00012693  1
  I  I97  1  0.49898633  0.83839342  0.33331407  1
  I  I98  1  0.50042758  0.82866235  0.66648093  1
  I  I99  1  0.83230720  0.16568969  0.00002790  1
  I  I100  1  0.83670907  0.15741001  0.33684159  1
  I  I101  1  0.83615107  0.16320211  0.66345453  1
  I  I102  1  0.83467963  0.50104782  -0.00073366  1
  I  I103  1  0.83268200  0.50151294  0.33395180  1
  I  I104  1  0.83420630  0.49776005  0.66655016  1
  I  I105  1  0.82906495  0.83334399  -0.00281748  1
  I  I106  1  0.83212819  0.83684048  0.33660733  1
  I  I107  1  0.83057288  0.83687552  0.66550296  1
  I  I108  1  0.00342456  0.16093857  0.16540575  1
  I  I109  1  -0.00220713  0.15970976  0.49911291  1
  I  I110  1  0.00350380  0.16444537  0.83908358  1
  I  I111  1  0.00066134  0.50077904  0.16666403  1
  I  I112  1  0.00321610  0.50556073  0.50003866  1
  I  I113  1  0.00020177  0.50052510  0.83297984  1
  I  I114  1  0.00345215  0.83841775  0.17084432  1
  I  I115  1  0.00040652  0.83391467  0.50030055  1
  I  I116  1  -0.00203073  0.83708259  0.82879282  1
  I  I117  1  0.33261018  0.16133023  0.16377775  1
  I  I118  1  0.33347425  0.16641236  0.50194679  1
  I  I119  1  0.33067741  0.16372750  0.83268192  1
  I  I120  1  0.33335915  0.50026170  0.16712001  1
  I  I121  1  0.33001916  0.50447145  0.50000260  1
  I  I122  1  0.33638705  0.51006249  0.83331527  1
  I  I123  1  0.33356235  0.83724936  0.16989617  1
  I  I124  1  0.33322430  0.82890598  0.49986130  1
  I  I125  1  0.33620745  0.83150592  0.83099464  1
  I  I126  1  0.66356815  0.15993044  0.16694681  1
  I  I127  1  0.67013999  0.15958976  0.50023720  1
  I  I128  1  0.66669322  0.16867028  0.83431188  1
  I  I129  1  0.66604262  0.50075636  0.16855788  1
  I  I130  1  0.66639700  0.49974987  0.50015983  1
  I  I131  1  0.66289535  0.50091684  0.83256100  1
  I  I132  1  0.66329887  0.83715432  0.16828419  1
  I  I133  1  0.66640016  0.83865378  0.50094980  1
  I  I134  1  0.66548807  0.83027759  0.82974007  1
