# generated using pymatgen
data_Cs27Sn14Pb13I81
_symmetry_space_group_name_H-M   'P 1'
_cell_length_a   18.96126407
_cell_length_b   18.95693331
_cell_length_c   18.96460437
_cell_angle_alpha   89.99959802
_cell_angle_beta   90.00244691
_cell_angle_gamma   89.99870939
_symmetry_Int_Tables_number   1
_chemical_formula_structural   Cs27Sn14Pb13I81
_chemical_formula_sum   'Cs27 Sn14 Pb13 I81'
_cell_volume   6816.77807176
_cell_formula_units_Z   1
loop_
 _symmetry_equiv_pos_site_id
 _symmetry_equiv_pos_as_xyz
  1  'x, y, z'
loop_
 _atom_site_type_symbol
 _atom_site_label
 _atom_site_symmetry_multiplicity
 _atom_site_fract_x
 _atom_site_fract_y
 _atom_site_fract_z
 _atom_site_occupancy
  Cs  Cs0  1  0.00152200  0.00130484  0.00506279  1
  Cs  Cs1  1  0.00570716  -0.00861350  0.32476352  1
  Cs  Cs2  1  0.00053985  0.00146868  0.66649902  1
  Cs  Cs3  1  -0.00297417  0.33160977  0.00059008  1
  Cs  Cs4  1  -0.00058583  0.33037725  0.33541148  1
  Cs  Cs5  1  -0.00088968  0.33419005  0.66673271  1
  Cs  Cs6  1  -0.00167847  0.66609104  -0.00233317  1
  Cs  Cs7  1  0.00108332  0.67548507  0.33286018  1
  Cs  Cs8  1  -0.00124685  0.66457996  0.66892340  1
  Cs  Cs9  1  0.33431735  0.00025334  -0.00092253  1
  Cs  Cs10  1  0.32799854  -0.00263582  0.33268885  1
  Cs  Cs11  1  0.33359090  -0.00042035  0.66657314  1
  Cs  Cs12  1  0.33398765  0.33382317  -0.00081111  1
  Cs  Cs13  1  0.33616948  0.33605018  0.33560759  1
  Cs  Cs14  1  0.33276454  0.33300129  0.66622048  1
  Cs  Cs15  1  0.33399754  0.66608405  -0.00114063  1
  Cs  Cs16  1  0.33240681  0.66426455  0.33266881  1
  Cs  Cs17  1  0.33448019  0.66675382  0.66828244  1
  Cs  Cs18  1  0.66450485  0.00129581  -0.00171823  1
  Cs  Cs19  1  0.66875763  0.00028099  0.33345922  1
  Cs  Cs20  1  0.66563671  -0.00001034  0.66826471  1
  Cs  Cs21  1  0.66735907  0.33391181  0.00129653  1
  Cs  Cs22  1  0.66406577  0.33283430  0.33393631  1
  Cs  Cs23  1  0.66730674  0.33226595  0.66602839  1
  Cs  Cs24  1  0.66766283  0.66273079  0.00037730  1
  Cs  Cs25  1  0.66873521  0.66848729  0.33199091  1
  Cs  Cs26  1  0.66688353  0.66933708  0.66718213  1
  Sn  Sn27  1  0.16576824  0.83292082  0.83306578  1
  Sn  Sn28  1  0.83304291  0.16689516  0.50042961  1
  Sn  Sn29  1  0.83303276  0.49951226  0.50001346  1
  Sn  Sn30  1  0.83259960  0.16580659  0.83253540  1
  Sn  Sn31  1  0.16622163  0.49948532  0.16639015  1
  Sn  Sn32  1  0.16645081  0.49985637  0.49998142  1
  Sn  Sn33  1  0.50059230  0.16710011  0.50001533  1
  Sn  Sn34  1  0.83421617  0.83462974  0.83313817  1
  Sn  Sn35  1  0.50069012  0.16766309  0.83304325  1
  Sn  Sn36  1  0.50022703  0.83397326  0.16678320  1
  Sn  Sn37  1  0.50054126  0.49958521  0.50108186  1
  Sn  Sn38  1  0.16728176  0.50042230  0.83354182  1
  Sn  Sn39  1  0.49950730  0.49906105  0.83243296  1
  Sn  Sn40  1  0.49994650  0.16566601  0.16705356  1
  Pb  Pb41  1  0.49894076  0.49962688  0.16675325  1
  Pb  Pb42  1  0.50005661  0.83355548  0.49758495  1
  Pb  Pb43  1  0.16641275  0.16704898  0.83331283  1
  Pb  Pb44  1  0.83303944  0.49932623  0.83186004  1
  Pb  Pb45  1  0.83091550  0.83341881  0.16346269  1
  Pb  Pb46  1  0.16628577  0.16826253  0.49989644  1
  Pb  Pb47  1  0.16680521  0.83065429  0.50274443  1
  Pb  Pb48  1  0.83130911  0.16674409  0.16728493  1
  Pb  Pb49  1  0.16884735  0.83103674  0.16386503  1
  Pb  Pb50  1  0.83327526  0.83441581  0.50203003  1
  Pb  Pb51  1  0.83644255  0.49986712  0.17047343  1
  Pb  Pb52  1  0.16945883  0.16906474  0.16677913  1
  Pb  Pb53  1  0.50006966  0.83319814  0.83461957  1
  I  I54  1  0.16635072  -0.00026427  0.16544528  1
  I  I55  1  0.16752757  -0.00010724  0.50123758  1
  I  I56  1  0.16687424  -0.00243238  0.83421346  1
  I  I57  1  0.16932744  0.33733755  0.16331191  1
  I  I58  1  0.16775311  0.33739162  0.50410691  1
  I  I59  1  0.16863255  0.33694169  0.83234503  1
  I  I60  1  0.17109931  0.66311054  0.16970336  1
  I  I61  1  0.16763266  0.66166255  0.49776075  1
  I  I62  1  0.16717798  0.66493538  0.83273202  1
  I  I63  1  0.50057696  0.00144536  0.16462937  1
  I  I64  1  0.50561695  0.00387415  0.50362947  1
  I  I65  1  0.50054589  0.00292420  0.83143186  1
  I  I66  1  0.49825875  0.33063476  0.16641467  1
  I  I67  1  0.49985828  0.33374104  0.49877027  1
  I  I68  1  0.49941706  0.33324964  0.83487416  1
  I  I69  1  0.49748545  0.66819168  0.16513033  1
  I  I70  1  0.49958590  0.66290385  0.50350167  1
  I  I71  1  0.49896249  0.66374800  0.83116370  1
  I  I72  1  0.83526489  0.00013781  0.17079728  1
  I  I73  1  0.82524240  0.00386183  0.50378624  1
  I  I74  1  0.83161098  0.00131453  0.82757801  1
  I  I75  1  0.83158328  0.33335387  0.16043083  1
  I  I76  1  0.83264691  0.33325965  0.50637399  1
  I  I77  1  0.83209588  0.33054874  0.83122998  1
  I  I78  1  0.82896847  0.66659471  0.16606842  1
  I  I79  1  0.83302107  0.66367896  0.50153860  1
  I  I80  1  0.83391800  0.66817033  0.83206766  1
  I  I81  1  0.16724556  0.17009160  -0.00028324  1
  I  I82  1  0.16701443  0.16966057  0.33344889  1
  I  I83  1  0.17118295  0.16812092  0.66680979  1
  I  I84  1  0.17339621  0.50386018  -0.00157843  1
  I  I85  1  0.16909482  0.49716117  0.33444518  1
  I  I86  1  0.16824384  0.50373896  0.66695350  1
  I  I87  1  0.16372324  0.82660258  -0.00386010  1
  I  I88  1  0.16737169  0.83194328  0.33302595  1
  I  I89  1  0.16556793  0.82789654  0.67083240  1
  I  I90  1  0.50288619  0.16727931  -0.00131118  1
  I  I91  1  0.50352658  0.16876747  0.33460559  1
  I  I92  1  0.50382829  0.17210705  0.66693071  1
  I  I93  1  0.49527326  0.49783143  -0.00280134  1
  I  I94  1  0.49857072  0.49715625  0.33634271  1
  I  I95  1  0.49524433  0.49383703  0.66675332  1
  I  I96  1  0.49952217  0.83673920  0.00223562  1
  I  I97  1  0.49933281  0.83571062  0.32984393  1
  I  I98  1  0.49956320  0.83426399  0.66692164  1
  I  I99  1  0.82954754  0.16344406  -0.00319422  1
  I  I100  1  0.82802718  0.17381445  0.33703634  1
  I  I101  1  0.82548785  0.16716325  0.66696196  1
  I  I102  1  0.83292923  0.50032711  -0.00019446  1
  I  I103  1  0.82965435  0.49323266  0.33872502  1
  I  I104  1  0.83698223  0.49892870  0.66377495  1
  I  I105  1  0.83719587  0.83812021  -0.00468333  1
  I  I106  1  0.83268795  0.83255674  0.33325180  1
  I  I107  1  0.83492254  0.83361049  0.67026966  1
  I  I108  1  0.00003712  0.16808201  0.16601247  1
  I  I109  1  -0.00349087  0.17311817  0.50751278  1
  I  I110  1  -0.00315322  0.16681854  0.82805102  1
  I  I111  1  0.00446164  0.50080649  0.16266745  1
  I  I112  1  0.00012238  0.49559420  0.50155033  1
  I  I113  1  0.00246921  0.50128040  0.83214317  1
  I  I114  1  0.00028199  0.83191172  0.16773562  1
  I  I115  1  0.00001298  0.83296902  0.49841939  1
  I  I116  1  0.00018099  0.83103505  0.83225710  1
  I  I117  1  0.33804767  0.16355074  0.16554035  1
  I  I118  1  0.33691971  0.17111874  0.50134003  1
  I  I119  1  0.33675568  0.16778154  0.83260888  1
  I  I120  1  0.33102558  0.49968484  0.16971531  1
  I  I121  1  0.33391648  0.49639906  0.50067634  1
  I  I122  1  0.33359657  0.50057260  0.82954535  1
  I  I123  1  0.33643533  0.83755405  0.16398754  1
  I  I124  1  0.33349019  0.83361363  0.50246044  1
  I  I125  1  0.33129920  0.83058531  0.83542763  1
  I  I126  1  0.66265430  0.16545173  0.16583644  1
  I  I127  1  0.66573535  0.17527648  0.50104591  1
  I  I128  1  0.66565786  0.16631968  0.83286989  1
  I  I129  1  0.66653759  0.50055231  0.16558355  1
  I  I130  1  0.66562103  0.49589283  0.50515811  1
  I  I131  1  0.66377448  0.50001627  0.82998900  1
  I  I132  1  0.66301216  0.83533548  0.16502582  1
  I  I133  1  0.66660383  0.82678488  0.50203049  1
  I  I134  1  0.66885677  0.83412168  0.83460711  1
