# generated using pymatgen
data_Cs27Sn14Pb13I81
_symmetry_space_group_name_H-M   'P 1'
_cell_length_a   18.97751116
_cell_length_b   18.96843737
_cell_length_c   18.97902110
_cell_angle_alpha   89.99901220
_cell_angle_beta   89.99893636
_cell_angle_gamma   89.99914010
_symmetry_Int_Tables_number   1
_chemical_formula_structural   Cs27Sn14Pb13I81
_chemical_formula_sum   'Cs27 Sn14 Pb13 I81'
_cell_volume   6831.94904888
_cell_formula_units_Z   1
loop_
 _symmetry_equiv_pos_site_id
 _symmetry_equiv_pos_as_xyz
  1  'x, y, z'
loop_
 _atom_site_type_symbol
 _atom_site_label
 _atom_site_symmetry_multiplicity
 _atom_site_fract_x
 _atom_site_fract_y
 _atom_site_fract_z
 _atom_site_occupancy
  Cs  Cs0  1  -0.00018278  0.00033995  0.00438481  1
  Cs  Cs1  1  0.00022862  0.00711540  0.33199951  1
  Cs  Cs2  1  0.00242839  -0.00382514  0.66350828  1
  Cs  Cs3  1  -0.00252778  0.33700405  0.00025075  1
  Cs  Cs4  1  -0.00039470  0.32512259  0.33282917  1
  Cs  Cs5  1  -0.01004408  0.33617585  0.66593432  1
  Cs  Cs6  1  0.00179325  0.66473652  -0.00018155  1
  Cs  Cs7  1  0.00206903  0.66761339  0.33152623  1
  Cs  Cs8  1  0.00121141  0.66726928  0.66814374  1
  Cs  Cs9  1  0.33402091  0.00050253  -0.00287523  1
  Cs  Cs10  1  0.33231150  0.00211985  0.33524040  1
  Cs  Cs11  1  0.33460202  -0.00095615  0.66686955  1
  Cs  Cs12  1  0.33371108  0.33238757  -0.00143451  1
  Cs  Cs13  1  0.33383534  0.33282358  0.33268134  1
  Cs  Cs14  1  0.33418536  0.33230072  0.66904674  1
  Cs  Cs15  1  0.33203859  0.66575440  0.00043640  1
  Cs  Cs16  1  0.33405631  0.66536730  0.33273515  1
  Cs  Cs17  1  0.33198910  0.66854540  0.66679088  1
  Cs  Cs18  1  0.66862688  0.00196084  0.00117524  1
  Cs  Cs19  1  0.66726611  -0.00171682  0.32970346  1
  Cs  Cs20  1  0.66311917  -0.00016330  0.66936071  1
  Cs  Cs21  1  0.66664440  0.32791996  -0.00519281  1
  Cs  Cs22  1  0.66477808  0.33967272  0.33794964  1
  Cs  Cs23  1  0.67458318  0.33332243  0.66698592  1
  Cs  Cs24  1  0.66413547  0.66899193  0.00607602  1
  Cs  Cs25  1  0.66410058  0.66358251  0.33031026  1
  Cs  Cs26  1  0.66709393  0.66699251  0.66415405  1
  Sn  Sn27  1  0.83413194  0.50015257  0.16681886  1
  Sn  Sn28  1  0.49977179  0.16645735  0.16782634  1
  Sn  Sn29  1  0.50013898  0.83391458  0.50036284  1
  Sn  Sn30  1  0.50021362  0.83208847  0.83283997  1
  Sn  Sn31  1  0.83332436  0.83323944  0.50022291  1
  Sn  Sn32  1  0.16652478  0.83429145  0.83356579  1
  Sn  Sn33  1  0.49990531  0.16599810  0.49922378  1
  Sn  Sn34  1  0.16586742  0.50046154  0.16783125  1
  Sn  Sn35  1  0.16660904  0.83265506  0.49945830  1
  Sn  Sn36  1  0.16678808  0.50025332  0.49936235  1
  Sn  Sn37  1  0.83336860  0.83309960  0.83298876  1
  Sn  Sn38  1  0.16604913  0.16619909  0.83292141  1
  Sn  Sn39  1  0.50004864  0.50114609  0.83296425  1
  Sn  Sn40  1  0.16698771  0.83299940  0.16693636  1
  Pb  Pb41  1  0.83049874  0.50309888  0.83530504  1
  Pb  Pb42  1  0.83594472  0.83204053  0.16699777  1
  Pb  Pb43  1  0.49758873  0.83489903  0.16678522  1
  Pb  Pb44  1  0.83016504  0.16363003  0.50002674  1
  Pb  Pb45  1  0.49797303  0.50043586  0.50214150  1
  Pb  Pb46  1  0.16820371  0.16683224  0.50228905  1
  Pb  Pb47  1  0.16808204  0.16713208  0.16472377  1
  Pb  Pb48  1  0.83043122  0.16973179  0.16685205  1
  Pb  Pb49  1  0.83680936  0.16351834  0.83322351  1
  Pb  Pb50  1  0.83628608  0.50274915  0.49797433  1
  Pb  Pb51  1  0.49928776  0.49779983  0.16454681  1
  Pb  Pb52  1  0.49892297  0.16604251  0.83259106  1
  Pb  Pb53  1  0.16761491  0.50027971  0.83315977  1
  I  I54  1  0.16866808  -0.00288652  0.16838322  1
  I  I55  1  0.16541518  -0.00371415  0.49837428  1
  I  I56  1  0.17029846  -0.00304399  0.83331896  1
  I  I57  1  0.16502127  0.33644569  0.16929427  1
  I  I58  1  0.17070996  0.33590106  0.49638730  1
  I  I59  1  0.17355093  0.33171892  0.83442639  1
  I  I60  1  0.16469364  0.66723345  0.16474318  1
  I  I61  1  0.16933048  0.66891078  0.50161670  1
  I  I62  1  0.16589215  0.67021535  0.83319632  1
  I  I63  1  0.49703461  0.00247110  0.16539343  1
  I  I64  1  0.49694959  -0.00211091  0.50266798  1
  I  I65  1  0.50026143  -0.00350955  0.83205090  1
  I  I66  1  0.49735749  0.33025463  0.17036544  1
  I  I67  1  0.49570311  0.33121293  0.49760051  1
  I  I68  1  0.49486793  0.33490543  0.83525017  1
  I  I69  1  0.50105068  0.66664556  0.16774165  1
  I  I70  1  0.50060860  0.67021832  0.50296671  1
  I  I71  1  0.49625235  0.66925066  0.82898715  1
  I  I72  1  0.83403384  -0.00020024  0.16605662  1
  I  I73  1  0.84011209  -0.00479605  0.50294358  1
  I  I74  1  0.82657829  -0.00481749  0.83081689  1
  I  I75  1  0.84218084  0.33738012  0.16610624  1
  I  I76  1  0.83332508  0.33365316  0.49893347  1
  I  I77  1  0.83240191  0.33362940  0.83501451  1
  I  I78  1  0.83421719  0.66429697  0.16592039  1
  I  I79  1  0.82834726  0.67085843  0.50434309  1
  I  I80  1  0.83997106  0.67100776  0.82929479  1
  I  I81  1  0.17175849  0.16114007  -0.00291020  1
  I  I82  1  0.16738353  0.16414865  0.33352142  1
  I  I83  1  0.17185095  0.16090264  0.66979582  1
  I  I84  1  0.16533523  0.50354347  0.00240459  1
  I  I85  1  0.16549646  0.50924219  0.33299942  1
  I  I86  1  0.17077729  0.50426424  0.66434733  1
  I  I87  1  0.16742190  0.83312101  -0.00074720  1
  I  I88  1  0.16767595  0.82795542  0.33408949  1
  I  I89  1  0.16733535  0.83341795  0.66654264  1
  I  I90  1  0.49730510  0.16776116  0.00126427  1
  I  I91  1  0.49742595  0.16098130  0.33430666  1
  I  I92  1  0.49675393  0.16354973  0.66419751  1
  I  I93  1  0.49687350  0.50531827  -0.00309150  1
  I  I94  1  0.50133190  0.50133683  0.33342904  1
  I  I95  1  0.49610174  0.50058380  0.66976858  1
  I  I96  1  0.49921487  0.83146519  -0.00290862  1
  I  I97  1  0.49976281  0.83575440  0.33638613  1
  I  I98  1  0.49555875  0.83542268  0.66664507  1
  I  I99  1  0.82940683  0.16373281  -0.00003374  1
  I  I100  1  0.83688537  0.16286624  0.33341583  1
  I  I101  1  0.83068540  0.17161007  0.66671168  1
  I  I102  1  0.84122981  0.50255468  0.00282261  1
  I  I103  1  0.83278244  0.50351772  0.33032331  1
  I  I104  1  0.83387197  0.49822809  0.66657782  1
  I  I105  1  0.83300158  0.83169264  -0.00264755  1
  I  I106  1  0.83222254  0.83139211  0.33623382  1
  I  I107  1  0.83748681  0.83298005  0.66675952  1
  I  I108  1  0.00015506  0.16476168  0.16480105  1
  I  I109  1  0.00005090  0.16625956  0.50129711  1
  I  I110  1  0.00461271  0.16232196  0.83437243  1
  I  I111  1  0.00193751  0.50546042  0.16837947  1
  I  I112  1  0.00429552  0.50589442  0.50135637  1
  I  I113  1  -0.00016701  0.49948647  0.83231851  1
  I  I114  1  0.00417660  0.83197419  0.16548572  1
  I  I115  1  0.00121850  0.82764121  0.50423473  1
  I  I116  1  0.00114045  0.83813568  0.83038226  1
  I  I117  1  0.33574807  0.16795981  0.16918811  1
  I  I118  1  0.33607322  0.16000367  0.49800171  1
  I  I119  1  0.33122765  0.16034623  0.83354043  1
  I  I120  1  0.33023501  0.50343479  0.16859904  1
  I  I121  1  0.33017583  0.50666017  0.49422257  1
  I  I122  1  0.33541919  0.50568387  0.83534591  1
  I  I123  1  0.32943544  0.82724608  0.16569864  1
  I  I124  1  0.33298472  0.83366910  0.50312245  1
  I  I125  1  0.33302882  0.83358057  0.83093291  1
  I  I126  1  0.66260159  0.16567381  0.16804930  1
  I  I127  1  0.66195664  0.16254223  0.49773922  1
  I  I128  1  0.66675541  0.16697153  0.83429869  1
  I  I129  1  0.66836884  0.49937090  0.16413125  1
  I  I130  1  0.66667987  0.50033909  0.49871336  1
  I  I131  1  0.66273792  0.50353184  0.83466544  1
  I  I132  1  0.66660436  0.83250338  0.16614683  1
  I  I133  1  0.66581921  0.83849519  0.50791435  1
  I  I134  1  0.66574092  0.82833199  0.82631596  1
