# generated using pymatgen
data_Cs27Sn14Pb13I81
_symmetry_space_group_name_H-M   'P 1'
_cell_length_a   18.97252137
_cell_length_b   18.98142784
_cell_length_c   18.97309629
_cell_angle_alpha   90.00064807
_cell_angle_beta   89.99812757
_cell_angle_gamma   89.99823369
_symmetry_Int_Tables_number   1
_chemical_formula_structural   Cs27Sn14Pb13I81
_chemical_formula_sum   'Cs27 Sn14 Pb13 I81'
_cell_volume   6832.69664088
_cell_formula_units_Z   1
loop_
 _symmetry_equiv_pos_site_id
 _symmetry_equiv_pos_as_xyz
  1  'x, y, z'
loop_
 _atom_site_type_symbol
 _atom_site_label
 _atom_site_symmetry_multiplicity
 _atom_site_fract_x
 _atom_site_fract_y
 _atom_site_fract_z
 _atom_site_occupancy
  Cs  Cs0  1  0.00075127  0.00286897  -0.00121524  1
  Cs  Cs1  1  -0.00200555  0.00063951  0.33999184  1
  Cs  Cs2  1  -0.00242142  -0.00026234  0.66294773  1
  Cs  Cs3  1  0.00121505  0.33249487  0.00075004  1
  Cs  Cs4  1  -0.00120473  0.33358790  0.33203696  1
  Cs  Cs5  1  0.00258540  0.33330607  0.66764228  1
  Cs  Cs6  1  -0.00121231  0.66680531  0.00001633  1
  Cs  Cs7  1  0.00012324  0.66591132  0.33131973  1
  Cs  Cs8  1  -0.00450414  0.66754218  0.66866823  1
  Cs  Cs9  1  0.33358244  -0.00151400  -0.00022797  1
  Cs  Cs10  1  0.33156328  -0.00773508  0.33455909  1
  Cs  Cs11  1  0.33385284  -0.00004875  0.66661611  1
  Cs  Cs12  1  0.33382275  0.33242129  -0.00201929  1
  Cs  Cs13  1  0.33224598  0.33663759  0.33621324  1
  Cs  Cs14  1  0.33306758  0.33202592  0.66657219  1
  Cs  Cs15  1  0.33347370  0.66857626  0.00381624  1
  Cs  Cs16  1  0.33369574  0.66822979  0.33130282  1
  Cs  Cs17  1  0.33362722  0.66766755  0.66524453  1
  Cs  Cs18  1  0.66595840  0.00545960  0.00361653  1
  Cs  Cs19  1  0.66978380  0.00526461  0.33040115  1
  Cs  Cs20  1  0.66606357  -0.00401833  0.66564469  1
  Cs  Cs21  1  0.65850866  0.32991669  -0.00120769  1
  Cs  Cs22  1  0.66948170  0.33181844  0.33156570  1
  Cs  Cs23  1  0.66196855  0.33567280  0.66901973  1
  Cs  Cs24  1  0.66948963  0.66428500  -0.00065410  1
  Cs  Cs25  1  0.66585920  0.66501306  0.33260693  1
  Cs  Cs26  1  0.66913066  0.66825494  0.66833579  1
  Sn  Sn27  1  0.16622047  0.50024281  0.50001311  1
  Sn  Sn28  1  0.16671644  0.50032837  0.83359242  1
  Sn  Sn29  1  0.49947191  0.83303895  0.83312094  1
  Sn  Sn30  1  0.49978405  0.16657275  0.49966010  1
  Sn  Sn31  1  0.16703551  0.83329187  0.83311295  1
  Sn  Sn32  1  0.83373558  0.16695948  0.83304385  1
  Sn  Sn33  1  0.16585341  0.16652047  0.83383791  1
  Sn  Sn34  1  0.83345195  0.49998302  0.49968647  1
  Sn  Sn35  1  0.50019677  0.50016955  0.50001790  1
  Sn  Sn36  1  0.50011323  0.83318208  0.50046391  1
  Sn  Sn37  1  0.16599381  0.49919125  0.16646682  1
  Sn  Sn38  1  0.83396586  0.50055435  0.16692130  1
  Sn  Sn39  1  0.83369384  0.83294084  0.16660537  1
  Sn  Sn40  1  0.16681494  0.16706055  0.16666374  1
  Pb  Pb41  1  0.83084355  0.83106923  0.49783345  1
  Pb  Pb42  1  0.49916586  0.16445802  0.83162455  1
  Pb  Pb43  1  0.83554622  0.16769185  0.16502215  1
  Pb  Pb44  1  0.16810135  0.83060534  0.50238337  1
  Pb  Pb45  1  0.83518448  0.49795488  0.83399535  1
  Pb  Pb46  1  0.49622020  0.16669686  0.16948418  1
  Pb  Pb47  1  0.49732067  0.50240974  0.83125546  1
  Pb  Pb48  1  0.16472656  0.83332768  0.16465491  1
  Pb  Pb49  1  0.83118167  0.16943159  0.50247049  1
  Pb  Pb50  1  0.16817536  0.16841736  0.50005897  1
  Pb  Pb51  1  0.83328997  0.83537072  0.83526501  1
  Pb  Pb52  1  0.50263564  0.83325488  0.16640883  1
  Pb  Pb53  1  0.49985914  0.49984659  0.16874986  1
  I  I54  1  0.16626831  0.00245168  0.16084415  1
  I  I55  1  0.16964735  -0.00020114  0.49923413  1
  I  I56  1  0.16765299  0.00053431  0.83923134  1
  I  I57  1  0.16135477  0.33495991  0.16264118  1
  I  I58  1  0.16979800  0.33697339  0.50417915  1
  I  I59  1  0.16171573  0.33354334  0.83336830  1
  I  I60  1  0.16514571  0.66345410  0.16660373  1
  I  I61  1  0.16925360  0.66214415  0.49856404  1
  I  I62  1  0.17169671  0.66610568  0.83251084  1
  I  I63  1  0.50128146  -0.00001090  0.16970707  1
  I  I64  1  0.49878587  -0.00064281  0.50534391  1
  I  I65  1  0.49463750  -0.00315095  0.82652882  1
  I  I66  1  0.50505655  0.33329947  0.16780895  1
  I  I67  1  0.49890174  0.33449294  0.49932109  1
  I  I68  1  0.50003793  0.33335074  0.83131042  1
  I  I69  1  0.49516129  0.66655180  0.16901340  1
  I  I70  1  0.49917611  0.66611480  0.50415228  1
  I  I71  1  0.49582836  0.67015792  0.82758569  1
  I  I72  1  0.83287382  -0.00153487  0.16322735  1
  I  I73  1  0.83137047  0.00006972  0.49850627  1
  I  I74  1  0.83913892  0.00294707  0.83560702  1
  I  I75  1  0.83661548  0.33660426  0.17123179  1
  I  I76  1  0.83218404  0.33748966  0.49312800  1
  I  I77  1  0.83935143  0.33040500  0.83373678  1
  I  I78  1  0.83883096  0.66483928  0.16962591  1
  I  I79  1  0.83253144  0.66275955  0.50046721  1
  I  I80  1  0.83385073  0.66643687  0.83172491  1
  I  I81  1  0.16330485  0.17186757  -0.00116687  1
  I  I82  1  0.16864135  0.17261642  0.33090624  1
  I  I83  1  0.16519246  0.16812135  0.66971170  1
  I  I84  1  0.16102404  0.49942243  0.00017173  1
  I  I85  1  0.16680231  0.49478408  0.33316358  1
  I  I86  1  0.16783865  0.49952459  0.66667319  1
  I  I87  1  0.17268269  0.82921736  -0.00359579  1
  I  I88  1  0.16815848  0.83379057  0.33337943  1
  I  I89  1  0.16765402  0.83452533  0.67068090  1
  I  I90  1  0.50243780  0.16465823  -0.00019068  1
  I  I91  1  0.50028822  0.16543370  0.33755374  1
  I  I92  1  0.49752226  0.17037134  0.66374417  1
  I  I93  1  0.50075725  0.50163998  -0.00021588  1
  I  I94  1  0.49455044  0.50334829  0.33747870  1
  I  I95  1  0.50054476  0.49771731  0.66273355  1
  I  I96  1  0.49552615  0.83437573  -0.00298594  1
  I  I97  1  0.50073643  0.83191865  0.33652377  1
  I  I98  1  0.49581159  0.83275605  0.66621213  1
  I  I99  1  0.83506518  0.16781923  -0.00287256  1
  I  I100  1  0.83323886  0.16449697  0.33337722  1
  I  I101  1  0.84176456  0.16671511  0.66999799  1
  I  I102  1  0.83956501  0.50343843  0.00295863  1
  I  I103  1  0.83760064  0.50345253  0.33341184  1
  I  I104  1  0.83363511  0.49792605  0.66411702  1
  I  I105  1  0.83218327  0.82504969  0.00274390  1
  I  I106  1  0.83314891  0.83249860  0.33012518  1
  I  I107  1  0.83438726  0.83273700  0.66668313  1
  I  I108  1  0.00347427  0.16907720  0.16457452  1
  I  I109  1  0.00007127  0.16820262  0.49883012  1
  I  I110  1  0.00226741  0.16526439  0.83665910  1
  I  I111  1  0.00100982  0.50036533  0.17196399  1
  I  I112  1  0.00065896  0.49919516  0.49935036  1
  I  I113  1  0.00378258  0.50446020  0.82830826  1
  I  I114  1  -0.00275921  0.83018912  0.16404828  1
  I  I115  1  -0.00019340  0.83225597  0.50097624  1
  I  I116  1  0.00297590  0.83103725  0.83594104  1
  I  I117  1  0.32850712  0.17324634  0.15853944  1
  I  I118  1  0.33615400  0.16992011  0.50229699  1
  I  I119  1  0.32989552  0.16916554  0.83544814  1
  I  I120  1  0.32963293  0.49630501  0.16691197  1
  I  I121  1  0.33305018  0.49950819  0.50089152  1
  I  I122  1  0.32878835  0.49414908  0.83385091  1
  I  I123  1  0.33312769  0.83326300  0.16813067  1
  I  I124  1  0.33641835  0.83112213  0.50048282  1
  I  I125  1  0.33241195  0.83483885  0.82975422  1
  I  I126  1  0.66677338  0.16676897  0.16475785  1
  I  I127  1  0.66323460  0.16855527  0.50240824  1
  I  I128  1  0.66844519  0.16555608  0.83184458  1
  I  I129  1  0.66985206  0.50448302  0.17173836  1
  I  I130  1  0.66656781  0.50015196  0.49492168  1
  I  I131  1  0.66660589  0.49926429  0.83290164  1
  I  I132  1  0.67030440  0.82616461  0.16525304  1
  I  I133  1  0.66278482  0.83055801  0.50769003  1
  I  I134  1  0.66414737  0.83517249  0.82902529  1
