# generated using pymatgen
data_Cs27Sn14Pb13I81
_symmetry_space_group_name_H-M   'P 1'
_cell_length_a   18.96734864
_cell_length_b   18.98148333
_cell_length_c   18.97723231
_cell_angle_alpha   89.99856332
_cell_angle_beta   89.99972438
_cell_angle_gamma   89.99846691
_symmetry_Int_Tables_number   1
_chemical_formula_structural   Cs27Sn14Pb13I81
_chemical_formula_sum   'Cs27 Sn14 Pb13 I81'
_cell_volume   6832.34280779
_cell_formula_units_Z   1
loop_
 _symmetry_equiv_pos_site_id
 _symmetry_equiv_pos_as_xyz
  1  'x, y, z'
loop_
 _atom_site_type_symbol
 _atom_site_label
 _atom_site_symmetry_multiplicity
 _atom_site_fract_x
 _atom_site_fract_y
 _atom_site_fract_z
 _atom_site_occupancy
  Cs  Cs0  1  0.00011391  0.00009892  -0.00230454  1
  Cs  Cs1  1  -0.00244806  -0.00160426  0.33617110  1
  Cs  Cs2  1  0.00063518  0.00167983  0.66835443  1
  Cs  Cs3  1  -0.00122354  0.33159582  -0.00021701  1
  Cs  Cs4  1  0.00306415  0.33712440  0.33098128  1
  Cs  Cs5  1  -0.00070372  0.33286436  0.66739532  1
  Cs  Cs6  1  -0.00232445  0.66762190  -0.00077359  1
  Cs  Cs7  1  -0.00156153  0.66438391  0.32986519  1
  Cs  Cs8  1  0.00250069  0.66521120  0.66882415  1
  Cs  Cs9  1  0.33371376  0.00071182  0.00242674  1
  Cs  Cs10  1  0.33420840  0.00168532  0.33007648  1
  Cs  Cs11  1  0.33337191  -0.00233655  0.66579524  1
  Cs  Cs12  1  0.33662037  0.32834097  0.00279658  1
  Cs  Cs13  1  0.33140703  0.33435268  0.32858771  1
  Cs  Cs14  1  0.33260886  0.33543594  0.66840939  1
  Cs  Cs15  1  0.33680683  0.67024231  -0.00079948  1
  Cs  Cs16  1  0.33277432  0.66462003  0.33290865  1
  Cs  Cs17  1  0.33350316  0.66720129  0.66660364  1
  Cs  Cs18  1  0.66755627  0.00304981  -0.00074877  1
  Cs  Cs19  1  0.66820751  0.00011016  0.34450633  1
  Cs  Cs20  1  0.66121415  0.00007561  0.65607157  1
  Cs  Cs21  1  0.66661180  0.33230808  -0.00141990  1
  Cs  Cs22  1  0.66530781  0.33292585  0.33629114  1
  Cs  Cs23  1  0.66723200  0.33440867  0.66560151  1
  Cs  Cs24  1  0.66647919  0.66586227  0.00207359  1
  Cs  Cs25  1  0.66771903  0.66723117  0.33078891  1
  Cs  Cs26  1  0.66252723  0.66453489  0.66608866  1
  Sn  Sn27  1  0.50050824  0.50021350  0.49910103  1
  Sn  Sn28  1  0.16603068  0.83342717  0.83340440  1
  Sn  Sn29  1  0.16636035  0.83392941  0.50001254  1
  Sn  Sn30  1  0.16646626  0.16612347  0.50063508  1
  Sn  Sn31  1  0.49992815  0.83301402  0.16657300  1
  Sn  Sn32  1  0.50013836  0.50054937  0.16728790  1
  Sn  Sn33  1  0.16620209  0.16653063  0.83264744  1
  Sn  Sn34  1  0.83409402  0.50017705  0.83262859  1
  Sn  Sn35  1  0.16688123  0.83312650  0.16655437  1
  Sn  Sn36  1  0.83371548  0.16622783  0.83368910  1
  Sn  Sn37  1  0.16617606  0.49989598  0.83384148  1
  Sn  Sn38  1  0.83343170  0.16643838  0.16655572  1
  Sn  Sn39  1  0.83331167  0.83360956  0.83295871  1
  Sn  Sn40  1  0.83299177  0.50035839  0.50065836  1
  Pb  Pb41  1  0.83560281  0.16882442  0.50080051  1
  Pb  Pb42  1  0.83311841  0.83546651  0.16476574  1
  Pb  Pb43  1  0.50028823  0.49997957  0.83358469  1
  Pb  Pb44  1  0.83142439  0.49821681  0.16607242  1
  Pb  Pb45  1  0.50294846  0.16597627  0.16683501  1
  Pb  Pb46  1  0.49645563  0.16944537  0.50004687  1
  Pb  Pb47  1  0.50012103  0.16633842  0.83297658  1
  Pb  Pb48  1  0.50015698  0.83357143  0.83521295  1
  Pb  Pb49  1  0.16467243  0.16427601  0.16642665  1
  Pb  Pb50  1  0.83570490  0.83065319  0.50291527  1
  Pb  Pb51  1  0.16866012  0.50229996  0.16319904  1
  Pb  Pb52  1  0.49743000  0.83113238  0.49748834  1
  Pb  Pb53  1  0.16656435  0.50004253  0.50165659  1
  I  I54  1  0.17282022  -0.00365522  0.16199705  1
  I  I55  1  0.16595091  -0.00052236  0.50541168  1
  I  I56  1  0.16086162  -0.00035984  0.83290505  1
  I  I57  1  0.16792677  0.33332348  0.16737491  1
  I  I58  1  0.16636350  0.33130612  0.50579591  1
  I  I59  1  0.16110244  0.33294093  0.82718691  1
  I  I60  1  0.16682521  0.67040161  0.16776866  1
  I  I61  1  0.16726279  0.66907344  0.50181510  1
  I  I62  1  0.16119983  0.66728859  0.83302679  1
  I  I63  1  0.49442167  -0.00307101  0.16332151  1
  I  I64  1  0.50185872  -0.00021490  0.49872827  1
  I  I65  1  0.49987442  -0.00016807  0.83691549  1
  I  I66  1  0.50128354  0.33596315  0.16983831  1
  I  I67  1  0.50223426  0.33736434  0.49411489  1
  I  I68  1  0.49804962  0.33350687  0.83624546  1
  I  I69  1  0.49621482  0.66661521  0.16955300  1
  I  I70  1  0.50143754  0.66332540  0.49942581  1
  I  I71  1  0.49900230  0.66660900  0.83210589  1
  I  I72  1  0.83332244  0.00298968  0.15964073  1
  I  I73  1  0.83210506  -0.00010166  0.49975897  1
  I  I74  1  0.84153516  0.00022334  0.84087478  1
  I  I75  1  0.83287401  0.33066162  0.16024111  1
  I  I76  1  0.83196844  0.33655944  0.50567187  1
  I  I77  1  0.83934847  0.33346797  0.83366212  1
  I  I78  1  0.83449536  0.66678707  0.16578967  1
  I  I79  1  0.83202672  0.66286639  0.50442231  1
  I  I80  1  0.84031727  0.66634993  0.82960033  1
  I  I81  1  0.16458704  0.16668159  -0.00323873  1
  I  I82  1  0.16508015  0.16282494  0.33563965  1
  I  I83  1  0.16124619  0.16278396  0.66832738  1
  I  I84  1  0.16073270  0.49876622  -0.00479884  1
  I  I85  1  0.16452819  0.49985420  0.33315081  1
  I  I86  1  0.16737686  0.50403594  0.66979642  1
  I  I87  1  0.16726834  0.83272248  -0.00118983  1
  I  I88  1  0.17220024  0.83805907  0.33336414  1
  I  I89  1  0.16181370  0.83363034  0.66786614  1
  I  I90  1  0.49579982  0.16998238  0.00018775  1
  I  I91  1  0.50080334  0.16545314  0.33337901  1
  I  I92  1  0.50447638  0.16886700  0.66635321  1
  I  I93  1  0.49925024  0.50434605  0.00256323  1
  I  I94  1  0.50521072  0.50422001  0.33351227  1
  I  I95  1  0.50092145  0.49902114  0.66442163  1
  I  I96  1  0.49334462  0.82535304  0.00313136  1
  I  I97  1  0.49492104  0.83126499  0.32962823  1
  I  I98  1  0.49926918  0.83173048  0.66628608  1
  I  I99  1  0.83869910  0.16898762  -0.00234097  1
  I  I100  1  0.83443693  0.16822726  0.33169728  1
  I  I101  1  0.83688350  0.16614129  0.67011021  1
  I  I102  1  0.83620377  0.50142444  -0.00344854  1
  I  I103  1  0.83158000  0.49756795  0.33555495  1
  I  I104  1  0.83142750  0.49789082  0.66813987  1
  I  I105  1  0.83945514  0.82813090  -0.00352096  1
  I  I106  1  0.83479060  0.83372870  0.33354730  1
  I  I107  1  0.83944625  0.83822418  0.67111668  1
  I  I108  1  -0.00284070  0.16636098  0.16346072  1
  I  I109  1  0.00338787  0.16489944  0.50245549  1
  I  I110  1  0.00039863  0.16694089  0.83359401  1
  I  I111  1  -0.00000674  0.50078096  0.16994306  1
  I  I112  1  -0.00215755  0.49955074  0.50371166  1
  I  I113  1  -0.00052765  0.50029363  0.82753651  1
  I  I114  1  0.00281531  0.83524600  0.16708173  1
  I  I115  1  0.00392163  0.83465646  0.49516244  1
  I  I116  1  0.00132414  0.83262855  0.83577949  1
  I  I117  1  0.33315925  0.16852690  0.16629096  1
  I  I118  1  0.32855033  0.16396495  0.50628920  1
  I  I119  1  0.32921720  0.16729988  0.82991801  1
  I  I120  1  0.33648260  0.50032789  0.17230366  1
  I  I121  1  0.33528789  0.50029378  0.49768143  1
  I  I122  1  0.33028724  0.50089038  0.83244341  1
  I  I123  1  0.33222395  0.82975545  0.16405588  1
  I  I124  1  0.32926047  0.83416138  0.50677211  1
  I  I125  1  0.32948547  0.83234731  0.83156119  1
  I  I126  1  0.67056874  0.16642188  0.15780704  1
  I  I127  1  0.66686787  0.16610179  0.50015201  1
  I  I128  1  0.67065071  0.16854862  0.83911823  1
  I  I129  1  0.66356710  0.50665296  0.16581290  1
  I  I130  1  0.66718089  0.49942534  0.50320334  1
  I  I131  1  0.67012489  0.49969582  0.83260038  1
  I  I132  1  0.66422459  0.82919405  0.16299520  1
  I  I133  1  0.66679723  0.83438297  0.50008788  1
  I  I134  1  0.67000650  0.83161983  0.83687105  1
