# generated using pymatgen
data_Cs27Sn13Pb14I81
_symmetry_space_group_name_H-M   'P 1'
_cell_length_a   18.96917206
_cell_length_b   18.98015397
_cell_length_c   18.98094916
_cell_angle_alpha   90.00032170
_cell_angle_beta   89.99899150
_cell_angle_gamma   89.99984003
_symmetry_Int_Tables_number   1
_chemical_formula_structural   Cs27Sn13Pb14I81
_chemical_formula_sum   'Cs27 Sn13 Pb14 I81'
_cell_volume   6833.85929752
_cell_formula_units_Z   1
loop_
 _symmetry_equiv_pos_site_id
 _symmetry_equiv_pos_as_xyz
  1  'x, y, z'
loop_
 _atom_site_type_symbol
 _atom_site_label
 _atom_site_symmetry_multiplicity
 _atom_site_fract_x
 _atom_site_fract_y
 _atom_site_fract_z
 _atom_site_occupancy
  Cs  Cs0  1  0.00106277  0.00097419  -0.00005318  1
  Cs  Cs1  1  0.00236267  0.00365989  0.33413808  1
  Cs  Cs2  1  -0.00028231  0.00210736  0.66627340  1
  Cs  Cs3  1  0.00003756  0.33232251  -0.00143154  1
  Cs  Cs4  1  -0.00176960  0.33233135  0.33551366  1
  Cs  Cs5  1  -0.00188140  0.33279813  0.66703917  1
  Cs  Cs6  1  0.00083664  0.66755574  -0.00110253  1
  Cs  Cs7  1  -0.00191200  0.66387271  0.33249270  1
  Cs  Cs8  1  0.00029034  0.66533113  0.66825911  1
  Cs  Cs9  1  0.33185029  0.00247271  0.00087043  1
  Cs  Cs10  1  0.33135034  0.00075926  0.33361941  1
  Cs  Cs11  1  0.33428957  0.00058974  0.66608162  1
  Cs  Cs12  1  0.33497118  0.33407373  -0.00219305  1
  Cs  Cs13  1  0.33326790  0.33269255  0.33445813  1
  Cs  Cs14  1  0.33575491  0.33609971  0.66613471  1
  Cs  Cs15  1  0.33495885  0.66091993  -0.00020156  1
  Cs  Cs16  1  0.33345361  0.66639305  0.33462683  1
  Cs  Cs17  1  0.33291335  0.66282093  0.66555418  1
  Cs  Cs18  1  0.66723997  -0.00172173  -0.00337036  1
  Cs  Cs19  1  0.66489431  -0.00505966  0.33511774  1
  Cs  Cs20  1  0.66498026  -0.00958507  0.66799387  1
  Cs  Cs21  1  0.66551664  0.33282580  0.00025723  1
  Cs  Cs22  1  0.66758998  0.33608210  0.33332025  1
  Cs  Cs23  1  0.66719788  0.33250447  0.66669457  1
  Cs  Cs24  1  0.66344754  0.67286125  0.00771714  1
  Cs  Cs25  1  0.67129782  0.67009543  0.32727825  1
  Cs  Cs26  1  0.66892848  0.67992931  0.66491126  1
  Sn  Sn27  1  0.16681747  0.83414996  0.83329886  1
  Sn  Sn28  1  0.16680789  0.83312484  0.16657581  1
  Sn  Sn29  1  0.50017991  0.49959144  0.50007481  1
  Sn  Sn30  1  0.16673467  0.83234660  0.50003541  1
  Sn  Sn31  1  0.16662404  0.49942082  0.16746302  1
  Sn  Sn32  1  0.83407656  0.16776112  0.83391341  1
  Sn  Sn33  1  0.16657124  0.16715435  0.16592531  1
  Sn  Sn34  1  0.16614710  0.16629657  0.83384934  1
  Sn  Sn35  1  0.83247131  0.49977523  0.83348294  1
  Sn  Sn36  1  0.50006163  0.16746943  0.49938298  1
  Sn  Sn37  1  0.50010389  0.16685800  0.16769311  1
  Sn  Sn38  1  0.83326470  0.16689096  0.16614628  1
  Sn  Sn39  1  0.16702967  0.50036579  0.49924305  1
  Pb  Pb40  1  0.49654378  0.83307784  0.83369820  1
  Pb  Pb41  1  0.16799915  0.16714918  0.50042808  1
  Pb  Pb42  1  0.49760895  0.83282540  0.49965798  1
  Pb  Pb43  1  0.50388084  0.50013074  0.83062833  1
  Pb  Pb44  1  0.49726435  0.83598949  0.16663615  1
  Pb  Pb45  1  0.83676807  0.83337263  0.49959840  1
  Pb  Pb46  1  0.49807604  0.49791202  0.16865610  1
  Pb  Pb47  1  0.50029960  0.16676000  0.83330771  1
  Pb  Pb48  1  0.83569259  0.83384235  0.83362406  1
  Pb  Pb49  1  0.83605037  0.83631248  0.16662705  1
  Pb  Pb50  1  0.16566671  0.49954463  0.83315805  1
  Pb  Pb51  1  0.83553112  0.49787245  0.16447837  1
  Pb  Pb52  1  0.83298959  0.49996198  0.50206722  1
  Pb  Pb53  1  0.82993392  0.16662612  0.50034857  1
  I  I54  1  0.16672117  0.00105196  0.16637767  1
  I  I55  1  0.16812866  -0.00189073  0.49814653  1
  I  I56  1  0.16178836  0.00112946  0.83587085  1
  I  I57  1  0.16677279  0.33208089  0.16666758  1
  I  I58  1  0.16891565  0.33591951  0.49707567  1
  I  I59  1  0.16455982  0.33037680  0.83677075  1
  I  I60  1  0.16656488  0.66663670  0.16695468  1
  I  I61  1  0.17202585  0.66617330  0.49799026  1
  I  I62  1  0.16464326  0.66887170  0.83519872  1
  I  I63  1  0.49720701  0.00467137  0.17276700  1
  I  I64  1  0.49844005  0.00272020  0.49655093  1
  I  I65  1  0.50348810  0.00042085  0.83009107  1
  I  I66  1  0.49618455  0.32946199  0.16830746  1
  I  I67  1  0.49227117  0.33310302  0.49668863  1
  I  I68  1  0.49382460  0.33318947  0.83398676  1
  I  I69  1  0.49844212  0.66654148  0.16751404  1
  I  I70  1  0.49515726  0.66360364  0.50292310  1
  I  I71  1  0.49907928  0.66643735  0.83078219  1
  I  I72  1  0.83545939  0.00479019  0.15997907  1
  I  I73  1  0.83370432  0.00035682  0.50228118  1
  I  I74  1  0.83600057  0.00357641  0.83748554  1
  I  I75  1  0.83706798  0.32947992  0.16498369  1
  I  I76  1  0.83914791  0.33311673  0.49932123  1
  I  I77  1  0.84122001  0.33139315  0.83599358  1
  I  I78  1  0.83504231  0.66658323  0.16557823  1
  I  I79  1  0.82988424  0.66652952  0.50333508  1
  I  I80  1  0.83696993  0.66442480  0.82968419  1
  I  I81  1  0.16786698  0.16396740  0.00111592  1
  I  I82  1  0.16484550  0.16436379  0.33037587  1
  I  I83  1  0.16368259  0.16362938  0.66940507  1
  I  I84  1  0.16429115  0.50136119  0.00252549  1
  I  I85  1  0.16969235  0.50210319  0.33324811  1
  I  I86  1  0.16874184  0.50286036  0.66406902  1
  I  I87  1  0.16574833  0.83559835  0.00033762  1
  I  I88  1  0.16735198  0.83449806  0.33288262  1
  I  I89  1  0.16650996  0.83366485  0.66671407  1
  I  I90  1  0.49785070  0.16591593  0.00304707  1
  I  I91  1  0.49719074  0.17005201  0.33258197  1
  I  I92  1  0.49729236  0.17047896  0.66393636  1
  I  I93  1  0.49725874  0.49790791  0.00017641  1
  I  I94  1  0.49638036  0.49650353  0.33674674  1
  I  I95  1  0.48934835  0.49119358  0.66256280  1
  I  I96  1  0.49806526  0.83532994  0.00031490  1
  I  I97  1  0.49661735  0.83391645  0.33326642  1
  I  I98  1  0.49789024  0.83674356  0.66634895  1
  I  I99  1  0.83453282  0.17049191  0.00002408  1
  I  I100  1  0.83887056  0.16618491  0.33017127  1
  I  I101  1  0.83936862  0.17028199  0.67006168  1
  I  I102  1  0.83814603  0.49631377  -0.00322622  1
  I  I103  1  0.83361374  0.49824353  0.33311573  1
  I  I104  1  0.83793380  0.49156339  0.66982906  1
  I  I105  1  0.83629579  0.83126950  0.00003719  1
  I  I106  1  0.83574494  0.83489480  0.33294784  1
  I  I107  1  0.83567395  0.83586393  0.66691716  1
  I  I108  1  0.00157708  0.16580442  0.16174503  1
  I  I109  1  0.00014328  0.16631484  0.49811649  1
  I  I110  1  0.00115161  0.16624238  0.84027221  1
  I  I111  1  0.00437125  0.49811061  0.17282086  1
  I  I112  1  0.00339333  0.50411754  0.49718215  1
  I  I113  1  -0.00182929  0.49728158  0.83165956  1
  I  I114  1  0.00488224  0.83564954  0.16633386  1
  I  I115  1  0.00552657  0.82872214  0.50011251  1
  I  I116  1  0.00426886  0.83535898  0.83361771  1
  I  I117  1  0.33167701  0.16564520  0.16678850  1
  I  I118  1  0.33570999  0.16717504  0.49607501  1
  I  I119  1  0.33017705  0.16228880  0.83678897  1
  I  I120  1  0.32907838  0.49818905  0.16662524  1
  I  I121  1  0.33175082  0.49958727  0.49721882  1
  I  I122  1  0.33319741  0.49997347  0.83443850  1
  I  I123  1  0.32842410  0.83647632  0.16711630  1
  I  I124  1  0.32905613  0.83303137  0.49965321  1
  I  I125  1  0.32777656  0.84049351  0.83316387  1
  I  I126  1  0.66677314  0.16853465  0.16605572  1
  I  I127  1  0.66207811  0.17398191  0.49596689  1
  I  I128  1  0.66983506  0.17185722  0.83678609  1
  I  I129  1  0.66675059  0.49776983  0.16760733  1
  I  I130  1  0.66351507  0.49212230  0.50259400  1
  I  I131  1  0.67132026  0.48883239  0.83246882  1
  I  I132  1  0.66668841  0.83388711  0.16709264  1
  I  I133  1  0.66634156  0.83380960  0.50170921  1
  I  I134  1  0.66700647  0.83450813  0.83115351  1
