# generated using pymatgen
data_Cs27Sn13Pb14I81
_symmetry_space_group_name_H-M   'P 1'
_cell_length_a   18.99992934
_cell_length_b   18.98462781
_cell_length_c   18.98687237
_cell_angle_alpha   90.00061991
_cell_angle_beta   90.00076335
_cell_angle_gamma   89.99997417
_symmetry_Int_Tables_number   1
_chemical_formula_structural   Cs27Sn13Pb14I81
_chemical_formula_sum   'Cs27 Sn13 Pb14 I81'
_cell_volume   6848.68992762
_cell_formula_units_Z   1
loop_
 _symmetry_equiv_pos_site_id
 _symmetry_equiv_pos_as_xyz
  1  'x, y, z'
loop_
 _atom_site_type_symbol
 _atom_site_label
 _atom_site_symmetry_multiplicity
 _atom_site_fract_x
 _atom_site_fract_y
 _atom_site_fract_z
 _atom_site_occupancy
  Cs  Cs0  1  0.00262446  -0.00081567  -0.00056203  1
  Cs  Cs1  1  -0.00012757  0.00180660  0.33397651  1
  Cs  Cs2  1  0.00048444  -0.00146301  0.66651760  1
  Cs  Cs3  1  0.00247846  0.34382445  0.00069176  1
  Cs  Cs4  1  0.00088104  0.33055068  0.33463083  1
  Cs  Cs5  1  -0.00118668  0.33416098  0.66475147  1
  Cs  Cs6  1  -0.00127261  0.66179955  0.00160919  1
  Cs  Cs7  1  -0.00316235  0.66703871  0.33506744  1
  Cs  Cs8  1  0.00146879  0.66837719  0.66607375  1
  Cs  Cs9  1  0.33006606  0.00048549  -0.00176209  1
  Cs  Cs10  1  0.33335323  0.00090390  0.33343429  1
  Cs  Cs11  1  0.33098801  -0.00222836  0.66762606  1
  Cs  Cs12  1  0.32981765  0.34197088  0.00054048  1
  Cs  Cs13  1  0.33236777  0.33096220  0.33088672  1
  Cs  Cs14  1  0.33522753  0.33465918  0.66766074  1
  Cs  Cs15  1  0.33262288  0.66069464  0.00011720  1
  Cs  Cs16  1  0.34598410  0.66955760  0.33630869  1
  Cs  Cs17  1  0.33542494  0.66748662  0.66442798  1
  Cs  Cs18  1  0.66597120  -0.00016853  -0.00111011  1
  Cs  Cs19  1  0.66706899  0.00171826  0.33130239  1
  Cs  Cs20  1  0.66907251  0.00262925  0.67004505  1
  Cs  Cs21  1  0.66699597  0.33683743  -0.01047189  1
  Cs  Cs22  1  0.66632334  0.32946021  0.33570867  1
  Cs  Cs23  1  0.66552740  0.33244442  0.67109356  1
  Cs  Cs24  1  0.66789145  0.66459389  0.01223285  1
  Cs  Cs25  1  0.65995991  0.66620555  0.32512828  1
  Cs  Cs26  1  0.66485751  0.66591103  0.66514461  1
  Sn  Sn27  1  0.16622048  0.16651928  0.83279833  1
  Sn  Sn28  1  0.83270802  0.16661921  0.16631818  1
  Sn  Sn29  1  0.50099951  0.16650368  0.16623997  1
  Sn  Sn30  1  0.16649023  0.83330190  0.16635098  1
  Sn  Sn31  1  0.16656471  0.83390316  0.83439107  1
  Sn  Sn32  1  0.83374322  0.50003221  0.49995310  1
  Sn  Sn33  1  0.83319917  0.16656931  0.49968195  1
  Sn  Sn34  1  0.50001243  0.16609852  0.49980768  1
  Sn  Sn35  1  0.16669903  0.16723419  0.50107370  1
  Sn  Sn36  1  0.50014796  0.83331704  0.83349342  1
  Sn  Sn37  1  0.16624668  0.49945129  0.49964710  1
  Sn  Sn38  1  0.83320074  0.83331591  0.83310701  1
  Sn  Sn39  1  0.83303113  0.83320270  0.50020732  1
  Pb  Pb40  1  0.83338086  0.49637921  0.16969342  1
  Pb  Pb41  1  0.50012820  0.49615479  0.16683281  1
  Pb  Pb42  1  0.83333060  0.50361564  0.83065823  1
  Pb  Pb43  1  0.50042098  0.49714291  0.49998933  1
  Pb  Pb44  1  0.49754686  0.83592753  0.16412575  1
  Pb  Pb45  1  0.16646376  0.16579958  0.16653750  1
  Pb  Pb46  1  0.16655307  0.50064782  0.83059937  1
  Pb  Pb47  1  0.50335466  0.83619667  0.50179030  1
  Pb  Pb48  1  0.83588847  0.16520478  0.83361164  1
  Pb  Pb49  1  0.16524710  0.83329265  0.50004406  1
  Pb  Pb50  1  0.83497210  0.83539437  0.16672629  1
  Pb  Pb51  1  0.50014674  0.50359543  0.83317363  1
  Pb  Pb52  1  0.49737838  0.16536962  0.83371069  1
  Pb  Pb53  1  0.16669404  0.50364193  0.17073743  1
  I  I54  1  0.16616105  -0.00203417  0.16693478  1
  I  I55  1  0.16543914  0.00287997  0.50100150  1
  I  I56  1  0.16661488  -0.00070762  0.83003219  1
  I  I57  1  0.16717175  0.33343637  0.16357515  1
  I  I58  1  0.16174718  0.33116181  0.50490395  1
  I  I59  1  0.16704558  0.33053368  0.83112551  1
  I  I60  1  0.16449823  0.67118384  0.15830377  1
  I  I61  1  0.15991698  0.66464711  0.50017584  1
  I  I62  1  0.16644251  0.67046770  0.83587588  1
  I  I63  1  0.50366797  0.00340688  0.17232163  1
  I  I64  1  0.49763125  0.00412239  0.49671638  1
  I  I65  1  0.50111479  -0.00260433  0.83196782  1
  I  I66  1  0.50159130  0.32804016  0.17250645  1
  I  I67  1  0.50350474  0.32884548  0.49719595  1
  I  I68  1  0.49841122  0.33298747  0.83350265  1
  I  I69  1  0.49872470  0.66700967  0.16574349  1
  I  I70  1  0.49858132  0.66698145  0.50221678  1
  I  I71  1  0.49552319  0.67186636  0.83061880  1
  I  I72  1  0.83104537  0.00308895  0.17444844  1
  I  I73  1  0.83438502  0.00096774  0.50050338  1
  I  I74  1  0.83309650  -0.00293674  0.82643019  1
  I  I75  1  0.83185775  0.32826758  0.17271387  1
  I  I76  1  0.83513222  0.33197630  0.49414682  1
  I  I77  1  0.83479329  0.33332288  0.83361790  1
  I  I78  1  0.83500122  0.66667854  0.16709343  1
  I  I79  1  0.84157121  0.66699094  0.50729626  1
  I  I80  1  0.83762794  0.67190688  0.82757210  1
  I  I81  1  0.16688761  0.16099701  -0.00249250  1
  I  I82  1  0.16611284  0.16795157  0.33644896  1
  I  I83  1  0.16634611  0.16336896  0.66527208  1
  I  I84  1  0.16764262  0.49657864  0.00015500  1
  I  I85  1  0.16099608  0.49211367  0.33817054  1
  I  I86  1  0.16190070  0.49983810  0.66290647  1
  I  I87  1  0.16483718  0.84219744  -0.00192423  1
  I  I88  1  0.16300277  0.83520707  0.33168595  1
  I  I89  1  0.16751414  0.83498659  0.66927850  1
  I  I90  1  0.50425022  0.16277011  0.00250174  1
  I  I91  1  0.49872913  0.16578592  0.33466254  1
  I  I92  1  0.50279262  0.16555165  0.66388758  1
  I  I93  1  0.49933867  0.49706944  0.00001797  1
  I  I94  1  0.49908377  0.50538628  0.33373220  1
  I  I95  1  0.49949238  0.49717844  0.66624172  1
  I  I96  1  0.50510325  0.83759722  -0.00358216  1
  I  I97  1  0.49879289  0.83186872  0.33325090  1
  I  I98  1  0.49345906  0.83643347  0.66942623  1
  I  I99  1  0.82954043  0.16139468  0.00239603  1
  I  I100  1  0.83507631  0.16417299  0.33572023  1
  I  I101  1  0.83123976  0.16777406  0.66323745  1
  I  I102  1  0.83280333  0.49970464  0.00016539  1
  I  I103  1  0.83844941  0.50547975  0.33794918  1
  I  I104  1  0.83765776  0.49348189  0.66240383  1
  I  I105  1  0.83265124  0.83766798  -0.00280758  1
  I  I106  1  0.83766707  0.83318848  0.33636891  1
  I  I107  1  0.83655463  0.83652073  0.66613053  1
  I  I108  1  -0.00220807  0.16340218  0.17215246  1
  I  I109  1  -0.00039685  0.16666751  0.49948726  1
  I  I110  1  0.00354670  0.15899044  0.82837494  1
  I  I111  1  0.00012352  0.49723903  0.16468475  1
  I  I112  1  -0.00044111  0.49445378  0.50082629  1
  I  I113  1  0.00002377  0.50121476  0.83458003  1
  I  I114  1  0.00249970  0.83790334  0.16179781  1
  I  I115  1  -0.00270080  0.83826376  0.50481927  1
  I  I116  1  0.00044930  0.83847567  0.83172611  1
  I  I117  1  0.33520211  0.16328065  0.17135333  1
  I  I118  1  0.33251369  0.17064663  0.49963717  1
  I  I119  1  0.32971288  0.15910859  0.82838791  1
  I  I120  1  0.33309551  0.49790051  0.16843397  1
  I  I121  1  0.33048475  0.49598912  0.50085851  1
  I  I122  1  0.33302577  0.50081384  0.83046615  1
  I  I123  1  0.32993321  0.83699998  0.16324194  1
  I  I124  1  0.33351252  0.83303995  0.50051497  1
  I  I125  1  0.33214558  0.83901023  0.83723699  1
  I  I126  1  0.66710831  0.16438963  0.17753527  1
  I  I127  1  0.66764343  0.16555518  0.49494712  1
  I  I128  1  0.66679147  0.16393036  0.83060667  1
  I  I129  1  0.66690038  0.50552934  0.16966558  1
  I  I130  1  0.67003330  0.49969054  0.50099062  1
  I  I131  1  0.66689691  0.49793185  0.82892141  1
  I  I132  1  0.66658930  0.83264326  0.16581581  1
  I  I133  1  0.67143112  0.83322455  0.50537182  1
  I  I134  1  0.66738583  0.83511808  0.82545122  1
