# generated using pymatgen
data_Cs27Sn13Pb14I81
_symmetry_space_group_name_H-M   'P 1'
_cell_length_a   19.00454100
_cell_length_b   18.99934497
_cell_length_c   19.01502526
_cell_angle_alpha   90.00024438
_cell_angle_beta   90.00115441
_cell_angle_gamma   89.99745282
_symmetry_Int_Tables_number   1
_chemical_formula_structural   Cs27Sn13Pb14I81
_chemical_formula_sum   'Cs27 Sn13 Pb14 I81'
_cell_volume   6865.82799997
_cell_formula_units_Z   1
loop_
 _symmetry_equiv_pos_site_id
 _symmetry_equiv_pos_as_xyz
  1  'x, y, z'
loop_
 _atom_site_type_symbol
 _atom_site_label
 _atom_site_symmetry_multiplicity
 _atom_site_fract_x
 _atom_site_fract_y
 _atom_site_fract_z
 _atom_site_occupancy
  Cs  Cs0  1  0.00172162  0.00077749  0.00189728  1
  Cs  Cs1  1  -0.00813341  0.00212962  0.33405685  1
  Cs  Cs2  1  0.00196267  0.00127869  0.66118503  1
  Cs  Cs3  1  -0.00095128  0.33376184  -0.00097218  1
  Cs  Cs4  1  0.00114210  0.33558358  0.33410400  1
  Cs  Cs5  1  -0.00015240  0.33484554  0.66659426  1
  Cs  Cs6  1  0.00214431  0.66521757  -0.00258031  1
  Cs  Cs7  1  -0.00235546  0.66422359  0.33473651  1
  Cs  Cs8  1  0.00149713  0.66577748  0.66639094  1
  Cs  Cs9  1  0.33207776  -0.00205747  0.00153761  1
  Cs  Cs10  1  0.33281634  -0.00024835  0.33072042  1
  Cs  Cs11  1  0.33187456  -0.00085499  0.66626854  1
  Cs  Cs12  1  0.33241128  0.33293418  0.00458076  1
  Cs  Cs13  1  0.33529753  0.33403654  0.33266907  1
  Cs  Cs14  1  0.33913811  0.32867207  0.66324156  1
  Cs  Cs15  1  0.33207350  0.66907494  0.00438005  1
  Cs  Cs16  1  0.33407245  0.66567128  0.33215117  1
  Cs  Cs17  1  0.33083961  0.67023278  0.66516929  1
  Cs  Cs18  1  0.66711143  0.00147977  0.00332264  1
  Cs  Cs19  1  0.67709711  -0.00197575  0.33023200  1
  Cs  Cs20  1  0.66769533  0.00516336  0.66577063  1
  Cs  Cs21  1  0.66932216  0.33284299  -0.01351493  1
  Cs  Cs22  1  0.66435458  0.33591509  0.33650713  1
  Cs  Cs23  1  0.65656673  0.32793951  0.67850390  1
  Cs  Cs24  1  0.66695223  0.66554376  -0.00388444  1
  Cs  Cs25  1  0.66856574  0.66780888  0.33499763  1
  Cs  Cs26  1  0.66749799  0.66524446  0.66835093  1
  Sn  Sn27  1  0.16724783  0.83260217  0.49819866  1
  Sn  Sn28  1  0.49952781  0.83393554  0.16705244  1
  Sn  Sn29  1  0.16632019  0.50066926  0.50090802  1
  Sn  Sn30  1  0.83304827  0.49996991  0.16709396  1
  Sn  Sn31  1  0.16724604  0.16575923  0.16624331  1
  Sn  Sn32  1  0.83346331  0.49964338  0.50002430  1
  Sn  Sn33  1  0.16683265  0.16786591  0.83402050  1
  Sn  Sn34  1  0.16730073  0.49867591  0.83214153  1
  Sn  Sn35  1  0.83268604  0.83371766  0.83334835  1
  Sn  Sn36  1  0.49965573  0.16605819  0.16683878  1
  Sn  Sn37  1  0.49949015  0.83350305  0.49947360  1
  Sn  Sn38  1  0.50120422  0.83341077  0.83345541  1
  Sn  Sn39  1  0.16664369  0.83398653  0.16826738  1
  Pb  Pb40  1  0.50293019  0.49999886  0.16647117  1
  Pb  Pb41  1  0.49990434  0.16306433  0.49679360  1
  Pb  Pb42  1  0.83352656  0.83142438  0.16488756  1
  Pb  Pb43  1  0.83535144  0.50148516  0.83244408  1
  Pb  Pb44  1  0.83349880  0.83170706  0.50218486  1
  Pb  Pb45  1  0.83308081  0.17081434  0.50024327  1
  Pb  Pb46  1  0.83631167  0.16362998  0.83339604  1
  Pb  Pb47  1  0.49973581  0.50206078  0.50006708  1
  Pb  Pb48  1  0.49709763  0.16360613  0.83588786  1
  Pb  Pb49  1  0.49624290  0.50249878  0.83341936  1
  Pb  Pb50  1  0.83312879  0.16969034  0.16669135  1
  Pb  Pb51  1  0.16704302  0.83358646  0.83328679  1
  Pb  Pb52  1  0.16664826  0.16669050  0.49914372  1
  Pb  Pb53  1  0.16555430  0.50004503  0.16720029  1
  I  I54  1  0.17070670  -0.00092901  0.16431186  1
  I  I55  1  0.17202484  -0.00324776  0.50152050  1
  I  I56  1  0.16705185  0.00181504  0.83523264  1
  I  I57  1  0.16995495  0.33078893  0.16501606  1
  I  I58  1  0.16005131  0.33638122  0.50099836  1
  I  I59  1  0.16393072  0.33361590  0.83492498  1
  I  I60  1  0.17056652  0.66955867  0.16596388  1
  I  I61  1  0.16678927  0.66736179  0.50101408  1
  I  I62  1  0.16589985  0.66503465  0.83264199  1
  I  I63  1  0.49426006  -0.00173498  0.16575578  1
  I  I64  1  0.49078134  -0.00515195  0.50486006  1
  I  I65  1  0.50089022  -0.00429081  0.83049985  1
  I  I66  1  0.49341380  0.33029439  0.16742362  1
  I  I67  1  0.50018970  0.33312040  0.49790158  1
  I  I68  1  0.50253553  0.33287796  0.83491356  1
  I  I69  1  0.49462545  0.67047183  0.16652948  1
  I  I70  1  0.49777201  0.67055116  0.49613521  1
  I  I71  1  0.50156126  0.67088867  0.83708131  1
  I  I72  1  0.83404423  0.00001981  0.16464408  1
  I  I73  1  0.83435356  -0.00034334  0.50148452  1
  I  I74  1  0.83058077  -0.00414476  0.83473591  1
  I  I75  1  0.83623737  0.33709941  0.17145320  1
  I  I76  1  0.84424678  0.33886087  0.49410591  1
  I  I77  1  0.83283013  0.33330371  0.83371454  1
  I  I78  1  0.83518193  0.66412109  0.17009473  1
  I  I79  1  0.83615732  0.66414323  0.49613191  1
  I  I80  1  0.83202827  0.66922819  0.83419303  1
  I  I81  1  0.17019736  0.16558111  0.00096877  1
  I  I82  1  0.17140110  0.16583008  0.32996849  1
  I  I83  1  0.16454315  0.16598155  0.66888330  1
  I  I84  1  0.16405830  0.50093280  -0.00169624  1
  I  I85  1  0.16386931  0.50212434  0.33589967  1
  I  I86  1  0.15943833  0.50313196  0.66579267  1
  I  I87  1  0.16951021  0.83312840  0.00232795  1
  I  I88  1  0.17507016  0.83189196  0.33307303  1
  I  I89  1  0.16910850  0.83203709  0.66447360  1
  I  I90  1  0.49767760  0.15973470  0.00333386  1
  I  I91  1  0.49039252  0.16271337  0.32904469  1
  I  I92  1  0.49992960  0.16659252  0.66688586  1
  I  I93  1  0.50088422  0.50434799  0.00001664  1
  I  I94  1  0.49541016  0.50185312  0.33321944  1
  I  I95  1  0.50547695  0.50202493  0.66673786  1
  I  I96  1  0.49845083  0.83672278  0.00085200  1
  I  I97  1  0.49329177  0.83626752  0.33274577  1
  I  I98  1  0.49794141  0.82923571  0.66641364  1
  I  I99  1  0.83208300  0.17079355  0.00011999  1
  I  I100  1  0.83619602  0.16186263  0.33306370  1
  I  I101  1  0.83587793  0.16671412  0.66701428  1
  I  I102  1  0.83506335  0.50201128  0.00145578  1
  I  I103  1  0.84106599  0.50233442  0.33406538  1
  I  I104  1  0.83881906  0.50466382  0.66390509  1
  I  I105  1  0.83086717  0.82884890  -0.00259806  1
  I  I106  1  0.83129846  0.83343745  0.33343331  1
  I  I107  1  0.83111866  0.82964440  0.66963944  1
  I  I108  1  0.00328988  0.16187152  0.16264932  1
  I  I109  1  0.00039122  0.15900105  0.49785138  1
  I  I110  1  0.00417430  0.16762427  0.84138050  1
  I  I111  1  -0.00197210  0.50165154  0.16756415  1
  I  I112  1  0.00151127  0.50768388  0.49960821  1
  I  I113  1  0.00323330  0.50105875  0.83294274  1
  I  I114  1  0.00329735  0.83654474  0.16886970  1
  I  I115  1  0.00323558  0.83147460  0.49782945  1
  I  I116  1  -0.00117970  0.83194520  0.83408895  1
  I  I117  1  0.33217394  0.16192338  0.16177151  1
  I  I118  1  0.33312310  0.17271007  0.50304936  1
  I  I119  1  0.32957695  0.16861877  0.83492785  1
  I  I120  1  0.33339779  0.50063793  0.16620788  1
  I  I121  1  0.32990042  0.50293508  0.50432679  1
  I  I122  1  0.32833085  0.49882901  0.82777021  1
  I  I123  1  0.33293483  0.83566306  0.16413264  1
  I  I124  1  0.33231604  0.82668075  0.50176493  1
  I  I125  1  0.33558203  0.83303798  0.83366442  1
  I  I126  1  0.66361737  0.15939884  0.16900397  1
  I  I127  1  0.66637542  0.16522278  0.49729293  1
  I  I128  1  0.66632408  0.16887535  0.83451466  1
  I  I129  1  0.67044322  0.50249588  0.17470775  1
  I  I130  1  0.66946303  0.50337442  0.49249687  1
  I  I131  1  0.66653285  0.49968139  0.83347447  1
  I  I132  1  0.66351049  0.83706400  0.16919549  1
  I  I133  1  0.66379053  0.83200130  0.49672923  1
  I  I134  1  0.66555816  0.83073949  0.83426253  1
