# generated using pymatgen
data_Cs27Sn14Pb13I81
_symmetry_space_group_name_H-M   'P 1'
_cell_length_a   18.98261847
_cell_length_b   18.97242011
_cell_length_c   18.97362108
_cell_angle_alpha   89.99978276
_cell_angle_beta   90.00069918
_cell_angle_gamma   90.00130236
_symmetry_Int_Tables_number   1
_chemical_formula_structural   Cs27Sn14Pb13I81
_chemical_formula_sum   'Cs27 Sn14 Pb13 I81'
_cell_volume   6833.27776832
_cell_formula_units_Z   1
loop_
 _symmetry_equiv_pos_site_id
 _symmetry_equiv_pos_as_xyz
  1  'x, y, z'
loop_
 _atom_site_type_symbol
 _atom_site_label
 _atom_site_symmetry_multiplicity
 _atom_site_fract_x
 _atom_site_fract_y
 _atom_site_fract_z
 _atom_site_occupancy
  Cs  Cs0  1  0.00288011  0.00120187  0.00100944  1
  Cs  Cs1  1  -0.00258580  -0.00111383  0.33226183  1
  Cs  Cs2  1  -0.00422867  -0.00336454  0.66768565  1
  Cs  Cs3  1  -0.00057634  0.33261744  -0.00036566  1
  Cs  Cs4  1  0.00126231  0.33216088  0.33193346  1
  Cs  Cs5  1  0.00141100  0.33484105  0.66834319  1
  Cs  Cs6  1  0.00438482  0.66818584  -0.00251606  1
  Cs  Cs7  1  0.00054159  0.66938894  0.33607768  1
  Cs  Cs8  1  -0.00335309  0.66647231  0.66657919  1
  Cs  Cs9  1  0.33381566  -0.00573242  0.00049093  1
  Cs  Cs10  1  0.33306591  0.00112002  0.33375648  1
  Cs  Cs11  1  0.33933484  0.00381242  0.66615103  1
  Cs  Cs12  1  0.33097524  0.33341357  -0.00086385  1
  Cs  Cs13  1  0.32994112  0.33071986  0.33586802  1
  Cs  Cs14  1  0.33310267  0.33241345  0.66536928  1
  Cs  Cs15  1  0.33280328  0.67331767  0.00389043  1
  Cs  Cs16  1  0.33473952  0.66828254  0.33293464  1
  Cs  Cs17  1  0.33325889  0.66367243  0.66447427  1
  Cs  Cs18  1  0.66246434  -0.00021368  -0.00222088  1
  Cs  Cs19  1  0.67145815  0.00114726  0.33489562  1
  Cs  Cs20  1  0.66569448  -0.00131723  0.66796736  1
  Cs  Cs21  1  0.66960632  0.33474438  0.00229271  1
  Cs  Cs22  1  0.66912426  0.33441885  0.32824939  1
  Cs  Cs23  1  0.66582198  0.33378408  0.66756060  1
  Cs  Cs24  1  0.66082987  0.66472946  0.00363907  1
  Cs  Cs25  1  0.66446182  0.66580316  0.33356491  1
  Cs  Cs26  1  0.66957988  0.66629174  0.66461743  1
  Sn  Sn27  1  0.83349332  0.16799417  0.50104285  1
  Sn  Sn28  1  0.83267086  0.49872946  0.50030798  1
  Sn  Sn29  1  0.83315928  0.49925665  0.83279088  1
  Sn  Sn30  1  0.16618387  0.16720951  0.83384650  1
  Sn  Sn31  1  0.83326420  0.83282361  0.16583063  1
  Sn  Sn32  1  0.16664446  0.49953496  0.16612365  1
  Sn  Sn33  1  0.49896911  0.83288130  0.50008486  1
  Sn  Sn34  1  0.50074887  0.50023129  0.50046277  1
  Sn  Sn35  1  0.49890736  0.16708648  0.16656015  1
  Sn  Sn36  1  0.16771277  0.16737114  0.16588333  1
  Sn  Sn37  1  0.49988994  0.49987779  0.83292973  1
  Sn  Sn38  1  0.16687583  0.49933832  0.83430671  1
  Sn  Sn39  1  0.16772412  0.83359286  0.50062960  1
  Sn  Sn40  1  0.83407592  0.16746606  0.83237961  1
  Pb  Pb41  1  0.49732963  0.49833212  0.16704579  1
  Pb  Pb42  1  0.50002421  0.83018267  0.83067126  1
  Pb  Pb43  1  0.83579350  0.50192063  0.16634855  1
  Pb  Pb44  1  0.49995920  0.16898104  0.83523116  1
  Pb  Pb45  1  0.83274861  0.83283274  0.49900336  1
  Pb  Pb46  1  0.16678760  0.83370272  0.83066393  1
  Pb  Pb47  1  0.16650338  0.50111812  0.50039284  1
  Pb  Pb48  1  0.50262160  0.16757644  0.49827182  1
  Pb  Pb49  1  0.83402318  0.16544739  0.16568156  1
  Pb  Pb50  1  0.16425541  0.16450678  0.50070519  1
  Pb  Pb51  1  0.50207023  0.83576913  0.16916340  1
  Pb  Pb52  1  0.16546414  0.83372127  0.16846852  1
  Pb  Pb53  1  0.83330156  0.83298732  0.83608111  1
  I  I54  1  0.16812480  0.00318461  0.16321951  1
  I  I55  1  0.17031870  -0.00303166  0.49840615  1
  I  I56  1  0.16036867  0.00361466  0.83732976  1
  I  I57  1  0.16886760  0.33276026  0.16416724  1
  I  I58  1  0.16871618  0.33318710  0.49848245  1
  I  I59  1  0.16493445  0.33400834  0.83704501  1
  I  I60  1  0.16401739  0.66419489  0.16274721  1
  I  I61  1  0.16504186  0.66885057  0.49885706  1
  I  I62  1  0.16539773  0.66302791  0.83668377  1
  I  I63  1  0.49408105  0.00351667  0.16713940  1
  I  I64  1  0.49780612  -0.00190767  0.49633120  1
  I  I65  1  0.50038366  0.00032613  0.83326338  1
  I  I66  1  0.50039045  0.33064679  0.16928403  1
  I  I67  1  0.50202054  0.33663788  0.50334371  1
  I  I68  1  0.49953429  0.33706708  0.82595728  1
  I  I69  1  0.49966583  0.66642642  0.16493535  1
  I  I70  1  0.50248458  0.66538917  0.50324347  1
  I  I71  1  0.50074137  0.66161290  0.83376409  1
  I  I72  1  0.83517191  -0.00189705  0.17017609  1
  I  I73  1  0.83427435  0.00217707  0.50174114  1
  I  I74  1  0.83886215  0.00341999  0.82987642  1
  I  I75  1  0.83192215  0.33348600  0.16838876  1
  I  I76  1  0.82839004  0.33431561  0.50254787  1
  I  I77  1  0.83464217  0.33397920  0.82954930  1
  I  I78  1  0.83537682  0.66908744  0.16925903  1
  I  I79  1  0.83316778  0.66364382  0.50334865  1
  I  I80  1  0.83495819  0.66275876  0.82847617  1
  I  I81  1  0.16325063  0.17089766  -0.00030364  1
  I  I82  1  0.16826787  0.16985610  0.33082567  1
  I  I83  1  0.16432046  0.17145600  0.66982568  1
  I  I84  1  0.16531360  0.49648008  -0.00117666  1
  I  I85  1  0.16620597  0.49722393  0.33128786  1
  I  I86  1  0.16661375  0.49680858  0.66976255  1
  I  I87  1  0.16440683  0.83254767  -0.00011983  1
  I  I88  1  0.16833414  0.83197358  0.33618369  1
  I  I89  1  0.16815436  0.83192546  0.66291958  1
  I  I90  1  0.50174517  0.16873344  0.00295801  1
  I  I91  1  0.49544486  0.16804497  0.33054138  1
  I  I92  1  0.49778267  0.16421790  0.66669232  1
  I  I93  1  0.50422192  0.49639625  -0.00268916  1
  I  I94  1  0.50412833  0.50306308  0.33634815  1
  I  I95  1  0.49883166  0.50330212  0.66649583  1
  I  I96  1  0.50173697  0.83253445  0.00020799  1
  I  I97  1  0.49725066  0.82546265  0.33685051  1
  I  I98  1  0.49785509  0.83433911  0.66254899  1
  I  I99  1  0.83431001  0.17071952  -0.00311044  1
  I  I100  1  0.83252307  0.16835913  0.33526785  1
  I  I101  1  0.83870991  0.16947859  0.66736181  1
  I  I102  1  0.83083479  0.49593066  -0.00336875  1
  I  I103  1  0.82989403  0.49766863  0.33617869  1
  I  I104  1  0.83511448  0.49741858  0.66686138  1
  I  I105  1  0.83561092  0.83463739  0.00336930  1
  I  I106  1  0.83441504  0.83505875  0.33156372  1
  I  I107  1  0.83349107  0.83406876  0.66682529  1
  I  I108  1  0.00276989  0.16875622  0.16597808  1
  I  I109  1  -0.00352294  0.17101053  0.49814052  1
  I  I110  1  0.00006292  0.17439732  0.83537325  1
  I  I111  1  0.00348304  0.49362686  0.16392736  1
  I  I112  1  -0.00262466  0.49887369  0.50248852  1
  I  I113  1  -0.00012919  0.49622077  0.83285289  1
  I  I114  1  -0.00195923  0.83549464  0.17157136  1
  I  I115  1  0.00125005  0.83310566  0.49740252  1
  I  I116  1  0.00005410  0.82862531  0.82963443  1
  I  I117  1  0.33165077  0.17024036  0.16285730  1
  I  I118  1  0.33331852  0.16745951  0.50100439  1
  I  I119  1  0.33040312  0.17109015  0.83541137  1
  I  I120  1  0.32954823  0.49917155  0.16331316  1
  I  I121  1  0.33565764  0.50345873  0.50256589  1
  I  I122  1  0.33270845  0.49573344  0.83176753  1
  I  I123  1  0.33343187  0.83219842  0.16722703  1
  I  I124  1  0.33410892  0.82674034  0.49861738  1
  I  I125  1  0.33333536  0.83396823  0.83589301  1
  I  I126  1  0.66538841  0.16405331  0.16823958  1
  I  I127  1  0.67044835  0.16465646  0.50362289  1
  I  I128  1  0.66957367  0.17003054  0.83145400  1
  I  I129  1  0.66661763  0.49958590  0.16476024  1
  I  I130  1  0.66696014  0.50271336  0.50704631  1
  I  I131  1  0.66743598  0.49651422  0.82784116  1
  I  I132  1  0.66943302  0.83468134  0.16934224  1
  I  I133  1  0.66442290  0.83154896  0.49751129  1
  I  I134  1  0.66672765  0.83568876  0.83193108  1
