# generated using pymatgen
data_Cs27Sn14Pb13I81
_symmetry_space_group_name_H-M   'P 1'
_cell_length_a   18.98451500
_cell_length_b   18.96293020
_cell_length_c   18.97955920
_cell_angle_alpha   90.00260179
_cell_angle_beta   90.00225019
_cell_angle_gamma   89.99885313
_symmetry_Int_Tables_number   1
_chemical_formula_structural   Cs27Sn14Pb13I81
_chemical_formula_sum   'Cs27 Sn14 Pb13 I81'
_cell_volume   6832.67987995
_cell_formula_units_Z   1
loop_
 _symmetry_equiv_pos_site_id
 _symmetry_equiv_pos_as_xyz
  1  'x, y, z'
loop_
 _atom_site_type_symbol
 _atom_site_label
 _atom_site_symmetry_multiplicity
 _atom_site_fract_x
 _atom_site_fract_y
 _atom_site_fract_z
 _atom_site_occupancy
  Cs  Cs0  1  0.00184719  0.00024874  -0.00054678  1
  Cs  Cs1  1  -0.00058531  -0.00130812  0.33484262  1
  Cs  Cs2  1  -0.00091415  -0.00016874  0.66510313  1
  Cs  Cs3  1  0.00258330  0.33377210  -0.00286647  1
  Cs  Cs4  1  -0.01205925  0.33137631  0.33433415  1
  Cs  Cs5  1  -0.00046927  0.34303635  0.66908656  1
  Cs  Cs6  1  -0.00016562  0.66686458  0.00038581  1
  Cs  Cs7  1  0.00455758  0.67042641  0.33205589  1
  Cs  Cs8  1  0.00090568  0.66266320  0.66737756  1
  Cs  Cs9  1  0.33271597  0.00147880  -0.00063336  1
  Cs  Cs10  1  0.33269501  -0.00060294  0.33554382  1
  Cs  Cs11  1  0.33607422  0.00038770  0.66522935  1
  Cs  Cs12  1  0.33215988  0.32715137  0.00056000  1
  Cs  Cs13  1  0.33819575  0.33581596  0.33214890  1
  Cs  Cs14  1  0.33187337  0.33404210  0.66746733  1
  Cs  Cs15  1  0.33357334  0.67026695  0.00148023  1
  Cs  Cs16  1  0.33210796  0.66606572  0.33362401  1
  Cs  Cs17  1  0.33429278  0.66571564  0.66511433  1
  Cs  Cs18  1  0.66485357  -0.00134519  -0.00443888  1
  Cs  Cs19  1  0.66808907  0.00087998  0.33585073  1
  Cs  Cs20  1  0.66479870  0.00017300  0.66754733  1
  Cs  Cs21  1  0.66608498  0.33625577  0.00541675  1
  Cs  Cs22  1  0.67185370  0.33962174  0.32571825  1
  Cs  Cs23  1  0.66743404  0.33153520  0.66582747  1
  Cs  Cs24  1  0.66739983  0.66657126  -0.00170617  1
  Cs  Cs25  1  0.66439067  0.66374513  0.33194937  1
  Cs  Cs26  1  0.66500241  0.66575115  0.66896637  1
  Sn  Sn27  1  0.49958308  0.16625654  0.50024967  1
  Sn  Sn28  1  0.16675350  0.83396715  0.50043662  1
  Sn  Sn29  1  0.16664885  0.49999039  0.16698064  1
  Sn  Sn30  1  0.50082779  0.16785476  0.83258950  1
  Sn  Sn31  1  0.49995757  0.83386435  0.16797434  1
  Sn  Sn32  1  0.83320199  0.83348166  0.50031749  1
  Sn  Sn33  1  0.16717270  0.16638768  0.49995286  1
  Sn  Sn34  1  0.83286895  0.16589208  0.83319417  1
  Sn  Sn35  1  0.16681065  0.83323000  0.16664609  1
  Sn  Sn36  1  0.83461680  0.83413776  0.83305277  1
  Sn  Sn37  1  0.50004149  0.83390935  0.49893636  1
  Sn  Sn38  1  0.49963967  0.49836655  0.83328792  1
  Sn  Sn39  1  0.16573090  0.83361095  0.83288553  1
  Sn  Sn40  1  0.83317990  0.83373390  0.16660537  1
  Pb  Pb41  1  0.83611422  0.50280387  0.16637905  1
  Pb  Pb42  1  0.83129434  0.50011259  0.83343242  1
  Pb  Pb43  1  0.49995977  0.49943761  0.50161418  1
  Pb  Pb44  1  0.16679527  0.49948116  0.49756748  1
  Pb  Pb45  1  0.83300764  0.16495047  0.50211383  1
  Pb  Pb46  1  0.16904067  0.50272131  0.83542819  1
  Pb  Pb47  1  0.83341255  0.16400378  0.16352450  1
  Pb  Pb48  1  0.49993375  0.83403399  0.83297424  1
  Pb  Pb49  1  0.50008357  0.16438353  0.16728419  1
  Pb  Pb50  1  0.49789320  0.50270834  0.16430045  1
  Pb  Pb51  1  0.16663370  0.16636011  0.16993225  1
  Pb  Pb52  1  0.83326206  0.50323736  0.49999882  1
  Pb  Pb53  1  0.16658162  0.16466454  0.83093676  1
  I  I54  1  0.16637296  -0.00423722  0.16476747  1
  I  I55  1  0.16782494  -0.00263287  0.49825066  1
  I  I56  1  0.16777117  -0.00396300  0.83871467  1
  I  I57  1  0.16901414  0.33583470  0.16642434  1
  I  I58  1  0.17360160  0.32998841  0.49978379  1
  I  I59  1  0.16398379  0.33321073  0.83384926  1
  I  I60  1  0.16649583  0.67021102  0.16818011  1
  I  I61  1  0.16696527  0.67064819  0.50143176  1
  I  I62  1  0.16285464  0.67139108  0.82877270  1
  I  I63  1  0.49650823  -0.00438144  0.16463186  1
  I  I64  1  0.49875848  -0.00147561  0.50297049  1
  I  I65  1  0.50126598  0.00220365  0.83222033  1
  I  I66  1  0.49757897  0.33346356  0.16834522  1
  I  I67  1  0.49301182  0.32956260  0.50429853  1
  I  I68  1  0.50488760  0.33150805  0.82721077  1
  I  I69  1  0.50187051  0.67133944  0.17022760  1
  I  I70  1  0.49910359  0.67032553  0.49825129  1
  I  I71  1  0.49928636  0.66574243  0.83431420  1
  I  I72  1  0.83727405  -0.00492537  0.16947309  1
  I  I73  1  0.83383653  -0.00411267  0.49784376  1
  I  I74  1  0.83005099  -0.00189722  0.83373363  1
  I  I75  1  0.83484686  0.33338487  0.16593273  1
  I  I76  1  0.83445953  0.33283027  0.50239710  1
  I  I77  1  0.83125237  0.33019400  0.83144432  1
  I  I78  1  0.83067481  0.67184855  0.16358642  1
  I  I79  1  0.83398684  0.67274313  0.50317919  1
  I  I80  1  0.83524730  0.67054073  0.83367119  1
  I  I81  1  0.16718130  0.16488210  -0.00012616  1
  I  I82  1  0.17375702  0.15829245  0.33769144  1
  I  I83  1  0.16870182  0.15819861  0.66332186  1
  I  I84  1  0.16714965  0.50849532  0.00300799  1
  I  I85  1  0.16873146  0.51026256  0.33022912  1
  I  I86  1  0.16701098  0.50208198  0.66673789  1
  I  I87  1  0.16510765  0.82885666  0.00027837  1
  I  I88  1  0.16481916  0.83286017  0.33355318  1
  I  I89  1  0.16519564  0.83796508  0.66604841  1
  I  I90  1  0.50376811  0.16791014  -0.00304633  1
  I  I91  1  0.49413798  0.16174584  0.33693980  1
  I  I92  1  0.49985193  0.16238437  0.66657359  1
  I  I93  1  0.49991156  0.49661526  -0.00339993  1
  I  I94  1  0.49914145  0.49884466  0.33299720  1
  I  I95  1  0.49935195  0.50378169  0.66954139  1
  I  I96  1  0.49931803  0.83248688  0.00182376  1
  I  I97  1  0.49957773  0.83778461  0.33430717  1
  I  I98  1  0.49940365  0.83385595  0.66404457  1
  I  I99  1  0.82746254  0.15956792  -0.00450710  1
  I  I100  1  0.83349508  0.16568351  0.33363001  1
  I  I101  1  0.83111474  0.15779652  0.66984377  1
  I  I102  1  0.83259675  0.50351506  -0.00012721  1
  I  I103  1  0.83187304  0.49928407  0.33301406  1
  I  I104  1  0.83467101  0.50405733  0.66703662  1
  I  I105  1  0.83558196  0.83662082  -0.00036009  1
  I  I106  1  0.83617149  0.83227631  0.33353654  1
  I  I107  1  0.83535934  0.83745894  0.66693241  1
  I  I108  1  0.00012714  0.16436434  0.16695258  1
  I  I109  1  0.00235398  0.16016945  0.49930597  1
  I  I110  1  -0.00236535  0.16148103  0.83310573  1
  I  I111  1  0.00363381  0.50811702  0.16615127  1
  I  I112  1  0.00023135  0.49904348  0.50123479  1
  I  I113  1  0.00023811  0.49812642  0.83420437  1
  I  I114  1  0.00041405  0.82965105  0.16832376  1
  I  I115  1  0.00061352  0.83705270  0.49761689  1
  I  I116  1  -0.00051959  0.83820982  0.83397759  1
  I  I117  1  0.33334056  0.16304235  0.16073539  1
  I  I118  1  0.33418241  0.15602341  0.50629156  1
  I  I119  1  0.33606265  0.16798746  0.83157014  1
  I  I120  1  0.33047676  0.50947956  0.16661539  1
  I  I121  1  0.33336661  0.50624378  0.50061151  1
  I  I122  1  0.33655274  0.49639490  0.83310251  1
  I  I123  1  0.33280488  0.82945218  0.16790515  1
  I  I124  1  0.33323933  0.83654325  0.49812137  1
  I  I125  1  0.33115601  0.83277069  0.83428561  1
  I  I126  1  0.66668185  0.16419649  0.17073091  1
  I  I127  1  0.66365871  0.15951658  0.50434465  1
  I  I128  1  0.66588820  0.16222073  0.82752376  1
  I  I129  1  0.66659062  0.50166988  0.16597803  1
  I  I130  1  0.66643298  0.50164937  0.50022448  1
  I  I131  1  0.66353320  0.50358501  0.83350949  1
  I  I132  1  0.66668028  0.83543569  0.16791653  1
  I  I133  1  0.66617175  0.83705200  0.49823984  1
  I  I134  1  0.66888369  0.83360909  0.83395790  1
