# generated using pymatgen
data_Cs27Sn13Pb14I81
_symmetry_space_group_name_H-M   'P 1'
_cell_length_a   19.03145824
_cell_length_b   19.03700340
_cell_length_c   19.03855817
_cell_angle_alpha   90.00119716
_cell_angle_beta   89.99856052
_cell_angle_gamma   89.99787529
_symmetry_Int_Tables_number   1
_chemical_formula_structural   Cs27Sn13Pb14I81
_chemical_formula_sum   'Cs27 Sn13 Pb14 I81'
_cell_volume   6897.70646018
_cell_formula_units_Z   1
loop_
 _symmetry_equiv_pos_site_id
 _symmetry_equiv_pos_as_xyz
  1  'x, y, z'
loop_
 _atom_site_type_symbol
 _atom_site_label
 _atom_site_symmetry_multiplicity
 _atom_site_fract_x
 _atom_site_fract_y
 _atom_site_fract_z
 _atom_site_occupancy
  Cs  Cs0  1  0.00238848  0.00186688  -0.00082265  1
  Cs  Cs1  1  0.00058596  -0.00729086  0.33577715  1
  Cs  Cs2  1  0.00189130  0.00101347  0.66350809  1
  Cs  Cs3  1  -0.00080238  0.33385232  0.00242335  1
  Cs  Cs4  1  0.00005463  0.33479327  0.33309806  1
  Cs  Cs5  1  -0.00459092  0.33123647  0.66483333  1
  Cs  Cs6  1  0.01116400  0.66653171  0.01039219  1
  Cs  Cs7  1  0.00037411  0.67826588  0.31409060  1
  Cs  Cs8  1  0.00772495  0.66883706  0.67018309  1
  Cs  Cs9  1  0.33747080  0.00058929  0.00054037  1
  Cs  Cs10  1  0.33101071  0.00453667  0.33676834  1
  Cs  Cs11  1  0.32932411  0.00072555  0.66495949  1
  Cs  Cs12  1  0.33707275  0.33205849  0.00057151  1
  Cs  Cs13  1  0.33121457  0.33119208  0.34053234  1
  Cs  Cs14  1  0.33050120  0.33463403  0.66214013  1
  Cs  Cs15  1  0.33006173  0.66808733  -0.00228009  1
  Cs  Cs16  1  0.33003218  0.66402435  0.34570342  1
  Cs  Cs17  1  0.32755740  0.66316996  0.66086233  1
  Cs  Cs18  1  0.66174859  0.00105163  -0.00438401  1
  Cs  Cs19  1  0.66736827  -0.00162275  0.33429662  1
  Cs  Cs20  1  0.66799933  -0.00140571  0.66991052  1
  Cs  Cs21  1  0.66541597  0.33422459  -0.00110927  1
  Cs  Cs22  1  0.66747465  0.33244907  0.33313215  1
  Cs  Cs23  1  0.66987483  0.33514002  0.66771605  1
  Cs  Cs24  1  0.66586679  0.66547787  -0.00140620  1
  Cs  Cs25  1  0.66990729  0.67088613  0.33768201  1
  Cs  Cs26  1  0.66507367  0.66518102  0.66547692  1
  Sn  Sn27  1  0.49997036  0.83140019  0.16609853  1
  Sn  Sn28  1  0.49912368  0.16718925  0.83186955  1
  Sn  Sn29  1  0.16800509  0.16733757  0.83453461  1
  Sn  Sn30  1  0.50208954  0.16671574  0.50178240  1
  Sn  Sn31  1  0.83275406  0.83117784  0.83357573  1
  Sn  Sn32  1  0.83197129  0.16743199  0.49863311  1
  Sn  Sn33  1  0.50011758  0.50172099  0.16631071  1
  Sn  Sn34  1  0.83392573  0.16660095  0.16769369  1
  Sn  Sn35  1  0.83295183  0.50207680  0.83292360  1
  Sn  Sn36  1  0.50049790  0.50028944  0.83393960  1
  Sn  Sn37  1  0.16553493  0.16706099  0.16542756  1
  Sn  Sn38  1  0.50062786  0.83249877  0.83373689  1
  Sn  Sn39  1  0.83359041  0.50012268  0.50044344  1
  Pb  Pb40  1  0.16722682  0.83584103  0.83354683  1
  Pb  Pb41  1  0.50023870  0.16681977  0.16672724  1
  Pb  Pb42  1  0.83314518  0.83271743  0.50290055  1
  Pb  Pb43  1  0.83107184  0.49836130  0.16622700  1
  Pb  Pb44  1  0.17052782  0.49731362  0.16661507  1
  Pb  Pb45  1  0.83306076  0.16689652  0.83329382  1
  Pb  Pb46  1  0.16161524  0.49990890  0.49961050  1
  Pb  Pb47  1  0.17085779  0.83621558  0.16632978  1
  Pb  Pb48  1  0.16570806  0.16699190  0.50002027  1
  Pb  Pb49  1  0.50020892  0.83576254  0.50077045  1
  Pb  Pb50  1  0.83054086  0.83617637  0.16322813  1
  Pb  Pb51  1  0.16654653  0.49723115  0.83335633  1
  Pb  Pb52  1  0.50197073  0.49783963  0.50035193  1
  Pb  Pb53  1  0.16626315  0.83294984  0.49981531  1
  I  I54  1  0.16435450  0.00387294  0.16167489  1
  I  I55  1  0.16518670  0.00099081  0.50064167  1
  I  I56  1  0.17062042  0.00376718  0.83719031  1
  I  I57  1  0.16453458  0.32949349  0.16143899  1
  I  I58  1  0.17194890  0.33283030  0.49982800  1
  I  I59  1  0.17200097  0.32956600  0.83762178  1
  I  I60  1  0.16219371  0.66680156  0.16813485  1
  I  I61  1  0.17017882  0.66608175  0.50285077  1
  I  I62  1  0.16850679  0.66657541  0.83144595  1
  I  I63  1  0.50016402  -0.00168728  0.16190375  1
  I  I64  1  0.50660686  0.00414032  0.50311706  1
  I  I65  1  0.50143921  0.00030757  0.83506177  1
  I  I66  1  0.50056242  0.33514043  0.16159323  1
  I  I67  1  0.50114836  0.32992729  0.50336122  1
  I  I68  1  0.50118711  0.33324114  0.83535680  1
  I  I69  1  0.50257632  0.66645949  0.15432146  1
  I  I70  1  0.50062552  0.66657589  0.50093328  1
  I  I71  1  0.50810600  0.66643976  0.84070514  1
  I  I72  1  0.83490858  0.00385995  0.17265674  1
  I  I73  1  0.83006180  0.00305676  0.49679602  1
  I  I74  1  0.82900471  -0.00171801  0.83496374  1
  I  I75  1  0.83343067  0.33038970  0.16421016  1
  I  I76  1  0.82796802  0.33209350  0.50445710  1
  I  I77  1  0.82949851  0.33548439  0.83266190  1
  I  I78  1  0.83515771  0.66691550  0.17220506  1
  I  I79  1  0.83021961  0.66330420  0.50421580  1
  I  I80  1  0.82029151  0.66565009  0.82504521  1
  I  I81  1  0.16694778  0.16623504  -0.00051150  1
  I  I82  1  0.16877399  0.16643531  0.33087855  1
  I  I83  1  0.16871836  0.16544819  0.66923397  1
  I  I84  1  0.15882500  0.50001208  -0.00013525  1
  I  I85  1  0.17083362  0.49437710  0.33311050  1
  I  I86  1  0.17433091  0.49718286  0.66678732  1
  I  I87  1  0.16226727  0.83297137  -0.00013067  1
  I  I88  1  0.16729461  0.83759640  0.33256731  1
  I  I89  1  0.16849378  0.83827214  0.66732757  1
  I  I90  1  0.49985594  0.16628632  -0.00296443  1
  I  I91  1  0.50011549  0.16694624  0.33558219  1
  I  I92  1  0.49986016  0.16628273  0.66833013  1
  I  I93  1  0.50741731  0.49532346  -0.00194206  1
  I  I94  1  0.50103495  0.50146070  0.33088999  1
  I  I95  1  0.50218117  0.50195838  0.67014992  1
  I  I96  1  0.50491243  0.83823155  -0.00172883  1
  I  I97  1  0.49901991  0.83121393  0.33064126  1
  I  I98  1  0.50538322  0.83201777  0.67052569  1
  I  I99  1  0.83361244  0.16639434  0.00186863  1
  I  I100  1  0.83098636  0.17436165  0.33419204  1
  I  I101  1  0.83238605  0.16704531  0.66468909  1
  I  I102  1  0.82956587  0.50023340  -0.00321943  1
  I  I103  1  0.83028192  0.49231388  0.33572908  1
  I  I104  1  0.82453407  0.49430832  0.66788300  1
  I  I105  1  0.82989514  0.82919432  -0.00393783  1
  I  I106  1  0.83329471  0.83147649  0.33310084  1
  I  I107  1  0.82375342  0.83770560  0.67056972  1
  I  I108  1  -0.00056537  0.16831009  0.16429061  1
  I  I109  1  -0.00339305  0.17141990  0.50092672  1
  I  I110  1  0.00188150  0.16600499  0.83433519  1
  I  I111  1  0.00012010  0.50010208  0.16721349  1
  I  I112  1  -0.00578881  0.48633947  0.51090482  1
  I  I113  1  -0.00335934  0.50223644  0.82594038  1
  I  I114  1  0.00017912  0.83200721  0.16673608  1
  I  I115  1  -0.00077006  0.83933362  0.50417363  1
  I  I116  1  -0.00288117  0.83102976  0.82956682  1
  I  I117  1  0.33170524  0.16586599  0.16510773  1
  I  I118  1  0.33567667  0.16535900  0.49955796  1
  I  I119  1  0.33543199  0.16570119  0.83447306  1
  I  I120  1  0.33832949  0.50099403  0.15612122  1
  I  I121  1  0.33332624  0.49822492  0.49948326  1
  I  I122  1  0.33683229  0.50244391  0.83934120  1
  I  I123  1  0.33810582  0.83291405  0.15525610  1
  I  I124  1  0.33386559  0.83740065  0.50172853  1
  I  I125  1  0.33716197  0.83213628  0.83888477  1
  I  I126  1  0.66872944  0.16694729  0.16765780  1
  I  I127  1  0.66705851  0.17019082  0.49949474  1
  I  I128  1  0.66351132  0.16607119  0.83350551  1
  I  I129  1  0.66359819  0.49826223  0.16348303  1
  I  I130  1  0.66935970  0.49531720  0.50248630  1
  I  I131  1  0.66570551  0.49593886  0.83338065  1
  I  I132  1  0.66329448  0.83386989  0.16463276  1
  I  I133  1  0.66662607  0.83428533  0.49586228  1
  I  I134  1  0.66529268  0.83829401  0.83721743  1
