# generated using pymatgen
data_Cs27Sn14Pb13I81
_symmetry_space_group_name_H-M   'P 1'
_cell_length_a   18.98375750
_cell_length_b   18.98375753
_cell_length_c   18.95990431
_cell_angle_alpha   89.99827672
_cell_angle_beta   89.99827675
_cell_angle_gamma   89.99857272
_symmetry_Int_Tables_number   1
_chemical_formula_structural   Cs27Sn14Pb13I81
_chemical_formula_sum   'Cs27 Sn14 Pb13 I81'
_cell_volume   6832.82812152
_cell_formula_units_Z   1
loop_
 _symmetry_equiv_pos_site_id
 _symmetry_equiv_pos_as_xyz
  1  'x, y, z'
loop_
 _atom_site_type_symbol
 _atom_site_label
 _atom_site_symmetry_multiplicity
 _atom_site_fract_x
 _atom_site_fract_y
 _atom_site_fract_z
 _atom_site_occupancy
  Cs  Cs0  1  -0.00172624  0.00108361  0.00485181  1
  Cs  Cs1  1  0.00357600  0.00060068  0.32813614  1
  Cs  Cs2  1  -0.00270490  -0.00150772  0.66704306  1
  Cs  Cs3  1  -0.00202883  0.33130455  -0.00150003  1
  Cs  Cs4  1  0.00246561  0.33579902  0.33927095  1
  Cs  Cs5  1  0.00009690  0.33343024  0.66354436  1
  Cs  Cs6  1  0.00309494  0.66817234  -0.00153976  1
  Cs  Cs7  1  -0.00437714  0.66397227  0.33388772  1
  Cs  Cs8  1  -0.00066032  0.66729953  0.66677779  1
  Cs  Cs9  1  0.33151367  0.00055831  0.00209106  1
  Cs  Cs10  1  0.33234598  -0.00018507  0.32531950  1
  Cs  Cs11  1  0.33498521  -0.00066006  0.66652989  1
  Cs  Cs12  1  0.33483896  0.33642824  -0.00153982  1
  Cs  Cs13  1  0.33063901  0.32895595  0.33388771  1
  Cs  Cs14  1  0.33396625  0.33267299  0.66677781  1
  Cs  Cs15  1  0.33050666  0.66384006  -0.00326653  1
  Cs  Cs16  1  0.33787330  0.67120648  0.33090431  1
  Cs  Cs17  1  0.33421634  0.66754967  0.66826834  1
  Cs  Cs18  1  0.67196157  0.00529473  0.00327769  1
  Cs  Cs19  1  0.66346437  -0.00320240  0.33360302  1
  Cs  Cs20  1  0.66711285  0.00044604  0.66610438  1
  Cs  Cs21  1  0.66775032  0.33160713  0.00485171  1
  Cs  Cs22  1  0.66726744  0.33690923  0.32813611  1
  Cs  Cs23  1  0.66515883  0.33062848  0.66704310  1
  Cs  Cs24  1  0.66722499  0.66484696  0.00209126  1
  Cs  Cs25  1  0.66648158  0.66567931  0.32531942  1
  Cs  Cs26  1  0.66600659  0.66831840  0.66652983  1
  Sn  Sn27  1  0.50031145  0.83364477  0.83298224  1
  Sn  Sn28  1  0.50089386  0.16743006  0.50079376  1
  Sn  Sn29  1  0.83312775  0.50058409  0.83267251  1
  Sn  Sn30  1  0.83409668  0.83422717  0.50079371  1
  Sn  Sn31  1  0.83331212  0.83253052  0.83275079  1
  Sn  Sn32  1  0.49919724  0.16664546  0.83275078  1
  Sn  Sn33  1  0.16670537  0.50003871  0.16624778  1
  Sn  Sn34  1  0.49997902  0.49930618  0.50088351  1
  Sn  Sn35  1  0.16633376  0.49966709  0.83357054  1
  Sn  Sn36  1  0.16651561  0.83391328  0.83242796  1
  Sn  Sn37  1  0.16597294  0.83331233  0.50088357  1
  Sn  Sn38  1  0.83251846  0.16585184  0.50048872  1
  Sn  Sn39  1  0.16725073  0.16646107  0.83267254  1
  Sn  Sn40  1  0.50057995  0.49984893  0.83242797  1
  Pb  Pb41  1  0.83348682  0.83332190  0.16677052  1
  Pb  Pb42  1  0.83320893  0.16654230  0.83199762  1
  Pb  Pb43  1  0.83624192  0.50000950  0.16343881  1
  Pb  Pb44  1  0.16667616  0.16957527  0.16343879  1
  Pb  Pb45  1  0.16916259  0.50249591  0.50074917  1
  Pb  Pb46  1  0.16717359  0.16414140  0.50213208  1
  Pb  Pb47  1  0.49998858  0.16682016  0.16677052  1
  Pb  Pb48  1  0.50024240  0.83357572  0.50142101  1
  Pb  Pb49  1  0.83080808  0.50050689  0.50213204  1
  Pb  Pb50  1  0.49995332  0.83328670  0.16223847  1
  Pb  Pb51  1  0.83344163  0.16677491  0.17140771  1
  Pb  Pb52  1  0.49775778  0.49990156  0.16636530  1
  Pb  Pb53  1  0.16656822  0.83109111  0.16636529  1
  I  I54  1  0.16691069  0.00000629  0.16620335  1
  I  I55  1  0.16745156  -0.00357545  0.50747796  1
  I  I56  1  0.16997771  -0.00072068  0.82752648  1
  I  I57  1  0.16786001  0.33720334  0.16090566  1
  I  I58  1  0.16406281  0.33336837  0.50002207  1
  I  I59  1  0.16942394  0.33390359  0.83812600  1
  I  I60  1  0.16774195  0.66377136  0.15785533  1
  I  I61  1  0.16212985  0.67010518  0.50671009  1
  I  I62  1  0.16882249  0.66669851  0.83407747  1
  I  I63  1  0.49855159  0.00010999  0.16806184  1
  I  I64  1  0.50147682  0.00251342  0.50603789  1
  I  I65  1  0.49649696  0.00020941  0.82858934  1
  I  I66  1  0.49899294  0.33341803  0.16203411  1
  I  I67  1  0.50432755  0.33285677  0.50943671  1
  I  I68  1  0.49638648  0.33359889  0.82953385  1
  I  I69  1  0.49963866  0.66643491  0.16951301  1
  I  I70  1  0.49819148  0.66462589  0.50563531  1
  I  I71  1  0.49727193  0.66624684  0.82936386  1
  I  I72  1  0.83459436  -0.00002762  0.15931771  1
  I  I73  1  0.83106094  -0.00087659  0.50814180  1
  I  I74  1  0.83334863  -0.00287430  0.83087456  1
  I  I75  1  0.83345281  0.33355152  0.16439859  1
  I  I76  1  0.83138861  0.33126408  0.50273079  1
  I  I77  1  0.83441933  0.33570703  0.83176098  1
  I  I78  1  0.83276340  0.66652693  0.17151083  1
  I  I79  1  0.83691556  0.66965594  0.50335043  1
  I  I80  1  0.83363516  0.66739739  0.82821547  1
  I  I81  1  0.17202184  0.16104890  -0.00534671  1
  I  I82  1  0.16658604  0.16653413  0.33361965  1
  I  I83  1  0.16888353  0.17244974  0.67050222  1
  I  I84  1  0.16898273  0.50231578  -0.00355473  1
  I  I85  1  0.16906515  0.50239903  0.33170071  1
  I  I86  1  0.16571691  0.49905012  0.67057083  1
  I  I87  1  0.16697367  0.83463675  -0.00430549  1
  I  I88  1  0.16229085  0.83184532  0.33642934  1
  I  I89  1  0.16584332  0.83057045  0.66899681  1
  I  I90  1  0.49561522  0.16719970  -0.00418165  1
  I  I91  1  0.50463495  0.17181981  0.33721072  1
  I  I92  1  0.49973057  0.16816851  0.66796280  1
  I  I93  1  0.50130330  0.50030699  -0.00430549  1
  I  I94  1  0.49851199  0.49562436  0.33642931  1
  I  I95  1  0.49723716  0.49917665  0.66899675  1
  I  I96  1  0.49822975  0.83156321  -0.00652662  1
  I  I97  1  0.49943381  0.83276675  0.33358686  1
  I  I98  1  0.49910279  0.83243637  0.67025102  1
  I  I99  1  0.83320287  0.16653627  -0.00030995  1
  I  I100  1  0.82694941  0.16028289  0.33939817  1
  I  I101  1  0.83151563  0.16484879  0.66431103  1
  I  I102  1  0.82771551  0.50535501  -0.00534671  1
  I  I103  1  0.83320116  0.49991951  0.33361967  1
  I  I104  1  0.83911617  0.50221698  0.67050222  1
  I  I105  1  0.83386635  0.82894871  -0.00418163  1
  I  I106  1  0.83848612  0.83796812  0.33721075  1
  I  I107  1  0.83483534  0.83306404  0.66796281  1
  I  I108  1  0.00021819  0.16678593  0.16439846  1
  I  I109  1  -0.00206928  0.16472182  0.50273068  1
  I  I110  1  0.00237370  0.16775268  0.83176111  1
  I  I111  1  0.00386999  0.50119326  0.16090526  1
  I  I112  1  0.00003507  0.49739611  0.50002240  1
  I  I113  1  0.00057030  0.50275723  0.83812592  1
  I  I114  1  0.00008471  0.83232645  0.16203422  1
  I  I115  1  -0.00047658  0.83766099  0.50943653  1
  I  I116  1  0.00026560  0.82971973  0.82953393  1
  I  I117  1  0.33319355  0.16609676  0.17151108  1
  I  I118  1  0.33632259  0.17024898  0.50335025  1
  I  I119  1  0.33406400  0.16696868  0.82821540  1
  I  I120  1  0.33043799  0.50107560  0.15785569  1
  I  I121  1  0.33677185  0.49546338  0.50670993  1
  I  I122  1  0.33336514  0.50215592  0.83407737  1
  I  I123  1  0.33310157  0.83297171  0.16951327  1
  I  I124  1  0.33129254  0.83152463  0.50563510  1
  I  I125  1  0.33291347  0.83060503  0.82936398  1
  I  I126  1  0.66663899  0.16792795  0.15931761  1
  I  I127  1  0.66579010  0.16439433  0.50814193  1
  I  I128  1  0.66379235  0.16668184  0.83087453  1
  I  I129  1  0.66667293  0.50024386  0.16620348  1
  I  I130  1  0.66309120  0.50078475  0.50747778  1
  I  I131  1  0.66594598  0.50331081  0.82752655  1
  I  I132  1  0.66677667  0.83188491  0.16806149  1
  I  I133  1  0.66918009  0.83481029  0.50603824  1
  I  I134  1  0.66687606  0.82983067  0.82858916  1
