# generated using pymatgen
data_Cs27Sn14Pb13I81
_symmetry_space_group_name_H-M   'P 1'
_cell_length_a   18.98468105
_cell_length_b   18.97138662
_cell_length_c   18.97147234
_cell_angle_alpha   90.00181090
_cell_angle_beta   89.99911209
_cell_angle_gamma   90.00050201
_symmetry_Int_Tables_number   1
_chemical_formula_structural   Cs27Sn14Pb13I81
_chemical_formula_sum   'Cs27 Sn14 Pb13 I81'
_cell_volume   6832.87406545
_cell_formula_units_Z   1
loop_
 _symmetry_equiv_pos_site_id
 _symmetry_equiv_pos_as_xyz
  1  'x, y, z'
loop_
 _atom_site_type_symbol
 _atom_site_label
 _atom_site_symmetry_multiplicity
 _atom_site_fract_x
 _atom_site_fract_y
 _atom_site_fract_z
 _atom_site_occupancy
  Cs  Cs0  1  -0.00193739  0.00053539  0.00090274  1
  Cs  Cs1  1  0.00218308  -0.00054288  0.33242066  1
  Cs  Cs2  1  0.00140835  -0.00178988  0.66558235  1
  Cs  Cs3  1  -0.00200488  0.33343134  -0.00078691  1
  Cs  Cs4  1  -0.00327263  0.33379467  0.33473654  1
  Cs  Cs5  1  0.00061011  0.33396299  0.66646292  1
  Cs  Cs6  1  0.00338821  0.66592628  -0.00098541  1
  Cs  Cs7  1  0.00497709  0.66711217  0.33079435  1
  Cs  Cs8  1  -0.00145845  0.66468681  0.66913062  1
  Cs  Cs9  1  0.33443971  0.00390342  0.00033216  1
  Cs  Cs10  1  0.33295082  -0.00180608  0.33292628  1
  Cs  Cs11  1  0.33132199  0.00038152  0.66809427  1
  Cs  Cs12  1  0.33758233  0.33311309  -0.00290667  1
  Cs  Cs13  1  0.33639842  0.33310468  0.33535615  1
  Cs  Cs14  1  0.33143959  0.33265135  0.66798622  1
  Cs  Cs15  1  0.33008344  0.66257482  0.00069861  1
  Cs  Cs16  1  0.32937685  0.66981185  0.33154976  1
  Cs  Cs17  1  0.33542283  0.66616947  0.66725357  1
  Cs  Cs18  1  0.66793160  0.00042161  0.00198761  1
  Cs  Cs19  1  0.66616644  0.00268299  0.33080591  1
  Cs  Cs20  1  0.66682030  -0.00995390  0.66779736  1
  Cs  Cs21  1  0.66598965  0.33455302  0.00066373  1
  Cs  Cs22  1  0.66749852  0.33174048  0.33465508  1
  Cs  Cs23  1  0.66852121  0.33414787  0.66280047  1
  Cs  Cs24  1  0.66315652  0.66603837  -0.00033946  1
  Cs  Cs25  1  0.66588044  0.66643693  0.33393435  1
  Cs  Cs26  1  0.66669964  0.67399692  0.66758373  1
  Sn  Sn27  1  0.83299100  0.16714147  0.83274663  1
  Sn  Sn28  1  0.83275406  0.83362585  0.16685943  1
  Sn  Sn29  1  0.83364882  0.49919265  0.83253396  1
  Sn  Sn30  1  0.16667400  0.16740041  0.16676564  1
  Sn  Sn31  1  0.83330674  0.16612562  0.16677049  1
  Sn  Sn32  1  0.83323022  0.49966646  0.50083453  1
  Sn  Sn33  1  0.50077628  0.83392478  0.16660544  1
  Sn  Sn34  1  0.16585418  0.50053147  0.83239876  1
  Sn  Sn35  1  0.16635370  0.49974930  0.50053675  1
  Sn  Sn36  1  0.16660177  0.83307706  0.83328656  1
  Sn  Sn37  1  0.50042565  0.49943927  0.49998044  1
  Sn  Sn38  1  0.83249556  0.16677402  0.50049345  1
  Sn  Sn39  1  0.50086591  0.16704212  0.49975820  1
  Sn  Sn40  1  0.50017288  0.16619485  0.16747257  1
  Pb  Pb41  1  0.50323525  0.16669577  0.83251141  1
  Pb  Pb42  1  0.49717435  0.83341100  0.83655016  1
  Pb  Pb43  1  0.50002918  0.49966654  0.16919130  1
  Pb  Pb44  1  0.16668264  0.49723517  0.16619776  1
  Pb  Pb45  1  0.16655801  0.16848316  0.49824454  1
  Pb  Pb46  1  0.50002673  0.83409180  0.49779430  1
  Pb  Pb47  1  0.83331506  0.50001600  0.16663610  1
  Pb  Pb48  1  0.16437958  0.16744026  0.83512812  1
  Pb  Pb49  1  0.16653770  0.83052444  0.50262968  1
  Pb  Pb50  1  0.83347679  0.83334954  0.49735121  1
  Pb  Pb51  1  0.83465251  0.83282396  0.83571963  1
  Pb  Pb52  1  0.50063192  0.49975391  0.83037107  1
  Pb  Pb53  1  0.16675742  0.83560296  0.16476083  1
  I  I54  1  0.16562218  0.00349919  0.16487958  1
  I  I55  1  0.16707202  0.00028749  0.50068090  1
  I  I56  1  0.16528083  -0.00160867  0.83775900  1
  I  I57  1  0.16507473  0.32931300  0.16518357  1
  I  I58  1  0.16633997  0.33667908  0.50617846  1
  I  I59  1  0.16406378  0.33644879  0.83016893  1
  I  I60  1  0.16677232  0.66659777  0.16853471  1
  I  I61  1  0.16598470  0.66183967  0.49852108  1
  I  I62  1  0.16018256  0.66493042  0.83106402  1
  I  I63  1  0.50082007  0.00185851  0.17233213  1
  I  I64  1  0.50599235  0.00377765  0.49720962  1
  I  I65  1  0.49867833  0.00016906  0.82819195  1
  I  I66  1  0.50163728  0.32963845  0.16823952  1
  I  I67  1  0.50129667  0.33276074  0.49329349  1
  I  I68  1  0.49440960  0.33320295  0.84038600  1
  I  I69  1  0.50510246  0.66943657  0.16739125  1
  I  I70  1  0.50050646  0.66359030  0.49933557  1
  I  I71  1  0.50483646  0.66649349  0.83351891  1
  I  I72  1  0.83287904  0.00219926  0.16602251  1
  I  I73  1  0.82760324  0.00373330  0.50242884  1
  I  I74  1  0.83491233  0.00279746  0.83201642  1
  I  I75  1  0.83244357  0.32985884  0.16668620  1
  I  I76  1  0.83307157  0.33299462  0.49794498  1
  I  I77  1  0.83931666  0.33343434  0.83515627  1
  I  I78  1  0.82882273  0.66935295  0.16661283  1
  I  I79  1  0.83274048  0.66305877  0.50388361  1
  I  I80  1  0.83569169  0.66349442  0.82955091  1
  I  I81  1  0.16667133  0.16783926  0.00323412  1
  I  I82  1  0.16201930  0.16766661  0.33021533  1
  I  I83  1  0.16739437  0.16428228  0.66672151  1
  I  I84  1  0.16080097  0.50312216  -0.00333057  1
  I  I85  1  0.16511043  0.49751093  0.33636544  1
  I  I86  1  0.16543856  0.50289506  0.66662170  1
  I  I87  1  0.16595414  0.82511216  -0.00271224  1
  I  I88  1  0.16686392  0.83180744  0.33296925  1
  I  I89  1  0.16478568  0.83432034  0.67052235  1
  I  I90  1  0.50018042  0.16201411  0.00317027  1
  I  I91  1  0.50473469  0.16767913  0.33278971  1
  I  I92  1  0.50287180  0.17275687  0.66288683  1
  I  I93  1  0.49916793  0.50022373  -0.00002954  1
  I  I94  1  0.50125107  0.49795602  0.33739646  1
  I  I95  1  0.49919473  0.49245823  0.66228020  1
  I  I96  1  0.50499462  0.84068955  0.00447463  1
  I  I97  1  0.50313404  0.83500949  0.32980183  1
  I  I98  1  0.49885853  0.83369738  0.66665398  1
  I  I99  1  0.83453777  0.16677722  0.00072424  1
  I  I100  1  0.83261481  0.16766824  0.33326509  1
  I  I101  1  0.83002697  0.17292950  0.66584141  1
  I  I102  1  0.83982630  0.49658490  -0.00298087  1
  I  I103  1  0.83379733  0.49648951  0.33669797  1
  I  I104  1  0.83499444  0.49166464  0.66615171  1
  I  I105  1  0.83044505  0.83888514  0.00349822  1
  I  I106  1  0.83036422  0.83774255  0.32938037  1
  I  I107  1  0.83513774  0.83633862  0.66682628  1
  I  I108  1  -0.00175208  0.16319129  0.16658679  1
  I  I109  1  -0.00331642  0.17073618  0.49844004  1
  I  I110  1  -0.00377947  0.16814273  0.83379798  1
  I  I111  1  -0.00011530  0.50001977  0.17161530  1
  I  I112  1  -0.00086715  0.49546083  0.50396405  1
  I  I113  1  -0.00046070  0.49965522  0.82585155  1
  I  I114  1  -0.00241700  0.83829129  0.16586269  1
  I  I115  1  -0.00008015  0.83518509  0.49536279  1
  I  I116  1  0.00230157  0.83127505  0.83709912  1
  I  I117  1  0.33461548  0.16298073  0.17119143  1
  I  I118  1  0.33611874  0.17119056  0.49349443  1
  I  I119  1  0.33326935  0.16673482  0.83521780  1
  I  I120  1  0.33331966  0.49998749  0.16681266  1
  I  I121  1  0.33336827  0.49556067  0.50276538  1
  I  I122  1  0.33042939  0.50439361  0.83053355  1
  I  I123  1  0.33589235  0.83821368  0.16627186  1
  I  I124  1  0.33330644  0.83341541  0.49683200  1
  I  I125  1  0.32939965  0.82622332  0.83482527  1
  I  I126  1  0.66717412  0.16239551  0.16755544  1
  I  I127  1  0.66745984  0.17632647  0.49360629  1
  I  I128  1  0.67139240  0.17297087  0.83893435  1
  I  I129  1  0.66681012  0.49767485  0.16526016  1
  I  I130  1  0.66757649  0.49474541  0.50209699  1
  I  I131  1  0.67025758  0.49491187  0.83135114  1
  I  I132  1  0.66696027  0.84199512  0.16657036  1
  I  I133  1  0.66680819  0.82744136  0.50309556  1
  I  I134  1  0.66682139  0.83285620  0.83283217  1
