# generated using pymatgen
data_Cs27Sn14Pb13I81
_symmetry_space_group_name_H-M   'P 1'
_cell_length_a   18.97655486
_cell_length_b   18.97094603
_cell_length_c   18.97925616
_cell_angle_alpha   89.99920303
_cell_angle_beta   90.00109301
_cell_angle_gamma   90.00161717
_symmetry_Int_Tables_number   1
_chemical_formula_structural   Cs27Sn14Pb13I81
_chemical_formula_sum   'Cs27 Sn14 Pb13 I81'
_cell_volume   6832.59291114
_cell_formula_units_Z   1
loop_
 _symmetry_equiv_pos_site_id
 _symmetry_equiv_pos_as_xyz
  1  'x, y, z'
loop_
 _atom_site_type_symbol
 _atom_site_label
 _atom_site_symmetry_multiplicity
 _atom_site_fract_x
 _atom_site_fract_y
 _atom_site_fract_z
 _atom_site_occupancy
  Cs  Cs0  1  0.00375828  0.00218736  0.00025248  1
  Cs  Cs1  1  -0.00103288  -0.00398823  0.33516095  1
  Cs  Cs2  1  0.00638301  -0.00453559  0.66421810  1
  Cs  Cs3  1  -0.00112590  0.33415603  0.00079761  1
  Cs  Cs4  1  -0.00192818  0.33573287  0.33117197  1
  Cs  Cs5  1  0.00145447  0.33230903  0.66625647  1
  Cs  Cs6  1  0.00046138  0.66459184  0.00153796  1
  Cs  Cs7  1  0.00061450  0.66559020  0.33226390  1
  Cs  Cs8  1  -0.00455503  0.67092040  0.66415438  1
  Cs  Cs9  1  0.33163753  -0.00187906  -0.00291455  1
  Cs  Cs10  1  0.33541720  -0.00039164  0.33665402  1
  Cs  Cs11  1  0.32302099  0.00202814  0.66903873  1
  Cs  Cs12  1  0.32975936  0.33270662  0.00219937  1
  Cs  Cs13  1  0.33629238  0.33322882  0.33513792  1
  Cs  Cs14  1  0.33264249  0.33218980  0.66189434  1
  Cs  Cs15  1  0.33372081  0.66933888  0.00067693  1
  Cs  Cs16  1  0.33376579  0.66612201  0.33201026  1
  Cs  Cs17  1  0.34130687  0.66496550  0.67040613  1
  Cs  Cs18  1  0.66560213  0.00314789  0.00134267  1
  Cs  Cs19  1  0.66638554  0.00007646  0.33245072  1
  Cs  Cs20  1  0.66942761  -0.00425472  0.66983163  1
  Cs  Cs21  1  0.66831956  0.33050345  0.00039122  1
  Cs  Cs22  1  0.66682911  0.33196726  0.33280346  1
  Cs  Cs23  1  0.66507273  0.33518549  0.66682781  1
  Cs  Cs24  1  0.66574931  0.66701168  -0.00407795  1
  Cs  Cs25  1  0.66608775  0.66817075  0.33325220  1
  Cs  Cs26  1  0.66381910  0.66931619  0.67579194  1
  Sn  Sn27  1  0.83356195  0.49946203  0.49953295  1
  Sn  Sn28  1  0.83246436  0.83313065  0.16657204  1
  Sn  Sn29  1  0.16635333  0.50010136  0.83304916  1
  Sn  Sn30  1  0.50048080  0.50050022  0.16667718  1
  Sn  Sn31  1  0.50028184  0.16697410  0.83319448  1
  Sn  Sn32  1  0.50097320  0.83272470  0.16763119  1
  Sn  Sn33  1  0.83289187  0.16684239  0.83290846  1
  Sn  Sn34  1  0.83275928  0.50028658  0.16719341  1
  Sn  Sn35  1  0.16600979  0.50019650  0.49999205  1
  Sn  Sn36  1  0.50012667  0.83359989  0.49942918  1
  Sn  Sn37  1  0.16681325  0.49909469  0.16693803  1
  Sn  Sn38  1  0.83316996  0.16712536  0.50006968  1
  Sn  Sn39  1  0.16596945  0.16731900  0.16729261  1
  Sn  Sn40  1  0.83421983  0.16643174  0.16699767  1
  Pb  Pb41  1  0.16600566  0.16852005  0.83525646  1
  Pb  Pb42  1  0.83169599  0.83267520  0.49803372  1
  Pb  Pb43  1  0.16415639  0.16880449  0.49703492  1
  Pb  Pb44  1  0.50098832  0.50139809  0.49808849  1
  Pb  Pb45  1  0.16684903  0.83324415  0.16683214  1
  Pb  Pb46  1  0.50000721  0.83599081  0.83403980  1
  Pb  Pb47  1  0.16946415  0.82983524  0.49975075  1
  Pb  Pb48  1  0.50262378  0.16425575  0.50265355  1
  Pb  Pb49  1  0.83496994  0.49809435  0.83306601  1
  Pb  Pb50  1  0.83363095  0.83633456  0.83662115  1
  Pb  Pb51  1  0.49783942  0.49745888  0.83628836  1
  Pb  Pb52  1  0.49983832  0.16635442  0.16572855  1
  Pb  Pb53  1  0.16641623  0.82980858  0.83336149  1
  I  I54  1  0.16293331  0.00291571  0.16465913  1
  I  I55  1  0.16614098  0.00007709  0.49893166  1
  I  I56  1  0.16791709  0.00050207  0.83616015  1
  I  I57  1  0.16375116  0.33493169  0.16564223  1
  I  I58  1  0.16698370  0.33702894  0.50108936  1
  I  I59  1  0.16644388  0.33636439  0.83399005  1
  I  I60  1  0.16422083  0.66290530  0.16664970  1
  I  I61  1  0.15845749  0.66172197  0.49506353  1
  I  I62  1  0.16718805  0.66159980  0.83899095  1
  I  I63  1  0.50381236  -0.00248783  0.16822775  1
  I  I64  1  0.50271992  -0.00321932  0.49030943  1
  I  I65  1  0.50489994  0.00350787  0.83745562  1
  I  I66  1  0.50131694  0.33592392  0.16457446  1
  I  I67  1  0.49813441  0.33336764  0.49956914  1
  I  I68  1  0.50553780  0.33017969  0.83575312  1
  I  I69  1  0.50214615  0.66613785  0.16975562  1
  I  I70  1  0.50084634  0.66918420  0.49698489  1
  I  I71  1  0.49785818  0.66649130  0.83209804  1
  I  I72  1  0.83260442  0.00109835  0.16626396  1
  I  I73  1  0.83007749  0.00258810  0.49805801  1
  I  I74  1  0.82897393  0.00473065  0.83329406  1
  I  I75  1  0.83408767  0.33347502  0.16659913  1
  I  I76  1  0.83631745  0.33376929  0.49436465  1
  I  I77  1  0.83058608  0.33007192  0.83951026  1
  I  I78  1  0.83401005  0.66521919  0.17209226  1
  I  I79  1  0.83768648  0.66325810  0.49378312  1
  I  I80  1  0.83488748  0.66647942  0.83296288  1
  I  I81  1  0.16144260  0.17291307  0.00330048  1
  I  I82  1  0.16276324  0.17268034  0.32902638  1
  I  I83  1  0.16676919  0.16851889  0.66647679  1
  I  I84  1  0.16658298  0.49574167  0.00201350  1
  I  I85  1  0.16537565  0.49665769  0.33196551  1
  I  I86  1  0.16152306  0.49982226  0.66591956  1
  I  I87  1  0.16909608  0.83199355  0.00058350  1
  I  I88  1  0.16511945  0.83195975  0.33306723  1
  I  I89  1  0.16837006  0.83453861  0.66636059  1
  I  I90  1  0.50581606  0.16623437  -0.00176332  1
  I  I91  1  0.49985211  0.16798434  0.33332785  1
  I  I92  1  0.50507971  0.16645377  0.67019617  1
  I  I93  1  0.50129386  0.50583695  0.00466307  1
  I  I94  1  0.49596853  0.50024063  0.32960379  1
  I  I95  1  0.49927383  0.50199889  0.66672329  1
  I  I96  1  0.50356973  0.82980824  0.00349638  1
  I  I97  1  0.50389615  0.82986130  0.33132521  1
  I  I98  1  0.50064589  0.83284121  0.66437088  1
  I  I99  1  0.83278050  0.16689436  0.00160741  1
  I  I100  1  0.83781297  0.16794187  0.33198849  1
  I  I101  1  0.82694052  0.17344921  0.66629710  1
  I  I102  1  0.83429203  0.49927917  0.00353149  1
  I  I103  1  0.83780028  0.49549856  0.33175053  1
  I  I104  1  0.83839783  0.49509056  0.66361377  1
  I  I105  1  0.82672709  0.83067834  0.00512811  1
  I  I106  1  0.83133550  0.83746713  0.32966695  1
  I  I107  1  0.83089654  0.83252281  0.66652571  1
  I  I108  1  -0.00175765  0.17011915  0.16361691  1
  I  I109  1  -0.00407955  0.16704857  0.50450240  1
  I  I110  1  -0.00300808  0.16876525  0.83426083  1
  I  I111  1  -0.00037768  0.49919974  0.16664491  1
  I  I112  1  -0.00068403  0.49600282  0.49431428  1
  I  I113  1  0.00279455  0.49629410  0.83973547  1
  I  I114  1  -0.00307328  0.83172826  0.16622153  1
  I  I115  1  -0.00018842  0.83516035  0.49925777  1
  I  I116  1  -0.00021308  0.83674201  0.83467445  1
  I  I117  1  0.33098501  0.17091387  0.16304692  1
  I  I118  1  0.33321025  0.16714079  0.50047931  1
  I  I119  1  0.33502112  0.16737309  0.83732022  1
  I  I120  1  0.33248227  0.49958254  0.16632934  1
  I  I121  1  0.33096062  0.50235267  0.49823556  1
  I  I122  1  0.32994709  0.49728576  0.83323245  1
  I  I123  1  0.33637396  0.82966837  0.16918790  1
  I  I124  1  0.33711601  0.83260172  0.49133517  1
  I  I125  1  0.33354200  0.83685202  0.83607467  1
  I  I126  1  0.66993798  0.16923384  0.16751035  1
  I  I127  1  0.67076870  0.17388048  0.49250662  1
  I  I128  1  0.66820998  0.16738709  0.83787686  1
  I  I129  1  0.66800928  0.49928993  0.17165799  1
  I  I130  1  0.67010144  0.49633219  0.49355718  1
  I  I131  1  0.66669003  0.50077449  0.83330892  1
  I  I132  1  0.66693776  0.83087933  0.17041498  1
  I  I133  1  0.66410100  0.83174676  0.49573063  1
  I  I134  1  0.66678479  0.82995373  0.83160265  1
