# generated using pymatgen
data_Cs27Sn14Pb13I81
_symmetry_space_group_name_H-M   'P 1'
_cell_length_a   18.96586504
_cell_length_b   18.96176273
_cell_length_c   18.95539853
_cell_angle_alpha   90.00089473
_cell_angle_beta   89.99872411
_cell_angle_gamma   89.99988968
_symmetry_Int_Tables_number   1
_chemical_formula_structural   Cs27Sn14Pb13I81
_chemical_formula_sum   'Cs27 Sn14 Pb13 I81'
_cell_volume   6816.85856701
_cell_formula_units_Z   1
loop_
 _symmetry_equiv_pos_site_id
 _symmetry_equiv_pos_as_xyz
  1  'x, y, z'
loop_
 _atom_site_type_symbol
 _atom_site_label
 _atom_site_symmetry_multiplicity
 _atom_site_fract_x
 _atom_site_fract_y
 _atom_site_fract_z
 _atom_site_occupancy
  Cs  Cs0  1  -0.00003158  -0.00057032  0.00020892  1
  Cs  Cs1  1  -0.00231990  -0.00015159  0.33633471  1
  Cs  Cs2  1  -0.00057874  0.00047874  0.66411965  1
  Cs  Cs3  1  -0.00226825  0.33447057  0.00098598  1
  Cs  Cs4  1  -0.00085286  0.33201929  0.33247637  1
  Cs  Cs5  1  0.00632631  0.33308421  0.66702069  1
  Cs  Cs6  1  -0.00045606  0.66626135  -0.00048480  1
  Cs  Cs7  1  -0.00121760  0.66817471  0.33242601  1
  Cs  Cs8  1  0.00029161  0.66726523  0.67104632  1
  Cs  Cs9  1  0.33521184  -0.00021729  -0.00218408  1
  Cs  Cs10  1  0.33412607  -0.00032936  0.33300321  1
  Cs  Cs11  1  0.33343574  0.00089123  0.66890128  1
  Cs  Cs12  1  0.33272855  0.32921259  0.00080424  1
  Cs  Cs13  1  0.33488107  0.33494048  0.33314738  1
  Cs  Cs14  1  0.32854787  0.33797726  0.67049174  1
  Cs  Cs15  1  0.33363699  0.67108213  0.00053020  1
  Cs  Cs16  1  0.33348583  0.66566000  0.33460571  1
  Cs  Cs17  1  0.33550509  0.66259216  0.66299754  1
  Cs  Cs18  1  0.66492799  -0.00114312  -0.00016656  1
  Cs  Cs19  1  0.66755193  -0.00095057  0.33503403  1
  Cs  Cs20  1  0.66760403  0.00045181  0.66479624  1
  Cs  Cs21  1  0.66955421  0.33231296  0.00070353  1
  Cs  Cs22  1  0.66616406  0.33269266  0.33279479  1
  Cs  Cs23  1  0.66528536  0.33825628  0.66874620  1
  Cs  Cs24  1  0.66572928  0.66934985  -0.00156485  1
  Cs  Cs25  1  0.66784398  0.66784773  0.33272405  1
  Cs  Cs26  1  0.66445989  0.66118670  0.66864376  1
  Sn  Sn27  1  0.16597655  0.83354664  0.83324435  1
  Sn  Sn28  1  0.16736041  0.83353481  0.49996873  1
  Sn  Sn29  1  0.16653868  0.16640920  0.16696158  1
  Sn  Sn30  1  0.83378001  0.49971768  0.49930486  1
  Sn  Sn31  1  0.50027265  0.49942050  0.16677910  1
  Sn  Sn32  1  0.50023804  0.16714756  0.16747669  1
  Sn  Sn33  1  0.83326527  0.16576961  0.83378887  1
  Sn  Sn34  1  0.49946582  0.83415436  0.49972759  1
  Sn  Sn35  1  0.16671461  0.49996058  0.16684686  1
  Sn  Sn36  1  0.49981809  0.16643342  0.49974044  1
  Sn  Sn37  1  0.83320160  0.16685718  0.16623168  1
  Sn  Sn38  1  0.83302124  0.49949523  0.16773524  1
  Sn  Sn39  1  0.83371109  0.83441530  0.83341739  1
  Sn  Sn40  1  0.16643709  0.83361170  0.16686976  1
  Pb  Pb41  1  0.49978859  0.83345773  0.83018419  1
  Pb  Pb42  1  0.16443493  0.16461629  0.83555685  1
  Pb  Pb43  1  0.50149338  0.49960732  0.49797576  1
  Pb  Pb44  1  0.50223500  0.16675591  0.83338838  1
  Pb  Pb45  1  0.49967722  0.49971618  0.83697123  1
  Pb  Pb46  1  0.83139435  0.16877448  0.50005840  1
  Pb  Pb47  1  0.16908199  0.16485975  0.49789876  1
  Pb  Pb48  1  0.83351679  0.49964860  0.83392874  1
  Pb  Pb49  1  0.16447264  0.50218183  0.49773242  1
  Pb  Pb50  1  0.83524367  0.83347939  0.16508747  1
  Pb  Pb51  1  0.83326276  0.83131743  0.50255856  1
  Pb  Pb52  1  0.16684564  0.50244782  0.83616943  1
  Pb  Pb53  1  0.49784730  0.83371259  0.16843048  1
  I  I54  1  0.16664250  -0.00003003  0.16637910  1
  I  I55  1  0.16644017  -0.00368178  0.49684397  1
  I  I56  1  0.16469335  -0.00374453  0.83642765  1
  I  I57  1  0.16637570  0.33311447  0.16685247  1
  I  I58  1  0.16702791  0.33338017  0.49875970  1
  I  I59  1  0.16529264  0.33309416  0.83422308  1
  I  I60  1  0.16621093  0.66682335  0.16647743  1
  I  I61  1  0.17228592  0.67062713  0.49750215  1
  I  I62  1  0.15932918  0.67099903  0.83595483  1
  I  I63  1  0.50045225  0.00309741  0.16842972  1
  I  I64  1  0.49785593  0.00011483  0.49345440  1
  I  I65  1  0.49930812  -0.00003411  0.83852309  1
  I  I66  1  0.49672345  0.33245644  0.17191824  1
  I  I67  1  0.50385282  0.33070455  0.49573619  1
  I  I68  1  0.50269526  0.33301613  0.82820931  1
  I  I69  1  0.50049689  0.66419571  0.16813918  1
  I  I70  1  0.49700730  0.66896450  0.49908378  1
  I  I71  1  0.50325827  0.66695279  0.83377218  1
  I  I72  1  0.83311643  0.00297852  0.16432093  1
  I  I73  1  0.83406572  0.00000749  0.49810501  1
  I  I74  1  0.83683700  0.00015106  0.83899102  1
  I  I75  1  0.83679897  0.33292637  0.16476291  1
  I  I76  1  0.83075311  0.33639996  0.49825322  1
  I  I77  1  0.83108330  0.33052753  0.83660440  1
  I  I78  1  0.83341981  0.66396023  0.16863889  1
  I  I79  1  0.83198426  0.66376791  0.49327554  1
  I  I80  1  0.83772888  0.66925646  0.83344719  1
  I  I81  1  0.17120863  0.16507875  0.00453484  1
  I  I82  1  0.16147473  0.16454532  0.32893644  1
  I  I83  1  0.16620338  0.16459487  0.66665806  1
  I  I84  1  0.16291557  0.50161155  0.00504375  1
  I  I85  1  0.16828376  0.50226152  0.32898200  1
  I  I86  1  0.16438242  0.50166674  0.66644801  1
  I  I87  1  0.16173685  0.83244454  0.00084516  1
  I  I88  1  0.17101952  0.83269797  0.33259041  1
  I  I89  1  0.16575290  0.83382115  0.66657412  1
  I  I90  1  0.49822855  0.17078949  0.00388513  1
  I  I91  1  0.50189426  0.16609603  0.33147252  1
  I  I92  1  0.50299150  0.16049105  0.66367773  1
  I  I93  1  0.50342676  0.49489434  0.00569043  1
  I  I94  1  0.49802188  0.49881411  0.32948869  1
  I  I95  1  0.50349348  0.50058482  0.66621284  1
  I  I96  1  0.49907174  0.83261996  0.00016135  1
  I  I97  1  0.49534794  0.83423384  0.33627184  1
  I  I98  1  0.49560346  0.83884998  0.66228566  1
  I  I99  1  0.83211462  0.16851673  0.00211784  1
  I  I100  1  0.83492283  0.16907811  0.32995058  1
  I  I101  1  0.83103385  0.16344851  0.66911045  1
  I  I102  1  0.83395014  0.49881158  0.00378957  1
  I  I103  1  0.83355856  0.49585286  0.33076493  1
  I  I104  1  0.83134736  0.50173037  0.66442071  1
  I  I105  1  0.83852186  0.83240691  -0.00283505  1
  I  I106  1  0.83477254  0.83474084  0.33341551  1
  I  I107  1  0.83881255  0.83765350  0.67025243  1
  I  I108  1  -0.00025314  0.16908898  0.16196273  1
  I  I109  1  -0.00005925  0.16564683  0.49875780  1
  I  I110  1  -0.00370044  0.16522618  0.83877437  1
  I  I111  1  -0.00026227  0.49809684  0.16979407  1
  I  I112  1  -0.00328322  0.50107466  0.49367546  1
  I  I113  1  -0.00005366  0.49951859  0.83528111  1
  I  I114  1  0.00373420  0.83309097  0.17059467  1
  I  I115  1  0.00273978  0.83118332  0.49760143  1
  I  I116  1  0.00051356  0.83641265  0.83269907  1
  I  I117  1  0.33338405  0.16907930  0.17116763  1
  I  I118  1  0.33712366  0.16507223  0.49329350  1
  I  I119  1  0.33310951  0.16450863  0.83526503  1
  I  I120  1  0.33305869  0.49806409  0.16592130  1
  I  I121  1  0.33326778  0.50025593  0.49815937  1
  I  I122  1  0.33309270  0.50232864  0.83302654  1
  I  I123  1  0.32937697  0.83296385  0.16245649  1
  I  I124  1  0.33269245  0.83629190  0.49998685  1
  I  I125  1  0.33004453  0.83271472  0.83723563  1
  I  I126  1  0.66687487  0.17343351  0.16628946  1
  I  I127  1  0.66358966  0.15994863  0.49321350  1
  I  I128  1  0.67041822  0.16054770  0.83997539  1
  I  I129  1  0.66727489  0.49293366  0.17036239  1
  I  I130  1  0.66934705  0.50241966  0.49398949  1
  I  I131  1  0.66707592  0.50356441  0.83451943  1
  I  I132  1  0.66663799  0.83256709  0.16644090  1
  I  I133  1  0.66429276  0.83563919  0.50019325  1
  I  I134  1  0.66946695  0.83607185  0.83335553  1
