# generated using pymatgen
data_Cs27Sn13Pb14I81
_symmetry_space_group_name_H-M   'P 1'
_cell_length_a   18.97642340
_cell_length_b   18.98519516
_cell_length_c   18.97047609
_cell_angle_alpha   90.00129139
_cell_angle_beta   89.99901538
_cell_angle_gamma   90.00121364
_symmetry_Int_Tables_number   1
_chemical_formula_structural   Cs27Sn13Pb14I81
_chemical_formula_sum   'Cs27 Sn13 Pb14 I81'
_cell_volume   6834.51431565
_cell_formula_units_Z   1
loop_
 _symmetry_equiv_pos_site_id
 _symmetry_equiv_pos_as_xyz
  1  'x, y, z'
loop_
 _atom_site_type_symbol
 _atom_site_label
 _atom_site_symmetry_multiplicity
 _atom_site_fract_x
 _atom_site_fract_y
 _atom_site_fract_z
 _atom_site_occupancy
  Cs  Cs0  1  0.00237366  -0.00273742  -0.00306276  1
  Cs  Cs1  1  0.00016778  0.00228608  0.33413614  1
  Cs  Cs2  1  -0.00280207  -0.00081752  0.66733194  1
  Cs  Cs3  1  -0.00306222  0.33763986  -0.00055963  1
  Cs  Cs4  1  0.00083260  0.33085729  0.33457752  1
  Cs  Cs5  1  0.00066692  0.33550469  0.66503138  1
  Cs  Cs6  1  -0.00363539  0.66637705  -0.00054132  1
  Cs  Cs7  1  0.00183925  0.66624928  0.33292146  1
  Cs  Cs8  1  0.00092229  0.66709479  0.66627987  1
  Cs  Cs9  1  0.33255885  0.00498119  -0.00227467  1
  Cs  Cs10  1  0.33399336  -0.00070236  0.33350533  1
  Cs  Cs11  1  0.33337222  -0.00024585  0.66789301  1
  Cs  Cs12  1  0.33771950  0.32967488  -0.00371066  1
  Cs  Cs13  1  0.33169739  0.33564621  0.33411990  1
  Cs  Cs14  1  0.33368655  0.33504439  0.67003326  1
  Cs  Cs15  1  0.33117799  0.66582397  -0.00086041  1
  Cs  Cs16  1  0.33370049  0.66536506  0.33445867  1
  Cs  Cs17  1  0.33167438  0.66557142  0.66639442  1
  Cs  Cs18  1  0.66477209  0.00056852  0.00497768  1
  Cs  Cs19  1  0.66483915  0.00084935  0.32753357  1
  Cs  Cs20  1  0.67039710  -0.00272543  0.66475071  1
  Cs  Cs21  1  0.66431509  0.33516131  -0.00139996  1
  Cs  Cs22  1  0.66811148  0.33109519  0.33450484  1
  Cs  Cs23  1  0.66576541  0.33329415  0.66685280  1
  Cs  Cs24  1  0.67185746  0.66492412  -0.00060283  1
  Cs  Cs25  1  0.66361326  0.66854929  0.33312287  1
  Cs  Cs26  1  0.66630127  0.66877821  0.66649850  1
  Sn  Sn27  1  0.16772103  0.16578773  0.49963844  1
  Sn  Sn28  1  0.83207331  0.83451271  0.83260248  1
  Sn  Sn29  1  0.83238775  0.50104473  0.49969808  1
  Sn  Sn30  1  0.16765686  0.49975664  0.16693531  1
  Sn  Sn31  1  0.49937632  0.50018830  0.16738576  1
  Sn  Sn32  1  0.16592369  0.83423066  0.49921113  1
  Sn  Sn33  1  0.50081661  0.83340551  0.83338071  1
  Sn  Sn34  1  0.83322094  0.16593175  0.83341388  1
  Sn  Sn35  1  0.49924942  0.16709410  0.50001451  1
  Sn  Sn36  1  0.50083885  0.49919219  0.49931591  1
  Sn  Sn37  1  0.83390778  0.83263602  0.49993036  1
  Sn  Sn38  1  0.16665930  0.83347963  0.16760492  1
  Sn  Sn39  1  0.16658110  0.16673407  0.16722036  1
  Pb  Pb40  1  0.83299065  0.49999240  0.16959021  1
  Pb  Pb41  1  0.83323141  0.50049106  0.83050422  1
  Pb  Pb42  1  0.50232312  0.16439195  0.83067446  1
  Pb  Pb43  1  0.49780558  0.16886396  0.16890020  1
  Pb  Pb44  1  0.49981246  0.83331298  0.50090519  1
  Pb  Pb45  1  0.50010273  0.50219086  0.83306474  1
  Pb  Pb46  1  0.16620014  0.83330364  0.83287217  1
  Pb  Pb47  1  0.83582607  0.16668126  0.16370901  1
  Pb  Pb48  1  0.16691103  0.49997925  0.49873429  1
  Pb  Pb49  1  0.83345713  0.16620460  0.50099688  1
  Pb  Pb50  1  0.49724890  0.83112918  0.16402413  1
  Pb  Pb51  1  0.16456691  0.16671410  0.83275934  1
  Pb  Pb52  1  0.83540253  0.83346800  0.16702416  1
  Pb  Pb53  1  0.16676671  0.49982166  0.83697798  1
  I  I54  1  0.16444362  -0.00008303  0.17105212  1
  I  I55  1  0.16636713  -0.00030422  0.49267776  1
  I  I56  1  0.16843705  -0.00016134  0.83811225  1
  I  I57  1  0.16952542  0.33319534  0.17181441  1
  I  I58  1  0.16609688  0.33093913  0.49602431  1
  I  I59  1  0.16373964  0.33306694  0.83124841  1
  I  I60  1  0.17026242  0.66683616  0.17102300  1
  I  I61  1  0.16561776  0.66921083  0.49672123  1
  I  I62  1  0.16487715  0.66697496  0.83216922  1
  I  I63  1  0.49895959  0.00003508  0.16728653  1
  I  I64  1  0.49842214  0.00210947  0.50320559  1
  I  I65  1  0.50081585  -0.00325024  0.83118078  1
  I  I66  1  0.49411003  0.33682917  0.16765037  1
  I  I67  1  0.50031804  0.33397029  0.49653255  1
  I  I68  1  0.50128141  0.33317279  0.83488495  1
  I  I69  1  0.49376785  0.66334857  0.17408312  1
  I  I70  1  0.50066135  0.66416934  0.49800383  1
  I  I71  1  0.50611681  0.66986487  0.83075754  1
  I  I72  1  0.83455907  -0.00006070  0.17152276  1
  I  I73  1  0.83542585  -0.00282767  0.50372967  1
  I  I74  1  0.83145440  -0.00167116  0.82571470  1
  I  I75  1  0.83705569  0.33346782  0.16644975  1
  I  I76  1  0.83304933  0.33531705  0.50134796  1
  I  I77  1  0.83602416  0.33098744  0.83211641  1
  I  I78  1  0.83707833  0.66670504  0.16214740  1
  I  I79  1  0.83438365  0.66773060  0.50548644  1
  I  I80  1  0.83033169  0.67007277  0.83152109  1
  I  I81  1  0.16455675  0.16581110  0.00315040  1
  I  I82  1  0.16909477  0.16569687  0.33407477  1
  I  I83  1  0.16888627  0.16100323  0.66296294  1
  I  I84  1  0.17205699  0.50088828  0.00568075  1
  I  I85  1  0.16755848  0.50077514  0.33067967  1
  I  I86  1  0.16674306  0.50054956  0.66618001  1
  I  I87  1  0.16716458  0.83296253  0.00289496  1
  I  I88  1  0.16147939  0.83384716  0.33431366  1
  I  I89  1  0.16546506  0.83804322  0.66325234  1
  I  I90  1  0.49901893  0.16765237  -0.00001006  1
  I  I91  1  0.50021521  0.16626313  0.33712905  1
  I  I92  1  0.49277034  0.17358105  0.66269492  1
  I  I93  1  0.49381521  0.50196227  0.00293521  1
  I  I94  1  0.49926088  0.49788194  0.33438980  1
  I  I95  1  0.50418430  0.49728517  0.66316022  1
  I  I96  1  0.50551506  0.83168158  -0.00357780  1
  I  I97  1  0.50219407  0.83445964  0.33330459  1
  I  I98  1  0.49961687  0.83172086  0.66874030  1
  I  I99  1  0.83498506  0.15968640  -0.00416031  1
  I  I100  1  0.83230340  0.16665326  0.33356585  1
  I  I101  1  0.83546323  0.16435671  0.66872511  1
  I  I102  1  0.83447443  0.50050399  0.00002778  1
  I  I103  1  0.83250690  0.50549984  0.33761121  1
  I  I104  1  0.82823274  0.50134048  0.66245911  1
  I  I105  1  0.83156471  0.83688447  -0.00306162  1
  I  I106  1  0.83619788  0.82907185  0.33684231  1
  I  I107  1  0.83591543  0.83313347  0.66580897  1
  I  I108  1  0.00450215  0.16924063  0.17471009  1
  I  I109  1  0.00277384  0.16616637  0.49739444  1
  I  I110  1  -0.00302158  0.15876086  0.83112026  1
  I  I111  1  0.00322114  0.50028417  0.16742885  1
  I  I112  1  -0.00190873  0.50083234  0.49967828  1
  I  I113  1  -0.00027906  0.50215651  0.83281497  1
  I  I114  1  0.00401376  0.83027270  0.16591927  1
  I  I115  1  0.00013625  0.83283623  0.50233060  1
  I  I116  1  -0.00299946  0.83694364  0.83201454  1
  I  I117  1  0.32945259  0.16383743  0.16760852  1
  I  I118  1  0.33237139  0.16623287  0.49633303  1
  I  I119  1  0.33350808  0.16508369  0.83488410  1
  I  I120  1  0.33280476  0.50120255  0.17409485  1
  I  I121  1  0.33578987  0.49993875  0.49759028  1
  I  I122  1  0.33362911  0.50313487  0.82758129  1
  I  I123  1  0.32916744  0.83473106  0.17236371  1
  I  I124  1  0.33052573  0.83372063  0.49803830  1
  I  I125  1  0.33533821  0.83145368  0.83285051  1
  I  I126  1  0.66630060  0.16827645  0.16785031  1
  I  I127  1  0.66449257  0.16850488  0.50341009  1
  I  I128  1  0.66996837  0.16468137  0.83004211  1
  I  I129  1  0.66353983  0.50066681  0.16859895  1
  I  I130  1  0.66591572  0.49989020  0.49506439  1
  I  I131  1  0.66673480  0.49858454  0.83819241  1
  I  I132  1  0.66643091  0.83127763  0.16866768  1
  I  I133  1  0.66914182  0.83193949  0.50441659  1
  I  I134  1  0.66811335  0.83586215  0.82576286  1
