# generated using pymatgen
data_Cs27Sn13Pb14I81
_symmetry_space_group_name_H-M   'P 1'
_cell_length_a   18.98273927
_cell_length_b   18.97400345
_cell_length_c   18.97306426
_cell_angle_alpha   89.99890025
_cell_angle_beta   89.99889049
_cell_angle_gamma   90.00286895
_symmetry_Int_Tables_number   1
_chemical_formula_structural   Cs27Sn13Pb14I81
_chemical_formula_sum   'Cs27 Sn13 Pb14 I81'
_cell_volume   6833.69095878
_cell_formula_units_Z   1
loop_
 _symmetry_equiv_pos_site_id
 _symmetry_equiv_pos_as_xyz
  1  'x, y, z'
loop_
 _atom_site_type_symbol
 _atom_site_label
 _atom_site_symmetry_multiplicity
 _atom_site_fract_x
 _atom_site_fract_y
 _atom_site_fract_z
 _atom_site_occupancy
  Cs  Cs0  1  0.00262744  0.00376697  -0.00009497  1
  Cs  Cs1  1  -0.00181145  -0.00453714  0.33663545  1
  Cs  Cs2  1  -0.00196868  0.00327680  0.66324340  1
  Cs  Cs3  1  0.00399654  0.32951757  -0.00006580  1
  Cs  Cs4  1  0.00677715  0.33627046  0.32793116  1
  Cs  Cs5  1  -0.00397043  0.33151650  0.67012117  1
  Cs  Cs6  1  -0.00300677  0.66639821  -0.00050349  1
  Cs  Cs7  1  -0.00170153  0.66872887  0.33561258  1
  Cs  Cs8  1  0.00079181  0.66626675  0.66557942  1
  Cs  Cs9  1  0.33437152  -0.00049768  0.00069746  1
  Cs  Cs10  1  0.33369077  0.00023188  0.33245255  1
  Cs  Cs11  1  0.33491733  -0.00207355  0.66518770  1
  Cs  Cs12  1  0.33090160  0.33088875  0.00215823  1
  Cs  Cs13  1  0.33274989  0.34016801  0.33565097  1
  Cs  Cs14  1  0.33456613  0.33373186  0.66352075  1
  Cs  Cs15  1  0.33494909  0.67028267  -0.00287186  1
  Cs  Cs16  1  0.33181453  0.66182262  0.33689816  1
  Cs  Cs17  1  0.33116507  0.66809655  0.66772166  1
  Cs  Cs18  1  0.66341047  -0.00041791  0.00151258  1
  Cs  Cs19  1  0.66803237  0.00075393  0.33377405  1
  Cs  Cs20  1  0.66623567  0.00355809  0.66372515  1
  Cs  Cs21  1  0.66627480  0.33332875  0.00055912  1
  Cs  Cs22  1  0.66227225  0.33306482  0.33465786  1
  Cs  Cs23  1  0.66822844  0.33177527  0.66419870  1
  Cs  Cs24  1  0.66820602  0.66642155  -0.00102701  1
  Cs  Cs25  1  0.66962776  0.66559998  0.32814732  1
  Cs  Cs26  1  0.66774161  0.66520302  0.67200911  1
  Sn  Sn27  1  0.83322313  0.49998190  0.50018152  1
  Sn  Sn28  1  0.16656083  0.50049232  0.83350307  1
  Sn  Sn29  1  0.16522284  0.83302535  0.83397300  1
  Sn  Sn30  1  0.83357124  0.50045040  0.83273493  1
  Sn  Sn31  1  0.83453849  0.83356643  0.83336101  1
  Sn  Sn32  1  0.49917124  0.83370802  0.16799290  1
  Sn  Sn33  1  0.16732599  0.83321855  0.16619163  1
  Sn  Sn34  1  0.16678978  0.16662705  0.50007280  1
  Sn  Sn35  1  0.49999024  0.16767582  0.83375034  1
  Sn  Sn36  1  0.83268859  0.16661279  0.16658734  1
  Sn  Sn37  1  0.50029997  0.83293133  0.49859821  1
  Sn  Sn38  1  0.50063932  0.16616857  0.16612743  1
  Sn  Sn39  1  0.49990304  0.49844989  0.83360785  1
  Pb  Pb40  1  0.16913469  0.16618245  0.83184180  1
  Pb  Pb41  1  0.49866411  0.16535048  0.49926639  1
  Pb  Pb42  1  0.83108854  0.16675973  0.83479245  1
  Pb  Pb43  1  0.50196063  0.50266602  0.50258255  1
  Pb  Pb44  1  0.50003646  0.83343172  0.83381830  1
  Pb  Pb45  1  0.83537852  0.16918176  0.49705669  1
  Pb  Pb46  1  0.16668865  0.50340494  0.16404306  1
  Pb  Pb47  1  0.83085170  0.83152659  0.50261546  1
  Pb  Pb48  1  0.16755188  0.16442694  0.16872568  1
  Pb  Pb49  1  0.16810954  0.83436800  0.50036130  1
  Pb  Pb50  1  0.83322813  0.83505663  0.16446238  1
  Pb  Pb51  1  0.16448732  0.49808229  0.50274799  1
  Pb  Pb52  1  0.49981614  0.50024675  0.16443174  1
  Pb  Pb53  1  0.83331906  0.49750474  0.16593441  1
  I  I54  1  0.16866712  -0.00330385  0.15913262  1
  I  I55  1  0.16737976  0.00206612  0.50250584  1
  I  I56  1  0.16444807  -0.00314981  0.83597494  1
  I  I57  1  0.16639774  0.33317526  0.16655500  1
  I  I58  1  0.16851323  0.33052946  0.50002216  1
  I  I59  1  0.16404271  0.33592257  0.83068766  1
  I  I60  1  0.17274599  0.67143764  0.16578627  1
  I  I61  1  0.16711151  0.66655360  0.49861530  1
  I  I62  1  0.16885867  0.66698444  0.83645220  1
  I  I63  1  0.50002289  -0.00008171  0.16266744  1
  I  I64  1  0.49923305  -0.00260372  0.50311774  1
  I  I65  1  0.49980955  0.00187322  0.83450803  1
  I  I66  1  0.50454175  0.33024311  0.16341481  1
  I  I67  1  0.49937460  0.33361185  0.49874337  1
  I  I68  1  0.50026453  0.33357113  0.83819675  1
  I  I69  1  0.49614405  0.67014319  0.16825793  1
  I  I70  1  0.49825067  0.67041830  0.49574924  1
  I  I71  1  0.50047355  0.66459169  0.83284941  1
  I  I72  1  0.83123626  0.00272979  0.16422915  1
  I  I73  1  0.83357250  0.00003173  0.50152954  1
  I  I74  1  0.83612829  -0.00244540  0.83596317  1
  I  I75  1  0.82695459  0.32970574  0.16472797  1
  I  I76  1  0.83256506  0.33657631  0.50968671  1
  I  I77  1  0.83508918  0.33637975  0.83108573  1
  I  I78  1  0.83286058  0.66678692  0.16736167  1
  I  I79  1  0.83387658  0.66368330  0.50236486  1
  I  I80  1  0.83113300  0.66599387  0.83115883  1
  I  I81  1  0.16561103  0.16826293  0.00004118  1
  I  I82  1  0.16746698  0.16438837  0.33596668  1
  I  I83  1  0.16857924  0.16475397  0.66449958  1
  I  I84  1  0.16371592  0.49917070  -0.00451197  1
  I  I85  1  0.16478168  0.49963834  0.33357042  1
  I  I86  1  0.16959862  0.50704060  0.67095215  1
  I  I87  1  0.16993542  0.83076519  -0.00097325  1
  I  I88  1  0.16951405  0.83760443  0.33080113  1
  I  I89  1  0.16606150  0.83021795  0.66995686  1
  I  I90  1  0.50265124  0.16399451  0.00033050  1
  I  I91  1  0.50303476  0.16234251  0.33013524  1
  I  I92  1  0.49818114  0.16781885  0.66903715  1
  I  I93  1  0.50321925  0.50168370  -0.00421124  1
  I  I94  1  0.50221763  0.49775889  0.33352347  1
  I  I95  1  0.49836318  0.49666678  0.67102715  1
  I  I96  1  0.49867661  0.83494329  0.00220791  1
  I  I97  1  0.49496412  0.84019728  0.33162251  1
  I  I98  1  0.49974953  0.83329048  0.66551241  1
  I  I99  1  0.83199459  0.16779613  0.00257254  1
  I  I100  1  0.82604123  0.16640557  0.32963273  1
  I  I101  1  0.83241509  0.16490119  0.66673455  1
  I  I102  1  0.83249159  0.50381470  -0.00393036  1
  I  I103  1  0.83266487  0.49836171  0.33571485  1
  I  I104  1  0.83297632  0.50344664  0.66901322  1
  I  I105  1  0.83165627  0.82644950  -0.00354208  1
  I  I106  1  0.83561453  0.83206701  0.33324379  1
  I  I107  1  0.83702385  0.83214341  0.67080362  1
  I  I108  1  -0.00165504  0.16643461  0.16736229  1
  I  I109  1  0.00276621  0.16474515  0.50071468  1
  I  I110  1  0.00004725  0.16859786  0.83457121  1
  I  I111  1  0.00000332  0.49790327  0.16472521  1
  I  I112  1  -0.00314440  0.50012006  0.50634501  1
  I  I113  1  -0.00031921  0.50562844  0.82943464  1
  I  I114  1  0.00244645  0.83525218  0.16324328  1
  I  I115  1  -0.00018383  0.83390831  0.49782515  1
  I  I116  1  0.00081133  0.82560381  0.83836199  1
  I  I117  1  0.33653685  0.16306732  0.16249022  1
  I  I118  1  0.33110417  0.16564509  0.50011446  1
  I  I119  1  0.33697002  0.16902865  0.83908395  1
  I  I120  1  0.33329025  0.49490595  0.16552072  1
  I  I121  1  0.33334610  0.49940662  0.50149408  1
  I  I122  1  0.33326486  0.50168225  0.83496303  1
  I  I123  1  0.33415077  0.83963082  0.16266175  1
  I  I124  1  0.33602052  0.83462914  0.50210821  1
  I  I125  1  0.33124604  0.83043432  0.83405325  1
  I  I126  1  0.66497024  0.16103015  0.16235475  1
  I  I127  1  0.66665755  0.16627732  0.50181076  1
  I  I128  1  0.66311548  0.16860663  0.83440703  1
  I  I129  1  0.66654810  0.50448084  0.16318946  1
  I  I130  1  0.66956824  0.49949967  0.50748027  1
  I  I131  1  0.66707540  0.50151806  0.83027124  1
  I  I132  1  0.66374388  0.83584894  0.16794465  1
  I  I133  1  0.66316726  0.83501273  0.49618921  1
  I  I134  1  0.66842697  0.82951168  0.83341082  1
