# generated using pymatgen
data_Cs27Sn13Pb14I81
_symmetry_space_group_name_H-M   'P 1'
_cell_length_a   18.98429114
_cell_length_b   18.97855229
_cell_length_c   18.96917675
_cell_angle_alpha   89.99986034
_cell_angle_beta   90.00125268
_cell_angle_gamma   90.00064192
_symmetry_Int_Tables_number   1
_chemical_formula_structural   Cs27Sn13Pb14I81
_chemical_formula_sum   'Cs27 Sn13 Pb14 I81'
_cell_volume   6834.48743756
_cell_formula_units_Z   1
loop_
 _symmetry_equiv_pos_site_id
 _symmetry_equiv_pos_as_xyz
  1  'x, y, z'
loop_
 _atom_site_type_symbol
 _atom_site_label
 _atom_site_symmetry_multiplicity
 _atom_site_fract_x
 _atom_site_fract_y
 _atom_site_fract_z
 _atom_site_occupancy
  Cs  Cs0  1  -0.00090381  -0.00108346  0.00129153  1
  Cs  Cs1  1  0.00095926  0.00028099  0.33400472  1
  Cs  Cs2  1  -0.00047657  -0.00112846  0.66591541  1
  Cs  Cs3  1  -0.00084239  0.33655469  0.00280418  1
  Cs  Cs4  1  -0.00098807  0.33298934  0.33073054  1
  Cs  Cs5  1  -0.00174743  0.33277777  0.66634294  1
  Cs  Cs6  1  0.00337441  0.66680473  -0.00300460  1
  Cs  Cs7  1  0.00137808  0.66776509  0.33441366  1
  Cs  Cs8  1  -0.00172007  0.66983156  0.66689653  1
  Cs  Cs9  1  0.33680292  0.00055494  -0.00336587  1
  Cs  Cs10  1  0.33242535  -0.00002835  0.33440874  1
  Cs  Cs11  1  0.33222757  0.00307774  0.66617887  1
  Cs  Cs12  1  0.33184227  0.33818583  -0.00903637  1
  Cs  Cs13  1  0.33152938  0.33076995  0.33442366  1
  Cs  Cs14  1  0.33524361  0.33195865  0.67190209  1
  Cs  Cs15  1  0.34081880  0.65861597  -0.00325330  1
  Cs  Cs16  1  0.33366183  0.66778469  0.33110718  1
  Cs  Cs17  1  0.33303564  0.66305367  0.66977510  1
  Cs  Cs18  1  0.66513564  -0.00265274  0.00018006  1
  Cs  Cs19  1  0.66587643  0.00100041  0.33298342  1
  Cs  Cs20  1  0.66848982  0.00055671  0.66637322  1
  Cs  Cs21  1  0.67048522  0.33358103  0.00119930  1
  Cs  Cs22  1  0.66916817  0.33661413  0.33212830  1
  Cs  Cs23  1  0.66721486  0.33544922  0.66641257  1
  Cs  Cs24  1  0.65603267  0.67176276  -0.00001199  1
  Cs  Cs25  1  0.66401019  0.66186987  0.33297069  1
  Cs  Cs26  1  0.66835171  0.66275996  0.66663630  1
  Sn  Sn27  1  0.83399064  0.83328471  0.16782662  1
  Sn  Sn28  1  0.16658587  0.16683249  0.49950132  1
  Sn  Sn29  1  0.50018075  0.16590504  0.49904337  1
  Sn  Sn30  1  0.83377193  0.16729283  0.83275772  1
  Sn  Sn31  1  0.16644558  0.83414005  0.16707759  1
  Sn  Sn32  1  0.83331249  0.16619449  0.50053608  1
  Sn  Sn33  1  0.49859046  0.16674106  0.16750977  1
  Sn  Sn34  1  0.49998373  0.83402926  0.49988280  1
  Sn  Sn35  1  0.83286903  0.83403871  0.49872863  1
  Sn  Sn36  1  0.16786928  0.16573580  0.16720517  1
  Sn  Sn37  1  0.83355428  0.49956429  0.83354124  1
  Sn  Sn38  1  0.16699293  0.83330059  0.49953793  1
  Sn  Sn39  1  0.16654954  0.49980711  0.49972818  1
  Pb  Pb40  1  0.16416810  0.16637963  0.83384707  1
  Pb  Pb41  1  0.49973992  0.49607589  0.16716122  1
  Pb  Pb42  1  0.83526737  0.50016973  0.50080391  1
  Pb  Pb43  1  0.49980709  0.83381012  0.82966133  1
  Pb  Pb44  1  0.16666943  0.50010491  0.16862351  1
  Pb  Pb45  1  0.50274965  0.16653716  0.83315169  1
  Pb  Pb46  1  0.49909055  0.83518066  0.16882817  1
  Pb  Pb47  1  0.49724436  0.49939591  0.49981194  1
  Pb  Pb48  1  0.83366509  0.16513797  0.16711467  1
  Pb  Pb49  1  0.50305947  0.49965926  0.83298994  1
  Pb  Pb50  1  0.16690980  0.83354913  0.83398908  1
  Pb  Pb51  1  0.16434603  0.49990501  0.83055681  1
  Pb  Pb52  1  0.83350245  0.50413894  0.16396406  1
  Pb  Pb53  1  0.83342858  0.83354225  0.83332939  1
  I  I54  1  0.16519746  0.00027896  0.17557787  1
  I  I55  1  0.16596458  0.00021303  0.49681039  1
  I  I56  1  0.16304994  0.00014973  0.82800594  1
  I  I57  1  0.16939334  0.32975744  0.17186841  1
  I  I58  1  0.16569594  0.33149212  0.49656110  1
  I  I59  1  0.16688223  0.33301285  0.83251200  1
  I  I60  1  0.16042207  0.67037868  0.17241484  1
  I  I61  1  0.16524405  0.66833262  0.49706638  1
  I  I62  1  0.16217825  0.66668409  0.83148169  1
  I  I63  1  0.49978217  0.00317328  0.16960556  1
  I  I64  1  0.49728248  0.00088419  0.49693002  1
  I  I65  1  0.50359878  0.00043902  0.83518265  1
  I  I66  1  0.49606201  0.32776498  0.17480466  1
  I  I67  1  0.50083233  0.32928453  0.49695801  1
  I  I68  1  0.49853966  0.33286521  0.83082065  1
  I  I69  1  0.50075186  0.66707082  0.16690460  1
  I  I70  1  0.50120584  0.66988513  0.50069119  1
  I  I71  1  0.50269422  0.66671160  0.83272861  1
  I  I72  1  0.83482440  -0.00276256  0.16670508  1
  I  I73  1  0.83680506  0.00038941  0.50260588  1
  I  I74  1  0.83312905  0.00267584  0.83013603  1
  I  I75  1  0.83316586  0.33316851  0.16830697  1
  I  I76  1  0.83347738  0.33010353  0.50243735  1
  I  I77  1  0.83353718  0.33181954  0.82620014  1
  I  I78  1  0.83993574  0.67208152  0.17319349  1
  I  I79  1  0.83389531  0.67007289  0.49908275  1
  I  I80  1  0.83473810  0.66452353  0.83158134  1
  I  I81  1  0.16956795  0.16115204  0.00376372  1
  I  I82  1  0.16491410  0.16589947  0.33501920  1
  I  I83  1  0.16898741  0.16538151  0.66281539  1
  I  I84  1  0.16582353  0.49989645  -0.00004832  1
  I  I85  1  0.16442407  0.49970664  0.33696501  1
  I  I86  1  0.16655488  0.50021319  0.66226199  1
  I  I87  1  0.15863883  0.83969692  0.00419097  1
  I  I88  1  0.16483497  0.83455534  0.33497445  1
  I  I89  1  0.16470991  0.83471521  0.66220979  1
  I  I90  1  0.49661789  0.16625013  0.00311652  1
  I  I91  1  0.50104345  0.16234909  0.33510174  1
  I  I92  1  0.49697878  0.16298442  0.66278160  1
  I  I93  1  0.49938893  0.50008522  -0.00002400  1
  I  I94  1  0.50262941  0.50235563  0.33387818  1
  I  I95  1  0.49878082  0.49915884  0.66615349  1
  I  I96  1  0.50188187  0.83490371  0.00052564  1
  I  I97  1  0.50032719  0.83610677  0.33717893  1
  I  I98  1  0.50077093  0.84048573  0.66092126  1
  I  I99  1  0.83341027  0.16860265  -0.00189766  1
  I  I100  1  0.83366357  0.16397064  0.33667874  1
  I  I101  1  0.83357832  0.16455076  0.66414882  1
  I  I102  1  0.83472214  0.49096913  -0.00373805  1
  I  I103  1  0.83397640  0.49740832  0.33326569  1
  I  I104  1  0.83529477  0.49978775  0.66875279  1
  I  I105  1  0.83907951  0.83446003  0.00307784  1
  I  I106  1  0.83527900  0.83978240  0.33524316  1
  I  I107  1  0.83447011  0.83455673  0.66301881  1
  I  I108  1  0.00273694  0.16467915  0.17015932  1
  I  I109  1  0.00026739  0.16438655  0.50068680  1
  I  I110  1  -0.00370547  0.16909214  0.82772512  1
  I  I111  1  -0.00000025  0.49448735  0.16666763  1
  I  I112  1  0.00306093  0.49977238  0.50126966  1
  I  I113  1  -0.00322733  0.49554767  0.83259895  1
  I  I114  1  0.00064155  0.83954221  0.17478010  1
  I  I115  1  0.00006883  0.83578145  0.49744722  1
  I  I116  1  -0.00015941  0.83342534  0.82863406  1
  I  I117  1  0.33216608  0.16057034  0.17685479  1
  I  I118  1  0.33272965  0.16382527  0.49549383  1
  I  I119  1  0.33334611  0.16671316  0.83063470  1
  I  I120  1  0.33311587  0.50571307  0.16719473  1
  I  I121  1  0.32926243  0.50059961  0.49936105  1
  I  I122  1  0.33328631  0.50083709  0.83297641  1
  I  I123  1  0.33006935  0.83615697  0.17283759  1
  I  I124  1  0.33232353  0.83628021  0.49663792  1
  I  I125  1  0.33337237  0.83298386  0.83334972  1
  I  I126  1  0.66484796  0.16475167  0.16970393  1
  I  I127  1  0.66697164  0.15972077  0.50043757  1
  I  I128  1  0.67063696  0.16977627  0.82868389  1
  I  I129  1  0.66682374  0.49971815  0.16709800  1
  I  I130  1  0.66680137  0.50048779  0.50262069  1
  I  I131  1  0.67081168  0.49529957  0.82965861  1
  I  I132  1  0.66880511  0.83513861  0.16962255  1
  I  I133  1  0.66758955  0.84095268  0.49734204  1
  I  I134  1  0.66699289  0.83316582  0.83489775  1
