# generated using pymatgen
data_Cs27Sn13Pb14I81
_symmetry_space_group_name_H-M   'P 1'
_cell_length_a   18.97273559
_cell_length_b   18.98026443
_cell_length_c   18.97761281
_cell_angle_alpha   90.00111007
_cell_angle_beta   89.99928042
_cell_angle_gamma   89.99882104
_symmetry_Int_Tables_number   1
_chemical_formula_structural   Cs27Sn13Pb14I81
_chemical_formula_sum   'Cs27 Sn13 Pb14 I81'
_cell_volume   6833.98143196
_cell_formula_units_Z   1
loop_
 _symmetry_equiv_pos_site_id
 _symmetry_equiv_pos_as_xyz
  1  'x, y, z'
loop_
 _atom_site_type_symbol
 _atom_site_label
 _atom_site_symmetry_multiplicity
 _atom_site_fract_x
 _atom_site_fract_y
 _atom_site_fract_z
 _atom_site_occupancy
  Cs  Cs0  1  0.00132416  0.00013236  -0.00034068  1
  Cs  Cs1  1  0.00052556  0.00056546  0.33121468  1
  Cs  Cs2  1  -0.00064719  -0.00058921  0.66898578  1
  Cs  Cs3  1  0.00197468  0.33345908  0.00013946  1
  Cs  Cs4  1  -0.00045161  0.33382100  0.33146125  1
  Cs  Cs5  1  -0.00108570  0.33259510  0.66780278  1
  Cs  Cs6  1  -0.00041300  0.67018001  0.00230445  1
  Cs  Cs7  1  0.00344454  0.66449441  0.33435829  1
  Cs  Cs8  1  -0.00208294  0.66833563  0.66409098  1
  Cs  Cs9  1  0.33006504  0.00162344  0.00037024  1
  Cs  Cs10  1  0.33340454  0.00074421  0.33548189  1
  Cs  Cs11  1  0.33585184  -0.00069313  0.66342953  1
  Cs  Cs12  1  0.33191646  0.33651535  -0.00235736  1
  Cs  Cs13  1  0.33289471  0.33185135  0.33296684  1
  Cs  Cs14  1  0.33145990  0.33374766  0.67031708  1
  Cs  Cs15  1  0.34298197  0.66072038  -0.00032696  1
  Cs  Cs16  1  0.32945774  0.66681010  0.33465694  1
  Cs  Cs17  1  0.33438324  0.66712357  0.66552716  1
  Cs  Cs18  1  0.66675539  -0.00060670  0.00165883  1
  Cs  Cs19  1  0.66395193  0.00023675  0.33140697  1
  Cs  Cs20  1  0.66640632  0.00141184  0.66670448  1
  Cs  Cs21  1  0.66673660  0.33249587  0.00195031  1
  Cs  Cs22  1  0.66812922  0.33215447  0.33615455  1
  Cs  Cs23  1  0.66806432  0.33299545  0.66409829  1
  Cs  Cs24  1  0.65761894  0.66653083  0.00479733  1
  Cs  Cs25  1  0.66553963  0.66534749  0.32582089  1
  Cs  Cs26  1  0.66951459  0.66453466  0.66869019  1
  Sn  Sn27  1  0.83305201  0.83361452  0.50020687  1
  Sn  Sn28  1  0.50089030  0.16633470  0.83404755  1
  Sn  Sn29  1  0.83239085  0.50010009  0.50059917  1
  Sn  Sn30  1  0.49911725  0.16657533  0.16566366  1
  Sn  Sn31  1  0.16667418  0.83391856  0.16547279  1
  Sn  Sn32  1  0.16750169  0.16605356  0.16733087  1
  Sn  Sn33  1  0.83426246  0.16615888  0.50064177  1
  Sn  Sn34  1  0.50060778  0.50013942  0.50014507  1
  Sn  Sn35  1  0.16563588  0.16666451  0.49957054  1
  Sn  Sn36  1  0.83371025  0.83312688  0.83298034  1
  Sn  Sn37  1  0.16648500  0.83320718  0.83406079  1
  Sn  Sn38  1  0.83254753  0.16669039  0.83275339  1
  Sn  Sn39  1  0.83356317  0.50021447  0.83321823  1
  Pb  Pb40  1  0.50022512  0.16796080  0.50020828  1
  Pb  Pb41  1  0.50252574  0.49734302  0.83132010  1
  Pb  Pb42  1  0.83370269  0.16663698  0.16645859  1
  Pb  Pb43  1  0.16593220  0.49734024  0.50022261  1
  Pb  Pb44  1  0.83337034  0.50011081  0.16656293  1
  Pb  Pb45  1  0.49675135  0.83583525  0.16678634  1
  Pb  Pb46  1  0.83519920  0.83338150  0.16637155  1
  Pb  Pb47  1  0.50054169  0.83545523  0.83317019  1
  Pb  Pb48  1  0.49996073  0.49692364  0.16940855  1
  Pb  Pb49  1  0.16466788  0.83553239  0.50028973  1
  Pb  Pb50  1  0.16672517  0.49996943  0.16638034  1
  Pb  Pb51  1  0.16633796  0.16526447  0.83328296  1
  Pb  Pb52  1  0.50330030  0.83030475  0.50012614  1
  Pb  Pb53  1  0.16397706  0.50369290  0.83323325  1
  I  I54  1  0.16943935  0.00109568  0.16677887  1
  I  I55  1  0.16205065  0.00357916  0.49867770  1
  I  I56  1  0.15984210  -0.00239580  0.83444517  1
  I  I57  1  0.16952551  0.32951438  0.17123072  1
  I  I58  1  0.16130482  0.32908549  0.49441590  1
  I  I59  1  0.16609474  0.33318045  0.83367623  1
  I  I60  1  0.16285658  0.67015114  0.16381274  1
  I  I61  1  0.16607595  0.66688061  0.49851809  1
  I  I62  1  0.16100758  0.67176647  0.83814387  1
  I  I63  1  0.49997387  0.00402861  0.16497337  1
  I  I64  1  0.50054514  0.00028238  0.49957851  1
  I  I65  1  0.50608421  0.00373736  0.83516355  1
  I  I66  1  0.49348259  0.32901369  0.16233741  1
  I  I67  1  0.50717771  0.33543503  0.49968631  1
  I  I68  1  0.50391298  0.32929473  0.83642011  1
  I  I69  1  0.49943339  0.66650654  0.16720210  1
  I  I70  1  0.50433396  0.66248283  0.50114131  1
  I  I71  1  0.49988113  0.66640574  0.83252811  1
  I  I72  1  0.83136502  0.00023990  0.16774042  1
  I  I73  1  0.83866654  0.00084277  0.50616722  1
  I  I74  1  0.83365929  0.00032297  0.82730344  1
  I  I75  1  0.83566467  0.33300188  0.16699559  1
  I  I76  1  0.83313207  0.33269566  0.50530369  1
  I  I77  1  0.82863686  0.33246230  0.82685249  1
  I  I78  1  0.83655506  0.66683395  0.16783186  1
  I  I79  1  0.82968704  0.66660381  0.50692778  1
  I  I80  1  0.84012856  0.66710295  0.82529169  1
  I  I81  1  0.16708643  0.16381259  0.00231144  1
  I  I82  1  0.16684948  0.16150944  0.33307477  1
  I  I83  1  0.16518963  0.16584305  0.66441764  1
  I  I84  1  0.16387755  0.49411113  -0.00030940  1
  I  I85  1  0.16392546  0.50347824  0.33356370  1
  I  I86  1  0.16936456  0.49820120  0.66664356  1
  I  I87  1  0.15842400  0.84152491  -0.00026419  1
  I  I88  1  0.16520209  0.83671169  0.33112308  1
  I  I89  1  0.16305696  0.83538287  0.66927643  1
  I  I90  1  0.50075439  0.16606633  -0.00034996  1
  I  I91  1  0.49864362  0.16852418  0.33133509  1
  I  I92  1  0.50162010  0.16776108  0.66899304  1
  I  I93  1  0.50136494  0.50069705  -0.00014525  1
  I  I94  1  0.50877561  0.49736384  0.33701806  1
  I  I95  1  0.50285979  0.49631071  0.66363118  1
  I  I96  1  0.50525201  0.83159923  -0.00006305  1
  I  I97  1  0.50094386  0.83629371  0.33346392  1
  I  I98  1  0.49363072  0.83764854  0.66666061  1
  I  I99  1  0.83264783  0.16645836  -0.00344993  1
  I  I100  1  0.83396705  0.16728144  0.33659034  1
  I  I101  1  0.83342394  0.16678382  0.66657077  1
  I  I102  1  0.83539981  0.49826615  -0.00374442  1
  I  I103  1  0.83006006  0.49878764  0.33727938  1
  I  I104  1  0.82983551  0.49924618  0.66610088  1
  I  I105  1  0.83642941  0.83510487  -0.00364577  1
  I  I106  1  0.83441337  0.83402939  0.33656314  1
  I  I107  1  0.83944590  0.83393105  0.66730775  1
  I  I108  1  0.00299423  0.16284232  0.16815277  1
  I  I109  1  -0.00152757  0.16846648  0.50000881  1
  I  I110  1  -0.00318327  0.16800000  0.83188785  1
  I  I111  1  0.00003414  0.49635179  0.16952652  1
  I  I112  1  -0.00397268  0.50134529  0.50377775  1
  I  I113  1  -0.00457129  0.49258592  0.82567805  1
  I  I114  1  0.00310155  0.84179398  0.16523942  1
  I  I115  1  -0.00368289  0.82935365  0.50162463  1
  I  I116  1  -0.00153490  0.83647057  0.83317798  1
  I  I117  1  0.33252211  0.16232091  0.16794597  1
  I  I118  1  0.33115238  0.16827048  0.49918767  1
  I  I119  1  0.33525870  0.16442404  0.83317468  1
  I  I120  1  0.33347519  0.50155227  0.16914590  1
  I  I121  1  0.33570046  0.49641074  0.49819461  1
  I  I122  1  0.33364993  0.49919053  0.83178749  1
  I  I123  1  0.32863945  0.83617270  0.16118261  1
  I  I124  1  0.33307760  0.83370406  0.50027981  1
  I  I125  1  0.33046433  0.83723311  0.83756686  1
  I  I126  1  0.66436041  0.16830052  0.16611711  1
  I  I127  1  0.66991940  0.16576719  0.50092493  1
  I  I128  1  0.66841789  0.16488566  0.83256413  1
  I  I129  1  0.66656982  0.49859451  0.16537858  1
  I  I130  1  0.66900418  0.49631391  0.50418430  1
  I  I131  1  0.67089335  0.50432045  0.83052394  1
  I  I132  1  0.66647719  0.83414050  0.16673339  1
  I  I133  1  0.67181652  0.84060420  0.50728969  1
  I  I134  1  0.67060566  0.83261750  0.82777067  1
