# generated using pymatgen
data_Cs27Sn13Pb14I81
_symmetry_space_group_name_H-M   'P 1'
_cell_length_a   18.99860288
_cell_length_b   18.99542353
_cell_length_c   18.98472739
_cell_angle_alpha   90.00015263
_cell_angle_beta   90.00262063
_cell_angle_gamma   89.99926070
_symmetry_Int_Tables_number   1
_chemical_formula_structural   Cs27Sn13Pb14I81
_chemical_formula_sum   'Cs27 Sn13 Pb14 I81'
_cell_volume   6851.33196851
_cell_formula_units_Z   1
loop_
 _symmetry_equiv_pos_site_id
 _symmetry_equiv_pos_as_xyz
  1  'x, y, z'
loop_
 _atom_site_type_symbol
 _atom_site_label
 _atom_site_symmetry_multiplicity
 _atom_site_fract_x
 _atom_site_fract_y
 _atom_site_fract_z
 _atom_site_occupancy
  Cs  Cs0  1  -0.00028941  0.00120369  0.00128348  1
  Cs  Cs1  1  -0.00006712  -0.00124242  0.33295114  1
  Cs  Cs2  1  0.00174805  0.00076393  0.66499973  1
  Cs  Cs3  1  -0.01107680  0.33415173  -0.00410302  1
  Cs  Cs4  1  0.00164233  0.33137660  0.33314378  1
  Cs  Cs5  1  0.00831437  0.33393604  0.67112977  1
  Cs  Cs6  1  0.00135947  0.66643256  -0.00105678  1
  Cs  Cs7  1  -0.00016786  0.67019115  0.33317465  1
  Cs  Cs8  1  -0.00078254  0.66681937  0.66760370  1
  Cs  Cs9  1  0.33478985  -0.00074996  -0.00098083  1
  Cs  Cs10  1  0.33482412  0.00070947  0.33181030  1
  Cs  Cs11  1  0.33392247  0.00202172  0.67430763  1
  Cs  Cs12  1  0.33688995  0.33281127  -0.00284136  1
  Cs  Cs13  1  0.33259455  0.33368338  0.33481413  1
  Cs  Cs14  1  0.32410527  0.33997563  0.67194376  1
  Cs  Cs15  1  0.33347151  0.66666706  -0.00369946  1
  Cs  Cs16  1  0.33418329  0.66587768  0.33256878  1
  Cs  Cs17  1  0.33279727  0.65975854  0.67481828  1
  Cs  Cs18  1  0.66503610  0.00270873  -0.00111068  1
  Cs  Cs19  1  0.66531065  -0.00032375  0.33510861  1
  Cs  Cs20  1  0.66517053  -0.00068064  0.66298877  1
  Cs  Cs21  1  0.67533609  0.33987755  -0.00722177  1
  Cs  Cs22  1  0.66556917  0.33349052  0.33168523  1
  Cs  Cs23  1  0.66543144  0.33358830  0.67170955  1
  Cs  Cs24  1  0.66582278  0.66019210  -0.00070109  1
  Cs  Cs25  1  0.66546328  0.66725555  0.33432504  1
  Cs  Cs26  1  0.66656460  0.66705515  0.66413847  1
  Sn  Sn27  1  0.83278687  0.83351970  0.16648439  1
  Sn  Sn28  1  0.83337989  0.49932604  0.49932414  1
  Sn  Sn29  1  0.83281687  0.16695166  0.49968783  1
  Sn  Sn30  1  0.50007053  0.16610919  0.49951901  1
  Sn  Sn31  1  0.49981931  0.16616572  0.16739105  1
  Sn  Sn32  1  0.16661489  0.49967001  0.16707918  1
  Sn  Sn33  1  0.49898575  0.83399146  0.49945086  1
  Sn  Sn34  1  0.83300343  0.83398973  0.83339189  1
  Sn  Sn35  1  0.49998418  0.83399355  0.16755831  1
  Sn  Sn36  1  0.83340789  0.83365412  0.49977936  1
  Sn  Sn37  1  0.16709059  0.83351550  0.16784091  1
  Sn  Sn38  1  0.16768875  0.83350695  0.49946911  1
  Sn  Sn39  1  0.16732271  0.16668960  0.16694361  1
  Pb  Pb40  1  0.83322791  0.16392145  0.82965577  1
  Pb  Pb41  1  0.49803335  0.49960632  0.16690383  1
  Pb  Pb42  1  0.16656912  0.16623373  0.83733824  1
  Pb  Pb43  1  0.83349728  0.50281359  0.83000669  1
  Pb  Pb44  1  0.50252524  0.83335043  0.83333550  1
  Pb  Pb45  1  0.50012142  0.16646818  0.83315339  1
  Pb  Pb46  1  0.16619757  0.50022553  0.83704703  1
  Pb  Pb47  1  0.16453918  0.50282958  0.49796166  1
  Pb  Pb48  1  0.50173300  0.49956241  0.49983917  1
  Pb  Pb49  1  0.83253928  0.16480792  0.16851112  1
  Pb  Pb50  1  0.16448700  0.83359238  0.83363678  1
  Pb  Pb51  1  0.50017558  0.50002059  0.83324244  1
  Pb  Pb52  1  0.83533804  0.50258856  0.16902054  1
  Pb  Pb53  1  0.16753990  0.16443737  0.49841451  1
  I  I54  1  0.16645917  -0.00148488  0.17061020  1
  I  I55  1  0.15965293  -0.00377495  0.49354503  1
  I  I56  1  0.16553604  -0.00036846  0.83449235  1
  I  I57  1  0.17270433  0.33255930  0.16815229  1
  I  I58  1  0.16519023  0.33320464  0.49777122  1
  I  I59  1  0.16600379  0.33335651  0.83123993  1
  I  I60  1  0.16503578  0.66882527  0.17098531  1
  I  I61  1  0.16571233  0.67128826  0.49320428  1
  I  I62  1  0.16608480  0.66706888  0.83455909  1
  I  I63  1  0.49549698  -0.00133430  0.17084235  1
  I  I64  1  0.50686346  -0.00135617  0.49483286  1
  I  I65  1  0.50049234  -0.00021827  0.83371778  1
  I  I66  1  0.49380359  0.32953720  0.17267173  1
  I  I67  1  0.50634652  0.32945257  0.49381675  1
  I  I68  1  0.50139518  0.33292849  0.83406240  1
  I  I69  1  0.50051530  0.67039747  0.17133332  1
  I  I70  1  0.50217490  0.67042149  0.49492411  1
  I  I71  1  0.50048390  0.66730828  0.83349667  1
  I  I72  1  0.83872147  -0.00396752  0.16931138  1
  I  I73  1  0.83269745  -0.00188198  0.49990152  1
  I  I74  1  0.83385784  -0.00390887  0.83243916  1
  I  I75  1  0.83457869  0.33326475  0.16890089  1
  I  I76  1  0.82751535  0.33255625  0.49681053  1
  I  I77  1  0.83308562  0.33336474  0.83379972  1
  I  I78  1  0.83283725  0.67152105  0.16968851  1
  I  I79  1  0.83389252  0.66927188  0.50000213  1
  I  I80  1  0.83376622  0.67066613  0.83213386  1
  I  I81  1  0.17293321  0.16107699  0.00593698  1
  I  I82  1  0.16686595  0.16681654  0.33010879  1
  I  I83  1  0.16618717  0.16479850  0.66639891  1
  I  I84  1  0.16620033  0.50584974  0.00505063  1
  I  I85  1  0.16609708  0.49985860  0.33013900  1
  I  I86  1  0.16614420  0.50143229  0.66652098  1
  I  I87  1  0.16636749  0.83298920  0.00423008  1
  I  I88  1  0.16118003  0.83331807  0.33230293  1
  I  I89  1  0.16497463  0.83388221  0.66334966  1
  I  I90  1  0.49321797  0.15992693  0.00386526  1
  I  I91  1  0.50042807  0.16104765  0.33328447  1
  I  I92  1  0.50726409  0.15924242  0.66268807  1
  I  I93  1  0.49994224  0.50158984  0.00059035  1
  I  I94  1  0.50078089  0.50143029  0.33332092  1
  I  I95  1  0.50034323  0.50190625  0.66609808  1
  I  I96  1  0.49867448  0.83734423  0.00385406  1
  I  I97  1  0.50420549  0.83638190  0.33328541  1
  I  I98  1  0.50138349  0.83780329  0.66286336  1
  I  I99  1  0.83421959  0.16502092  0.00006655  1
  I  I100  1  0.83303058  0.16239938  0.33663394  1
  I  I101  1  0.82669612  0.16312475  0.66132511  1
  I  I102  1  0.83443885  0.50109920  0.00002589  1
  I  I103  1  0.83341393  0.50467223  0.33666230  1
  I  I104  1  0.83326682  0.50366473  0.66218704  1
  I  I105  1  0.83505845  0.83361952  0.00127091  1
  I  I106  1  0.83446664  0.83311315  0.33411537  1
  I  I107  1  0.83356708  0.83276971  0.66438526  1
  I  I108  1  0.00220902  0.16417065  0.16879076  1
  I  I109  1  -0.00233737  0.16377873  0.49816757  1
  I  I110  1  -0.00026345  0.16569623  0.83325956  1
  I  I111  1  0.00310700  0.50063918  0.16870076  1
  I  I112  1  -0.00335385  0.50160522  0.49821813  1
  I  I113  1  -0.00031109  0.50117954  0.83324350  1
  I  I114  1  0.00018955  0.83314454  0.16992316  1
  I  I115  1  -0.00108139  0.83306044  0.49697987  1
  I  I116  1  -0.00341330  0.83274769  0.83216206  1
  I  I117  1  0.33371494  0.16081162  0.17302426  1
  I  I118  1  0.33659245  0.16012916  0.49628647  1
  I  I119  1  0.33334441  0.16626391  0.82821554  1
  I  I120  1  0.33012292  0.50647906  0.16845433  1
  I  I121  1  0.33299392  0.50054222  0.49965444  1
  I  I122  1  0.33282328  0.50109242  0.83162314  1
  I  I123  1  0.33314147  0.83352998  0.17415655  1
  I  I124  1  0.33392353  0.83849678  0.49014652  1
  I  I125  1  0.33344616  0.83267613  0.83296382  1
  I  I126  1  0.66359562  0.15953677  0.17000835  1
  I  I127  1  0.66656903  0.16004357  0.49371937  1
  I  I128  1  0.66684985  0.16642625  0.83917521  1
  I  I129  1  0.66692311  0.50083610  0.16643164  1
  I  I130  1  0.66988078  0.50758621  0.49879403  1
  I  I131  1  0.66743844  0.50055907  0.83548546  1
  I  I132  1  0.66649401  0.83823836  0.17034587  1
  I  I133  1  0.66739950  0.83331143  0.49771251  1
  I  I134  1  0.67029041  0.83345021  0.83177533  1
