# generated using pymatgen
data_Cs27Sn14Pb13I81
_symmetry_space_group_name_H-M   'P 1'
_cell_length_a   18.96114579
_cell_length_b   18.96278752
_cell_length_c   18.95709447
_cell_angle_alpha   89.99773298
_cell_angle_beta   90.00179840
_cell_angle_gamma   89.99825039
_symmetry_Int_Tables_number   1
_chemical_formula_structural   Cs27Sn14Pb13I81
_chemical_formula_sum   'Cs27 Sn14 Pb13 I81'
_cell_volume   6816.14043434
_cell_formula_units_Z   1
loop_
 _symmetry_equiv_pos_site_id
 _symmetry_equiv_pos_as_xyz
  1  'x, y, z'
loop_
 _atom_site_type_symbol
 _atom_site_label
 _atom_site_symmetry_multiplicity
 _atom_site_fract_x
 _atom_site_fract_y
 _atom_site_fract_z
 _atom_site_occupancy
  Cs  Cs0  1  -0.00173466  0.00085277  -0.00321509  1
  Cs  Cs1  1  0.00055570  0.00048625  0.33581659  1
  Cs  Cs2  1  -0.00003448  -0.00103122  0.66629077  1
  Cs  Cs3  1  0.00085999  0.33432256  -0.00117847  1
  Cs  Cs4  1  -0.00054620  0.33265591  0.33333901  1
  Cs  Cs5  1  0.00018391  0.33070007  0.66666960  1
  Cs  Cs6  1  0.00030719  0.66580651  0.00064230  1
  Cs  Cs7  1  0.00084788  0.66879048  0.33279737  1
  Cs  Cs8  1  -0.00168626  0.67090048  0.66628417  1
  Cs  Cs9  1  0.34551264  -0.00173588  0.00015562  1
  Cs  Cs10  1  0.33288014  -0.00004776  0.33195455  1
  Cs  Cs11  1  0.33316086  -0.00015692  0.66673771  1
  Cs  Cs12  1  0.33030536  0.33361792  -0.00728514  1
  Cs  Cs13  1  0.33229665  0.33152487  0.33572619  1
  Cs  Cs14  1  0.33253725  0.33713705  0.66843073  1
  Cs  Cs15  1  0.33055670  0.66852754  -0.00056692  1
  Cs  Cs16  1  0.32943519  0.66794020  0.33090895  1
  Cs  Cs17  1  0.33895421  0.66360117  0.66878408  1
  Cs  Cs18  1  0.66093595  0.00045267  -0.00032902  1
  Cs  Cs19  1  0.66658506  0.00113703  0.33344615  1
  Cs  Cs20  1  0.66692420  -0.00025185  0.66667706  1
  Cs  Cs21  1  0.66871279  0.33011559  0.00365505  1
  Cs  Cs22  1  0.66727641  0.33424741  0.33372395  1
  Cs  Cs23  1  0.66631224  0.33544022  0.66551723  1
  Cs  Cs24  1  0.66872275  0.66824422  0.00056937  1
  Cs  Cs25  1  0.66965726  0.66206448  0.33448574  1
  Cs  Cs26  1  0.66514015  0.66575848  0.66626838  1
  Sn  Sn27  1  0.50013766  0.83375063  0.49941040  1
  Sn  Sn28  1  0.16607606  0.16647992  0.16677908  1
  Sn  Sn29  1  0.16651283  0.16737089  0.49935337  1
  Sn  Sn30  1  0.83281634  0.49993717  0.16658014  1
  Sn  Sn31  1  0.83339245  0.16735852  0.49928881  1
  Sn  Sn32  1  0.16625171  0.83368169  0.83357742  1
  Sn  Sn33  1  0.83349200  0.83372317  0.16605460  1
  Sn  Sn34  1  0.83340090  0.50063052  0.83330701  1
  Sn  Sn35  1  0.83455222  0.49920440  0.50021321  1
  Sn  Sn36  1  0.50005073  0.16584848  0.49976666  1
  Sn  Sn37  1  0.83433773  0.16628483  0.16751653  1
  Sn  Sn38  1  0.16550776  0.49968874  0.49978581  1
  Sn  Sn39  1  0.83412354  0.83265066  0.83424465  1
  Sn  Sn40  1  0.49994635  0.49972655  0.16652120  1
  Pb  Pb41  1  0.16451640  0.83633265  0.16442662  1
  Pb  Pb42  1  0.50256027  0.83097388  0.16904058  1
  Pb  Pb43  1  0.16608535  0.49804605  0.16828979  1
  Pb  Pb44  1  0.49994911  0.49961723  0.49843355  1
  Pb  Pb45  1  0.83319595  0.16655879  0.83348308  1
  Pb  Pb46  1  0.49993613  0.16875226  0.16853916  1
  Pb  Pb47  1  0.50289588  0.50001695  0.83682133  1
  Pb  Pb48  1  0.16412072  0.50203778  0.83064092  1
  Pb  Pb49  1  0.83198562  0.83334791  0.49999751  1
  Pb  Pb50  1  0.50083618  0.83318029  0.83138024  1
  Pb  Pb51  1  0.16664224  0.16435640  0.83345218  1
  Pb  Pb52  1  0.50004217  0.16714572  0.83017275  1
  Pb  Pb53  1  0.16893634  0.83333688  0.50156599  1
  I  I54  1  0.16116240  0.00422932  0.17469816  1
  I  I55  1  0.16381401  0.00328523  0.49826211  1
  I  I56  1  0.15797179  -0.00325408  0.83012632  1
  I  I57  1  0.16089201  0.32996616  0.16939980  1
  I  I58  1  0.16736526  0.33232317  0.49694828  1
  I  I59  1  0.16587958  0.33341036  0.83391586  1
  I  I60  1  0.16628937  0.66669678  0.16829535  1
  I  I61  1  0.16274042  0.66406723  0.50111252  1
  I  I62  1  0.16372457  0.66976482  0.83167160  1
  I  I63  1  0.50094044  0.00017677  0.16633353  1
  I  I64  1  0.50120737  0.00133192  0.49971641  1
  I  I65  1  0.50249890  -0.00012254  0.83540745  1
  I  I66  1  0.50822148  0.33621152  0.17064109  1
  I  I67  1  0.50081553  0.33062406  0.49777181  1
  I  I68  1  0.50094615  0.33379266  0.83056590  1
  I  I69  1  0.50643608  0.66334913  0.17052825  1
  I  I70  1  0.50138927  0.66822987  0.49940449  1
  I  I71  1  0.49860241  0.66660296  0.82823302  1
  I  I72  1  0.83786419  0.00084922  0.16772987  1
  I  I73  1  0.83511414  0.00290865  0.49743170  1
  I  I74  1  0.83650336  -0.00297915  0.83490985  1
  I  I75  1  0.83238970  0.33351908  0.16773611  1
  I  I76  1  0.83170693  0.33327947  0.49763191  1
  I  I77  1  0.83237908  0.33628499  0.83458274  1
  I  I78  1  0.82852582  0.66582064  0.16687641  1
  I  I79  1  0.83510758  0.66379264  0.49762565  1
  I  I80  1  0.83682241  0.66650813  0.83550714  1
  I  I81  1  0.15941185  0.16682919  0.00311436  1
  I  I82  1  0.16498890  0.16948793  0.33474470  1
  I  I83  1  0.16556931  0.16900512  0.66294040  1
  I  I84  1  0.16681091  0.49867022  -0.00004692  1
  I  I85  1  0.16146258  0.49912346  0.33667749  1
  I  I86  1  0.16323081  0.49336574  0.66240785  1
  I  I87  1  0.16390259  0.83309372  -0.00325010  1
  I  I88  1  0.16627158  0.83206492  0.33328634  1
  I  I89  1  0.15877162  0.83489421  0.66918915  1
  I  I90  1  0.50024996  0.16724857  0.00057800  1
  I  I91  1  0.50098708  0.16407508  0.33686594  1
  I  I92  1  0.50128025  0.16381902  0.66131514  1
  I  I93  1  0.50557689  0.50001351  0.00459645  1
  I  I94  1  0.50819781  0.49989883  0.33107300  1
  I  I95  1  0.50080064  0.50003565  0.66643685  1
  I  I96  1  0.49863418  0.83224375  0.00033038  1
  I  I97  1  0.50107405  0.83759334  0.33669445  1
  I  I98  1  0.50263136  0.83665490  0.66336348  1
  I  I99  1  0.83808619  0.16961009  0.00349913  1
  I  I100  1  0.83349909  0.16915049  0.33372090  1
  I  I101  1  0.83382400  0.16913292  0.66311192  1
  I  I102  1  0.82835557  0.50057729  0.00096154  1
  I  I103  1  0.83222445  0.49957843  0.33332559  1
  I  I104  1  0.83741974  0.50022695  0.66556816  1
  I  I105  1  0.83692109  0.82977314  0.00030124  1
  I  I106  1  0.83072746  0.83117007  0.33085241  1
  I  I107  1  0.83466630  0.83054408  0.66896318  1
  I  I108  1  -0.00176715  0.16829124  0.17481363  1
  I  I109  1  -0.00066554  0.17137137  0.49625179  1
  I  I110  1  -0.00026970  0.16721491  0.82885064  1
  I  I111  1  -0.00377258  0.50129782  0.16553361  1
  I  I112  1  -0.00170725  0.49326454  0.49832078  1
  I  I113  1  -0.00420805  0.50142245  0.83821118  1
  I  I114  1  -0.00409736  0.82789124  0.16735062  1
  I  I115  1  -0.00017191  0.83492057  0.49942333  1
  I  I116  1  -0.00188970  0.82999402  0.83484462  1
  I  I117  1  0.33082925  0.16839648  0.17202217  1
  I  I118  1  0.33242779  0.16653478  0.49610697  1
  I  I119  1  0.33305228  0.16385744  0.83469972  1
  I  I120  1  0.33507218  0.49825835  0.17177542  1
  I  I121  1  0.33103685  0.49728792  0.49767282  1
  I  I122  1  0.33303392  0.50164775  0.83254076  1
  I  I123  1  0.33335925  0.83269192  0.16561051  1
  I  I124  1  0.33644679  0.83651218  0.50211448  1
  I  I125  1  0.33109278  0.83521952  0.82988924  1
  I  I126  1  0.67010734  0.16608526  0.17041112  1
  I  I127  1  0.66802723  0.16693557  0.49647406  1
  I  I128  1  0.66718362  0.16418231  0.83340614  1
  I  I129  1  0.66970673  0.49840492  0.16958245  1
  I  I130  1  0.66996210  0.49759174  0.50086346  1
  I  I131  1  0.67149372  0.50644685  0.82666358  1
  I  I132  1  0.67109041  0.83803796  0.16094334  1
  I  I133  1  0.66446277  0.83703402  0.50105931  1
  I  I134  1  0.67031814  0.82951800  0.83593143  1
