# generated using pymatgen
data_Cs27Sn13Pb14I81
_symmetry_space_group_name_H-M   'P 1'
_cell_length_a   18.99179325
_cell_length_b   18.99565700
_cell_length_c   18.98497302
_cell_angle_alpha   90.00058787
_cell_angle_beta   89.99983556
_cell_angle_gamma   89.99991405
_symmetry_Int_Tables_number   1
_chemical_formula_structural   Cs27Sn13Pb14I81
_chemical_formula_sum   'Cs27 Sn13 Pb14 I81'
_cell_volume   6849.04906167
_cell_formula_units_Z   1
loop_
 _symmetry_equiv_pos_site_id
 _symmetry_equiv_pos_as_xyz
  1  'x, y, z'
loop_
 _atom_site_type_symbol
 _atom_site_label
 _atom_site_symmetry_multiplicity
 _atom_site_fract_x
 _atom_site_fract_y
 _atom_site_fract_z
 _atom_site_occupancy
  Cs  Cs0  1  -0.00243111  0.00125274  -0.00161617  1
  Cs  Cs1  1  0.00411001  0.00099995  0.34204753  1
  Cs  Cs2  1  -0.00308029  -0.00099139  0.66569062  1
  Cs  Cs3  1  -0.00179951  0.33223443  0.00020411  1
  Cs  Cs4  1  0.00997298  0.33297251  0.33146718  1
  Cs  Cs5  1  -0.00063008  0.33293909  0.66893869  1
  Cs  Cs6  1  -0.00296642  0.66637727  -0.00146299  1
  Cs  Cs7  1  0.00828959  0.66546910  0.33316136  1
  Cs  Cs8  1  -0.00086061  0.66736276  0.66929189  1
  Cs  Cs9  1  0.33613331  -0.00329179  0.00178507  1
  Cs  Cs10  1  0.32471751  -0.00806451  0.33642629  1
  Cs  Cs11  1  0.34535267  0.00151732  0.66296876  1
  Cs  Cs12  1  0.33476856  0.33144631  -0.00076371  1
  Cs  Cs13  1  0.32611531  0.33194178  0.33328187  1
  Cs  Cs14  1  0.33557137  0.33444450  0.66595643  1
  Cs  Cs15  1  0.33505538  0.67138816  -0.00047274  1
  Cs  Cs16  1  0.32602124  0.67433428  0.33285835  1
  Cs  Cs17  1  0.33278905  0.66416269  0.66711615  1
  Cs  Cs18  1  0.66732032  0.00128751  0.00056308  1
  Cs  Cs19  1  0.66738760  -0.00075653  0.33952879  1
  Cs  Cs20  1  0.66170807  0.00140906  0.65819335  1
  Cs  Cs21  1  0.66790644  0.33314729  0.00183144  1
  Cs  Cs22  1  0.66687656  0.33440842  0.33011937  1
  Cs  Cs23  1  0.66545336  0.33464333  0.66605403  1
  Cs  Cs24  1  0.66838035  0.66673354  0.00115362  1
  Cs  Cs25  1  0.66604451  0.66537341  0.33305003  1
  Cs  Cs26  1  0.66701619  0.66405238  0.66589639  1
  Sn  Sn27  1  0.83311102  0.49957051  0.50009547  1
  Sn  Sn28  1  0.83319932  0.49982278  0.83273720  1
  Sn  Sn29  1  0.83266233  0.16549708  0.16634905  1
  Sn  Sn30  1  0.50044508  0.16696061  0.16696535  1
  Sn  Sn31  1  0.16643450  0.49981903  0.83383070  1
  Sn  Sn32  1  0.83347114  0.83386488  0.83382431  1
  Sn  Sn33  1  0.50034077  0.49990620  0.83394671  1
  Sn  Sn34  1  0.49986576  0.49934895  0.16699313  1
  Sn  Sn35  1  0.16640801  0.16603227  0.83357491  1
  Sn  Sn36  1  0.16606156  0.83410356  0.83338660  1
  Sn  Sn37  1  0.83344248  0.16639613  0.83364981  1
  Sn  Sn38  1  0.50063085  0.49973896  0.49914551  1
  Sn  Sn39  1  0.83321814  0.83471107  0.16635062  1
  Pb  Pb40  1  0.16662856  0.16672001  0.50391980  1
  Pb  Pb41  1  0.50251092  0.83381538  0.16664009  1
  Pb  Pb42  1  0.16307419  0.83365566  0.16382447  1
  Pb  Pb43  1  0.83337084  0.16964952  0.49967102  1
  Pb  Pb44  1  0.83338399  0.83047457  0.50012340  1
  Pb  Pb45  1  0.16662937  0.49992356  0.50260663  1
  Pb  Pb46  1  0.17014458  0.50010386  0.16349471  1
  Pb  Pb47  1  0.50060544  0.16870388  0.83490665  1
  Pb  Pb48  1  0.83232196  0.49971110  0.16698261  1
  Pb  Pb49  1  0.16637004  0.16638038  0.16428608  1
  Pb  Pb50  1  0.50097753  0.83105793  0.83327125  1
  Pb  Pb51  1  0.50019881  0.83022137  0.49974399  1
  Pb  Pb52  1  0.50004314  0.16941897  0.49588730  1
  Pb  Pb53  1  0.16631010  0.83331542  0.50415976  1
  I  I54  1  0.17388936  0.00002917  0.16332997  1
  I  I55  1  0.16646002  -0.00008009  0.50003268  1
  I  I56  1  0.15652289  0.00010900  0.83470600  1
  I  I57  1  0.16163687  0.33336398  0.16378769  1
  I  I58  1  0.16615724  0.33373378  0.50175239  1
  I  I59  1  0.16345172  0.33380562  0.83355612  1
  I  I60  1  0.16637823  0.66671991  0.16427198  1
  I  I61  1  0.16723860  0.66633204  0.50156516  1
  I  I62  1  0.16381921  0.66608733  0.83327051  1
  I  I63  1  0.50267312  0.00324930  0.16210571  1
  I  I64  1  0.49962342  0.00036989  0.50052913  1
  I  I65  1  0.49832986  0.00018360  0.83589118  1
  I  I66  1  0.50763428  0.33423652  0.16457302  1
  I  I67  1  0.50472992  0.33755938  0.50550063  1
  I  I68  1  0.50009396  0.33729541  0.83149998  1
  I  I69  1  0.50209026  0.66342974  0.16537007  1
  I  I70  1  0.50538288  0.66154388  0.49993083  1
  I  I71  1  0.50014228  0.66201574  0.83558645  1
  I  I72  1  0.82680392  0.00088693  0.15486497  1
  I  I73  1  0.83359105  0.00007878  0.50286385  1
  I  I74  1  0.84248166  0.00025007  0.83997936  1
  I  I75  1  0.83013539  0.33080477  0.16174837  1
  I  I76  1  0.82850510  0.33742201  0.50641487  1
  I  I77  1  0.83572366  0.33374184  0.83370224  1
  I  I78  1  0.83132232  0.66839917  0.16165294  1
  I  I79  1  0.82814665  0.66260493  0.50566051  1
  I  I80  1  0.83550925  0.66599696  0.83379007  1
  I  I81  1  0.16456997  0.16893764  -0.00416971  1
  I  I82  1  0.16603479  0.16813902  0.33313069  1
  I  I83  1  0.15924161  0.16903954  0.67247762  1
  I  I84  1  0.16344277  0.49965941  -0.00500786  1
  I  I85  1  0.16517957  0.49989561  0.33329734  1
  I  I86  1  0.17074329  0.50022476  0.67134562  1
  I  I87  1  0.16587853  0.83145298  -0.00438920  1
  I  I88  1  0.16642114  0.83217928  0.33333652  1
  I  I89  1  0.15786547  0.83045638  0.67224163  1
  I  I90  1  0.50182028  0.17455822  0.00257101  1
  I  I91  1  0.50944261  0.17376236  0.32820017  1
  I  I92  1  0.49930812  0.16754308  0.66653948  1
  I  I93  1  0.50035491  0.49657673  -0.00069332  1
  I  I94  1  0.50966979  0.49551283  0.33319646  1
  I  I95  1  0.50041024  0.50152824  0.66776438  1
  I  I96  1  0.49728489  0.82834397  -0.00015938  1
  I  I97  1  0.50297430  0.83032184  0.33302864  1
  I  I98  1  0.50121062  0.83272428  0.66689394  1
  I  I99  1  0.83342077  0.16926998  -0.00148254  1
  I  I100  1  0.82722216  0.16321525  0.32982655  1
  I  I101  1  0.83842519  0.16491787  0.67026361  1
  I  I102  1  0.83304747  0.50033901  -0.00335653  1
  I  I103  1  0.82590299  0.50062978  0.33562480  1
  I  I104  1  0.82903698  0.50036105  0.66937055  1
  I  I105  1  0.83651253  0.83038423  -0.00178450  1
  I  I106  1  0.82949552  0.83668439  0.33029275  1
  I  I107  1  0.83841084  0.83435154  0.67049481  1
  I  I108  1  -0.00357199  0.16407058  0.16314545  1
  I  I109  1  -0.00025292  0.17052283  0.49482174  1
  I  I110  1  -0.00142908  0.17218237  0.83880466  1
  I  I111  1  0.00009993  0.49974214  0.16758802  1
  I  I112  1  -0.00295497  0.50057809  0.50563392  1
  I  I113  1  -0.00101047  0.50029727  0.82843149  1
  I  I114  1  -0.00482294  0.83747440  0.16338215  1
  I  I115  1  -0.00033772  0.82958135  0.49705045  1
  I  I116  1  -0.00116814  0.82762872  0.83739665  1
  I  I117  1  0.33617716  0.17501805  0.16406788  1
  I  I118  1  0.33352345  0.17051507  0.50154188  1
  I  I119  1  0.33094928  0.16834356  0.83484416  1
  I  I120  1  0.33842226  0.49293848  0.16698962  1
  I  I121  1  0.33645382  0.49914970  0.50221060  1
  I  I122  1  0.33353933  0.49983910  0.83360667  1
  I  I123  1  0.33313097  0.83218824  0.16577512  1
  I  I124  1  0.33315094  0.83097410  0.50069985  1
  I  I125  1  0.33057161  0.83179248  0.83269690  1
  I  I126  1  0.66784982  0.16830873  0.15875489  1
  I  I127  1  0.66669689  0.16583131  0.50646993  1
  I  I128  1  0.67009057  0.16769906  0.83594252  1
  I  I129  1  0.66421118  0.49934375  0.16103692  1
  I  I130  1  0.66660183  0.50010016  0.50729385  1
  I  I131  1  0.66726397  0.50017307  0.83265880  1
  I  I132  1  0.67028193  0.83283476  0.15722973  1
  I  I133  1  0.66707840  0.83415761  0.50378571  1
  I  I134  1  0.67057165  0.83181884  0.83771439  1
