# generated using pymatgen
data_Cs27Sn13Pb14I81
_symmetry_space_group_name_H-M   'P 1'
_cell_length_a   18.97683465
_cell_length_b   18.97262357
_cell_length_c   18.98117825
_cell_angle_alpha   89.99915565
_cell_angle_beta   90.00101678
_cell_angle_gamma   90.00395985
_symmetry_Int_Tables_number   1
_chemical_formula_structural   Cs27Sn13Pb14I81
_chemical_formula_sum   'Cs27 Sn13 Pb14 I81'
_cell_volume   6833.98985714
_cell_formula_units_Z   1
loop_
 _symmetry_equiv_pos_site_id
 _symmetry_equiv_pos_as_xyz
  1  'x, y, z'
loop_
 _atom_site_type_symbol
 _atom_site_label
 _atom_site_symmetry_multiplicity
 _atom_site_fract_x
 _atom_site_fract_y
 _atom_site_fract_z
 _atom_site_occupancy
  Cs  Cs0  1  -0.00250110  0.00031649  -0.00183757  1
  Cs  Cs1  1  0.00157484  0.00060549  0.33375537  1
  Cs  Cs2  1  -0.00182205  -0.00083450  0.66642373  1
  Cs  Cs3  1  0.00218807  0.33399041  0.00160222  1
  Cs  Cs4  1  0.00059575  0.33292147  0.33284932  1
  Cs  Cs5  1  0.00123039  0.33453276  0.66657505  1
  Cs  Cs6  1  -0.00039804  0.66755822  -0.00376778  1
  Cs  Cs7  1  0.00346696  0.66566728  0.33534665  1
  Cs  Cs8  1  -0.00230055  0.66738624  0.66635631  1
  Cs  Cs9  1  0.33543178  -0.00050172  0.00013992  1
  Cs  Cs10  1  0.33227342  -0.00073074  0.33175941  1
  Cs  Cs11  1  0.33507138  0.00193313  0.66647268  1
  Cs  Cs12  1  0.33477645  0.33496333  -0.00945744  1
  Cs  Cs13  1  0.33025625  0.33321772  0.33590703  1
  Cs  Cs14  1  0.33397223  0.33060082  0.67068232  1
  Cs  Cs15  1  0.33697382  0.66600057  0.00322117  1
  Cs  Cs16  1  0.33068346  0.66754664  0.33270409  1
  Cs  Cs17  1  0.33385999  0.66730257  0.66441497  1
  Cs  Cs18  1  0.67021983  -0.00037426  0.00216523  1
  Cs  Cs19  1  0.66657207  0.00287714  0.33282995  1
  Cs  Cs20  1  0.66832697  -0.00219695  0.66587714  1
  Cs  Cs21  1  0.66016355  0.34072067  0.00988844  1
  Cs  Cs22  1  0.66715095  0.33171616  0.32676562  1
  Cs  Cs23  1  0.66385767  0.33460727  0.66592529  1
  Cs  Cs24  1  0.66346390  0.66307241  0.00114758  1
  Cs  Cs25  1  0.66600308  0.66402861  0.33472412  1
  Cs  Cs26  1  0.66857310  0.66827325  0.66548652  1
  Sn  Sn27  1  0.83407380  0.16608604  0.50095530  1
  Sn  Sn28  1  0.83258692  0.83411065  0.49950270  1
  Sn  Sn29  1  0.50038712  0.83357875  0.83247200  1
  Sn  Sn30  1  0.50075049  0.83279007  0.50048946  1
  Sn  Sn31  1  0.16689247  0.83344301  0.83317606  1
  Sn  Sn32  1  0.16668554  0.16727073  0.16687829  1
  Sn  Sn33  1  0.83302201  0.83388335  0.83344470  1
  Sn  Sn34  1  0.16748047  0.49909638  0.49972949  1
  Sn  Sn35  1  0.16587887  0.16729883  0.49957330  1
  Sn  Sn36  1  0.83357739  0.83294713  0.16713808  1
  Sn  Sn37  1  0.16650621  0.49917761  0.16710284  1
  Sn  Sn38  1  0.49917854  0.50050736  0.49999824  1
  Sn  Sn39  1  0.83290584  0.16686057  0.83287514  1
  Pb  Pb40  1  0.83608218  0.50267519  0.16679709  1
  Pb  Pb41  1  0.16491032  0.16461071  0.83296412  1
  Pb  Pb42  1  0.83340083  0.49931328  0.50005986  1
  Pb  Pb43  1  0.50012207  0.50244007  0.83054537  1
  Pb  Pb44  1  0.50383145  0.16427451  0.83332322  1
  Pb  Pb45  1  0.16671504  0.83366512  0.50150433  1
  Pb  Pb46  1  0.50260653  0.83343575  0.16727798  1
  Pb  Pb47  1  0.83314109  0.49928170  0.83337634  1
  Pb  Pb48  1  0.49646389  0.16666334  0.16658713  1
  Pb  Pb49  1  0.16482966  0.83339788  0.16421055  1
  Pb  Pb50  1  0.83508921  0.16516147  0.16671322  1
  Pb  Pb51  1  0.49685524  0.50004131  0.16970940  1
  Pb  Pb52  1  0.50025421  0.16643934  0.49989610  1
  Pb  Pb53  1  0.16656111  0.50243015  0.83276069  1
  I  I54  1  0.16442819  0.00248440  0.17133004  1
  I  I55  1  0.16516018  0.00256209  0.49689589  1
  I  I56  1  0.16702215  -0.00348507  0.83282447  1
  I  I57  1  0.16455929  0.33312438  0.17237796  1
  I  I58  1  0.16600124  0.33301327  0.49629302  1
  I  I59  1  0.16412395  0.33314315  0.83377253  1
  I  I60  1  0.16489972  0.66428795  0.17121019  1
  I  I61  1  0.16728316  0.66461755  0.49710780  1
  I  I62  1  0.16270524  0.67071637  0.83269672  1
  I  I63  1  0.49652846  -0.00042822  0.16936037  1
  I  I64  1  0.50106790  -0.00329380  0.50459098  1
  I  I65  1  0.49737603  -0.00441741  0.82530224  1
  I  I66  1  0.50580256  0.33359184  0.16896767  1
  I  I67  1  0.49847075  0.33599067  0.49868063  1
  I  I68  1  0.50022433  0.33332705  0.83240867  1
  I  I69  1  0.49778921  0.66688993  0.16465824  1
  I  I70  1  0.49974540  0.66790275  0.50397415  1
  I  I71  1  0.50307170  0.67112004  0.83186303  1
  I  I72  1  0.83668748  -0.00300787  0.16617586  1
  I  I73  1  0.83416804  -0.00111020  0.50119323  1
  I  I74  1  0.83420400  -0.00196276  0.83186234  1
  I  I75  1  0.83244993  0.33316143  0.16693352  1
  I  I76  1  0.83511172  0.32979303  0.50510490  1
  I  I77  1  0.83725346  0.32948593  0.82580912  1
  I  I78  1  0.83535936  0.67105085  0.16597739  1
  I  I79  1  0.83328064  0.66994382  0.50184245  1
  I  I80  1  0.83398615  0.67092842  0.83163540  1
  I  I81  1  0.16437627  0.16915488  0.00230074  1
  I  I82  1  0.16067714  0.16933388  0.33480430  1
  I  I83  1  0.16456444  0.16963227  0.66354704  1
  I  I84  1  0.16405565  0.49698454  0.00271000  1
  I  I85  1  0.16984278  0.49770673  0.33462323  1
  I  I86  1  0.16995779  0.49673867  0.66305736  1
  I  I87  1  0.16557488  0.83352133  -0.00358704  1
  I  I88  1  0.16579931  0.83315562  0.33340535  1
  I  I89  1  0.16202472  0.83319253  0.66926134  1
  I  I90  1  0.49977211  0.16368540  -0.00023889  1
  I  I91  1  0.50534355  0.16341186  0.33377213  1
  I  I92  1  0.49422707  0.16880285  0.66647352  1
  I  I93  1  0.49913982  0.50151359  0.00014871  1
  I  I94  1  0.49894617  0.50827800  0.33759511  1
  I  I95  1  0.49320001  0.50181547  0.66255975  1
  I  I96  1  0.50017035  0.83484544  -0.00308436  1
  I  I97  1  0.50386529  0.82990358  0.33706073  1
  I  I98  1  0.50462369  0.82935793  0.66604904  1
  I  I99  1  0.83639552  0.15844426  -0.00253118  1
  I  I100  1  0.83551730  0.16139789  0.33642709  1
  I  I101  1  0.84010143  0.15676247  0.66547182  1
  I  I102  1  0.83617539  0.50103848  0.00016884  1
  I  I103  1  0.83138657  0.50193481  0.33367925  1
  I  I104  1  0.83662987  0.50510485  0.66630767  1
  I  I105  1  0.83510348  0.83756338  -0.00144227  1
  I  I106  1  0.82983459  0.83707155  0.33491148  1
  I  I107  1  0.83280039  0.83686327  0.66649268  1
  I  I108  1  0.00305015  0.16921528  0.16888072  1
  I  I109  1  -0.00004815  0.16544324  0.49983520  1
  I  I110  1  -0.00291962  0.15781774  0.83149929  1
  I  I111  1  0.00394109  0.49681959  0.17445366  1
  I  I112  1  0.00307822  0.50017707  0.49614875  1
  I  I113  1  0.00014931  0.50569008  0.83068535  1
  I  I114  1  -0.00305600  0.83344315  0.16738937  1
  I  I115  1  -0.00277960  0.83378739  0.50166841  1
  I  I116  1  -0.00147970  0.83610705  0.83311160  1
  I  I117  1  0.32799886  0.16732873  0.17456032  1
  I  I118  1  0.33026289  0.16659111  0.49543894  1
  I  I119  1  0.33336019  0.16377697  0.83361367  1
  I  I120  1  0.32899674  0.49894142  0.16879945  1
  I  I121  1  0.33246098  0.50226864  0.49586496  1
  I  I122  1  0.33318577  0.50249171  0.83521937  1
  I  I123  1  0.33308055  0.83327622  0.16568778  1
  I  I124  1  0.33557815  0.83249223  0.50521808  1
  I  I125  1  0.33383042  0.83214120  0.82794567  1
  I  I126  1  0.66714558  0.16469255  0.16731700  1
  I  I127  1  0.67002769  0.16425762  0.50502082  1
  I  I128  1  0.67182454  0.15911970  0.82473820  1
  I  I129  1  0.66647327  0.50107330  0.16682088  1
  I  I130  1  0.66411605  0.50338364  0.50285406  1
  I  I131  1  0.66652267  0.50227863  0.83087784  1
  I  I132  1  0.67069389  0.83491712  0.16266179  1
  I  I133  1  0.66758403  0.83261880  0.50460656  1
  I  I134  1  0.66760354  0.83712388  0.83127167  1
