# generated using pymatgen
data_Cs27Sn14Pb13I81
_symmetry_space_group_name_H-M   'P 1'
_cell_length_a   18.97436004
_cell_length_b   18.97848237
_cell_length_c   18.97452025
_cell_angle_alpha   90.00047121
_cell_angle_beta   90.00129933
_cell_angle_gamma   89.99940405
_symmetry_Int_Tables_number   1
_chemical_formula_structural   Cs27Sn14Pb13I81
_chemical_formula_sum   'Cs27 Sn14 Pb13 I81'
_cell_volume   6832.81121482
_cell_formula_units_Z   1
loop_
 _symmetry_equiv_pos_site_id
 _symmetry_equiv_pos_as_xyz
  1  'x, y, z'
loop_
 _atom_site_type_symbol
 _atom_site_label
 _atom_site_symmetry_multiplicity
 _atom_site_fract_x
 _atom_site_fract_y
 _atom_site_fract_z
 _atom_site_occupancy
  Cs  Cs0  1  -0.00329272  0.00153448  -0.00144571  1
  Cs  Cs1  1  -0.00515706  -0.01096278  0.33284309  1
  Cs  Cs2  1  0.00228049  -0.00142572  0.66801254  1
  Cs  Cs3  1  -0.00107689  0.33324309  0.00027031  1
  Cs  Cs4  1  -0.00051576  0.33617941  0.33145740  1
  Cs  Cs5  1  0.00112571  0.33196141  0.66741844  1
  Cs  Cs6  1  0.00436387  0.66494848  -0.00298820  1
  Cs  Cs7  1  0.00784446  0.67196851  0.33323927  1
  Cs  Cs8  1  -0.00053882  0.66967660  0.66804969  1
  Cs  Cs9  1  0.33507630  -0.00006070  -0.00042003  1
  Cs  Cs10  1  0.33417855  -0.00078880  0.33310951  1
  Cs  Cs11  1  0.33220380  0.00477434  0.66718728  1
  Cs  Cs12  1  0.33243778  0.33130470  0.00236979  1
  Cs  Cs13  1  0.33485040  0.33490705  0.33288928  1
  Cs  Cs14  1  0.33212669  0.32883191  0.66465828  1
  Cs  Cs15  1  0.33340355  0.67125454  -0.00015713  1
  Cs  Cs16  1  0.32626846  0.66444811  0.32988960  1
  Cs  Cs17  1  0.33518426  0.66692514  0.66880350  1
  Cs  Cs18  1  0.66711818  -0.00006912  0.00279893  1
  Cs  Cs19  1  0.66896604  0.00028868  0.33288306  1
  Cs  Cs20  1  0.66686681  0.00100485  0.66505275  1
  Cs  Cs21  1  0.66848193  0.33440069  0.00127900  1
  Cs  Cs22  1  0.66542866  0.33220125  0.33394850  1
  Cs  Cs23  1  0.66659295  0.33504054  0.66497569  1
  Cs  Cs24  1  0.66201712  0.66480859  -0.00432016  1
  Cs  Cs25  1  0.66695039  0.66530993  0.33614036  1
  Cs  Cs26  1  0.66647328  0.66381594  0.66777474  1
  Sn  Sn27  1  0.16703156  0.50027666  0.83293690  1
  Sn  Sn28  1  0.49985289  0.83315269  0.49973086  1
  Sn  Sn29  1  0.50053272  0.50008253  0.49909098  1
  Sn  Sn30  1  0.83271516  0.50026194  0.16772277  1
  Sn  Sn31  1  0.83306153  0.16738386  0.50060381  1
  Sn  Sn32  1  0.50100963  0.49937955  0.16730608  1
  Sn  Sn33  1  0.49916826  0.16735574  0.16695134  1
  Sn  Sn34  1  0.50122429  0.16691461  0.83346999  1
  Sn  Sn35  1  0.50081352  0.16667714  0.49975531  1
  Sn  Sn36  1  0.16676673  0.16642894  0.16743282  1
  Sn  Sn37  1  0.83311215  0.49935462  0.49887191  1
  Sn  Sn38  1  0.83332135  0.83411216  0.83338512  1
  Sn  Sn39  1  0.83225385  0.16602856  0.83243500  1
  Sn  Sn40  1  0.16628287  0.83267592  0.83321029  1
  Pb  Pb41  1  0.16622966  0.16639692  0.83481673  1
  Pb  Pb42  1  0.83282867  0.16791721  0.16727253  1
  Pb  Pb43  1  0.16650838  0.49978100  0.50217090  1
  Pb  Pb44  1  0.49787273  0.49745340  0.83330427  1
  Pb  Pb45  1  0.16669337  0.83647126  0.16405629  1
  Pb  Pb46  1  0.50027427  0.83296178  0.16930359  1
  Pb  Pb47  1  0.83155866  0.83298695  0.50188049  1
  Pb  Pb48  1  0.83287825  0.82930141  0.16378442  1
  Pb  Pb49  1  0.83463505  0.49952990  0.83284363  1
  Pb  Pb50  1  0.50029606  0.83602071  0.83138859  1
  Pb  Pb51  1  0.16959308  0.83350323  0.50249500  1
  Pb  Pb52  1  0.16564332  0.16659849  0.49691890  1
  Pb  Pb53  1  0.16707088  0.49855082  0.16484219  1
  I  I54  1  0.17405919  0.00428110  0.16465015  1
  I  I55  1  0.16769916  0.00022739  0.50256568  1
  I  I56  1  0.16562438  -0.00203163  0.83492276  1
  I  I57  1  0.16910016  0.33087912  0.16196288  1
  I  I58  1  0.17056309  0.33317065  0.50508418  1
  I  I59  1  0.16655608  0.33472204  0.83509211  1
  I  I60  1  0.16705666  0.66665802  0.16619898  1
  I  I61  1  0.16690846  0.66654027  0.49854730  1
  I  I62  1  0.16070870  0.66714973  0.83356573  1
  I  I63  1  0.49540482  0.00347980  0.16639727  1
  I  I64  1  0.50305603  0.00199705  0.50130551  1
  I  I65  1  0.49825848  0.00421006  0.83345574  1
  I  I66  1  0.49961470  0.33268338  0.17062696  1
  I  I67  1  0.50390414  0.33284323  0.49957293  1
  I  I68  1  0.50419413  0.32940710  0.82961212  1
  I  I69  1  0.50416131  0.66295016  0.16994889  1
  I  I70  1  0.50430788  0.66509783  0.49739052  1
  I  I71  1  0.50106526  0.66657708  0.83294313  1
  I  I72  1  0.83423891  -0.00001505  0.16837447  1
  I  I73  1  0.82872992  0.00294956  0.50231739  1
  I  I74  1  0.83602221  0.00148127  0.82799452  1
  I  I75  1  0.83213515  0.33585612  0.16451983  1
  I  I76  1  0.82519044  0.33292712  0.50300612  1
  I  I77  1  0.83124859  0.33054144  0.83266005  1
  I  I78  1  0.82716160  0.66137831  0.17191779  1
  I  I79  1  0.82790914  0.66360327  0.49898129  1
  I  I80  1  0.83705112  0.66847438  0.83362309  1
  I  I81  1  0.17183383  0.16737158  0.00241568  1
  I  I82  1  0.17296045  0.17048809  0.32941005  1
  I  I83  1  0.16985274  0.16635610  0.66672343  1
  I  I84  1  0.16557662  0.50247914  -0.00292480  1
  I  I85  1  0.16649511  0.49845842  0.33323665  1
  I  I86  1  0.16646818  0.50221142  0.67005366  1
  I  I87  1  0.16432459  0.82872847  -0.00390477  1
  I  I88  1  0.16682565  0.83374465  0.33326325  1
  I  I89  1  0.16214816  0.83115765  0.67044684  1
  I  I90  1  0.49927073  0.17102628  0.00031261  1
  I  I91  1  0.49959958  0.16749722  0.33397055  1
  I  I92  1  0.50361616  0.16678064  0.66592776  1
  I  I93  1  0.50347190  0.49455319  0.00271965  1
  I  I94  1  0.50345815  0.49457754  0.33385945  1
  I  I95  1  0.50362818  0.49913511  0.66350208  1
  I  I96  1  0.49916426  0.83337670  -0.00028570  1
  I  I97  1  0.50190423  0.83906143  0.33722833  1
  I  I98  1  0.50007895  0.83226275  0.66360254  1
  I  I99  1  0.83100866  0.16484573  -0.00236412  1
  I  I100  1  0.82978289  0.16962520  0.33629558  1
  I  I101  1  0.82581338  0.16910024  0.66657525  1
  I  I102  1  0.83027340  0.49906938  0.00201481  1
  I  I103  1  0.82873283  0.49207905  0.33429273  1
  I  I104  1  0.82893155  0.49888874  0.66383470  1
  I  I105  1  0.83637795  0.84035765  -0.00429685  1
  I  I106  1  0.83223214  0.83715849  0.33357783  1
  I  I107  1  0.83662782  0.83318901  0.66984729  1
  I  I108  1  0.00142656  0.16993347  0.16328559  1
  I  I109  1  -0.00388516  0.17229801  0.50529065  1
  I  I110  1  -0.00292867  0.16630952  0.83088494  1
  I  I111  1  -0.00251888  0.49681174  0.16874985  1
  I  I112  1  -0.00360884  0.49409233  0.49744027  1
  I  I113  1  0.00231231  0.49869082  0.83431771  1
  I  I114  1  -0.00020257  0.83456137  0.16963880  1
  I  I115  1  -0.00025154  0.83379665  0.49954711  1
  I  I116  1  -0.00045243  0.83573967  0.83244217  1
  I  I117  1  0.33594040  0.17243069  0.16516283  1
  I  I118  1  0.33688473  0.16773539  0.50383512  1
  I  I119  1  0.33595146  0.16732889  0.83068264  1
  I  I120  1  0.33663418  0.49685007  0.17073083  1
  I  I121  1  0.33708392  0.49826673  0.49682776  1
  I  I122  1  0.33043660  0.50442582  0.83383013  1
  I  I123  1  0.33353178  0.82946418  0.16431616  1
  I  I124  1  0.33777343  0.83446852  0.50210975  1
  I  I125  1  0.33122846  0.83061178  0.83170276  1
  I  I126  1  0.66350706  0.16898584  0.16610166  1
  I  I127  1  0.66555015  0.16742501  0.49976805  1
  I  I128  1  0.66690504  0.16181780  0.83435921  1
  I  I129  1  0.66566664  0.49291596  0.16899411  1
  I  I130  1  0.66589836  0.49848649  0.49742970  1
  I  I131  1  0.66644883  0.50282153  0.83425586  1
  I  I132  1  0.66657298  0.83929123  0.16275967  1
  I  I133  1  0.66366164  0.83425424  0.50343181  1
  I  I134  1  0.66915843  0.83548836  0.83183251  1
