# generated using pymatgen
data_Cs27Sn13Pb14I81
_symmetry_space_group_name_H-M   'P 1'
_cell_length_a   18.97433542
_cell_length_b   18.98222477
_cell_length_c   18.97445902
_cell_angle_alpha   89.99859793
_cell_angle_beta   89.99842077
_cell_angle_gamma   90.00062128
_symmetry_Int_Tables_number   1
_chemical_formula_structural   Cs27Sn13Pb14I81
_chemical_formula_sum   'Cs27 Sn13 Pb14 I81'
_cell_volume   6834.12766883
_cell_formula_units_Z   1
loop_
 _symmetry_equiv_pos_site_id
 _symmetry_equiv_pos_as_xyz
  1  'x, y, z'
loop_
 _atom_site_type_symbol
 _atom_site_label
 _atom_site_symmetry_multiplicity
 _atom_site_fract_x
 _atom_site_fract_y
 _atom_site_fract_z
 _atom_site_occupancy
  Cs  Cs0  1  0.00194523  0.00131758  -0.00023811  1
  Cs  Cs1  1  -0.00091495  0.00035052  0.33468862  1
  Cs  Cs2  1  0.00130035  0.00152994  0.66595792  1
  Cs  Cs3  1  -0.00014325  0.33495065  0.00246536  1
  Cs  Cs4  1  -0.00135292  0.33558449  0.33027230  1
  Cs  Cs5  1  -0.00128565  0.32890595  0.66859769  1
  Cs  Cs6  1  -0.00441757  0.66256228  -0.00060876  1
  Cs  Cs7  1  0.00464442  0.66120255  0.33515249  1
  Cs  Cs8  1  0.00028669  0.66773082  0.66476739  1
  Cs  Cs9  1  0.33238222  0.00038995  0.00029510  1
  Cs  Cs10  1  0.33404263  -0.00037816  0.33229360  1
  Cs  Cs11  1  0.33022369  0.00225451  0.66649163  1
  Cs  Cs12  1  0.33205353  0.33154273  0.00127420  1
  Cs  Cs13  1  0.33645457  0.33587359  0.33217602  1
  Cs  Cs14  1  0.33839141  0.33304117  0.66755285  1
  Cs  Cs15  1  0.33568270  0.66787661  -0.00020380  1
  Cs  Cs16  1  0.32835857  0.66461283  0.33394768  1
  Cs  Cs17  1  0.33315967  0.66341416  0.66551034  1
  Cs  Cs18  1  0.66647990  -0.00640762  0.00312280  1
  Cs  Cs19  1  0.66678652  -0.00038105  0.33301769  1
  Cs  Cs20  1  0.66750375  0.00057535  0.66418508  1
  Cs  Cs21  1  0.66764812  0.33480672  0.00084650  1
  Cs  Cs22  1  0.66483489  0.33130219  0.33432535  1
  Cs  Cs23  1  0.66439459  0.33458770  0.66521097  1
  Cs  Cs24  1  0.66920451  0.67355896  -0.00810010  1
  Cs  Cs25  1  0.66731042  0.67328128  0.33193462  1
  Cs  Cs26  1  0.66672051  0.66507285  0.67416503  1
  Sn  Sn27  1  0.83410550  0.16691293  0.50053603  1
  Sn  Sn28  1  0.16736343  0.16601023  0.16794392  1
  Sn  Sn29  1  0.50037550  0.83329746  0.50033302  1
  Sn  Sn30  1  0.83246920  0.83316659  0.50012676  1
  Sn  Sn31  1  0.16677776  0.50099165  0.83327502  1
  Sn  Sn32  1  0.16659767  0.83196194  0.83422125  1
  Sn  Sn33  1  0.50068893  0.50005998  0.16632658  1
  Sn  Sn34  1  0.49941196  0.16728515  0.16569556  1
  Sn  Sn35  1  0.16644789  0.83388701  0.16575105  1
  Sn  Sn36  1  0.50152379  0.16631221  0.83449840  1
  Sn  Sn37  1  0.83179707  0.16639213  0.83308948  1
  Sn  Sn38  1  0.83304752  0.49980937  0.49990113  1
  Sn  Sn39  1  0.16630962  0.16703023  0.49864054  1
  Pb  Pb40  1  0.83572751  0.83574595  0.83117484  1
  Pb  Pb41  1  0.16813527  0.49975158  0.16484866  1
  Pb  Pb42  1  0.83310210  0.16656937  0.16669139  1
  Pb  Pb43  1  0.49774785  0.83578862  0.83107016  1
  Pb  Pb44  1  0.83659439  0.83322302  0.16905429  1
  Pb  Pb45  1  0.49838895  0.49783837  0.83550060  1
  Pb  Pb46  1  0.83510710  0.49758334  0.83139321  1
  Pb  Pb47  1  0.49806147  0.83357661  0.16821710  1
  Pb  Pb48  1  0.16508321  0.49660547  0.50212704  1
  Pb  Pb49  1  0.16662855  0.16661122  0.83376223  1
  Pb  Pb50  1  0.50021877  0.16554287  0.49954777  1
  Pb  Pb51  1  0.16639894  0.83491622  0.49987106  1
  Pb  Pb52  1  0.83009017  0.50020014  0.16858328  1
  Pb  Pb53  1  0.50244581  0.50288579  0.49804537  1
  I  I54  1  0.17228169  0.00132227  0.16494846  1
  I  I55  1  0.16183006  0.00289486  0.50151868  1
  I  I56  1  0.16661559  -0.00159221  0.83349936  1
  I  I57  1  0.16859757  0.33019797  0.16843989  1
  I  I58  1  0.16210111  0.32856997  0.49647570  1
  I  I59  1  0.16626820  0.33459666  0.83238367  1
  I  I60  1  0.16860262  0.66915009  0.16593956  1
  I  I61  1  0.16567091  0.66659195  0.49787773  1
  I  I62  1  0.16685556  0.66759152  0.83776475  1
  I  I63  1  0.49691788  0.00302985  0.16467733  1
  I  I64  1  0.50434296  -0.00203393  0.49826428  1
  I  I65  1  0.50055633  0.00383625  0.83900493  1
  I  I66  1  0.49332078  0.33122750  0.16462955  1
  I  I67  1  0.49998086  0.33326618  0.50140254  1
  I  I68  1  0.49956838  0.32954956  0.83238994  1
  I  I69  1  0.49724832  0.66469517  0.17151283  1
  I  I70  1  0.50288588  0.67051421  0.49764892  1
  I  I71  1  0.49986948  0.66684538  0.83399183  1
  I  I72  1  0.82972270  0.00015693  0.16956201  1
  I  I73  1  0.83418037  0.00093150  0.50381875  1
  I  I74  1  0.83311820  0.00367315  0.82671050  1
  I  I75  1  0.83841709  0.33306842  0.16904720  1
  I  I76  1  0.83888216  0.33182571  0.50386269  1
  I  I77  1  0.83335705  0.32951566  0.82680586  1
  I  I78  1  0.83358666  0.66675229  0.16959637  1
  I  I79  1  0.82922040  0.66728791  0.49776424  1
  I  I80  1  0.83350704  0.66680998  0.83141278  1
  I  I81  1  0.16786895  0.16539941  0.00246451  1
  I  I82  1  0.16666189  0.16054737  0.33271894  1
  I  I83  1  0.16527225  0.16542410  0.66484894  1
  I  I84  1  0.16677761  0.49761643  -0.00284604  1
  I  I85  1  0.16644579  0.50220260  0.33335853  1
  I  I86  1  0.16679436  0.50476261  0.66974764  1
  I  I87  1  0.16876463  0.83802943  0.00033090  1
  I  I88  1  0.16701585  0.83724349  0.33122546  1
  I  I89  1  0.16623060  0.83305754  0.66861227  1
  I  I90  1  0.49742539  0.16991302  0.00071275  1
  I  I91  1  0.49809993  0.16836070  0.33073269  1
  I  I92  1  0.49906804  0.16420590  0.66852189  1
  I  I93  1  0.49790468  0.49722780  0.00331599  1
  I  I94  1  0.49821222  0.49145386  0.33045709  1
  I  I95  1  0.49907594  0.49874932  0.66675110  1
  I  I96  1  0.49956284  0.83263996  -0.00007344  1
  I  I97  1  0.50205400  0.83691051  0.33606282  1
  I  I98  1  0.50194928  0.83607107  0.66335124  1
  I  I99  1  0.83443364  0.16733962  -0.00272867  1
  I  I100  1  0.83486825  0.16596521  0.33670152  1
  I  I101  1  0.83518021  0.16622240  0.66527145  1
  I  I102  1  0.83495621  0.49695946  -0.00034771  1
  I  I103  1  0.83569282  0.49625242  0.33714770  1
  I  I104  1  0.83372005  0.50117570  0.66319799  1
  I  I105  1  0.83241490  0.83513089  -0.00033820  1
  I  I106  1  0.83101598  0.83837640  0.33763408  1
  I  I107  1  0.83253036  0.83308302  0.66288624  1
  I  I108  1  0.00302973  0.16253222  0.16747662  1
  I  I109  1  -0.00079106  0.16351619  0.50172301  1
  I  I110  1  -0.00182718  0.16615474  0.83021387  1
  I  I111  1  0.00012908  0.49946079  0.16670728  1
  I  I112  1  -0.00295057  0.50485915  0.49967280  1
  I  I113  1  0.00309699  0.50062386  0.83406165  1
  I  I114  1  0.00468947  0.84116439  0.16476730  1
  I  I115  1  -0.00259630  0.83385572  0.50031203  1
  I  I116  1  0.00367603  0.83373851  0.83442368  1
  I  I117  1  0.33289415  0.16629712  0.16647314  1
  I  I118  1  0.33114586  0.16271152  0.50050311  1
  I  I119  1  0.33513898  0.16636382  0.83346238  1
  I  I120  1  0.33583198  0.49702670  0.16744689  1
  I  I121  1  0.33342698  0.50048520  0.50022051  1
  I  I122  1  0.33035802  0.50062128  0.83229056  1
  I  I123  1  0.33012750  0.83626194  0.16666839  1
  I  I124  1  0.33483273  0.83741876  0.49956864  1
  I  I125  1  0.32981766  0.83384045  0.83379260  1
  I  I126  1  0.66356504  0.17083018  0.16674999  1
  I  I127  1  0.66955931  0.16724414  0.50122354  1
  I  I128  1  0.66672707  0.16754487  0.83110188  1
  I  I129  1  0.66237676  0.49053596  0.16821772  1
  I  I130  1  0.67027740  0.49250354  0.49975807  1
  I  I131  1  0.66670102  0.49971930  0.83316263  1
  I  I132  1  0.66654087  0.83440626  0.16788847  1
  I  I133  1  0.66763951  0.83752683  0.49842991  1
  I  I134  1  0.66674003  0.83304752  0.83368907  1
