# generated using pymatgen
data_Cs27Sn13Pb14I81
_symmetry_space_group_name_H-M   'P 1'
_cell_length_a   18.98175054
_cell_length_b   18.97949144
_cell_length_c   18.97092685
_cell_angle_alpha   89.99963192
_cell_angle_beta   90.00186743
_cell_angle_gamma   90.00015096
_symmetry_Int_Tables_number   1
_chemical_formula_structural   Cs27Sn13Pb14I81
_chemical_formula_sum   'Cs27 Sn13 Pb14 I81'
_cell_volume   6834.54145131
_cell_formula_units_Z   1
loop_
 _symmetry_equiv_pos_site_id
 _symmetry_equiv_pos_as_xyz
  1  'x, y, z'
loop_
 _atom_site_type_symbol
 _atom_site_label
 _atom_site_symmetry_multiplicity
 _atom_site_fract_x
 _atom_site_fract_y
 _atom_site_fract_z
 _atom_site_occupancy
  Cs  Cs0  1  -0.00147341  0.00019236  -0.00031812  1
  Cs  Cs1  1  0.00858442  0.00675956  0.33845124  1
  Cs  Cs2  1  0.00137877  -0.00250405  0.66490492  1
  Cs  Cs3  1  -0.00013906  0.33506382  -0.00119586  1
  Cs  Cs4  1  -0.00186189  0.32920651  0.33337358  1
  Cs  Cs5  1  0.00029701  0.33636554  0.66803664  1
  Cs  Cs6  1  -0.00132691  0.66477281  -0.00205770  1
  Cs  Cs7  1  -0.00028959  0.66739598  0.33641246  1
  Cs  Cs8  1  -0.00076097  0.66660887  0.66637840  1
  Cs  Cs9  1  0.33355395  -0.00064578  0.00443997  1
  Cs  Cs10  1  0.32238215  0.00411462  0.32757728  1
  Cs  Cs11  1  0.33552345  0.00189938  0.66594789  1
  Cs  Cs12  1  0.33582754  0.33497823  0.00029528  1
  Cs  Cs13  1  0.33384575  0.33103945  0.33312291  1
  Cs  Cs14  1  0.33469904  0.33445246  0.66684838  1
  Cs  Cs15  1  0.33404985  0.66626066  0.00203489  1
  Cs  Cs16  1  0.33498371  0.66740258  0.33094098  1
  Cs  Cs17  1  0.33475344  0.66464072  0.66745837  1
  Cs  Cs18  1  0.66790757  -0.00056037  -0.00191864  1
  Cs  Cs19  1  0.66839597  0.01122450  0.33269288  1
  Cs  Cs20  1  0.66397144  -0.00124350  0.66839553  1
  Cs  Cs21  1  0.66653115  0.33256048  0.00102309  1
  Cs  Cs22  1  0.66857268  0.32708476  0.33251058  1
  Cs  Cs23  1  0.66442852  0.33298827  0.66513913  1
  Cs  Cs24  1  0.66771290  0.66735063  0.00063217  1
  Cs  Cs25  1  0.66518432  0.66498118  0.33393511  1
  Cs  Cs26  1  0.66614272  0.66730939  0.66560703  1
  Sn  Sn27  1  0.50124549  0.50109813  0.83272656  1
  Sn  Sn28  1  0.83425616  0.16664558  0.83322519  1
  Sn  Sn29  1  0.16565656  0.50058235  0.16801607  1
  Sn  Sn30  1  0.49921976  0.50103403  0.50061656  1
  Sn  Sn31  1  0.16607916  0.16561446  0.83336642  1
  Sn  Sn32  1  0.83341579  0.83270996  0.16680545  1
  Sn  Sn33  1  0.83203717  0.50003721  0.83384807  1
  Sn  Sn34  1  0.83422869  0.50129476  0.16601918  1
  Sn  Sn35  1  0.50007711  0.83294396  0.49990414  1
  Sn  Sn36  1  0.49975183  0.83210692  0.83286963  1
  Sn  Sn37  1  0.16733569  0.50058923  0.49863696  1
  Sn  Sn38  1  0.16691630  0.83415807  0.83339627  1
  Sn  Sn39  1  0.83340086  0.83317968  0.83374474  1
  Pb  Pb40  1  0.49993273  0.16645790  0.83351831  1
  Pb  Pb41  1  0.16391364  0.83111048  0.16446382  1
  Pb  Pb42  1  0.16687811  0.50033061  0.83341695  1
  Pb  Pb43  1  0.49984361  0.16626587  0.16648266  1
  Pb  Pb44  1  0.83360013  0.16647801  0.16428702  1
  Pb  Pb45  1  0.49964291  0.16629782  0.50017950  1
  Pb  Pb46  1  0.83347460  0.16636336  0.50340896  1
  Pb  Pb47  1  0.83102404  0.83341956  0.49951337  1
  Pb  Pb48  1  0.83280076  0.50007432  0.49966085  1
  Pb  Pb49  1  0.16917415  0.83114376  0.50221095  1
  Pb  Pb50  1  0.50258783  0.83346074  0.16705569  1
  Pb  Pb51  1  0.16637058  0.16964953  0.16357387  1
  Pb  Pb52  1  0.50071609  0.50000787  0.16696919  1
  Pb  Pb53  1  0.16674984  0.16957362  0.50298983  1
  I  I54  1  0.16632911  -0.00016286  0.16752087  1
  I  I55  1  0.16775080  -0.00016400  0.49924903  1
  I  I56  1  0.16320991  -0.00096239  0.83298867  1
  I  I57  1  0.16049126  0.33775971  0.16772672  1
  I  I58  1  0.17297454  0.33774743  0.49919695  1
  I  I59  1  0.16290296  0.33190075  0.83325932  1
  I  I60  1  0.16513458  0.66308548  0.16627675  1
  I  I61  1  0.16799896  0.66305093  0.50038629  1
  I  I62  1  0.16447343  0.66896012  0.83320793  1
  I  I63  1  0.50286845  -0.00066511  0.16466782  1
  I  I64  1  0.50355639  -0.00359671  0.50825648  1
  I  I65  1  0.50289696  -0.00356114  0.82926344  1
  I  I66  1  0.50213938  0.33406948  0.16480961  1
  I  I67  1  0.49669651  0.33706458  0.50572692  1
  I  I68  1  0.50208330  0.33669394  0.82992290  1
  I  I69  1  0.49819394  0.66650967  0.16537302  1
  I  I70  1  0.49689790  0.66561679  0.50639475  1
  I  I71  1  0.50248677  0.66648974  0.82946114  1
  I  I72  1  0.82955663  -0.00311040  0.16017745  1
  I  I73  1  0.83036645  -0.00028401  0.49976242  1
  I  I74  1  0.83299066  -0.00122052  0.83701581  1
  I  I75  1  0.83601038  0.33673829  0.16220871  1
  I  I76  1  0.83089256  0.33369029  0.50064033  1
  I  I77  1  0.83426408  0.33455685  0.83659885  1
  I  I78  1  0.83640754  0.66567011  0.15640944  1
  I  I79  1  0.83547310  0.66650251  0.50526174  1
  I  I80  1  0.83316249  0.66657917  0.83721749  1
  I  I81  1  0.16239677  0.16527814  -0.00432576  1
  I  I82  1  0.16752556  0.16542418  0.33328619  1
  I  I83  1  0.16218849  0.16528335  0.67092600  1
  I  I84  1  0.16516513  0.49955719  0.00162090  1
  I  I85  1  0.16691440  0.50134879  0.33331355  1
  I  I86  1  0.16798889  0.49946049  0.66514849  1
  I  I87  1  0.17141952  0.83399992  -0.00424588  1
  I  I88  1  0.16671970  0.83348973  0.33328580  1
  I  I89  1  0.16091276  0.83365509  0.67089204  1
  I  I90  1  0.49972458  0.16867262  -0.00097479  1
  I  I91  1  0.50193419  0.16835481  0.33370470  1
  I  I92  1  0.50108666  0.16813915  0.66716023  1
  I  I93  1  0.50000845  0.50368161  -0.00324064  1
  I  I94  1  0.49849871  0.50488115  0.33651500  1
  I  I95  1  0.49933419  0.50329644  0.66787630  1
  I  I96  1  0.49871973  0.82874853  -0.00376110  1
  I  I97  1  0.50249709  0.82557288  0.33656281  1
  I  I98  1  0.50223905  0.82866694  0.66885899  1
  I  I99  1  0.83674752  0.16729276  -0.00419024  1
  I  I100  1  0.83133430  0.16761073  0.33299304  1
  I  I101  1  0.83645484  0.16775067  0.67213501  1
  I  I102  1  0.83422166  0.50050167  -0.00163461  1
  I  I103  1  0.83426924  0.50542578  0.33005312  1
  I  I104  1  0.83357323  0.50079399  0.67017868  1
  I  I105  1  0.83141999  0.83206384  -0.00247471  1
  I  I106  1  0.83049646  0.82471697  0.33004220  1
  I  I107  1  0.83489491  0.83199937  0.67063020  1
  I  I108  1  -0.00008563  0.16614762  0.16681101  1
  I  I109  1  0.00028877  0.16862813  0.49931305  1
  I  I110  1  -0.00079918  0.16520430  0.83392430  1
  I  I111  1  -0.00105652  0.50331332  0.16386603  1
  I  I112  1  0.00232626  0.49905295  0.50124009  1
  I  I113  1  -0.00240337  0.50177964  0.83378721  1
  I  I114  1  -0.00396195  0.82989366  0.15852972  1
  I  I115  1  0.00019765  0.83120083  0.50250293  1
  I  I116  1  -0.00086737  0.83288368  0.83777947  1
  I  I117  1  0.33268602  0.16855259  0.16314452  1
  I  I118  1  0.33314523  0.16642724  0.50424273  1
  I  I119  1  0.33056510  0.16520647  0.83275105  1
  I  I120  1  0.33101186  0.49894892  0.16537579  1
  I  I121  1  0.33412215  0.50345320  0.50262880  1
  I  I122  1  0.33562892  0.50229870  0.83279931  1
  I  I123  1  0.33312348  0.83189759  0.16431957  1
  I  I124  1  0.33714812  0.82973460  0.50761259  1
  I  I125  1  0.33388912  0.83211994  0.82845216  1
  I  I126  1  0.66732909  0.16958342  0.16475655  1
  I  I127  1  0.66647540  0.16977812  0.50104339  1
  I  I128  1  0.66967461  0.16528889  0.83420169  1
  I  I129  1  0.67004992  0.50369178  0.16376619  1
  I  I130  1  0.66350249  0.50409625  0.50300102  1
  I  I131  1  0.66723813  0.50198113  0.83335217  1
  I  I132  1  0.67053076  0.82489989  0.15835202  1
  I  I133  1  0.66305524  0.82416549  0.50825783  1
  I  I134  1  0.66708658  0.83281934  0.83329790  1
