# generated using pymatgen
data_Cs27Sn14Pb13I81
_symmetry_space_group_name_H-M   'P 1'
_cell_length_a   18.97577019
_cell_length_b   18.97496374
_cell_length_c   18.97582106
_cell_angle_alpha   89.99965279
_cell_angle_beta   90.00016432
_cell_angle_gamma   89.99882692
_symmetry_Int_Tables_number   1
_chemical_formula_structural   Cs27Sn14Pb13I81
_chemical_formula_sum   'Cs27 Sn14 Pb13 I81'
_cell_volume   6832.52049048
_cell_formula_units_Z   1
loop_
 _symmetry_equiv_pos_site_id
 _symmetry_equiv_pos_as_xyz
  1  'x, y, z'
loop_
 _atom_site_type_symbol
 _atom_site_label
 _atom_site_symmetry_multiplicity
 _atom_site_fract_x
 _atom_site_fract_y
 _atom_site_fract_z
 _atom_site_occupancy
  Cs  Cs0  1  0.00043753  -0.00138585  -0.00098456  1
  Cs  Cs1  1  0.00241080  0.00153564  0.33700715  1
  Cs  Cs2  1  -0.00144307  0.00116115  0.66524369  1
  Cs  Cs3  1  -0.00381239  0.33379841  -0.00266433  1
  Cs  Cs4  1  -0.00211796  0.33701140  0.34454027  1
  Cs  Cs5  1  0.01141217  0.33077033  0.66135923  1
  Cs  Cs6  1  -0.00242369  0.66789125  0.00237086  1
  Cs  Cs7  1  -0.00394776  0.66438719  0.33086957  1
  Cs  Cs8  1  0.00127135  0.66922275  0.66549059  1
  Cs  Cs9  1  0.33334114  0.00043828  0.00358066  1
  Cs  Cs10  1  0.33469324  0.00000474  0.32928516  1
  Cs  Cs11  1  0.33647309  -0.00242884  0.66652730  1
  Cs  Cs12  1  0.32996413  0.33178965  0.00000899  1
  Cs  Cs13  1  0.33166771  0.33067367  0.33250841  1
  Cs  Cs14  1  0.32629347  0.34249112  0.66639762  1
  Cs  Cs15  1  0.33278559  0.66706035  0.00096189  1
  Cs  Cs16  1  0.33345478  0.66812329  0.33182186  1
  Cs  Cs17  1  0.33500993  0.66340766  0.66644541  1
  Cs  Cs18  1  0.66633703  0.00067711  -0.00166040  1
  Cs  Cs19  1  0.66459668  0.00031605  0.33518109  1
  Cs  Cs20  1  0.66679345  -0.00088231  0.66799863  1
  Cs  Cs21  1  0.66860730  0.33074994  0.00086324  1
  Cs  Cs22  1  0.66871792  0.33672510  0.33189868  1
  Cs  Cs23  1  0.66387762  0.33221465  0.66730337  1
  Cs  Cs24  1  0.66753882  0.66674421  -0.00004774  1
  Cs  Cs25  1  0.66841548  0.66436422  0.33232170  1
  Cs  Cs26  1  0.66335511  0.66814410  0.66660347  1
  Sn  Sn27  1  0.83239761  0.83483269  0.16611882  1
  Sn  Sn28  1  0.16729266  0.49985611  0.16628722  1
  Sn  Sn29  1  0.49922646  0.83391105  0.50004882  1
  Sn  Sn30  1  0.16698143  0.83351464  0.83269159  1
  Sn  Sn31  1  0.83334215  0.83339237  0.83410494  1
  Sn  Sn32  1  0.83321581  0.49972325  0.83279266  1
  Sn  Sn33  1  0.50016755  0.16623152  0.83231780  1
  Sn  Sn34  1  0.16762649  0.83335885  0.50053129  1
  Sn  Sn35  1  0.50014819  0.16619380  0.50143919  1
  Sn  Sn36  1  0.49975661  0.83384641  0.83353310  1
  Sn  Sn37  1  0.50105665  0.83254045  0.16641124  1
  Sn  Sn38  1  0.49889603  0.50047721  0.16606657  1
  Sn  Sn39  1  0.83360523  0.16541795  0.16639788  1
  Sn  Sn40  1  0.83278894  0.16672762  0.83384004  1
  Pb  Pb41  1  0.16265137  0.16964878  0.16662995  1
  Pb  Pb42  1  0.50146993  0.16644915  0.16625187  1
  Pb  Pb43  1  0.16629017  0.83252881  0.16674561  1
  Pb  Pb44  1  0.83303598  0.49997472  0.50424894  1
  Pb  Pb45  1  0.16704764  0.16417062  0.83354672  1
  Pb  Pb46  1  0.83087497  0.16648359  0.50079487  1
  Pb  Pb47  1  0.83312912  0.49991734  0.16534183  1
  Pb  Pb48  1  0.83277501  0.83325390  0.49996314  1
  Pb  Pb49  1  0.50008466  0.50008892  0.49751055  1
  Pb  Pb50  1  0.16701530  0.50333271  0.49743674  1
  Pb  Pb51  1  0.16420082  0.50287118  0.83529617  1
  Pb  Pb52  1  0.17021079  0.16377600  0.50011802  1
  Pb  Pb53  1  0.50140477  0.49964119  0.83546250  1
  I  I54  1  0.16868544  -0.00017831  0.16696563  1
  I  I55  1  0.16678202  -0.00416065  0.50268476  1
  I  I56  1  0.16220421  -0.00431373  0.83138232  1
  I  I57  1  0.17462275  0.33731551  0.16505178  1
  I  I58  1  0.16665789  0.33346304  0.49878822  1
  I  I59  1  0.16621186  0.33350037  0.83468948  1
  I  I60  1  0.16581953  0.66488196  0.16625268  1
  I  I61  1  0.17390694  0.67102408  0.50518255  1
  I  I62  1  0.16789840  0.67114738  0.83030615  1
  I  I63  1  0.50211418  -0.00325389  0.16678716  1
  I  I64  1  0.49688650  -0.00175659  0.49858794  1
  I  I65  1  0.50450095  -0.00165066  0.83441911  1
  I  I66  1  0.49884269  0.33539166  0.16661121  1
  I  I67  1  0.50329190  0.33023376  0.50352076  1
  I  I68  1  0.50657084  0.33026032  0.83111127  1
  I  I69  1  0.50254597  0.66902843  0.16653823  1
  I  I70  1  0.49661824  0.67046135  0.50322296  1
  I  I71  1  0.50135029  0.67018135  0.83117398  1
  I  I72  1  0.82730777  -0.00146116  0.15832543  1
  I  I73  1  0.83617505  -0.00032385  0.50203357  1
  I  I74  1  0.83213085  -0.00092598  0.83779420  1
  I  I75  1  0.83207990  0.33104157  0.16089923  1
  I  I76  1  0.83016085  0.33306840  0.49580470  1
  I  I77  1  0.82635300  0.33201741  0.84029844  1
  I  I78  1  0.83250894  0.66948785  0.16243245  1
  I  I79  1  0.83162851  0.66711356  0.49784721  1
  I  I80  1  0.83334313  0.66869362  0.83850226  1
  I  I81  1  0.17237345  0.16333565  0.00006202  1
  I  I82  1  0.16721411  0.16354999  0.33333258  1
  I  I83  1  0.16040773  0.16928838  0.66685593  1
  I  I84  1  0.17101275  0.50406606  0.00281688  1
  I  I85  1  0.16923874  0.50274207  0.32968970  1
  I  I86  1  0.16417124  0.49888343  0.66677149  1
  I  I87  1  0.16796688  0.83159966  -0.00258547  1
  I  I88  1  0.17055590  0.83162223  0.33554658  1
  I  I89  1  0.16867710  0.83317897  0.66761146  1
  I  I90  1  0.50304864  0.16303041  -0.00292312  1
  I  I91  1  0.50100334  0.16258417  0.33515155  1
  I  I92  1  0.50770765  0.15644695  0.66800784  1
  I  I93  1  0.49793857  0.50573648  0.00335478  1
  I  I94  1  0.49839176  0.50453541  0.32930532  1
  I  I95  1  0.50278822  0.50249376  0.66695010  1
  I  I96  1  0.50067494  0.83325866  -0.00051908  1
  I  I97  1  0.49926199  0.83379124  0.33300284  1
  I  I98  1  0.50055286  0.83766806  0.66762886  1
  I  I99  1  0.82680814  0.16555578  -0.00134147  1
  I  I100  1  0.83171248  0.16189368  0.33056477  1
  I  I101  1  0.83062197  0.16402771  0.67061037  1
  I  I102  1  0.83282036  0.50149725  -0.00250111  1
  I  I103  1  0.83411171  0.50022730  0.33301482  1
  I  I104  1  0.83143361  0.50310456  0.67214527  1
  I  I105  1  0.83092770  0.83324228  -0.00093246  1
  I  I106  1  0.83069621  0.83645617  0.32997843  1
  I  I107  1  0.83147608  0.83388554  0.67035507  1
  I  I108  1  -0.00529412  0.15985263  0.15840503  1
  I  I109  1  0.00010746  0.16681633  0.49913256  1
  I  I110  1  -0.00342932  0.16559445  0.83908633  1
  I  I111  1  0.00150953  0.50215843  0.16417464  1
  I  I112  1  0.00018017  0.50176737  0.49553135  1
  I  I113  1  -0.00380973  0.50016471  0.83823425  1
  I  I114  1  -0.00291335  0.83392365  0.16289477  1
  I  I115  1  0.00234934  0.83135401  0.50310033  1
  I  I116  1  -0.00128904  0.83252635  0.83429363  1
  I  I117  1  0.33347367  0.16482970  0.16658725  1
  I  I118  1  0.33819851  0.16428485  0.50505198  1
  I  I119  1  0.33702552  0.16138500  0.83033922  1
  I  I120  1  0.33461488  0.50801375  0.16600657  1
  I  I121  1  0.33356918  0.49822632  0.50304120  1
  I  I122  1  0.33323796  0.49994504  0.83318223  1
  I  I123  1  0.33626347  0.83091299  0.16439204  1
  I  I124  1  0.33487851  0.83685620  0.50266490  1
  I  I125  1  0.33481894  0.83767432  0.83378304  1
  I  I126  1  0.66940865  0.16724163  0.16449841  1
  I  I127  1  0.66311010  0.15768049  0.50126102  1
  I  I128  1  0.66686582  0.16140884  0.83374407  1
  I  I129  1  0.66447749  0.50229764  0.16594226  1
  I  I130  1  0.66633450  0.50348293  0.49479264  1
  I  I131  1  0.66940822  0.50519007  0.83774362  1
  I  I132  1  0.66603251  0.83063627  0.16374492  1
  I  I133  1  0.66311550  0.83700783  0.50196501  1
  I  I134  1  0.66656112  0.83361353  0.83407915  1
