# generated using pymatgen
data_Cs27Sn13Pb14I81
_symmetry_space_group_name_H-M   'P 1'
_cell_length_a   18.98044312
_cell_length_b   18.97833937
_cell_length_c   18.97350911
_cell_angle_alpha   90.00048278
_cell_angle_beta   89.99989044
_cell_angle_gamma   90.00129544
_symmetry_Int_Tables_number   1
_chemical_formula_structural   Cs27Sn13Pb14I81
_chemical_formula_sum   'Cs27 Sn13 Pb14 I81'
_cell_volume   6834.58604990
_cell_formula_units_Z   1
loop_
 _symmetry_equiv_pos_site_id
 _symmetry_equiv_pos_as_xyz
  1  'x, y, z'
loop_
 _atom_site_type_symbol
 _atom_site_label
 _atom_site_symmetry_multiplicity
 _atom_site_fract_x
 _atom_site_fract_y
 _atom_site_fract_z
 _atom_site_occupancy
  Cs  Cs0  1  0.00092673  -0.00266959  0.00169027  1
  Cs  Cs1  1  0.00575458  0.00616222  0.32762971  1
  Cs  Cs2  1  -0.00127965  0.00042944  0.66708051  1
  Cs  Cs3  1  -0.00108325  0.33734820  -0.00144461  1
  Cs  Cs4  1  -0.00175643  0.32771503  0.33463491  1
  Cs  Cs5  1  -0.00042392  0.33427999  0.66765959  1
  Cs  Cs6  1  -0.00206890  0.66596161  0.00065860  1
  Cs  Cs7  1  0.00005229  0.66858327  0.33117632  1
  Cs  Cs8  1  -0.00100480  0.66557998  0.66821179  1
  Cs  Cs9  1  0.33544676  0.00176137  -0.00056076  1
  Cs  Cs10  1  0.32377933  0.00429245  0.33849509  1
  Cs  Cs11  1  0.33389029  -0.00118782  0.66451761  1
  Cs  Cs12  1  0.33424406  0.33417279  -0.00048040  1
  Cs  Cs13  1  0.33404071  0.33267260  0.33228816  1
  Cs  Cs14  1  0.33492922  0.33521156  0.66760084  1
  Cs  Cs15  1  0.33435786  0.66543784  -0.00052299  1
  Cs  Cs16  1  0.33482927  0.66655281  0.33485897  1
  Cs  Cs17  1  0.33387809  0.66655388  0.66550753  1
  Cs  Cs18  1  0.66376004  -0.00078427  -0.00044229  1
  Cs  Cs19  1  0.66939090  0.01027669  0.33362487  1
  Cs  Cs20  1  0.66793592  -0.00035016  0.66728024  1
  Cs  Cs21  1  0.66588895  0.33410994  0.00201270  1
  Cs  Cs22  1  0.66829078  0.32415272  0.33576036  1
  Cs  Cs23  1  0.66590026  0.33110280  0.66469032  1
  Cs  Cs24  1  0.66657424  0.66671420  0.00073195  1
  Cs  Cs25  1  0.66452693  0.66672970  0.33364222  1
  Cs  Cs26  1  0.66764944  0.66766958  0.66540090  1
  Sn  Sn27  1  0.16679454  0.83322232  0.83333301  1
  Sn  Sn28  1  0.83403389  0.16577131  0.83350803  1
  Sn  Sn29  1  0.83402244  0.50119354  0.49999978  1
  Sn  Sn30  1  0.83354234  0.83265812  0.49998533  1
  Sn  Sn31  1  0.16736355  0.50033331  0.83345539  1
  Sn  Sn32  1  0.49950444  0.50100623  0.16593441  1
  Sn  Sn33  1  0.16714062  0.50050542  0.16660394  1
  Sn  Sn34  1  0.49985467  0.83297247  0.16662455  1
  Sn  Sn35  1  0.49952412  0.50104787  0.83393380  1
  Sn  Sn36  1  0.16578271  0.16667566  0.83332845  1
  Sn  Sn37  1  0.83335533  0.83392732  0.83290304  1
  Sn  Sn38  1  0.16556057  0.50050590  0.49991466  1
  Sn  Sn39  1  0.49992625  0.83210546  0.83383237  1
  Pb  Pb40  1  0.50228252  0.83350048  0.49963794  1
  Pb  Pb41  1  0.83373880  0.16607622  0.50241815  1
  Pb  Pb42  1  0.83096658  0.83326486  0.16681083  1
  Pb  Pb43  1  0.16422991  0.83128270  0.50195953  1
  Pb  Pb44  1  0.16663152  0.16948500  0.50288984  1
  Pb  Pb45  1  0.49986123  0.16658429  0.83321197  1
  Pb  Pb46  1  0.83355378  0.16651778  0.16296794  1
  Pb  Pb47  1  0.83279514  0.50011173  0.16994317  1
  Pb  Pb48  1  0.49958623  0.16652645  0.16640457  1
  Pb  Pb49  1  0.16914515  0.83122903  0.16448045  1
  Pb  Pb50  1  0.83270913  0.50024733  0.83207085  1
  Pb  Pb51  1  0.50006109  0.50001976  0.49968416  1
  Pb  Pb52  1  0.16676967  0.16958421  0.16359320  1
  Pb  Pb53  1  0.49956566  0.16625661  0.50018822  1
  I  I54  1  0.16758163  -0.00013557  0.16578639  1
  I  I55  1  0.16633836  -0.00012166  0.50114675  1
  I  I56  1  0.16614310  -0.00081063  0.83317301  1
  I  I57  1  0.17334093  0.33810606  0.16475562  1
  I  I58  1  0.16062755  0.33809335  0.50231626  1
  I  I59  1  0.16615277  0.33485317  0.83307181  1
  I  I60  1  0.16796138  0.66280375  0.16360174  1
  I  I61  1  0.16533271  0.66287512  0.50390300  1
  I  I62  1  0.16699455  0.66588803  0.83287507  1
  I  I63  1  0.50321816  -0.00346542  0.15903116  1
  I  I64  1  0.50286208  -0.00062928  0.50202203  1
  I  I65  1  0.49840081  -0.00352860  0.83695566  1
  I  I66  1  0.49594622  0.33721931  0.16113187  1
  I  I67  1  0.50334523  0.33408504  0.50177807  1
  I  I68  1  0.49706417  0.33671909  0.83664124  1
  I  I69  1  0.49689196  0.66562356  0.16090582  1
  I  I70  1  0.49937051  0.66651401  0.50138765  1
  I  I71  1  0.49736626  0.66655699  0.83656008  1
  I  I72  1  0.83085097  -0.00026338  0.17108213  1
  I  I73  1  0.82967740  -0.00318982  0.50476613  1
  I  I74  1  0.83553784  -0.00155008  0.82766581  1
  I  I75  1  0.83079967  0.33363587  0.16643892  1
  I  I76  1  0.83643974  0.33608168  0.50129116  1
  I  I77  1  0.83671565  0.33164262  0.83145250  1
  I  I78  1  0.83515926  0.66652965  0.16146725  1
  I  I79  1  0.83632413  0.66657959  0.50786582  1
  I  I80  1  0.83511997  0.66943364  0.83096214  1
  I  I81  1  0.16306644  0.16843473  -0.00471153  1
  I  I82  1  0.16715675  0.16729429  0.33325713  1
  I  I83  1  0.16280141  0.16874092  0.67128993  1
  I  I84  1  0.17141449  0.49917108  -0.00157179  1
  I  I85  1  0.16763505  0.50136682  0.33323073  1
  I  I86  1  0.16673327  0.49962198  0.66830366  1
  I  I87  1  0.16108049  0.83109314  -0.00458633  1
  I  I88  1  0.16670157  0.83116717  0.33326966  1
  I  I89  1  0.17152641  0.83080606  0.67113774  1
  I  I90  1  0.50128046  0.16755306  -0.00049524  1
  I  I91  1  0.50221738  0.16836785  0.33295095  1
  I  I92  1  0.50051328  0.16878308  0.66763903  1
  I  I93  1  0.49242308  0.50350638  -0.00121403  1
  I  I94  1  0.49632129  0.50494258  0.33007064  1
  I  I95  1  0.49651743  0.50371434  0.66983852  1
  I  I96  1  0.50212647  0.82875369  -0.00221143  1
  I  I97  1  0.50229224  0.82554051  0.33008497  1
  I  I98  1  0.49838065  0.82867880  0.67046415  1
  I  I99  1  0.83696541  0.16172934  -0.00521080  1
  I  I100  1  0.83138517  0.16705061  0.33358005  1
  I  I101  1  0.83711278  0.16570077  0.67040837  1
  I  I102  1  0.83563155  0.49951077  -0.00011216  1
  I  I103  1  0.83700875  0.50662317  0.33787014  1
  I  I104  1  0.83720139  0.50100195  0.66433689  1
  I  I105  1  0.83504802  0.83688645  -0.00377780  1
  I  I106  1  0.83069993  0.82614643  0.33641607  1
  I  I107  1  0.83141903  0.83267125  0.66874413  1
  I  I108  1  0.00035673  0.16841404  0.16794274  1
  I  I109  1  0.00009773  0.16665501  0.49996279  1
  I  I110  1  0.00053462  0.16497765  0.83237045  1
  I  I111  1  0.00306543  0.49942215  0.16177735  1
  I  I112  1  0.00072344  0.50360809  0.50291845  1
  I  I113  1  0.00292449  0.50149982  0.83509415  1
  I  I114  1  0.00024124  0.83136058  0.16479122  1
  I  I115  1  -0.00368463  0.82982314  0.50775936  1
  I  I116  1  0.00011406  0.83324738  0.82846614  1
  I  I117  1  0.33311908  0.16546596  0.16338189  1
  I  I118  1  0.33269661  0.16827189  0.50303844  1
  I  I119  1  0.33022718  0.16617995  0.83364891  1
  I  I120  1  0.33323709  0.50363286  0.16614727  1
  I  I121  1  0.33032931  0.49914441  0.50203815  1
  I  I122  1  0.33220851  0.50172754  0.83156094  1
  I  I123  1  0.33714532  0.83005678  0.15978826  1
  I  I124  1  0.33313552  0.83176826  0.50188305  1
  I  I125  1  0.33334519  0.83216932  0.83773737  1
  I  I126  1  0.66648087  0.16981217  0.16546545  1
  I  I127  1  0.66731308  0.17023248  0.50250320  1
  I  I128  1  0.66935987  0.16378136  0.83202790  1
  I  I129  1  0.66307471  0.50399077  0.16064268  1
  I  I130  1  0.66940350  0.50366784  0.50240686  1
  I  I131  1  0.66377013  0.50253228  0.83621398  1
  I  I132  1  0.66297715  0.82462680  0.15887786  1
  I  I133  1  0.67028207  0.82519890  0.50820461  1
  I  I134  1  0.66656693  0.83323907  0.83299378  1
