# generated using pymatgen
data_Cs27Sn14Pb13I81
_symmetry_space_group_name_H-M   'P 1'
_cell_length_a   18.97001484
_cell_length_b   18.98334588
_cell_length_c   18.97391641
_cell_angle_alpha   90.00038122
_cell_angle_beta   89.99976867
_cell_angle_gamma   90.00000343
_symmetry_Int_Tables_number   1
_chemical_formula_structural   Cs27Sn14Pb13I81
_chemical_formula_sum   'Cs27 Sn14 Pb13 I81'
_cell_volume   6832.77963242
_cell_formula_units_Z   1
loop_
 _symmetry_equiv_pos_site_id
 _symmetry_equiv_pos_as_xyz
  1  'x, y, z'
loop_
 _atom_site_type_symbol
 _atom_site_label
 _atom_site_symmetry_multiplicity
 _atom_site_fract_x
 _atom_site_fract_y
 _atom_site_fract_z
 _atom_site_occupancy
  Cs  Cs0  1  -0.00128388  -0.00059152  -0.00163261  1
  Cs  Cs1  1  0.00578146  -0.00046194  0.34071261  1
  Cs  Cs2  1  -0.00114886  -0.00039521  0.66627683  1
  Cs  Cs3  1  -0.00235258  0.33305610  -0.00193764  1
  Cs  Cs4  1  0.00662824  0.33360176  0.33564350  1
  Cs  Cs5  1  0.00022559  0.33413992  0.66782187  1
  Cs  Cs6  1  -0.00338804  0.66797609  -0.00302162  1
  Cs  Cs7  1  0.00563212  0.66583434  0.33494561  1
  Cs  Cs8  1  0.00001342  0.66520887  0.66827561  1
  Cs  Cs9  1  0.33212465  0.00047029  0.00083338  1
  Cs  Cs10  1  0.32574285  -0.00710536  0.33122974  1
  Cs  Cs11  1  0.33636316  -0.00182066  0.66798133  1
  Cs  Cs12  1  0.33487463  0.33309274  0.00166334  1
  Cs  Cs13  1  0.32710447  0.33491361  0.33365243  1
  Cs  Cs14  1  0.33543075  0.33331203  0.66678841  1
  Cs  Cs15  1  0.34252797  0.66703366  0.00616790  1
  Cs  Cs16  1  0.32535439  0.67288160  0.32558412  1
  Cs  Cs17  1  0.33617912  0.66916097  0.66654552  1
  Cs  Cs18  1  0.66884560  0.00269820  0.00096236  1
  Cs  Cs19  1  0.66729572  0.00079160  0.33652167  1
  Cs  Cs20  1  0.66611563  0.00013264  0.66295568  1
  Cs  Cs21  1  0.66759746  0.33286017  0.00049262  1
  Cs  Cs22  1  0.66692535  0.33235161  0.33476965  1
  Cs  Cs23  1  0.66599429  0.33322368  0.66534091  1
  Cs  Cs24  1  0.66574213  0.66590286  0.00089634  1
  Cs  Cs25  1  0.66633353  0.66745033  0.33350927  1
  Cs  Cs26  1  0.66439585  0.66641993  0.66567869  1
  Sn  Sn27  1  0.16617046  0.83283519  0.83369266  1
  Sn  Sn28  1  0.83256656  0.49966100  0.49999845  1
  Sn  Sn29  1  0.83360466  0.83345041  0.83385573  1
  Sn  Sn30  1  0.50041637  0.16690541  0.83346463  1
  Sn  Sn31  1  0.83350080  0.49999847  0.83327964  1
  Sn  Sn32  1  0.83317427  0.16650141  0.83357178  1
  Sn  Sn33  1  0.16638708  0.16680243  0.83337983  1
  Sn  Sn34  1  0.50023489  0.49954348  0.49938752  1
  Sn  Sn35  1  0.16672924  0.50042436  0.83360178  1
  Sn  Sn36  1  0.49990577  0.16751573  0.49924598  1
  Sn  Sn37  1  0.83328206  0.83395243  0.16630494  1
  Sn  Sn38  1  0.83297849  0.16642987  0.16657768  1
  Sn  Sn39  1  0.50054530  0.16688376  0.16737421  1
  Sn  Sn40  1  0.83320825  0.49965245  0.16695331  1
  Pb  Pb41  1  0.50036479  0.49801617  0.83208616  1
  Pb  Pb42  1  0.16585766  0.16673743  0.16437462  1
  Pb  Pb43  1  0.16643347  0.83317777  0.50328678  1
  Pb  Pb44  1  0.50211599  0.49768380  0.16961821  1
  Pb  Pb45  1  0.83214170  0.16861604  0.49978920  1
  Pb  Pb46  1  0.50007117  0.83296144  0.49963215  1
  Pb  Pb47  1  0.16342846  0.83338325  0.16343595  1
  Pb  Pb48  1  0.16716659  0.50005567  0.50250879  1
  Pb  Pb49  1  0.16389596  0.49992026  0.16324333  1
  Pb  Pb50  1  0.50079071  0.83596749  0.83351821  1
  Pb  Pb51  1  0.83330527  0.83039755  0.50010456  1
  Pb  Pb52  1  0.17004955  0.16671057  0.50297047  1
  Pb  Pb53  1  0.50293487  0.83634997  0.16661409  1
  I  I54  1  0.16606444  0.00012001  0.16409579  1
  I  I55  1  0.16759060  0.00020758  0.50214994  1
  I  I56  1  0.16367513  0.00046487  0.83338072  1
  I  I57  1  0.16450077  0.33327731  0.16375521  1
  I  I58  1  0.16421703  0.33336764  0.50315677  1
  I  I59  1  0.16264762  0.33306132  0.83276724  1
  I  I60  1  0.16636151  0.66664453  0.16537940  1
  I  I61  1  0.16808908  0.66635941  0.50274803  1
  I  I62  1  0.15597987  0.66644261  0.83170714  1
  I  I63  1  0.50603356  0.00470827  0.16672244  1
  I  I64  1  0.50110818  0.00362117  0.50254318  1
  I  I65  1  0.50033568  0.00473479  0.83061544  1
  I  I66  1  0.50675828  0.32959802  0.16222432  1
  I  I67  1  0.50566032  0.33250697  0.50228475  1
  I  I68  1  0.50081143  0.32948099  0.83480220  1
  I  I69  1  0.50104929  0.66649050  0.16803489  1
  I  I70  1  0.50602987  0.66308025  0.50387309  1
  I  I71  1  0.49959782  0.66656039  0.82980985  1
  I  I72  1  0.82800602  0.00088776  0.15641353  1
  I  I73  1  0.83129169  0.00010548  0.50095545  1
  I  I74  1  0.83547523  0.00086803  0.83970497  1
  I  I75  1  0.82882882  0.33290693  0.16174200  1
  I  I76  1  0.83102009  0.33666258  0.50228090  1
  I  I77  1  0.83527760  0.33311567  0.83532293  1
  I  I78  1  0.83449957  0.66625711  0.16233653  1
  I  I79  1  0.82695822  0.66216983  0.50192789  1
  I  I80  1  0.84062590  0.66610521  0.83543706  1
  I  I81  1  0.17033787  0.16679564  -0.00445081  1
  I  I82  1  0.16584278  0.16667864  0.33333551  1
  I  I83  1  0.16372244  0.16712529  0.67172157  1
  I  I84  1  0.16098028  0.49802477  -0.00499568  1
  I  I85  1  0.16541312  0.49948360  0.33321738  1
  I  I86  1  0.15940901  0.49883595  0.67086089  1
  I  I87  1  0.16380466  0.83523583  -0.00460449  1
  I  I88  1  0.16628061  0.83367922  0.33287692  1
  I  I89  1  0.15894389  0.83406113  0.67179396  1
  I  I90  1  0.50145170  0.16566142  -0.00059953  1
  I  I91  1  0.50948428  0.17123516  0.33292395  1
  I  I92  1  0.49977961  0.17033122  0.66745070  1
  I  I93  1  0.49969720  0.49878261  0.00023075  1
  I  I94  1  0.50790849  0.49274277  0.33737512  1
  I  I95  1  0.50646746  0.49280231  0.66424436  1
  I  I96  1  0.49759238  0.83324091  -0.00014271  1
  I  I97  1  0.50329865  0.83598975  0.33308670  1
  I  I98  1  0.50159602  0.83670326  0.66691837  1
  I  I99  1  0.82940909  0.17008333  -0.00136375  1
  I  I100  1  0.82715706  0.16637728  0.33021349  1
  I  I101  1  0.83319683  0.16645827  0.67015560  1
  I  I102  1  0.83816376  0.49939054  -0.00082430  1
  I  I103  1  0.82637556  0.49956918  0.33295410  1
  I  I104  1  0.83373492  0.49939057  0.66808962  1
  I  I105  1  0.83675618  0.83046085  -0.00136105  1
  I  I106  1  0.82998183  0.83476218  0.33009518  1
  I  I107  1  0.83737031  0.83463638  0.67041559  1
  I  I108  1  -0.00412762  0.16734526  0.16059338  1
  I  I109  1  0.00016507  0.16783560  0.49982417  1
  I  I110  1  -0.00124057  0.16703756  0.83807370  1
  I  I111  1  -0.00510468  0.49619851  0.17173464  1
  I  I112  1  -0.00311382  0.50060769  0.49881280  1
  I  I113  1  -0.00198524  0.49574119  0.83164822  1
  I  I114  1  -0.00480971  0.83599596  0.16377375  1
  I  I115  1  -0.00047271  0.83272302  0.49778653  1
  I  I116  1  -0.00143600  0.83723979  0.83682201  1
  I  I117  1  0.33618958  0.16776182  0.16469987  1
  I  I118  1  0.33832069  0.17454926  0.50032065  1
  I  I119  1  0.33350356  0.16688929  0.83221005  1
  I  I120  1  0.33343466  0.49826661  0.16652356  1
  I  I121  1  0.33649858  0.49336144  0.50459461  1
  I  I122  1  0.33088131  0.49889082  0.82938340  1
  I  I123  1  0.33316606  0.83436336  0.16632154  1
  I  I124  1  0.33330226  0.83232863  0.50283377  1
  I  I125  1  0.33049428  0.83387125  0.83041456  1
  I  I126  1  0.66792241  0.16707872  0.16051776  1
  I  I127  1  0.66395174  0.16879414  0.50578384  1
  I  I128  1  0.66764860  0.16725008  0.83393322  1
  I  I129  1  0.67086642  0.50159365  0.15952464  1
  I  I130  1  0.66782012  0.49571215  0.50351632  1
  I  I131  1  0.67044076  0.49998024  0.83504853  1
  I  I132  1  0.67111215  0.83031338  0.15822409  1
  I  I133  1  0.66697193  0.83494398  0.50416281  1
  I  I134  1  0.67063520  0.83231119  0.83660028  1
