# generated using pymatgen
data_Cs27Sn14Pb13I81
_symmetry_space_group_name_H-M   'P 1'
_cell_length_a   18.98759199
_cell_length_b   18.96432905
_cell_length_c   18.97392357
_cell_angle_alpha   90.00097071
_cell_angle_beta   89.99923130
_cell_angle_gamma   90.00098626
_symmetry_Int_Tables_number   1
_chemical_formula_structural   Cs27Sn14Pb13I81
_chemical_formula_sum   'Cs27 Sn14 Pb13 I81'
_cell_volume   6832.26211987
_cell_formula_units_Z   1
loop_
 _symmetry_equiv_pos_site_id
 _symmetry_equiv_pos_as_xyz
  1  'x, y, z'
loop_
 _atom_site_type_symbol
 _atom_site_label
 _atom_site_symmetry_multiplicity
 _atom_site_fract_x
 _atom_site_fract_y
 _atom_site_fract_z
 _atom_site_occupancy
  Cs  Cs0  1  0.00001113  0.00670260  -0.00478288  1
  Cs  Cs1  1  0.00262810  0.00272201  0.33171745  1
  Cs  Cs2  1  0.00013791  -0.00331381  0.67304214  1
  Cs  Cs3  1  -0.00140897  0.33011302  0.00225852  1
  Cs  Cs4  1  0.00009584  0.33138303  0.33452438  1
  Cs  Cs5  1  -0.00046163  0.33631787  0.66105666  1
  Cs  Cs6  1  0.00045947  0.66568032  0.00226588  1
  Cs  Cs7  1  0.00100074  0.66640643  0.33359449  1
  Cs  Cs8  1  -0.00238003  0.66761415  0.66437981  1
  Cs  Cs9  1  0.33197886  -0.00105062  -0.01058197  1
  Cs  Cs10  1  0.33299057  -0.00022412  0.33378966  1
  Cs  Cs11  1  0.33246539  -0.00072371  0.67230113  1
  Cs  Cs12  1  0.33351908  0.33510450  0.00022386  1
  Cs  Cs13  1  0.33442414  0.33288439  0.33493085  1
  Cs  Cs14  1  0.33580008  0.33405826  0.66385189  1
  Cs  Cs15  1  0.33287671  0.66574548  0.00249226  1
  Cs  Cs16  1  0.33200895  0.66894326  0.33106586  1
  Cs  Cs17  1  0.33119577  0.66576780  0.66813283  1
  Cs  Cs18  1  0.66747610  -0.00023799  -0.00929903  1
  Cs  Cs19  1  0.66468082  -0.00094368  0.33459648  1
  Cs  Cs20  1  0.66922038  -0.00673483  0.67138702  1
  Cs  Cs21  1  0.66750666  0.33541038  0.00013007  1
  Cs  Cs22  1  0.66471108  0.33241245  0.33299671  1
  Cs  Cs23  1  0.66346503  0.33307331  0.66559853  1
  Cs  Cs24  1  0.66648181  0.66328462  0.00397693  1
  Cs  Cs25  1  0.66777330  0.67057126  0.33164756  1
  Cs  Cs26  1  0.67133855  0.67235998  0.66406377  1
  Sn  Sn27  1  0.49994871  0.49913744  0.16723354  1
  Sn  Sn28  1  0.83344374  0.49972586  0.83383705  1
  Sn  Sn29  1  0.83355826  0.50029101  0.16642996  1
  Sn  Sn30  1  0.83273379  0.16638989  0.49995056  1
  Sn  Sn31  1  0.16651698  0.50016104  0.16618523  1
  Sn  Sn32  1  0.50015455  0.50024087  0.49949495  1
  Sn  Sn33  1  0.16694679  0.16530124  0.49977445  1
  Sn  Sn34  1  0.16559519  0.83326672  0.16716441  1
  Sn  Sn35  1  0.16629529  0.49979417  0.83428897  1
  Sn  Sn36  1  0.49978750  0.16684685  0.16688338  1
  Sn  Sn37  1  0.16691781  0.83439467  0.49918836  1
  Sn  Sn38  1  0.83441024  0.83349351  0.16685257  1
  Sn  Sn39  1  0.50029795  0.49988431  0.83319652  1
  Sn  Sn40  1  0.50038123  0.16689307  0.49924085  1
  Pb  Pb41  1  0.16906981  0.16650233  0.16795945  1
  Pb  Pb42  1  0.83064583  0.49878448  0.49921722  1
  Pb  Pb43  1  0.49964318  0.83396714  0.16657068  1
  Pb  Pb44  1  0.83084324  0.16648715  0.16806843  1
  Pb  Pb45  1  0.50003135  0.16879270  0.83310165  1
  Pb  Pb46  1  0.16647545  0.83064550  0.83411900  1
  Pb  Pb47  1  0.50008532  0.82972570  0.83341844  1
  Pb  Pb48  1  0.49764599  0.83391146  0.49993385  1
  Pb  Pb49  1  0.16848744  0.50009227  0.49940058  1
  Pb  Pb50  1  0.83597649  0.83612129  0.49746488  1
  Pb  Pb51  1  0.16656949  0.17010866  0.83014550  1
  Pb  Pb52  1  0.83367383  0.83042946  0.83670745  1
  Pb  Pb53  1  0.83334732  0.16968495  0.83044567  1
  I  I54  1  0.16330238  -0.00273170  0.17134318  1
  I  I55  1  0.16862766  0.00029865  0.49219490  1
  I  I56  1  0.16703946  0.00001054  0.83555098  1
  I  I57  1  0.16477656  0.33665688  0.16436831  1
  I  I58  1  0.16638542  0.33109241  0.50077295  1
  I  I59  1  0.16804185  0.33821958  0.83901672  1
  I  I60  1  0.16848289  0.66521019  0.16912024  1
  I  I61  1  0.16890577  0.66852630  0.49900305  1
  I  I62  1  0.16831092  0.66231398  0.83170178  1
  I  I63  1  0.50016921  0.00316147  0.17573360  1
  I  I64  1  0.50112548  0.00373092  0.49252550  1
  I  I65  1  0.49964066  0.00016794  0.83376538  1
  I  I66  1  0.49988374  0.33564954  0.16780181  1
  I  I67  1  0.49690282  0.33350993  0.49941191  1
  I  I68  1  0.49955316  0.33758114  0.83325177  1
  I  I69  1  0.49991852  0.66304281  0.16638265  1
  I  I70  1  0.49811993  0.66347772  0.49950384  1
  I  I71  1  0.49883870  0.66085129  0.83464226  1
  I  I72  1  0.83735852  -0.00248646  0.17156324  1
  I  I73  1  0.82660676  0.00396542  0.49681769  1
  I  I74  1  0.83301956  -0.00010804  0.83394725  1
  I  I75  1  0.83535700  0.33672559  0.16374413  1
  I  I76  1  0.83860974  0.33086938  0.49827700  1
  I  I77  1  0.83252653  0.33795601  0.84146217  1
  I  I78  1  0.83140696  0.66469798  0.16372682  1
  I  I79  1  0.83331452  0.66673194  0.50257051  1
  I  I80  1  0.83249102  0.66202164  0.83225711  1
  I  I81  1  0.16855644  0.16406962  0.00003112  1
  I  I82  1  0.16596927  0.16920072  0.33632891  1
  I  I83  1  0.17041852  0.16219048  0.66177532  1
  I  I84  1  0.17149069  0.50562481  0.00148837  1
  I  I85  1  0.16660616  0.50076404  0.33032183  1
  I  I86  1  0.16772813  0.49891782  0.66862299  1
  I  I87  1  0.16439144  0.82933678  0.00363932  1
  I  I88  1  0.16397383  0.82968569  0.33235118  1
  I  I89  1  0.16892375  0.83640262  0.66406657  1
  I  I90  1  0.50014348  0.17134369  0.00299316  1
  I  I91  1  0.49966331  0.17640227  0.33426806  1
  I  I92  1  0.49871148  0.17270059  0.66303291  1
  I  I93  1  0.49987689  0.49673402  0.00099866  1
  I  I94  1  0.49911359  0.49531787  0.33246730  1
  I  I95  1  0.49823472  0.49510920  0.66642751  1
  I  I96  1  0.49726680  0.83531723  0.00038568  1
  I  I97  1  0.50143085  0.82728674  0.33316020  1
  I  I98  1  0.49795287  0.83264882  0.66646096  1
  I  I99  1  0.83155500  0.16461769  0.00015477  1
  I  I100  1  0.83486182  0.17053636  0.33605717  1
  I  I101  1  0.83082163  0.16929008  0.66231695  1
  I  I102  1  0.82888069  0.50348065  0.00121183  1
  I  I103  1  0.83421549  0.50219459  0.32990414  1
  I  I104  1  0.83376643  0.49624385  0.66890383  1
  I  I105  1  0.83939212  0.83240684  0.00462887  1
  I  I106  1  0.83432640  0.82412148  0.32989191  1
  I  I107  1  0.83391256  0.83266460  0.66661757  1
  I  I108  1  0.00007920  0.17004090  0.16997524  1
  I  I109  1  0.00057701  0.16429507  0.49959061  1
  I  I110  1  0.00002517  0.17002148  0.83237734  1
  I  I111  1  0.00019931  0.50464533  0.16020199  1
  I  I112  1  0.00001267  0.49809434  0.50110788  1
  I  I113  1  0.00002365  0.49989383  0.83990744  1
  I  I114  1  0.00080718  0.82295642  0.17186146  1
  I  I115  1  0.00379042  0.83595331  0.49798412  1
  I  I116  1  0.00011149  0.82988649  0.82930771  1
  I  I117  1  0.33677558  0.17301496  0.17385542  1
  I  I118  1  0.33397937  0.16846056  0.49554151  1
  I  I119  1  0.33332116  0.16889217  0.83198891  1
  I  I120  1  0.33343714  0.50033397  0.16461591  1
  I  I121  1  0.33640854  0.49489744  0.49997570  1
  I  I122  1  0.33361311  0.49988706  0.83587583  1
  I  I123  1  0.33008466  0.82794091  0.17155261  1
  I  I124  1  0.32980707  0.83631174  0.49247472  1
  I  I125  1  0.33299497  0.83127805  0.83513324  1
  I  I126  1  0.66311736  0.17299139  0.17401590  1
  I  I127  1  0.66536287  0.17476707  0.49523425  1
  I  I128  1  0.66660525  0.16928648  0.83191912  1
  I  I129  1  0.66640848  0.50006021  0.16423817  1
  I  I130  1  0.66262155  0.49366833  0.49990639  1
  I  I131  1  0.66632326  0.49887552  0.83724788  1
  I  I132  1  0.66914087  0.82807998  0.16650472  1
  I  I133  1  0.66693149  0.83314012  0.49914143  1
  I  I134  1  0.66706244  0.83217452  0.83386618  1
