# generated using pymatgen
data_Cs27Sn14Pb13I81
_symmetry_space_group_name_H-M   'P 1'
_cell_length_a   18.98126682
_cell_length_b   18.96706082
_cell_length_c   18.97715071
_cell_angle_alpha   90.00018292
_cell_angle_beta   90.00041282
_cell_angle_gamma   89.99909324
_symmetry_Int_Tables_number   1
_chemical_formula_structural   Cs27Sn14Pb13I81
_chemical_formula_sum   'Cs27 Sn14 Pb13 I81'
_cell_volume   6832.13182492
_cell_formula_units_Z   1
loop_
 _symmetry_equiv_pos_site_id
 _symmetry_equiv_pos_as_xyz
  1  'x, y, z'
loop_
 _atom_site_type_symbol
 _atom_site_label
 _atom_site_symmetry_multiplicity
 _atom_site_fract_x
 _atom_site_fract_y
 _atom_site_fract_z
 _atom_site_occupancy
  Cs  Cs0  1  0.00032485  -0.00048384  0.00165952  1
  Cs  Cs1  1  -0.00339321  -0.00147425  0.32839651  1
  Cs  Cs2  1  0.00239553  0.00243911  0.67054653  1
  Cs  Cs3  1  0.00306626  0.33541485  0.00056330  1
  Cs  Cs4  1  0.00347685  0.33250780  0.33033342  1
  Cs  Cs5  1  -0.00166847  0.33738631  0.66806654  1
  Cs  Cs6  1  -0.00018369  0.66728581  -0.00318774  1
  Cs  Cs7  1  -0.00426174  0.66852080  0.34559254  1
  Cs  Cs8  1  -0.00054451  0.65703442  0.66096373  1
  Cs  Cs9  1  0.33192263  -0.00146154  -0.00200185  1
  Cs  Cs10  1  0.33234575  0.00022402  0.33434779  1
  Cs  Cs11  1  0.33401186  -0.00016331  0.66767626  1
  Cs  Cs12  1  0.33417118  0.33600376  0.00299510  1
  Cs  Cs13  1  0.33606920  0.33482285  0.32985239  1
  Cs  Cs14  1  0.33526445  0.32974801  0.66685475  1
  Cs  Cs15  1  0.33338062  0.66723809  0.00245841  1
  Cs  Cs16  1  0.33003048  0.66508661  0.33207516  1
  Cs  Cs17  1  0.33254268  0.67145989  0.66344111  1
  Cs  Cs18  1  0.66846488  -0.00094029  -0.00093862  1
  Cs  Cs19  1  0.67032149  -0.00125023  0.33178148  1
  Cs  Cs20  1  0.66374711  0.00207915  0.66872248  1
  Cs  Cs21  1  0.66527829  0.33499514  -0.00006871  1
  Cs  Cs22  1  0.66306267  0.33292220  0.33323540  1
  Cs  Cs23  1  0.66709769  0.33161893  0.66680040  1
  Cs  Cs24  1  0.66588067  0.66554839  0.00136710  1
  Cs  Cs25  1  0.67132644  0.66763218  0.33179504  1
  Cs  Cs26  1  0.66670219  0.66771859  0.66485474  1
  Sn  Sn27  1  0.49933666  0.83423382  0.16662901  1
  Sn  Sn28  1  0.83347695  0.16618165  0.83287030  1
  Sn  Sn29  1  0.50002409  0.16536681  0.16637807  1
  Sn  Sn30  1  0.16537523  0.83382093  0.83385394  1
  Sn  Sn31  1  0.16715781  0.83330233  0.16621414  1
  Sn  Sn32  1  0.49986166  0.16739727  0.83369943  1
  Sn  Sn33  1  0.49995841  0.49952176  0.50124159  1
  Sn  Sn34  1  0.83377088  0.49977668  0.16647503  1
  Sn  Sn35  1  0.16659503  0.16642576  0.50063090  1
  Sn  Sn36  1  0.83453265  0.83369706  0.83303824  1
  Sn  Sn37  1  0.16672839  0.16630139  0.83282065  1
  Sn  Sn38  1  0.83345288  0.16658537  0.50061693  1
  Sn  Sn39  1  0.50000549  0.16698998  0.49988464  1
  Sn  Sn40  1  0.49972638  0.49957263  0.83212507  1
  Pb  Pb41  1  0.16957001  0.49661511  0.50017449  1
  Pb  Pb42  1  0.50005701  0.83372226  0.49703666  1
  Pb  Pb43  1  0.16347481  0.50372013  0.16674857  1
  Pb  Pb44  1  0.83116866  0.49954018  0.83432095  1
  Pb  Pb45  1  0.50086979  0.50023323  0.16694289  1
  Pb  Pb46  1  0.49972570  0.83344900  0.83482810  1
  Pb  Pb47  1  0.83376857  0.83149640  0.16454569  1
  Pb  Pb48  1  0.83333583  0.83622337  0.50367886  1
  Pb  Pb49  1  0.16655128  0.83590428  0.50064727  1
  Pb  Pb50  1  0.16898739  0.16512271  0.16624625  1
  Pb  Pb51  1  0.83119754  0.16813836  0.16598876  1
  Pb  Pb52  1  0.83086617  0.49686644  0.49803248  1
  Pb  Pb53  1  0.16954095  0.49998666  0.83328694  1
  I  I54  1  0.16795164  -0.00275929  0.16478219  1
  I  I55  1  0.17170266  0.00426108  0.50197228  1
  I  I56  1  0.16868608  0.00132967  0.83334721  1
  I  I57  1  0.16792583  0.33323142  0.16646925  1
  I  I58  1  0.16447663  0.32829547  0.50671861  1
  I  I59  1  0.16391675  0.32956288  0.82890452  1
  I  I60  1  0.17664234  0.67144502  0.15820894  1
  I  I61  1  0.16861801  0.66667190  0.49950460  1
  I  I62  1  0.16416068  0.67000489  0.83916634  1
  I  I63  1  0.49799210  0.00104728  0.16599702  1
  I  I64  1  0.49960259  0.00412351  0.50369462  1
  I  I65  1  0.50022130  0.00336238  0.83083663  1
  I  I66  1  0.50211456  0.33056647  0.16664644  1
  I  I67  1  0.50003000  0.33098453  0.49848269  1
  I  I68  1  0.50077147  0.33083344  0.83525457  1
  I  I69  1  0.49806021  0.66912755  0.16489774  1
  I  I70  1  0.50050802  0.66385014  0.50422018  1
  I  I71  1  0.50108077  0.66439665  0.83170298  1
  I  I72  1  0.83327762  0.00007013  0.16882264  1
  I  I73  1  0.82870284  0.00459293  0.49848855  1
  I  I74  1  0.83072148  0.00165635  0.83126886  1
  I  I75  1  0.82830329  0.33544119  0.16477243  1
  I  I76  1  0.83423411  0.32886231  0.50769656  1
  I  I77  1  0.83465786  0.32964649  0.83051362  1
  I  I78  1  0.82834297  0.66419657  0.16357088  1
  I  I79  1  0.83140218  0.66642937  0.49946461  1
  I  I80  1  0.83529710  0.66908767  0.83817986  1
  I  I81  1  0.16648390  0.16439761  -0.00334343  1
  I  I82  1  0.16748057  0.16589555  0.33585499  1
  I  I83  1  0.17173909  0.16072029  0.66794922  1
  I  I84  1  0.17021359  0.49426823  -0.00002334  1
  I  I85  1  0.16994529  0.49887141  0.33335347  1
  I  I86  1  0.16345840  0.50583374  0.66681222  1
  I  I87  1  0.16733173  0.84016278  -0.00117624  1
  I  I88  1  0.17259661  0.83439698  0.33072083  1
  I  I89  1  0.16425338  0.83664552  0.67027769  1
  I  I90  1  0.50053653  0.16731254  -0.00106652  1
  I  I91  1  0.49992940  0.16777879  0.33409568  1
  I  I92  1  0.50042307  0.17128608  0.66707533  1
  I  I93  1  0.50201591  0.49575584  -0.00215462  1
  I  I94  1  0.50169106  0.49476942  0.33561190  1
  I  I95  1  0.50112163  0.49058997  0.66695122  1
  I  I96  1  0.49951876  0.83723405  0.00264542  1
  I  I97  1  0.49465479  0.83731315  0.32901302  1
  I  I98  1  0.49974927  0.83443584  0.66677607  1
  I  I99  1  0.83243729  0.16404005  -0.00347395  1
  I  I100  1  0.83213116  0.16974550  0.33578180  1
  I  I101  1  0.82820829  0.16294689  0.66771995  1
  I  I102  1  0.82777794  0.49790086  0.00181399  1
  I  I103  1  0.82927260  0.50030977  0.33063463  1
  I  I104  1  0.83342808  0.50247861  0.66650269  1
  I  I105  1  0.83351177  0.84079765  -0.00321092  1
  I  I106  1  0.83307097  0.83300790  0.33336227  1
  I  I107  1  0.83781395  0.83384089  0.67165666  1
  I  I108  1  0.00006523  0.16663731  0.16799675  1
  I  I109  1  -0.00003175  0.16466241  0.50719389  1
  I  I110  1  0.00002165  0.16116668  0.82654877  1
  I  I111  1  -0.00373121  0.49741192  0.16406938  1
  I  I112  1  -0.00018444  0.49965167  0.49753499  1
  I  I113  1  -0.00004019  0.49782281  0.83634405  1
  I  I114  1  0.00269649  0.83287778  0.16320931  1
  I  I115  1  -0.00006921  0.83476425  0.49273113  1
  I  I116  1  0.00068158  0.84346632  0.84101832  1
  I  I117  1  0.33727952  0.16650519  0.16673349  1
  I  I118  1  0.33422736  0.16957556  0.50286880  1
  I  I119  1  0.33375976  0.16586180  0.83063489  1
  I  I120  1  0.33341055  0.49884539  0.16694042  1
  I  I121  1  0.33760836  0.49399975  0.50220730  1
  I  I122  1  0.33763806  0.49476707  0.83183105  1
  I  I123  1  0.33370749  0.83740243  0.16010868  1
  I  I124  1  0.33345282  0.83581566  0.50438550  1
  I  I125  1  0.33079701  0.83715360  0.83583294  1
  I  I126  1  0.66281248  0.16185554  0.16656232  1
  I  I127  1  0.66571370  0.17033748  0.50283570  1
  I  I128  1  0.66617126  0.16608952  0.83110239  1
  I  I129  1  0.66807799  0.50137365  0.16585843  1
  I  I130  1  0.66307567  0.49291022  0.50319415  1
  I  I131  1  0.66322155  0.49541091  0.83146800  1
  I  I132  1  0.66435555  0.83577143  0.16530131  1
  I  I133  1  0.66660963  0.83556621  0.49938268  1
  I  I134  1  0.66852860  0.83713851  0.83522189  1
