# generated using pymatgen
data_Cs27Sn14Pb13I81
_symmetry_space_group_name_H-M   'P 1'
_cell_length_a   18.97564768
_cell_length_b   18.98159372
_cell_length_c   18.97091104
_cell_angle_alpha   89.99758077
_cell_angle_beta   90.00006890
_cell_angle_gamma   89.99934650
_symmetry_Int_Tables_number   1
_chemical_formula_structural   Cs27Sn14Pb13I81
_chemical_formula_sum   'Cs27 Sn14 Pb13 I81'
_cell_volume   6833.09516227
_cell_formula_units_Z   1
loop_
 _symmetry_equiv_pos_site_id
 _symmetry_equiv_pos_as_xyz
  1  'x, y, z'
loop_
 _atom_site_type_symbol
 _atom_site_label
 _atom_site_symmetry_multiplicity
 _atom_site_fract_x
 _atom_site_fract_y
 _atom_site_fract_z
 _atom_site_occupancy
  Cs  Cs0  1  -0.00156992  -0.00175208  0.00054558  1
  Cs  Cs1  1  0.00028722  -0.00206437  0.33798567  1
  Cs  Cs2  1  0.00212536  -0.00023133  0.65999227  1
  Cs  Cs3  1  -0.00039148  0.33312746  0.00025245  1
  Cs  Cs4  1  -0.00093775  0.33699405  0.33034842  1
  Cs  Cs5  1  0.00232240  0.33128014  0.66857895  1
  Cs  Cs6  1  -0.00092124  0.66758853  0.00187206  1
  Cs  Cs7  1  0.00037749  0.66523456  0.33096927  1
  Cs  Cs8  1  -0.00089722  0.66824931  0.66610127  1
  Cs  Cs9  1  0.33618324  -0.00163497  0.00148363  1
  Cs  Cs10  1  0.33968548  0.00107187  0.33813408  1
  Cs  Cs11  1  0.32842399  -0.00013694  0.65828220  1
  Cs  Cs12  1  0.33002600  0.33273362  -0.00203170  1
  Cs  Cs13  1  0.33714860  0.33395829  0.33267338  1
  Cs  Cs14  1  0.33226416  0.33383431  0.66973618  1
  Cs  Cs15  1  0.33379210  0.66860800  -0.00226414  1
  Cs  Cs16  1  0.33136100  0.66663491  0.33394513  1
  Cs  Cs17  1  0.34452645  0.66526792  0.66801275  1
  Cs  Cs18  1  0.66576731  0.00139010  -0.00020422  1
  Cs  Cs19  1  0.65974643  0.00275758  0.33963760  1
  Cs  Cs20  1  0.66785091  -0.00023063  0.66385904  1
  Cs  Cs21  1  0.66960569  0.33015119  0.00086723  1
  Cs  Cs22  1  0.66478294  0.33323439  0.33382146  1
  Cs  Cs23  1  0.66573369  0.33330807  0.66535579  1
  Cs  Cs24  1  0.66925438  0.66883563  -0.00080188  1
  Cs  Cs25  1  0.66625154  0.66514229  0.33423966  1
  Cs  Cs26  1  0.65946089  0.66688517  0.66706377  1
  Sn  Sn27  1  0.83374808  0.83395563  0.16646842  1
  Sn  Sn28  1  0.83325648  0.50002183  0.16637108  1
  Sn  Sn29  1  0.16579560  0.16619409  0.16650634  1
  Sn  Sn30  1  0.83440275  0.83360369  0.83401453  1
  Sn  Sn31  1  0.16574577  0.50026062  0.49981770  1
  Sn  Sn32  1  0.50049249  0.16634948  0.83358280  1
  Sn  Sn33  1  0.83278999  0.16634334  0.83403157  1
  Sn  Sn34  1  0.16676529  0.50002634  0.16700883  1
  Sn  Sn35  1  0.83420931  0.16603406  0.16639811  1
  Sn  Sn36  1  0.16573755  0.83315598  0.83405493  1
  Sn  Sn37  1  0.83365779  0.50005818  0.83311974  1
  Sn  Sn38  1  0.49997871  0.50031671  0.16569118  1
  Sn  Sn39  1  0.16581360  0.83380827  0.16598228  1
  Sn  Sn40  1  0.83451597  0.50000578  0.50012397  1
  Pb  Pb41  1  0.50034130  0.83604065  0.83362252  1
  Pb  Pb42  1  0.16624336  0.16981157  0.49644866  1
  Pb  Pb43  1  0.50007154  0.83315977  0.49987372  1
  Pb  Pb44  1  0.83360782  0.16929190  0.49968043  1
  Pb  Pb45  1  0.16472770  0.50224458  0.83357094  1
  Pb  Pb46  1  0.50022772  0.16866785  0.16520142  1
  Pb  Pb47  1  0.16647957  0.83039631  0.49953154  1
  Pb  Pb48  1  0.49988501  0.49985625  0.49765870  1
  Pb  Pb49  1  0.16576473  0.16399276  0.83539180  1
  Pb  Pb50  1  0.50035111  0.83110995  0.16659446  1
  Pb  Pb51  1  0.50000924  0.16727495  0.50358692  1
  Pb  Pb52  1  0.83327293  0.83067521  0.49970036  1
  Pb  Pb53  1  0.50284781  0.49793567  0.83602289  1
  I  I54  1  0.15902405  -0.00048551  0.15983384  1
  I  I55  1  0.16862479  -0.00013089  0.49995132  1
  I  I56  1  0.16163599  -0.00372413  0.83981725  1
  I  I57  1  0.16368176  0.33413209  0.17065470  1
  I  I58  1  0.16160591  0.33775018  0.49544447  1
  I  I59  1  0.16658254  0.33334436  0.83348329  1
  I  I60  1  0.16367086  0.66612334  0.16723456  1
  I  I61  1  0.16096349  0.66276062  0.49232206  1
  I  I62  1  0.16053883  0.66993262  0.83946320  1
  I  I63  1  0.49952777  0.00022960  0.16581261  1
  I  I64  1  0.49985995  0.00044214  0.49797509  1
  I  I65  1  0.50715129  0.00340534  0.83690376  1
  I  I66  1  0.50088793  0.33656413  0.16598731  1
  I  I67  1  0.50058078  0.33384081  0.49898054  1
  I  I68  1  0.50529295  0.33038337  0.83510284  1
  I  I69  1  0.50125394  0.66291428  0.16674568  1
  I  I70  1  0.50042903  0.66587183  0.50139625  1
  I  I71  1  0.50039756  0.66662794  0.83274414  1
  I  I72  1  0.84094460  -0.00000672  0.15755923  1
  I  I73  1  0.83176461  0.00000332  0.49983230  1
  I  I74  1  0.83209440  -0.00009636  0.84190355  1
  I  I75  1  0.83566553  0.33411867  0.16414023  1
  I  I76  1  0.83676967  0.33753896  0.49874971  1
  I  I77  1  0.82886383  0.33348157  0.83672772  1
  I  I78  1  0.83544055  0.66585537  0.16432132  1
  I  I79  1  0.83774851  0.66247335  0.49803231  1
  I  I80  1  0.83848489  0.66666073  0.83716874  1
  I  I81  1  0.16492621  0.17401601  0.00363428  1
  I  I82  1  0.16008203  0.16202075  0.32799387  1
  I  I83  1  0.16780683  0.16646249  0.66677247  1
  I  I84  1  0.16572698  0.49801944  0.00371052  1
  I  I85  1  0.16155811  0.50147466  0.33081375  1
  I  I86  1  0.16073807  0.50150142  0.66454073  1
  I  I87  1  0.16235635  0.83006118  0.00160390  1
  I  I88  1  0.16135919  0.83362754  0.32938559  1
  I  I89  1  0.16138978  0.83352032  0.66957341  1
  I  I90  1  0.50380731  0.16790429  -0.00239076  1
  I  I91  1  0.50005315  0.16760724  0.33312097  1
  I  I92  1  0.50828587  0.16774487  0.67149980  1
  I  I93  1  0.49833223  0.50003021  0.00380216  1
  I  I94  1  0.50485756  0.49852773  0.32955815  1
  I  I95  1  0.49954269  0.49918666  0.66703011  1
  I  I96  1  0.49902702  0.83191111  0.00006743  1
  I  I97  1  0.50036375  0.83350444  0.33268162  1
  I  I98  1  0.50000892  0.83191972  0.66732683  1
  I  I99  1  0.83324395  0.17150460  0.00061879  1
  I  I100  1  0.83787319  0.16731860  0.32946236  1
  I  I101  1  0.82834554  0.16683718  0.67011596  1
  I  I102  1  0.83330925  0.49973190  0.00110927  1
  I  I103  1  0.83386313  0.50002605  0.33137795  1
  I  I104  1  0.83849469  0.49953809  0.66718545  1
  I  I105  1  0.83686930  0.82847718  0.00051946  1
  I  I106  1  0.83850570  0.83223153  0.32945244  1
  I  I107  1  0.83719089  0.83401496  0.67026103  1
  I  I108  1  -0.00118249  0.17215784  0.16072794  1
  I  I109  1  -0.00005529  0.16527172  0.50597961  1
  I  I110  1  -0.00362933  0.17012817  0.83608481  1
  I  I111  1  -0.00078153  0.49988489  0.16752768  1
  I  I112  1  -0.00082093  0.50012882  0.49323520  1
  I  I113  1  -0.00386441  0.49467017  0.83780684  1
  I  I114  1  -0.00052183  0.82843279  0.16231212  1
  I  I115  1  -0.00009582  0.83481026  0.50112561  1
  I  I116  1  -0.00154734  0.83399621  0.83864611  1
  I  I117  1  0.33049137  0.16819207  0.16469407  1
  I  I118  1  0.33304016  0.16904547  0.50011953  1
  I  I119  1  0.33481718  0.16641552  0.83633617  1
  I  I120  1  0.33183306  0.49941926  0.17230552  1
  I  I121  1  0.33014199  0.50071493  0.49369801  1
  I  I122  1  0.33329784  0.49982809  0.83310381  1
  I  I123  1  0.32970965  0.83228756  0.16246489  1
  I  I124  1  0.33271680  0.83018411  0.50059036  1
  I  I125  1  0.33032053  0.83343636  0.83869637  1
  I  I126  1  0.67023055  0.16791878  0.16427930  1
  I  I127  1  0.66702335  0.16967988  0.49428396  1
  I  I128  1  0.66948221  0.16625161  0.84024593  1
  I  I129  1  0.66897636  0.49962812  0.16657814  1
  I  I130  1  0.66999783  0.50023673  0.49891809  1
  I  I131  1  0.67150359  0.50543491  0.83324047  1
  I  I132  1  0.67061210  0.83207855  0.16137663  1
  I  I133  1  0.66726137  0.82984412  0.49972950  1
  I  I134  1  0.67064050  0.83036342  0.83826604  1
