# generated using pymatgen
data_Cs27Sn14Pb13I81
_symmetry_space_group_name_H-M   'P 1'
_cell_length_a   18.95768166
_cell_length_b   18.96254814
_cell_length_c   18.96256007
_cell_angle_alpha   89.99943886
_cell_angle_beta   90.00020758
_cell_angle_gamma   90.00021105
_symmetry_Int_Tables_number   1
_chemical_formula_structural   Cs27Sn14Pb13I81
_chemical_formula_sum   'Cs27 Sn14 Pb13 I81'
_cell_volume   6816.77393858
_cell_formula_units_Z   1
loop_
 _symmetry_equiv_pos_site_id
 _symmetry_equiv_pos_as_xyz
  1  'x, y, z'
loop_
 _atom_site_type_symbol
 _atom_site_label
 _atom_site_symmetry_multiplicity
 _atom_site_fract_x
 _atom_site_fract_y
 _atom_site_fract_z
 _atom_site_occupancy
  Cs  Cs0  1  0.00048379  0.00208943  0.00247806  1
  Cs  Cs1  1  -0.00015352  0.00107174  0.33259441  1
  Cs  Cs2  1  0.00128962  -0.00164179  0.66513262  1
  Cs  Cs3  1  0.00062935  0.33452880  -0.00064193  1
  Cs  Cs4  1  0.00123033  0.33337700  0.32979593  1
  Cs  Cs5  1  -0.00160074  0.33287417  0.67016812  1
  Cs  Cs6  1  -0.00365693  0.66314266  -0.00052165  1
  Cs  Cs7  1  -0.00055898  0.66437487  0.33378509  1
  Cs  Cs8  1  -0.00209624  0.66845522  0.66631901  1
  Cs  Cs9  1  0.33395375  -0.00075441  0.00096531  1
  Cs  Cs10  1  0.33285288  -0.00039376  0.33010870  1
  Cs  Cs11  1  0.33224650  -0.00274285  0.67038408  1
  Cs  Cs12  1  0.33145451  0.33287097  0.00137802  1
  Cs  Cs13  1  0.33313329  0.33482045  0.33412763  1
  Cs  Cs14  1  0.33514556  0.33376271  0.66391197  1
  Cs  Cs15  1  0.33544065  0.66804733  -0.00052800  1
  Cs  Cs16  1  0.33348783  0.66577306  0.33503493  1
  Cs  Cs17  1  0.33105982  0.66905266  0.66497177  1
  Cs  Cs18  1  0.66595558  0.00152578  -0.00066570  1
  Cs  Cs19  1  0.66864814  -0.00275493  0.33330738  1
  Cs  Cs20  1  0.66603594  0.00489350  0.66690097  1
  Cs  Cs21  1  0.66798354  0.33454746  -0.00128219  1
  Cs  Cs22  1  0.66545874  0.33021070  0.33771111  1
  Cs  Cs23  1  0.66628037  0.32962310  0.66464826  1
  Cs  Cs24  1  0.66655168  0.66603935  -0.00026828  1
  Cs  Cs25  1  0.66678775  0.66942934  0.33404396  1
  Cs  Cs26  1  0.66922966  0.66597090  0.66642153  1
  Sn  Sn27  1  0.49987372  0.50016357  0.83354805  1
  Sn  Sn28  1  0.83250019  0.83268193  0.50097859  1
  Sn  Sn29  1  0.16686062  0.16670134  0.49992075  1
  Sn  Sn30  1  0.16706713  0.83327820  0.16651822  1
  Sn  Sn31  1  0.50042590  0.83336455  0.49978458  1
  Sn  Sn32  1  0.83320703  0.83316090  0.83274477  1
  Sn  Sn33  1  0.49954555  0.16665205  0.16662508  1
  Sn  Sn34  1  0.49925969  0.83332181  0.16730300  1
  Sn  Sn35  1  0.16762884  0.16600063  0.16678064  1
  Sn  Sn36  1  0.16688298  0.16724164  0.83316201  1
  Sn  Sn37  1  0.50008528  0.49993899  0.16633733  1
  Sn  Sn38  1  0.83337194  0.50042574  0.50057091  1
  Sn  Sn39  1  0.83298609  0.50073748  0.83233017  1
  Sn  Sn40  1  0.16704945  0.49967045  0.83324683  1
  Pb  Pb41  1  0.83328116  0.16682382  0.16665876  1
  Pb  Pb42  1  0.16440506  0.83308912  0.83577697  1
  Pb  Pb43  1  0.83539898  0.16638262  0.50004185  1
  Pb  Pb44  1  0.83046305  0.49986195  0.16679996  1
  Pb  Pb45  1  0.16872545  0.50010262  0.16485864  1
  Pb  Pb46  1  0.16631481  0.83484318  0.49775582  1
  Pb  Pb47  1  0.16420651  0.49799369  0.50254435  1
  Pb  Pb48  1  0.50181919  0.50183870  0.50020902  1
  Pb  Pb49  1  0.50213514  0.83153638  0.83347558  1
  Pb  Pb50  1  0.49768544  0.16377395  0.49782297  1
  Pb  Pb51  1  0.83541781  0.16682755  0.83335817  1
  Pb  Pb52  1  0.83321585  0.83327074  0.16670875  1
  Pb  Pb53  1  0.49756831  0.16915977  0.83538157  1
  I  I54  1  0.17346778  0.00088553  0.16451410  1
  I  I55  1  0.16501002  0.00291057  0.50384101  1
  I  I56  1  0.16456077  0.00248776  0.83305852  1
  I  I57  1  0.17032821  0.33044012  0.16774992  1
  I  I58  1  0.16561225  0.32998121  0.49420712  1
  I  I59  1  0.16416613  0.33351220  0.83609149  1
  I  I60  1  0.17070195  0.66905002  0.16519583  1
  I  I61  1  0.16773857  0.66673018  0.49957927  1
  I  I62  1  0.16739697  0.66390276  0.83575762  1
  I  I63  1  0.49534689  -0.00053316  0.17123724  1
  I  I64  1  0.50646321  -0.00416444  0.49516325  1
  I  I65  1  0.50046887  -0.00003856  0.83417156  1
  I  I66  1  0.49620982  0.33331673  0.16136320  1
  I  I67  1  0.50138241  0.33326981  0.49869903  1
  I  I68  1  0.50487823  0.33748313  0.83800966  1
  I  I69  1  0.49660806  0.66732645  0.16606122  1
  I  I70  1  0.50070517  0.66982049  0.49393645  1
  I  I71  1  0.49586026  0.66325211  0.83939820  1
  I  I72  1  0.83050218  -0.00028620  0.16625567  1
  I  I73  1  0.83068619  -0.00346698  0.50340270  1
  I  I74  1  0.83470033  -0.00284889  0.82980734  1
  I  I75  1  0.83417709  0.33359537  0.16629407  1
  I  I76  1  0.83416073  0.33614727  0.50495458  1
  I  I77  1  0.83203768  0.33691643  0.82974097  1
  I  I78  1  0.83473941  0.66666177  0.16603551  1
  I  I79  1  0.83065151  0.66739014  0.50424255  1
  I  I80  1  0.83589947  0.66550903  0.82998434  1
  I  I81  1  0.16977484  0.16693303  0.00064287  1
  I  I82  1  0.16935085  0.16148620  0.33195768  1
  I  I83  1  0.16399014  0.17129279  0.66745344  1
  I  I84  1  0.16174430  0.49527887  -0.00337969  1
  I  I85  1  0.16594258  0.49881353  0.33332811  1
  I  I86  1  0.17135537  0.49550611  0.67092669  1
  I  I87  1  0.17186480  0.83857791  0.00354763  1
  I  I88  1  0.16656680  0.83889035  0.32973230  1
  I  I89  1  0.16881825  0.83522140  0.66678493  1
  I  I90  1  0.49463096  0.16132372  0.00374640  1
  I  I91  1  0.49419971  0.17201993  0.32948708  1
  I  I92  1  0.49812982  0.16683488  0.66664059  1
  I  I93  1  0.50156208  0.50187713  0.00001162  1
  I  I94  1  0.50110878  0.49879447  0.33063006  1
  I  I95  1  0.49854418  0.50197654  0.66953213  1
  I  I96  1  0.49750412  0.83465135  0.00301841  1
  I  I97  1  0.50217400  0.83158567  0.33214119  1
  I  I98  1  0.50203302  0.83082515  0.66432676  1
  I  I99  1  0.83593302  0.16614404  -0.00015855  1
  I  I100  1  0.83655123  0.16730459  0.33348288  1
  I  I101  1  0.83571324  0.16631763  0.66673366  1
  I  I102  1  0.83487773  0.50383236  -0.00344941  1
  I  I103  1  0.83236177  0.50478707  0.33624876  1
  I  I104  1  0.83252162  0.50461757  0.66793332  1
  I  I105  1  0.83417658  0.82825889  -0.00261453  1
  I  I106  1  0.83209813  0.82933807  0.33629682  1
  I  I107  1  0.82977545  0.82859298  0.66611550  1
  I  I108  1  0.00398465  0.16164921  0.16662648  1
  I  I109  1  0.00356230  0.16485291  0.49714521  1
  I  I110  1  0.00384933  0.17189432  0.83697175  1
  I  I111  1  0.00012066  0.49982199  0.16553398  1
  I  I112  1  -0.00383198  0.50646633  0.50447197  1
  I  I113  1  -0.00037267  0.49928749  0.82970231  1
  I  I114  1  0.00265131  0.83954423  0.16602903  1
  I  I115  1  -0.00288908  0.83119772  0.50260310  1
  I  I116  1  -0.00337853  0.82835575  0.82892412  1
  I  I117  1  0.33264126  0.16534425  0.16601594  1
  I  I118  1  0.32968910  0.16623578  0.50188989  1
  I  I119  1  0.32922980  0.17070971  0.83223288  1
  I  I120  1  0.33695777  0.50039342  0.16161084  1
  I  I121  1  0.33336187  0.50077286  0.50108055  1
  I  I122  1  0.33341028  0.49531667  0.83929186  1
  I  I123  1  0.33448602  0.83447127  0.17084317  1
  I  I124  1  0.33565606  0.83465279  0.49672632  1
  I  I125  1  0.33330657  0.83211683  0.83128274  1
  I  I126  1  0.66291062  0.16537559  0.16652835  1
  I  I127  1  0.66637106  0.16790762  0.49789621  1
  I  I128  1  0.66633470  0.16741838  0.83562206  1
  I  I129  1  0.66218210  0.50128145  0.16078917  1
  I  I130  1  0.66985925  0.50142317  0.50468023  1
  I  I131  1  0.66703141  0.50565956  0.83505577  1
  I  I132  1  0.66334615  0.83371146  0.16772462  1
  I  I133  1  0.66703054  0.82968722  0.49670658  1
  I  I134  1  0.67008178  0.82708214  0.83462138  1
