# generated using pymatgen
data_Cs27Sn13Pb14I81
_symmetry_space_group_name_H-M   'P 1'
_cell_length_a   18.96702976
_cell_length_b   18.98267970
_cell_length_c   18.98241862
_cell_angle_alpha   90.00146376
_cell_angle_beta   90.00279407
_cell_angle_gamma   90.00083866
_symmetry_Int_Tables_number   1
_chemical_formula_structural   Cs27Sn13Pb14I81
_chemical_formula_sum   'Cs27 Sn13 Pb14 I81'
_cell_volume   6834.52586633
_cell_formula_units_Z   1
loop_
 _symmetry_equiv_pos_site_id
 _symmetry_equiv_pos_as_xyz
  1  'x, y, z'
loop_
 _atom_site_type_symbol
 _atom_site_label
 _atom_site_symmetry_multiplicity
 _atom_site_fract_x
 _atom_site_fract_y
 _atom_site_fract_z
 _atom_site_occupancy
  Cs  Cs0  1  -0.00031343  0.00010783  0.00052679  1
  Cs  Cs1  1  0.00034968  -0.00236850  0.33347917  1
  Cs  Cs2  1  0.00202697  -0.00050360  0.66594046  1
  Cs  Cs3  1  -0.00062719  0.32927928  0.00057627  1
  Cs  Cs4  1  -0.00015329  0.33710921  0.33504899  1
  Cs  Cs5  1  -0.00135120  0.33501355  0.66427541  1
  Cs  Cs6  1  0.00032391  0.67004642  0.00411968  1
  Cs  Cs7  1  -0.00056236  0.66590259  0.33331246  1
  Cs  Cs8  1  -0.00186129  0.66593363  0.66340127  1
  Cs  Cs9  1  0.32967499  0.00000478  -0.00093267  1
  Cs  Cs10  1  0.33707258  -0.00004854  0.33591676  1
  Cs  Cs11  1  0.33200924  0.00262973  0.66493064  1
  Cs  Cs12  1  0.33332188  0.33635606  -0.00154994  1
  Cs  Cs13  1  0.33577242  0.33641229  0.33189289  1
  Cs  Cs14  1  0.33193113  0.33075217  0.66677955  1
  Cs  Cs15  1  0.33857822  0.66294713  0.00098262  1
  Cs  Cs16  1  0.33509165  0.66390213  0.33017487  1
  Cs  Cs17  1  0.33475244  0.66661925  0.66750619  1
  Cs  Cs18  1  0.67021145  0.00115925  0.00107460  1
  Cs  Cs19  1  0.66142362  0.00205939  0.33353714  1
  Cs  Cs20  1  0.66538677  -0.00320991  0.66555373  1
  Cs  Cs21  1  0.66779514  0.33184603  0.00090007  1
  Cs  Cs22  1  0.66498694  0.32916027  0.33231772  1
  Cs  Cs23  1  0.66819536  0.33868475  0.66719796  1
  Cs  Cs24  1  0.65956784  0.66543989  -0.00653295  1
  Cs  Cs25  1  0.66928128  0.66848116  0.33315356  1
  Cs  Cs26  1  0.66474282  0.66315289  0.67476673  1
  Sn  Sn27  1  0.83348483  0.50098455  0.16639886  1
  Sn  Sn28  1  0.16619201  0.83385390  0.49967091  1
  Sn  Sn29  1  0.16712794  0.16679566  0.83327748  1
  Sn  Sn30  1  0.16640281  0.83287784  0.83326021  1
  Sn  Sn31  1  0.49989390  0.50015808  0.49980528  1
  Sn  Sn32  1  0.49967328  0.16623028  0.83329267  1
  Sn  Sn33  1  0.83413981  0.16572749  0.50008065  1
  Sn  Sn34  1  0.16588508  0.50013922  0.83323862  1
  Sn  Sn35  1  0.83391065  0.83249079  0.16742678  1
  Sn  Sn36  1  0.16644665  0.83416026  0.16709439  1
  Sn  Sn37  1  0.16591811  0.16622967  0.49941785  1
  Sn  Sn38  1  0.16659079  0.16610634  0.16726946  1
  Sn  Sn39  1  0.83395748  0.83423088  0.49930783  1
  Pb  Pb40  1  0.49982578  0.16810691  0.50177651  1
  Pb  Pb41  1  0.83541230  0.83336822  0.83328348  1
  Pb  Pb42  1  0.50013911  0.83355602  0.16665937  1
  Pb  Pb43  1  0.16528402  0.50026885  0.16454809  1
  Pb  Pb44  1  0.83141988  0.50059917  0.49849771  1
  Pb  Pb45  1  0.50321873  0.49998255  0.16855529  1
  Pb  Pb46  1  0.49767105  0.49762405  0.83169730  1
  Pb  Pb47  1  0.50014631  0.83126728  0.50003482  1
  Pb  Pb48  1  0.83583994  0.50004742  0.83630024  1
  Pb  Pb49  1  0.16796721  0.50032215  0.50158257  1
  Pb  Pb50  1  0.83399670  0.16650694  0.83053684  1
  Pb  Pb51  1  0.49685137  0.16652039  0.16391492  1
  Pb  Pb52  1  0.83553442  0.16575303  0.16907300  1
  Pb  Pb53  1  0.49712333  0.83612832  0.83329470  1
  I  I54  1  0.16130255  -0.00054915  0.16209710  1
  I  I55  1  0.16375834  0.00015533  0.50399288  1
  I  I56  1  0.17033546  0.00025453  0.83318140  1
  I  I57  1  0.16483343  0.33056860  0.16613261  1
  I  I58  1  0.16392146  0.33021505  0.50112132  1
  I  I59  1  0.17075989  0.33187647  0.83327325  1
  I  I60  1  0.16423967  0.67002192  0.16716026  1
  I  I61  1  0.16337090  0.67011207  0.50037297  1
  I  I62  1  0.16449118  0.66767997  0.83267181  1
  I  I63  1  0.50428306  0.00021646  0.16776495  1
  I  I64  1  0.49985020  0.00004685  0.50146607  1
  I  I65  1  0.49291440  0.00371820  0.83095681  1
  I  I66  1  0.50026800  0.33319919  0.16743266  1
  I  I67  1  0.49948465  0.33554669  0.50155196  1
  I  I68  1  0.49155504  0.33016456  0.83187044  1
  I  I69  1  0.49419618  0.66666270  0.16670712  1
  I  I70  1  0.49867240  0.66382391  0.50071532  1
  I  I71  1  0.49852031  0.66655046  0.83226630  1
  I  I72  1  0.83690281  -0.00322746  0.16794100  1
  I  I73  1  0.83799536  -0.00064250  0.49541477  1
  I  I74  1  0.83440129  0.00002823  0.83818524  1
  I  I75  1  0.83535551  0.33474363  0.16807838  1
  I  I76  1  0.83737469  0.33085551  0.49933877  1
  I  I77  1  0.83668437  0.33315559  0.83301984  1
  I  I78  1  0.84127363  0.66849343  0.17364664  1
  I  I79  1  0.83852121  0.67004683  0.49722345  1
  I  I80  1  0.83573546  0.66676677  0.82786868  1
  I  I81  1  0.17075095  0.16431457  -0.00038082  1
  I  I82  1  0.16175629  0.16058502  0.33407724  1
  I  I83  1  0.16738533  0.16405097  0.66655711  1
  I  I84  1  0.16609004  0.49877880  -0.00334852  1
  I  I85  1  0.16764530  0.49891302  0.33322509  1
  I  I86  1  0.16795774  0.49906445  0.66956378  1
  I  I87  1  0.16268351  0.83718527  0.00032815  1
  I  I88  1  0.16229749  0.84026283  0.33353051  1
  I  I89  1  0.16363440  0.83635333  0.66620104  1
  I  I90  1  0.49376720  0.16780885  -0.00392767  1
  I  I91  1  0.49911480  0.16856858  0.33352552  1
  I  I92  1  0.49142048  0.16751848  0.66923372  1
  I  I93  1  0.50000880  0.49940486  -0.00023175  1
  I  I94  1  0.49630660  0.49807305  0.33617704  1
  I  I95  1  0.50116438  0.49985717  0.66415357  1
  I  I96  1  0.50015330  0.83218363  -0.00012536  1
  I  I97  1  0.49447724  0.83328793  0.33351754  1
  I  I98  1  0.50026726  0.83233002  0.66661078  1
  I  I99  1  0.83385402  0.16714781  0.00020392  1
  I  I100  1  0.83855394  0.16661881  0.33691678  1
  I  I101  1  0.83946434  0.16181536  0.66252774  1
  I  I102  1  0.83454744  0.50568756  0.00412902  1
  I  I103  1  0.83537831  0.50164286  0.33082413  1
  I  I104  1  0.83217381  0.49978813  0.66653083  1
  I  I105  1  0.83877511  0.82995002  0.00326809  1
  I  I106  1  0.84244010  0.83225522  0.33369836  1
  I  I107  1  0.83802944  0.83779559  0.66320529  1
  I  I108  1  0.00390810  0.16540719  0.16051704  1
  I  I109  1  0.00177598  0.16409897  0.50259276  1
  I  I110  1  0.00425006  0.16594925  0.83522213  1
  I  I111  1  -0.00240688  0.50191654  0.16814155  1
  I  I112  1  -0.00004386  0.49900931  0.50092322  1
  I  I113  1  0.00413777  0.49602403  0.83046878  1
  I  I114  1  0.00133031  0.83309587  0.16701188  1
  I  I115  1  0.00123452  0.83662904  0.49991260  1
  I  I116  1  0.00446001  0.83776537  0.83344796  1
  I  I117  1  0.32811060  0.16119504  0.17189519  1
  I  I118  1  0.32962891  0.16323854  0.49966834  1
  I  I119  1  0.33018164  0.16632805  0.83100861  1
  I  I120  1  0.33319966  0.49998254  0.16606839  1
  I  I121  1  0.33547436  0.49888169  0.50152409  1
  I  I122  1  0.32949499  0.50211726  0.83416479  1
  I  I123  1  0.32899903  0.83753114  0.16728019  1
  I  I124  1  0.32948257  0.83749797  0.50023795  1
  I  I125  1  0.32803108  0.83149572  0.83291638  1
  I  I126  1  0.66696473  0.16697379  0.16639499  1
  I  I127  1  0.66947616  0.16359966  0.50108179  1
  I  I128  1  0.66427236  0.16834140  0.83094045  1
  I  I129  1  0.67114082  0.50603687  0.16756582  1
  I  I130  1  0.66408175  0.49823736  0.49960839  1
  I  I131  1  0.66648715  0.49809144  0.83277501  1
  I  I132  1  0.67056704  0.82981273  0.17289848  1
  I  I133  1  0.67033729  0.83796445  0.49366059  1
  I  I134  1  0.66664372  0.83414732  0.83298369  1
