# generated using pymatgen
data_Cs27Sn14Pb13I81
_symmetry_space_group_name_H-M   'P 1'
_cell_length_a   18.99048149
_cell_length_b   18.96523240
_cell_length_c   18.97547769
_cell_angle_alpha   89.99910626
_cell_angle_beta   89.99959804
_cell_angle_gamma   89.99958024
_symmetry_Int_Tables_number   1
_chemical_formula_structural   Cs27Sn14Pb13I81
_chemical_formula_sum   'Cs27 Sn14 Pb13 I81'
_cell_volume   6834.18707198
_cell_formula_units_Z   1
loop_
 _symmetry_equiv_pos_site_id
 _symmetry_equiv_pos_as_xyz
  1  'x, y, z'
loop_
 _atom_site_type_symbol
 _atom_site_label
 _atom_site_symmetry_multiplicity
 _atom_site_fract_x
 _atom_site_fract_y
 _atom_site_fract_z
 _atom_site_occupancy
  Cs  Cs0  1  0.00009630  0.00328085  0.00123547  1
  Cs  Cs1  1  -0.00045818  -0.00004370  0.33579105  1
  Cs  Cs2  1  0.00171399  -0.00121765  0.66279883  1
  Cs  Cs3  1  0.00769716  0.32718573  -0.00783633  1
  Cs  Cs4  1  0.00030792  0.33411674  0.33400397  1
  Cs  Cs5  1  -0.00001033  0.33470936  0.66903725  1
  Cs  Cs6  1  0.00014082  0.66607459  0.00092977  1
  Cs  Cs7  1  -0.00151449  0.66708612  0.33413636  1
  Cs  Cs8  1  -0.00060620  0.66694356  0.66563592  1
  Cs  Cs9  1  0.33403239  0.00210846  -0.00083175  1
  Cs  Cs10  1  0.33283840  -0.00131941  0.33631613  1
  Cs  Cs11  1  0.33288414  -0.00160041  0.66427513  1
  Cs  Cs12  1  0.32991474  0.33266759  0.00107643  1
  Cs  Cs13  1  0.33440403  0.33824050  0.32778861  1
  Cs  Cs14  1  0.33484763  0.33533585  0.67075456  1
  Cs  Cs15  1  0.33090107  0.66421777  0.00249058  1
  Cs  Cs16  1  0.33339502  0.66475225  0.33203953  1
  Cs  Cs17  1  0.33485585  0.66758322  0.66575195  1
  Cs  Cs18  1  0.66596385  0.00058498  0.00115357  1
  Cs  Cs19  1  0.66766994  -0.00025346  0.33399878  1
  Cs  Cs20  1  0.66585883  -0.00162499  0.66456998  1
  Cs  Cs21  1  0.66073444  0.32264319  -0.00858836  1
  Cs  Cs22  1  0.66540574  0.33450217  0.33372610  1
  Cs  Cs23  1  0.66539951  0.33688000  0.66998434  1
  Cs  Cs24  1  0.66833592  0.66973218  0.00012416  1
  Cs  Cs25  1  0.66856533  0.66580458  0.33280594  1
  Cs  Cs26  1  0.66712267  0.66640778  0.66677304  1
  Sn  Sn27  1  0.83314859  0.49964755  0.16636421  1
  Sn  Sn28  1  0.16652084  0.83324401  0.83462660  1
  Sn  Sn29  1  0.83418864  0.50003487  0.49910423  1
  Sn  Sn30  1  0.83304762  0.16709117  0.49976524  1
  Sn  Sn31  1  0.50004111  0.83331529  0.16692747  1
  Sn  Sn32  1  0.83368129  0.83328278  0.83342255  1
  Sn  Sn33  1  0.50121970  0.83374526  0.49969328  1
  Sn  Sn34  1  0.83230755  0.83319514  0.49985040  1
  Sn  Sn35  1  0.16594149  0.49891868  0.49993459  1
  Sn  Sn36  1  0.16704473  0.16856237  0.49969472  1
  Sn  Sn37  1  0.49996410  0.16613686  0.49971765  1
  Sn  Sn38  1  0.16631968  0.83345059  0.16574004  1
  Sn  Sn39  1  0.49988457  0.83318666  0.83336864  1
  Sn  Sn40  1  0.83351737  0.83275749  0.16674663  1
  Pb  Pb41  1  0.50001417  0.50234593  0.83387490  1
  Pb  Pb42  1  0.83339627  0.16384334  0.83050717  1
  Pb  Pb43  1  0.83341444  0.16740186  0.16839597  1
  Pb  Pb44  1  0.50044522  0.50006793  0.50002122  1
  Pb  Pb45  1  0.50327050  0.50172619  0.16642740  1
  Pb  Pb46  1  0.16682176  0.16409169  0.83070837  1
  Pb  Pb47  1  0.16678678  0.83295951  0.49976028  1
  Pb  Pb48  1  0.16659280  0.50247330  0.83102977  1
  Pb  Pb49  1  0.50002683  0.16463295  0.16910571  1
  Pb  Pb50  1  0.16400409  0.50196777  0.16852233  1
  Pb  Pb51  1  0.16657301  0.16449547  0.16914067  1
  Pb  Pb52  1  0.49975475  0.16420342  0.83074641  1
  Pb  Pb53  1  0.83327764  0.50172299  0.83419155  1
  I  I54  1  0.16346869  -0.00469269  0.16601674  1
  I  I55  1  0.16429975  0.00147905  0.50032302  1
  I  I56  1  0.16626630  -0.00468945  0.83366631  1
  I  I57  1  0.16499718  0.33360406  0.16711683  1
  I  I58  1  0.16211631  0.33303600  0.49950116  1
  I  I59  1  0.16615860  0.33323717  0.83362766  1
  I  I60  1  0.16870693  0.67088333  0.16663896  1
  I  I61  1  0.16266640  0.66488850  0.50034750  1
  I  I62  1  0.16630289  0.67134851  0.83324321  1
  I  I63  1  0.50407352  -0.00504040  0.16496562  1
  I  I64  1  0.50247108  -0.00190804  0.50020266  1
  I  I65  1  0.50100219  -0.00496982  0.83469024  1
  I  I66  1  0.50145219  0.33331849  0.17008426  1
  I  I67  1  0.50298949  0.33036125  0.50015948  1
  I  I68  1  0.50116756  0.33275448  0.83023596  1
  I  I69  1  0.49791971  0.67164170  0.17136285  1
  I  I70  1  0.50244534  0.67034551  0.50068840  1
  I  I71  1  0.50113803  0.67224456  0.82742960  1
  I  I72  1  0.83265832  -0.00407048  0.16770274  1
  I  I73  1  0.83349396  -0.00136714  0.50057267  1
  I  I74  1  0.83268120  -0.00526371  0.83379469  1
  I  I75  1  0.83385155  0.33670393  0.17666135  1
  I  I76  1  0.83423876  0.33363798  0.49387611  1
  I  I77  1  0.83339510  0.33316049  0.83296945  1
  I  I78  1  0.83327589  0.66945925  0.17303485  1
  I  I79  1  0.83409019  0.66802668  0.50004810  1
  I  I80  1  0.83266288  0.67121912  0.82703308  1
  I  I81  1  0.16609054  0.16684226  -0.00010972  1
  I  I82  1  0.16541812  0.16527263  0.33792382  1
  I  I83  1  0.16544878  0.16592369  0.66201866  1
  I  I84  1  0.16527833  0.50095549  0.00020077  1
  I  I85  1  0.16447436  0.50015584  0.33692479  1
  I  I86  1  0.15940556  0.49935263  0.66247798  1
  I  I87  1  0.16621470  0.83248403  0.00019291  1
  I  I88  1  0.16631210  0.83382894  0.33131634  1
  I  I89  1  0.16639958  0.83384376  0.66832428  1
  I  I90  1  0.50095005  0.16471334  -0.00012558  1
  I  I91  1  0.50116719  0.15849982  0.33783863  1
  I  I92  1  0.50077740  0.15879705  0.66209097  1
  I  I93  1  0.50185038  0.50386941  0.00033610  1
  I  I94  1  0.49781777  0.50396655  0.33359670  1
  I  I95  1  0.50207109  0.50389416  0.66618881  1
  I  I96  1  0.50347266  0.83088857  0.00016484  1
  I  I97  1  0.50238181  0.83746028  0.33408162  1
  I  I98  1  0.50207720  0.83719262  0.66573648  1
  I  I99  1  0.83349362  0.16593511  -0.00016901  1
  I  I100  1  0.83354214  0.15923644  0.33764772  1
  I  I101  1  0.83342067  0.16590545  0.66152618  1
  I  I102  1  0.83227440  0.51115969  0.00339650  1
  I  I103  1  0.83689535  0.50733182  0.33513651  1
  I  I104  1  0.83647180  0.50156435  0.66318502  1
  I  I105  1  0.83099151  0.82777702  0.00067458  1
  I  I106  1  0.83160260  0.83345702  0.33437388  1
  I  I107  1  0.83147352  0.83398061  0.66529426  1
  I  I108  1  -0.00012263  0.16073486  0.17132112  1
  I  I109  1  -0.00060817  0.16390355  0.49972053  1
  I  I110  1  0.00004120  0.16249283  0.83022312  1
  I  I111  1  -0.00375583  0.51032987  0.17204342  1
  I  I112  1  -0.00143396  0.49969164  0.49698132  1
  I  I113  1  -0.00013888  0.50512595  0.83256411  1
  I  I114  1  -0.00099975  0.83011153  0.16609148  1
  I  I115  1  -0.00269689  0.83533425  0.50016667  1
  I  I116  1  -0.00056797  0.83294549  0.83329772  1
  I  I117  1  0.33330799  0.16259649  0.17164636  1
  I  I118  1  0.33351317  0.16181536  0.50034365  1
  I  I119  1  0.33328926  0.16132492  0.82824581  1
  I  I120  1  0.33315998  0.50397571  0.17034361  1
  I  I121  1  0.33085494  0.49956193  0.50114232  1
  I  I122  1  0.33312362  0.50526149  0.82841547  1
  I  I123  1  0.33353624  0.83525985  0.16623209  1
  I  I124  1  0.33561315  0.83617481  0.50046273  1
  I  I125  1  0.33359658  0.83372870  0.83307937  1
  I  I126  1  0.66681046  0.16332290  0.17021604  1
  I  I127  1  0.66709480  0.16279164  0.49932831  1
  I  I128  1  0.66666645  0.16443506  0.83126422  1
  I  I129  1  0.67123283  0.50960437  0.17811129  1
  I  I130  1  0.67008220  0.49998187  0.49671374  1
  I  I131  1  0.66700418  0.50366808  0.82839745  1
  I  I132  1  0.66733850  0.83002649  0.16607853  1
  I  I133  1  0.66764184  0.83583968  0.50044046  1
  I  I134  1  0.66695145  0.83302485  0.83356249  1
