# generated using pymatgen
data_Cs27Sn14Pb13I81
_symmetry_space_group_name_H-M   'P 1'
_cell_length_a   18.98160465
_cell_length_b   18.97756666
_cell_length_c   18.97083556
_cell_angle_alpha   90.00203949
_cell_angle_beta   90.00321703
_cell_angle_gamma   90.00183498
_symmetry_Int_Tables_number   1
_chemical_formula_structural   Cs27Sn14Pb13I81
_chemical_formula_sum   'Cs27 Sn14 Pb13 I81'
_cell_volume   6833.76291525
_cell_formula_units_Z   1
loop_
 _symmetry_equiv_pos_site_id
 _symmetry_equiv_pos_as_xyz
  1  'x, y, z'
loop_
 _atom_site_type_symbol
 _atom_site_label
 _atom_site_symmetry_multiplicity
 _atom_site_fract_x
 _atom_site_fract_y
 _atom_site_fract_z
 _atom_site_occupancy
  Cs  Cs0  1  0.00019253  0.00392139  0.00060131  1
  Cs  Cs1  1  -0.00041507  0.00074205  0.33415768  1
  Cs  Cs2  1  -0.00086041  -0.00297426  0.66354807  1
  Cs  Cs3  1  0.00213644  0.33032045  -0.00175674  1
  Cs  Cs4  1  -0.00197520  0.33412739  0.33156318  1
  Cs  Cs5  1  0.00056994  0.33494928  0.66949814  1
  Cs  Cs6  1  -0.00189190  0.66492795  0.00003243  1
  Cs  Cs7  1  0.00092544  0.66638010  0.33418608  1
  Cs  Cs8  1  -0.00038558  0.66842286  0.66562263  1
  Cs  Cs9  1  0.33646121  0.00214042  -0.00198074  1
  Cs  Cs10  1  0.33046951  -0.00465594  0.33279533  1
  Cs  Cs11  1  0.33240709  0.00197230  0.66650704  1
  Cs  Cs12  1  0.33098498  0.32936018  -0.00507208  1
  Cs  Cs13  1  0.33514866  0.33627473  0.33266179  1
  Cs  Cs14  1  0.34119201  0.33190164  0.67363401  1
  Cs  Cs15  1  0.33534184  0.66816246  0.00316282  1
  Cs  Cs16  1  0.33206234  0.66723237  0.33279029  1
  Cs  Cs17  1  0.33136413  0.66324946  0.66324035  1
  Cs  Cs18  1  0.66386538  -0.00389806  -0.00302470  1
  Cs  Cs19  1  0.66880526  0.00170744  0.33376648  1
  Cs  Cs20  1  0.66603514  0.00401253  0.66970960  1
  Cs  Cs21  1  0.66776732  0.33450523  0.00159082  1
  Cs  Cs22  1  0.66692601  0.33199574  0.33398330  1
  Cs  Cs23  1  0.65604252  0.33036647  0.66705112  1
  Cs  Cs24  1  0.66789885  0.66980775  -0.00360488  1
  Cs  Cs25  1  0.66810302  0.66540127  0.33150199  1
  Cs  Cs26  1  0.66830071  0.66491994  0.67336892  1
  Sn  Sn27  1  0.83376625  0.50056143  0.49956059  1
  Sn  Sn28  1  0.16652103  0.50053758  0.16736173  1
  Sn  Sn29  1  0.16558414  0.83274369  0.16640957  1
  Sn  Sn30  1  0.16653796  0.83297078  0.83377424  1
  Sn  Sn31  1  0.16651718  0.83310867  0.49981730  1
  Sn  Sn32  1  0.83363756  0.50082488  0.16754965  1
  Sn  Sn33  1  0.16660112  0.16776239  0.49963132  1
  Sn  Sn34  1  0.83375456  0.16678373  0.83312653  1
  Sn  Sn35  1  0.83289794  0.83245537  0.49926255  1
  Sn  Sn36  1  0.49981541  0.16725979  0.16750318  1
  Sn  Sn37  1  0.83431153  0.83270026  0.16750963  1
  Sn  Sn38  1  0.50071896  0.83301986  0.49999779  1
  Sn  Sn39  1  0.49986931  0.49914110  0.16699562  1
  Sn  Sn40  1  0.16604415  0.49945039  0.49935340  1
  Pb  Pb41  1  0.83351717  0.49791228  0.83281460  1
  Pb  Pb42  1  0.83533349  0.83465208  0.83335052  1
  Pb  Pb43  1  0.83501890  0.16734506  0.50152308  1
  Pb  Pb44  1  0.49693321  0.83308908  0.82981532  1
  Pb  Pb45  1  0.16828378  0.16675983  0.16850817  1
  Pb  Pb46  1  0.83171278  0.16644908  0.16536669  1
  Pb  Pb47  1  0.50030058  0.83279979  0.16826634  1
  Pb  Pb48  1  0.49985467  0.50045944  0.83686492  1
  Pb  Pb49  1  0.49737097  0.16434626  0.49775191  1
  Pb  Pb50  1  0.50027541  0.50205316  0.49820012  1
  Pb  Pb51  1  0.16503708  0.16428250  0.83051299  1
  Pb  Pb52  1  0.50226527  0.16647930  0.83608363  1
  Pb  Pb53  1  0.16652195  0.50228222  0.83327216  1
  I  I54  1  0.16406600  -0.00345872  0.16888687  1
  I  I55  1  0.16678391  -0.00223820  0.49991377  1
  I  I56  1  0.16552823  -0.00364606  0.83363958  1
  I  I57  1  0.16395688  0.33669397  0.17194132  1
  I  I58  1  0.16027147  0.33499139  0.49320070  1
  I  I59  1  0.16599301  0.33322671  0.83351358  1
  I  I60  1  0.16855727  0.66703470  0.17112635  1
  I  I61  1  0.16656264  0.66750338  0.49941643  1
  I  I62  1  0.16468410  0.67018910  0.82821290  1
  I  I63  1  0.49975425  0.00133351  0.16842882  1
  I  I64  1  0.49962683  -0.00357785  0.49632395  1
  I  I65  1  0.50019460  -0.00022269  0.83726931  1
  I  I66  1  0.50050354  0.33474298  0.16810220  1
  I  I67  1  0.49987375  0.33354648  0.50079544  1
  I  I68  1  0.49957104  0.33318569  0.82946265  1
  I  I69  1  0.49891773  0.66401854  0.16895344  1
  I  I70  1  0.49373549  0.66979454  0.49610948  1
  I  I71  1  0.50202133  0.66710716  0.83633033  1
  I  I72  1  0.83672973  -0.00337494  0.17036164  1
  I  I73  1  0.83551309  -0.00331124  0.49669485  1
  I  I74  1  0.83502698  0.00211768  0.83355145  1
  I  I75  1  0.83544520  0.33675013  0.16964180  1
  I  I76  1  0.83921564  0.33686105  0.49547681  1
  I  I77  1  0.83478266  0.33049841  0.83449830  1
  I  I78  1  0.83228422  0.66667662  0.16994894  1
  I  I79  1  0.83860390  0.66747667  0.49614658  1
  I  I80  1  0.83378330  0.66671114  0.83369940  1
  I  I81  1  0.16769480  0.16599310  0.00006772  1
  I  I82  1  0.16566149  0.16019420  0.33631103  1
  I  I83  1  0.16591273  0.16558216  0.66248479  1
  I  I84  1  0.16614301  0.50449799  0.00385742  1
  I  I85  1  0.16639325  0.50521018  0.33328923  1
  I  I86  1  0.16091828  0.50243093  0.66279345  1
  I  I87  1  0.16166626  0.82841587  0.00184572  1
  I  I88  1  0.16678100  0.83292854  0.33392471  1
  I  I89  1  0.16649660  0.83408283  0.66444228  1
  I  I90  1  0.49789618  0.16961022  0.00387287  1
  I  I91  1  0.50219815  0.17113076  0.33031562  1
  I  I92  1  0.49971677  0.16513155  0.66647830  1
  I  I93  1  0.49974925  0.49774314  0.00562169  1
  I  I94  1  0.49946773  0.49730198  0.32998921  1
  I  I95  1  0.50002054  0.50088600  0.66619417  1
  I  I96  1  0.49982569  0.83387332  0.00021078  1
  I  I97  1  0.49407251  0.83337235  0.33591314  1
  I  I98  1  0.50091704  0.83405543  0.66172998  1
  I  I99  1  0.83324207  0.16562863  -0.00218563  1
  I  I100  1  0.83264019  0.16577201  0.33338242  1
  I  I101  1  0.83599123  0.16422676  0.66895328  1
  I  I102  1  0.83328577  0.50374309  0.00376638  1
  I  I103  1  0.83468353  0.50363890  0.33277199  1
  I  I104  1  0.84017987  0.50527578  0.66279233  1
  I  I105  1  0.83697401  0.83021042  0.00332886  1
  I  I106  1  0.83821878  0.83094583  0.33365595  1
  I  I107  1  0.83531693  0.83041776  0.66314349  1
  I  I108  1  0.00005302  0.16794692  0.16560597  1
  I  I109  1  0.00289815  0.16047120  0.49901590  1
  I  I110  1  -0.00223856  0.16660133  0.83607641  1
  I  I111  1  0.00014802  0.50543699  0.17079272  1
  I  I112  1  0.00067473  0.50493617  0.49240051  1
  I  I113  1  0.00001440  0.49849400  0.83799623  1
  I  I114  1  0.00064731  0.82726968  0.17094542  1
  I  I115  1  0.00077083  0.83327901  0.49989484  1
  I  I116  1  0.00296402  0.83421357  0.82826625  1
  I  I117  1  0.33601911  0.16962559  0.16832462  1
  I  I118  1  0.32936471  0.16558532  0.49944821  1
  I  I119  1  0.33328517  0.16560254  0.83299035  1
  I  I120  1  0.33189321  0.50164258  0.17148793  1
  I  I121  1  0.33013918  0.50285352  0.49543477  1
  I  I122  1  0.33301466  0.49961435  0.83161066  1
  I  I123  1  0.33026664  0.83069421  0.16858109  1
  I  I124  1  0.33111441  0.83382396  0.49919262  1
  I  I125  1  0.32886174  0.83453943  0.83566920  1
  I  I126  1  0.66400331  0.17014279  0.16636361  1
  I  I127  1  0.66658482  0.16568102  0.50151261  1
  I  I128  1  0.66969130  0.16458830  0.83114715  1
  I  I129  1  0.66784138  0.49977999  0.17081267  1
  I  I130  1  0.66980222  0.50480620  0.49539844  1
  I  I131  1  0.66688490  0.50006050  0.83226999  1
  I  I132  1  0.66958187  0.83119605  0.17137484  1
  I  I133  1  0.66832597  0.82932842  0.49291542  1
  I  I134  1  0.66686849  0.83535338  0.83415567  1
