# generated using pymatgen
data_Cs27Sn14Pb13I81
_symmetry_space_group_name_H-M   'P 1'
_cell_length_a   18.97257990
_cell_length_b   18.98640056
_cell_length_c   18.96975430
_cell_angle_alpha   90.00081381
_cell_angle_beta   90.00040300
_cell_angle_gamma   90.00253606
_symmetry_Int_Tables_number   1
_chemical_formula_structural   Cs27Sn14Pb13I81
_chemical_formula_sum   'Cs27 Sn14 Pb13 I81'
_cell_volume   6833.30388804
_cell_formula_units_Z   1
loop_
 _symmetry_equiv_pos_site_id
 _symmetry_equiv_pos_as_xyz
  1  'x, y, z'
loop_
 _atom_site_type_symbol
 _atom_site_label
 _atom_site_symmetry_multiplicity
 _atom_site_fract_x
 _atom_site_fract_y
 _atom_site_fract_z
 _atom_site_occupancy
  Cs  Cs0  1  0.01061904  -0.00071508  -0.00795672  1
  Cs  Cs1  1  -0.00278485  -0.00216521  0.33446035  1
  Cs  Cs2  1  -0.00159405  0.00310007  0.67070605  1
  Cs  Cs3  1  0.00424967  0.33050507  -0.00373290  1
  Cs  Cs4  1  -0.00026680  0.33728258  0.33463249  1
  Cs  Cs5  1  -0.00191301  0.33117556  0.66731391  1
  Cs  Cs6  1  0.00056468  0.67102851  -0.00210010  1
  Cs  Cs7  1  -0.00012970  0.66551369  0.33415577  1
  Cs  Cs8  1  -0.00073419  0.66524833  0.66554231  1
  Cs  Cs9  1  0.32408544  0.00243398  -0.00120838  1
  Cs  Cs10  1  0.33518113  0.00014140  0.33504090  1
  Cs  Cs11  1  0.33484014  -0.00279651  0.66481421  1
  Cs  Cs12  1  0.33404228  0.33116073  -0.00003472  1
  Cs  Cs13  1  0.33308283  0.33463067  0.33472481  1
  Cs  Cs14  1  0.33341404  0.33542967  0.66446129  1
  Cs  Cs15  1  0.33037738  0.66883151  -0.00351517  1
  Cs  Cs16  1  0.33125796  0.66451276  0.33497567  1
  Cs  Cs17  1  0.33705314  0.66713319  0.66694542  1
  Cs  Cs18  1  0.66729501  -0.00031298  0.00698700  1
  Cs  Cs19  1  0.66694925  -0.00042857  0.33301599  1
  Cs  Cs20  1  0.66758387  -0.00094673  0.66705758  1
  Cs  Cs21  1  0.66435975  0.33641169  0.00274936  1
  Cs  Cs22  1  0.66668107  0.33267977  0.33238191  1
  Cs  Cs23  1  0.66847067  0.33283863  0.66814886  1
  Cs  Cs24  1  0.66774324  0.66377145  -0.00170241  1
  Cs  Cs25  1  0.66827445  0.66749990  0.33238482  1
  Cs  Cs26  1  0.66419209  0.66741705  0.67328381  1
  Sn  Sn27  1  0.83384357  0.83241988  0.49954315  1
  Sn  Sn28  1  0.50058192  0.16641184  0.83333323  1
  Sn  Sn29  1  0.83279345  0.83338196  0.16726947  1
  Sn  Sn30  1  0.16558653  0.83429014  0.49948192  1
  Sn  Sn31  1  0.50045946  0.16654199  0.16675392  1
  Sn  Sn32  1  0.50141661  0.49940301  0.49924184  1
  Sn  Sn33  1  0.50018073  0.83309604  0.16690101  1
  Sn  Sn34  1  0.83283867  0.49995429  0.16741363  1
  Sn  Sn35  1  0.50037257  0.50037837  0.16763973  1
  Sn  Sn36  1  0.16714972  0.16581506  0.49927725  1
  Sn  Sn37  1  0.83180113  0.50094563  0.49943759  1
  Sn  Sn38  1  0.16677603  0.49990331  0.83321404  1
  Sn  Sn39  1  0.83339688  0.16663989  0.16670002  1
  Sn  Sn40  1  0.49959611  0.16737116  0.50010730  1
  Pb  Pb41  1  0.16917323  0.16836865  0.83005105  1
  Pb  Pb42  1  0.16649469  0.50002224  0.16457984  1
  Pb  Pb43  1  0.83512392  0.49989240  0.83366487  1
  Pb  Pb44  1  0.16677547  0.83115236  0.82960216  1
  Pb  Pb45  1  0.49870835  0.49834500  0.83354782  1
  Pb  Pb46  1  0.16625792  0.83328900  0.16897455  1
  Pb  Pb47  1  0.16656628  0.50002399  0.50118312  1
  Pb  Pb48  1  0.83300651  0.83346711  0.83369272  1
  Pb  Pb49  1  0.16669218  0.16679336  0.16922754  1
  Pb  Pb50  1  0.50016291  0.83642690  0.83728021  1
  Pb  Pb51  1  0.83058619  0.16672881  0.83714714  1
  Pb  Pb52  1  0.50082090  0.83299965  0.49834683  1
  Pb  Pb53  1  0.83274432  0.16673436  0.49834458  1
  I  I54  1  0.16732824  0.00007072  0.16474024  1
  I  I55  1  0.16800197  0.00028895  0.49858709  1
  I  I56  1  0.16737594  0.00014985  0.83491045  1
  I  I57  1  0.16609768  0.33337227  0.16896938  1
  I  I58  1  0.16886406  0.33128766  0.50154301  1
  I  I59  1  0.16647379  0.33564765  0.83141578  1
  I  I60  1  0.16877166  0.66664075  0.16854724  1
  I  I61  1  0.16567904  0.66874764  0.50131182  1
  I  I62  1  0.16830320  0.66377620  0.83269282  1
  I  I63  1  0.50663129  0.00086861  0.16787460  1
  I  I64  1  0.49847349  0.00265536  0.49879566  1
  I  I65  1  0.49919739  0.00432595  0.82975215  1
  I  I66  1  0.50543370  0.33313638  0.16717096  1
  I  I67  1  0.49852762  0.33307177  0.49544798  1
  I  I68  1  0.49840752  0.33057845  0.83758694  1
  I  I69  1  0.50547820  0.66579292  0.17254855  1
  I  I70  1  0.49893458  0.66387262  0.49533642  1
  I  I71  1  0.49775862  0.66663339  0.83247426  1
  I  I72  1  0.82452912  -0.00039159  0.17243480  1
  I  I73  1  0.83413894  -0.00224299  0.49510563  1
  I  I74  1  0.83391416  0.00020102  0.83135126  1
  I  I75  1  0.82648050  0.33389465  0.17117243  1
  I  I76  1  0.83339363  0.33590288  0.49579541  1
  I  I77  1  0.83543078  0.33329907  0.83138288  1
  I  I78  1  0.82681507  0.66647944  0.17139053  1
  I  I79  1  0.83521509  0.66631877  0.49187164  1
  I  I80  1  0.83370757  0.66655150  0.83688242  1
  I  I81  1  0.16674245  0.16757467  -0.00017278  1
  I  I82  1  0.17385096  0.16519258  0.33704064  1
  I  I83  1  0.17124875  0.16348955  0.66225525  1
  I  I84  1  0.16765335  0.49875974  -0.00290979  1
  I  I85  1  0.16716641  0.49984250  0.33357552  1
  I  I86  1  0.16780001  0.49947186  0.66854026  1
  I  I87  1  0.16647518  0.83270037  -0.00015014  1
  I  I88  1  0.16545104  0.83529806  0.33691835  1
  I  I89  1  0.16131482  0.83791291  0.66170384  1
  I  I90  1  0.50576839  0.16767990  0.00180420  1
  I  I91  1  0.49955352  0.16759081  0.33298144  1
  I  I92  1  0.49416883  0.17235127  0.66503233  1
  I  I93  1  0.50343228  0.49895515  0.00360708  1
  I  I94  1  0.50240148  0.49480982  0.33316150  1
  I  I95  1  0.50203010  0.49552711  0.66343086  1
  I  I96  1  0.50744766  0.83038268  0.00560787  1
  I  I97  1  0.50131034  0.83821419  0.33022912  1
  I  I98  1  0.49929469  0.83304578  0.66653855  1
  I  I99  1  0.82751457  0.16796116  0.00560070  1
  I  I100  1  0.82728247  0.16639717  0.33022503  1
  I  I101  1  0.83315803  0.16697247  0.66647572  1
  I  I102  1  0.82867094  0.50055967  0.00398870  1
  I  I103  1  0.83030945  0.50059127  0.33310295  1
  I  I104  1  0.83025257  0.50463674  0.66306080  1
  I  I105  1  0.82754979  0.83148825  0.00429467  1
  I  I106  1  0.83351553  0.83252429  0.33284055  1
  I  I107  1  0.83758407  0.82860044  0.66293463  1
  I  I108  1  -0.00319054  0.16757470  0.16990838  1
  I  I109  1  0.00172771  0.16679271  0.49755973  1
  I  I110  1  0.00024985  0.16757512  0.83369684  1
  I  I111  1  -0.00387488  0.50026403  0.17142948  1
  I  I112  1  -0.00282616  0.50047502  0.49647141  1
  I  I113  1  0.00277289  0.49911916  0.83186555  1
  I  I114  1  -0.00372650  0.83193180  0.16927191  1
  I  I115  1  -0.00123842  0.83221641  0.49338821  1
  I  I116  1  0.00010620  0.83362718  0.83880738  1
  I  I117  1  0.33718998  0.16707950  0.16478359  1
  I  I118  1  0.33519522  0.16714085  0.49765301  1
  I  I119  1  0.33680872  0.16808136  0.84050321  1
  I  I120  1  0.33710309  0.49855874  0.17083571  1
  I  I121  1  0.33617401  0.49877911  0.49691787  1
  I  I122  1  0.33115088  0.49860228  0.83159354  1
  I  I123  1  0.33644643  0.83408355  0.16793457  1
  I  I124  1  0.33190659  0.83416323  0.49865430  1
  I  I125  1  0.33345090  0.83232940  0.83340775  1
  I  I126  1  0.66537616  0.16655787  0.16902146  1
  I  I127  1  0.66336593  0.16763273  0.50069425  1
  I  I128  1  0.66269159  0.16890265  0.82622199  1
  I  I129  1  0.66620946  0.49912943  0.16994247  1
  I  I130  1  0.66625497  0.49895242  0.49599070  1
  I  I131  1  0.66657589  0.49876249  0.83291180  1
  I  I132  1  0.66709069  0.83467840  0.17314872  1
  I  I133  1  0.66953721  0.83311461  0.49653013  1
  I  I134  1  0.66636080  0.83223743  0.82655720  1
