# generated using pymatgen
data_Cs27Sn13Pb14I81
_symmetry_space_group_name_H-M   'P 1'
_cell_length_a   18.97329518
_cell_length_b   18.97768545
_cell_length_c   18.97807450
_cell_angle_alpha   90.00102682
_cell_angle_beta   90.00113661
_cell_angle_gamma   89.99932441
_symmetry_Int_Tables_number   1
_chemical_formula_structural   Cs27Sn13Pb14I81
_chemical_formula_sum   'Cs27 Sn13 Pb14 I81'
_cell_volume   6833.42062787
_cell_formula_units_Z   1
loop_
 _symmetry_equiv_pos_site_id
 _symmetry_equiv_pos_as_xyz
  1  'x, y, z'
loop_
 _atom_site_type_symbol
 _atom_site_label
 _atom_site_symmetry_multiplicity
 _atom_site_fract_x
 _atom_site_fract_y
 _atom_site_fract_z
 _atom_site_occupancy
  Cs  Cs0  1  -0.00127529  0.00200597  0.00100681  1
  Cs  Cs1  1  -0.00216175  -0.00154966  0.33556292  1
  Cs  Cs2  1  0.00117205  -0.00332183  0.66378403  1
  Cs  Cs3  1  0.00073577  0.33457228  0.00022527  1
  Cs  Cs4  1  0.00111505  0.33333788  0.33162877  1
  Cs  Cs5  1  0.00480828  0.33920520  0.67043918  1
  Cs  Cs6  1  -0.00248527  0.66280076  0.00024060  1
  Cs  Cs7  1  0.00043993  0.66675803  0.33459576  1
  Cs  Cs8  1  0.00006132  0.66351930  0.66463944  1
  Cs  Cs9  1  0.33379893  -0.00414864  -0.00172533  1
  Cs  Cs10  1  0.33032084  -0.00066916  0.33182228  1
  Cs  Cs11  1  0.33245427  -0.00250313  0.66993236  1
  Cs  Cs12  1  0.33246766  0.33130394  0.00039210  1
  Cs  Cs13  1  0.33347107  0.33443400  0.33448125  1
  Cs  Cs14  1  0.33323085  0.33202169  0.66514206  1
  Cs  Cs15  1  0.33765124  0.67819489  0.00178000  1
  Cs  Cs16  1  0.33452987  0.66589761  0.32946376  1
  Cs  Cs17  1  0.33394494  0.67252489  0.66885451  1
  Cs  Cs18  1  0.66683934  0.00073682  -0.00065259  1
  Cs  Cs19  1  0.67248523  0.00545773  0.33931764  1
  Cs  Cs20  1  0.66654163  -0.00032497  0.66462525  1
  Cs  Cs21  1  0.66707915  0.33181315  -0.00103409  1
  Cs  Cs22  1  0.66413207  0.33177984  0.33522772  1
  Cs  Cs23  1  0.66338143  0.33272886  0.66736164  1
  Cs  Cs24  1  0.66638403  0.66801590  -0.00009750  1
  Cs  Cs25  1  0.66449031  0.66386662  0.33219219  1
  Cs  Cs26  1  0.66755625  0.66700909  0.66756915  1
  Sn  Sn27  1  0.16657608  0.16731353  0.49928521  1
  Sn  Sn28  1  0.83330004  0.83263383  0.16622808  1
  Sn  Sn29  1  0.49951190  0.49948109  0.83377221  1
  Sn  Sn30  1  0.49934335  0.16688789  0.16624227  1
  Sn  Sn31  1  0.83343765  0.49947263  0.49910778  1
  Sn  Sn32  1  0.16635075  0.49943165  0.16708545  1
  Sn  Sn33  1  0.83301159  0.16608280  0.83311896  1
  Sn  Sn34  1  0.50074556  0.16760042  0.83418306  1
  Sn  Sn35  1  0.16619032  0.49914609  0.49903069  1
  Sn  Sn36  1  0.83339892  0.83426282  0.83387806  1
  Sn  Sn37  1  0.83356668  0.50044095  0.16760977  1
  Sn  Sn38  1  0.50010589  0.83336100  0.49933605  1
  Sn  Sn39  1  0.16753375  0.16738125  0.16743557  1
  Pb  Pb40  1  0.50310136  0.83674263  0.16902909  1
  Pb  Pb41  1  0.83182158  0.49978294  0.83368335  1
  Pb  Pb42  1  0.16686336  0.16663706  0.83371315  1
  Pb  Pb43  1  0.49766582  0.16505239  0.50027366  1
  Pb  Pb44  1  0.50218807  0.83419417  0.83206975  1
  Pb  Pb45  1  0.49975967  0.49822612  0.16467945  1
  Pb  Pb46  1  0.16872906  0.83259334  0.49965707  1
  Pb  Pb47  1  0.16991577  0.50023651  0.83424211  1
  Pb  Pb48  1  0.16297710  0.83312994  0.83355314  1
  Pb  Pb49  1  0.83606010  0.16960394  0.50312068  1
  Pb  Pb50  1  0.83370748  0.16728749  0.16538756  1
  Pb  Pb51  1  0.83193327  0.83096354  0.49983902  1
  Pb  Pb52  1  0.49921381  0.50146798  0.50185233  1
  Pb  Pb53  1  0.16410387  0.83322930  0.16665653  1
  I  I54  1  0.16911121  0.00335760  0.16989454  1
  I  I55  1  0.16869386  0.00278416  0.49672812  1
  I  I56  1  0.17109886  0.00030823  0.83229893  1
  I  I57  1  0.16406827  0.33350292  0.17044274  1
  I  I58  1  0.16377007  0.33402807  0.49632866  1
  I  I59  1  0.16176174  0.33339378  0.83280070  1
  I  I60  1  0.16420404  0.66319754  0.17143112  1
  I  I61  1  0.16330145  0.66287915  0.49636073  1
  I  I62  1  0.16824550  0.66629855  0.83186746  1
  I  I63  1  0.49442678  0.00433034  0.15964235  1
  I  I64  1  0.50030845  -0.00236220  0.50180429  1
  I  I65  1  0.50190751  0.00321517  0.83570652  1
  I  I66  1  0.50133948  0.33017219  0.16540860  1
  I  I67  1  0.50162070  0.33324253  0.50005295  1
  I  I68  1  0.50698644  0.33182229  0.83527436  1
  I  I69  1  0.49769585  0.66679149  0.16500744  1
  I  I70  1  0.49989796  0.66894568  0.50335703  1
  I  I71  1  0.50108692  0.66501311  0.83081712  1
  I  I72  1  0.83244700  -0.00167620  0.16305616  1
  I  I73  1  0.83378076  0.00022897  0.49843838  1
  I  I74  1  0.82774437  0.00023935  0.83920418  1
  I  I75  1  0.83466034  0.33614301  0.16814890  1
  I  I76  1  0.83278036  0.33729358  0.49445024  1
  I  I77  1  0.83043951  0.33103300  0.83358837  1
  I  I78  1  0.83833554  0.66552361  0.16401678  1
  I  I79  1  0.83906223  0.66315457  0.50177704  1
  I  I80  1  0.83091298  0.66847583  0.83437241  1
  I  I81  1  0.16673353  0.17176097  0.00323851  1
  I  I82  1  0.17239365  0.17098515  0.33232280  1
  I  I83  1  0.16608226  0.17138152  0.66404008  1
  I  I84  1  0.16058171  0.49390287  0.00377568  1
  I  I85  1  0.16252913  0.49543884  0.33309223  1
  I  I86  1  0.16203649  0.49550537  0.66367064  1
  I  I87  1  0.17074091  0.83352572  0.00035645  1
  I  I88  1  0.16478984  0.83509694  0.33318204  1
  I  I89  1  0.16587561  0.83407437  0.66636106  1
  I  I90  1  0.49850890  0.17050536  -0.00044718  1
  I  I91  1  0.49845017  0.16508497  0.33085998  1
  I  I92  1  0.50285858  0.16873589  0.66952513  1
  I  I93  1  0.50185669  0.49798565  -0.00303528  1
  I  I94  1  0.50128665  0.49980318  0.33314683  1
  I  I95  1  0.50202851  0.49437058  0.66958726  1
  I  I96  1  0.49940477  0.83171628  0.00021626  1
  I  I97  1  0.50124487  0.83219635  0.33604748  1
  I  I98  1  0.50200976  0.83410275  0.66458303  1
  I  I99  1  0.83336095  0.16745493  -0.00257985  1
  I  I100  1  0.83014138  0.16363329  0.33346290  1
  I  I101  1  0.82741950  0.16173374  0.67069611  1
  I  I102  1  0.83689810  0.50076119  0.00278348  1
  I  I103  1  0.83657167  0.50589306  0.33240567  1
  I  I104  1  0.83681703  0.50004851  0.66459342  1
  I  I105  1  0.83244126  0.83085927  0.00012234  1
  I  I106  1  0.83204314  0.83135912  0.33073050  1
  I  I107  1  0.83075080  0.83599690  0.66900873  1
  I  I108  1  0.00264158  0.16762779  0.16849811  1
  I  I109  1  0.00370281  0.16644552  0.49384778  1
  I  I110  1  -0.00267156  0.16246058  0.83386271  1
  I  I111  1  -0.00014531  0.49795712  0.16937332  1
  I  I112  1  0.00026195  0.49741568  0.49790365  1
  I  I113  1  0.00001212  0.50018731  0.83250034  1
  I  I114  1  -0.00391272  0.83424913  0.16352713  1
  I  I115  1  -0.00011386  0.83489485  0.50103662  1
  I  I116  1  -0.00521090  0.83921088  0.83581871  1
  I  I117  1  0.33266535  0.17243661  0.16506168  1
  I  I118  1  0.32994547  0.17314181  0.50022255  1
  I  I119  1  0.33633802  0.17135316  0.83382266  1
  I  I120  1  0.33038033  0.49630131  0.17102710  1
  I  I121  1  0.32997912  0.49697054  0.49658295  1
  I  I122  1  0.33744538  0.49203267  0.83149768  1
  I  I123  1  0.33365170  0.83073416  0.16761053  1
  I  I124  1  0.33628004  0.83218354  0.50239244  1
  I  I125  1  0.33383484  0.83311321  0.83131369  1
  I  I126  1  0.66474023  0.16619851  0.16295612  1
  I  I127  1  0.66676145  0.16687161  0.49801318  1
  I  I128  1  0.66600051  0.16712820  0.83925681  1
  I  I129  1  0.66950039  0.50238914  0.16911959  1
  I  I130  1  0.66897812  0.50306812  0.49742881  1
  I  I131  1  0.66417419  0.49816446  0.83272430  1
  I  I132  1  0.67064132  0.82742462  0.16241133  1
  I  I133  1  0.66442845  0.83259689  0.50085500  1
  I  I134  1  0.66986493  0.83408310  0.83646752  1
