# generated using pymatgen
data_Cs27Sn14Pb13I81
_symmetry_space_group_name_H-M   'P 1'
_cell_length_a   18.97276889
_cell_length_b   18.97865294
_cell_length_c   18.97329426
_cell_angle_alpha   90.00153632
_cell_angle_beta   90.00176003
_cell_angle_gamma   90.00028283
_symmetry_Int_Tables_number   1
_chemical_formula_structural   Cs27Sn14Pb13I81
_chemical_formula_sum   'Cs27 Sn14 Pb13 I81'
_cell_volume   6831.85818059
_cell_formula_units_Z   1
loop_
 _symmetry_equiv_pos_site_id
 _symmetry_equiv_pos_as_xyz
  1  'x, y, z'
loop_
 _atom_site_type_symbol
 _atom_site_label
 _atom_site_symmetry_multiplicity
 _atom_site_fract_x
 _atom_site_fract_y
 _atom_site_fract_z
 _atom_site_occupancy
  Cs  Cs0  1  0.01005689  0.00129546  -0.00090215  1
  Cs  Cs1  1  -0.00125971  -0.00045952  0.33217610  1
  Cs  Cs2  1  -0.00006662  0.00036157  0.66772263  1
  Cs  Cs3  1  -0.00092317  0.32776974  -0.00295003  1
  Cs  Cs4  1  -0.00043637  0.33347289  0.33352989  1
  Cs  Cs5  1  -0.00037561  0.33475556  0.66617532  1
  Cs  Cs6  1  -0.00099820  0.67168813  -0.00222437  1
  Cs  Cs7  1  0.00057748  0.66699033  0.33613233  1
  Cs  Cs8  1  -0.00219085  0.66424554  0.66430273  1
  Cs  Cs9  1  0.32208393  0.00066008  0.00005343  1
  Cs  Cs10  1  0.33853954  -0.00201317  0.33619957  1
  Cs  Cs11  1  0.33594518  -0.00028805  0.66573543  1
  Cs  Cs12  1  0.33498792  0.33480578  0.00048971  1
  Cs  Cs13  1  0.33235724  0.34002832  0.33392109  1
  Cs  Cs14  1  0.33139388  0.33180995  0.66658811  1
  Cs  Cs15  1  0.33639345  0.66619125  0.00271455  1
  Cs  Cs16  1  0.32825723  0.66304904  0.32999779  1
  Cs  Cs17  1  0.33861427  0.66655322  0.66835177  1
  Cs  Cs18  1  0.66787487  0.00111918  0.00299955  1
  Cs  Cs19  1  0.66496403  0.00033452  0.33280254  1
  Cs  Cs20  1  0.66433711  -0.00097637  0.66534645  1
  Cs  Cs21  1  0.66544991  0.33342750  0.00005632  1
  Cs  Cs22  1  0.66867656  0.33167521  0.33325377  1
  Cs  Cs23  1  0.66761813  0.33263430  0.66663932  1
  Cs  Cs24  1  0.66475312  0.66569653  -0.00148849  1
  Cs  Cs25  1  0.66861946  0.66805338  0.33253687  1
  Cs  Cs26  1  0.66709990  0.66761558  0.66884970  1
  Sn  Sn27  1  0.50009637  0.16594495  0.16565829  1
  Sn  Sn28  1  0.16562029  0.16568209  0.49976385  1
  Sn  Sn29  1  0.83342715  0.50063361  0.16641976  1
  Sn  Sn30  1  0.83237800  0.16691709  0.83265810  1
  Sn  Sn31  1  0.83266166  0.83287893  0.16714303  1
  Sn  Sn32  1  0.83403820  0.16639732  0.50075384  1
  Sn  Sn33  1  0.83421097  0.49923708  0.83356218  1
  Sn  Sn34  1  0.83225036  0.49997380  0.49985544  1
  Sn  Sn35  1  0.50118083  0.50005491  0.49997813  1
  Sn  Sn36  1  0.16586938  0.83429313  0.50023484  1
  Sn  Sn37  1  0.50084072  0.16634373  0.83445578  1
  Sn  Sn38  1  0.16583437  0.50033351  0.83358264  1
  Sn  Sn39  1  0.50079262  0.83426382  0.16651467  1
  Sn  Sn40  1  0.83379285  0.83362204  0.49941493  1
  Pb  Pb41  1  0.50012426  0.83655293  0.83658485  1
  Pb  Pb42  1  0.50076791  0.49810482  0.83152469  1
  Pb  Pb43  1  0.50034193  0.16827061  0.49984134  1
  Pb  Pb44  1  0.16637841  0.16822943  0.83110338  1
  Pb  Pb45  1  0.83237828  0.16620546  0.16650645  1
  Pb  Pb46  1  0.83322580  0.83392910  0.83355983  1
  Pb  Pb47  1  0.50227739  0.49997008  0.16853916  1
  Pb  Pb48  1  0.16290100  0.49996392  0.16336782  1
  Pb  Pb49  1  0.16609607  0.83330590  0.16906849  1
  Pb  Pb50  1  0.16607466  0.50022111  0.50146019  1
  Pb  Pb51  1  0.17005762  0.16685922  0.17000003  1
  Pb  Pb52  1  0.16658111  0.83034245  0.83008408  1
  Pb  Pb53  1  0.50035655  0.83079630  0.49810498  1
  I  I54  1  0.16145193  0.00009408  0.16322472  1
  I  I55  1  0.15882171  0.00019612  0.50022444  1
  I  I56  1  0.16631633  0.00014593  0.83425947  1
  I  I57  1  0.16745230  0.33343628  0.17114869  1
  I  I58  1  0.16427231  0.33121086  0.50201120  1
  I  I59  1  0.16377263  0.33588305  0.82865647  1
  I  I60  1  0.17254119  0.66657771  0.16950256  1
  I  I61  1  0.16303500  0.66888609  0.50079771  1
  I  I62  1  0.15862290  0.66261100  0.83058482  1
  I  I63  1  0.50796914  -0.00008823  0.16547587  1
  I  I64  1  0.50118407  -0.00005112  0.50118325  1
  I  I65  1  0.50720496  0.00462271  0.83057444  1
  I  I66  1  0.50179732  0.33094685  0.16457167  1
  I  I67  1  0.50426919  0.33591178  0.49827625  1
  I  I68  1  0.50219666  0.33028694  0.83884494  1
  I  I69  1  0.50235466  0.66898688  0.17040491  1
  I  I70  1  0.50405041  0.66321347  0.49941464  1
  I  I71  1  0.49946873  0.66648650  0.83293264  1
  I  I72  1  0.82970134  -0.00257534  0.17151627  1
  I  I73  1  0.83784950  0.00020450  0.49965712  1
  I  I74  1  0.82843254  0.00343667  0.82907615  1
  I  I75  1  0.83137876  0.33563812  0.16961935  1
  I  I76  1  0.83309253  0.33352444  0.50030679  1
  I  I77  1  0.83343462  0.33367243  0.82990259  1
  I  I78  1  0.82778783  0.66678691  0.17048386  1
  I  I79  1  0.83368602  0.66630751  0.49939405  1
  I  I80  1  0.83744236  0.66359648  0.83040067  1
  I  I81  1  0.16427447  0.16775312  -0.00020900  1
  I  I82  1  0.15977445  0.16491366  0.33797406  1
  I  I83  1  0.16726368  0.16420803  0.66322619  1
  I  I84  1  0.16320638  0.49799727  -0.00441167  1
  I  I85  1  0.16774746  0.50002009  0.33351997  1
  I  I86  1  0.16017968  0.49922237  0.66892439  1
  I  I87  1  0.16636383  0.83266340  0.00001798  1
  I  I88  1  0.16452568  0.83529975  0.33709561  1
  I  I89  1  0.15938362  0.83723733  0.66212645  1
  I  I90  1  0.50786844  0.16507352  -0.00033120  1
  I  I91  1  0.50072526  0.16389557  0.33123167  1
  I  I92  1  0.50123819  0.17077576  0.66853773  1
  I  I93  1  0.50001957  0.50118283  0.00009330  1
  I  I94  1  0.50473826  0.49688470  0.33643130  1
  I  I95  1  0.50537234  0.49824128  0.66362322  1
  I  I96  1  0.50829588  0.83124593  0.00458519  1
  I  I97  1  0.50268070  0.84062218  0.33047728  1
  I  I98  1  0.49968517  0.83342095  0.66638704  1
  I  I99  1  0.82968792  0.17132619  -0.00256665  1
  I  I100  1  0.83492341  0.16956812  0.33629697  1
  I  I101  1  0.83134605  0.17046980  0.66593227  1
  I  I102  1  0.83753045  0.49959842  -0.00045780  1
  I  I103  1  0.82791423  0.49987131  0.33450082  1
  I  I104  1  0.83375942  0.49921601  0.66600403  1
  I  I105  1  0.82755209  0.82876385  0.00314711  1
  I  I106  1  0.83327371  0.83013212  0.33435074  1
  I  I107  1  0.83775919  0.83065677  0.66332218  1
  I  I108  1  -0.00012817  0.16641300  0.16404393  1
  I  I109  1  -0.00219774  0.16882991  0.50550333  1
  I  I110  1  -0.00318242  0.16955098  0.83082927  1
  I  I111  1  -0.00529474  0.50541523  0.17462379  1
  I  I112  1  -0.00360400  0.50004354  0.49886840  1
  I  I113  1  -0.00274555  0.49417327  0.83012366  1
  I  I114  1  -0.00358223  0.82821571  0.16922600  1
  I  I115  1  -0.00214445  0.83146925  0.49447852  1
  I  I116  1  -0.00031521  0.83800843  0.83898426  1
  I  I117  1  0.33813865  0.16070125  0.16112692  1
  I  I118  1  0.33132741  0.16441164  0.50002882  1
  I  I119  1  0.33569710  0.16889826  0.83534786  1
  I  I120  1  0.33351321  0.50023926  0.16833686  1
  I  I121  1  0.33498930  0.49864000  0.50176318  1
  I  I122  1  0.33169474  0.49815279  0.82827138  1
  I  I123  1  0.33607837  0.83801675  0.16813999  1
  I  I124  1  0.33109649  0.83675354  0.49938209  1
  I  I125  1  0.33338619  0.83221680  0.83195416  1
  I  I126  1  0.66445997  0.16601371  0.16836224  1
  I  I127  1  0.66988636  0.16530899  0.50078719  1
  I  I128  1  0.66811638  0.17322650  0.83053883  1
  I  I129  1  0.67045798  0.50089827  0.16303031  1
  I  I130  1  0.66948327  0.49905927  0.50207804  1
  I  I131  1  0.67031992  0.49766673  0.83394704  1
  I  I132  1  0.66800357  0.83346340  0.17368280  1
  I  I133  1  0.67012802  0.83569168  0.49783174  1
  I  I134  1  0.66683681  0.82848961  0.82768395  1
