# generated using pymatgen
data_Cs27Sn13Pb14I81
_symmetry_space_group_name_H-M   'P 1'
_cell_length_a   18.97420924
_cell_length_b   18.98242405
_cell_length_c   18.97434953
_cell_angle_alpha   89.99827536
_cell_angle_beta   90.00265576
_cell_angle_gamma   90.00172667
_symmetry_Int_Tables_number   1
_chemical_formula_structural   Cs27Sn13Pb14I81
_chemical_formula_sum   'Cs27 Sn13 Pb14 I81'
_cell_volume   6834.11451926
_cell_formula_units_Z   1
loop_
 _symmetry_equiv_pos_site_id
 _symmetry_equiv_pos_as_xyz
  1  'x, y, z'
loop_
 _atom_site_type_symbol
 _atom_site_label
 _atom_site_symmetry_multiplicity
 _atom_site_fract_x
 _atom_site_fract_y
 _atom_site_fract_z
 _atom_site_occupancy
  Cs  Cs0  1  0.00000208  0.00238921  -0.00351816  1
  Cs  Cs1  1  -0.00156635  -0.00117248  0.33376502  1
  Cs  Cs2  1  0.00022059  0.00245776  0.66956252  1
  Cs  Cs3  1  0.00498113  0.32641243  0.00177170  1
  Cs  Cs4  1  0.00055223  0.33277042  0.33341100  1
  Cs  Cs5  1  -0.00340045  0.32676580  0.66371999  1
  Cs  Cs6  1  -0.00173737  0.66804679  0.00247339  1
  Cs  Cs7  1  -0.00071229  0.66635003  0.33200717  1
  Cs  Cs8  1  -0.00178188  0.66863398  0.66661806  1
  Cs  Cs9  1  0.33414857  0.00147264  0.00122621  1
  Cs  Cs10  1  0.33699235  -0.00073942  0.33364149  1
  Cs  Cs11  1  0.33270232  0.00071583  0.66586172  1
  Cs  Cs12  1  0.32673858  0.33677850  0.00130883  1
  Cs  Cs13  1  0.33214537  0.33410439  0.33505827  1
  Cs  Cs14  1  0.33650238  0.33454407  0.66502607  1
  Cs  Cs15  1  0.33066642  0.66316870  -0.00429934  1
  Cs  Cs16  1  0.33338000  0.66735836  0.33371825  1
  Cs  Cs17  1  0.33367684  0.66504503  0.66865597  1
  Cs  Cs18  1  0.66583738  0.00024848  0.00217859  1
  Cs  Cs19  1  0.66372588  -0.00226569  0.33081250  1
  Cs  Cs20  1  0.66664737  -0.00078948  0.66617597  1
  Cs  Cs21  1  0.66715049  0.33470265  -0.00023161  1
  Cs  Cs22  1  0.66800223  0.33381185  0.33240474  1
  Cs  Cs23  1  0.66463514  0.33353760  0.66721033  1
  Cs  Cs24  1  0.66842192  0.66574728  -0.00067542  1
  Cs  Cs25  1  0.66731750  0.66826192  0.33280521  1
  Cs  Cs26  1  0.66841539  0.66704043  0.66809521  1
  Sn  Sn27  1  0.16717161  0.50020162  0.50022128  1
  Sn  Sn28  1  0.16760090  0.16654624  0.49983482  1
  Sn  Sn29  1  0.49961998  0.49973034  0.49906334  1
  Sn  Sn30  1  0.50057276  0.83407552  0.83332864  1
  Sn  Sn31  1  0.83379484  0.50023590  0.83420909  1
  Sn  Sn32  1  0.50042149  0.50021077  0.16732859  1
  Sn  Sn33  1  0.49954165  0.16720451  0.50053537  1
  Sn  Sn34  1  0.83232677  0.83250942  0.83427743  1
  Sn  Sn35  1  0.49998710  0.16598431  0.83305376  1
  Sn  Sn36  1  0.83278820  0.50047487  0.16559338  1
  Sn  Sn37  1  0.83403104  0.83264680  0.16584603  1
  Sn  Sn38  1  0.16615021  0.83321235  0.16718562  1
  Sn  Sn39  1  0.16665404  0.83321145  0.49930538  1
  Pb  Pb40  1  0.49992407  0.16960170  0.16683129  1
  Pb  Pb41  1  0.50141052  0.49985084  0.83320216  1
  Pb  Pb42  1  0.16976571  0.16685286  0.83104212  1
  Pb  Pb43  1  0.49801649  0.83297702  0.50199902  1
  Pb  Pb44  1  0.83084705  0.16644442  0.83348341  1
  Pb  Pb45  1  0.83568247  0.83342791  0.50001490  1
  Pb  Pb46  1  0.16685342  0.16348012  0.16943652  1
  Pb  Pb47  1  0.16616180  0.50181301  0.16856880  1
  Pb  Pb48  1  0.49983154  0.83090806  0.16418901  1
  Pb  Pb49  1  0.83227664  0.16647557  0.49979391  1
  Pb  Pb50  1  0.16286399  0.49992089  0.83039959  1
  Pb  Pb51  1  0.83290569  0.50003538  0.49969267  1
  Pb  Pb52  1  0.83324859  0.16650342  0.16654551  1
  Pb  Pb53  1  0.16628356  0.83322366  0.83360142  1
  I  I54  1  0.16093077  -0.00461736  0.17122662  1
  I  I55  1  0.17049625  0.00004120  0.49630990  1
  I  I56  1  0.16255163  -0.00018499  0.83063031  1
  I  I57  1  0.16617210  0.33351872  0.16750075  1
  I  I58  1  0.17128809  0.33350620  0.50150689  1
  I  I59  1  0.16649443  0.33346779  0.83323320  1
  I  I60  1  0.16534081  0.66961185  0.17341569  1
  I  I61  1  0.17017350  0.66658053  0.49634071  1
  I  I62  1  0.17280281  0.66674099  0.82881929  1
  I  I63  1  0.50090356  -0.00033343  0.16896028  1
  I  I64  1  0.49570223  0.00242469  0.50300016  1
  I  I65  1  0.50502243  -0.00031014  0.82746933  1
  I  I66  1  0.50609498  0.33766601  0.16661873  1
  I  I67  1  0.49244172  0.33367506  0.50248486  1
  I  I68  1  0.50200154  0.33134216  0.83024206  1
  I  I69  1  0.50155968  0.66324880  0.17233878  1
  I  I70  1  0.49586509  0.66378807  0.49808062  1
  I  I71  1  0.50216201  0.66874454  0.83292718  1
  I  I72  1  0.83764163  -0.00398897  0.16284641  1
  I  I73  1  0.83379126  -0.00026679  0.50001205  1
  I  I74  1  0.83216746  -0.00343235  0.83716333  1
  I  I75  1  0.82862495  0.33714604  0.16349276  1
  I  I76  1  0.83823996  0.33359939  0.50041882  1
  I  I77  1  0.83182460  0.33625199  0.83619099  1
  I  I78  1  0.83354434  0.66675122  0.16258944  1
  I  I79  1  0.83349079  0.66665221  0.50139721  1
  I  I80  1  0.82699551  0.66758342  0.83612271  1
  I  I81  1  0.16714950  0.16546724  0.00011185  1
  I  I82  1  0.17371245  0.16963008  0.33778170  1
  I  I83  1  0.16712015  0.16354696  0.66245585  1
  I  I84  1  0.17072366  0.50283106  0.00022222  1
  I  I85  1  0.16641214  0.49830133  0.33687838  1
  I  I86  1  0.17328281  0.50323044  0.66198257  1
  I  I87  1  0.16548220  0.83125695  0.00277614  1
  I  I88  1  0.16135898  0.83299776  0.33377761  1
  I  I89  1  0.16722488  0.83371268  0.66364401  1
  I  I90  1  0.50324865  0.16272354  -0.00285516  1
  I  I91  1  0.49534528  0.16872956  0.33682513  1
  I  I92  1  0.49619785  0.16899503  0.66563866  1
  I  I93  1  0.50321373  0.50117860  0.00218124  1
  I  I94  1  0.50187751  0.49539651  0.33429451  1
  I  I95  1  0.49727296  0.49885298  0.66398701  1
  I  I96  1  0.49953176  0.83770208  -0.00361203  1
  I  I97  1  0.50238496  0.83554631  0.33322040  1
  I  I98  1  0.50440767  0.83218751  0.66989899  1
  I  I99  1  0.83113214  0.16736826  -0.00015816  1
  I  I100  1  0.83156106  0.16692499  0.33325824  1
  I  I101  1  0.83609401  0.16681290  0.66676251  1
  I  I102  1  0.82545278  0.50570621  0.00073707  1
  I  I103  1  0.83211670  0.50514770  0.33024253  1
  I  I104  1  0.83317943  0.50490137  0.66925601  1
  I  I105  1  0.83518577  0.82829381  0.00010543  1
  I  I106  1  0.83571652  0.82830511  0.33004253  1
  I  I107  1  0.83066459  0.82891229  0.66995404  1
  I  I108  1  0.00016554  0.17154305  0.16933539  1
  I  I109  1  0.00338201  0.16817563  0.49905522  1
  I  I110  1  -0.00002080  0.16613677  0.83112065  1
  I  I111  1  -0.00302063  0.50335012  0.16477140  1
  I  I112  1  0.00286959  0.49967588  0.50055089  1
  I  I113  1  -0.00495432  0.50841832  0.83808222  1
  I  I114  1  -0.00098600  0.82702499  0.16633872  1
  I  I115  1  0.00410307  0.83245993  0.50064856  1
  I  I116  1  -0.00316665  0.82824388  0.83351211  1
  I  I117  1  0.33348213  0.16606229  0.16361406  1
  I  I118  1  0.33367222  0.16775845  0.50451994  1
  I  I119  1  0.33777265  0.16047063  0.83128737  1
  I  I120  1  0.33563349  0.50101349  0.16915864  1
  I  I121  1  0.33407198  0.49917234  0.49490797  1
  I  I122  1  0.33345150  0.50073646  0.83571199  1
  I  I123  1  0.33098459  0.83251013  0.17059908  1
  I  I124  1  0.32986966  0.83324079  0.49553641  1
  I  I125  1  0.33590192  0.83708661  0.83229152  1
  I  I126  1  0.66635839  0.16240098  0.17056972  1
  I  I127  1  0.66242610  0.17260162  0.50424322  1
  I  I128  1  0.66309516  0.16550361  0.82485558  1
  I  I129  1  0.66713997  0.50531364  0.16931859  1
  I  I130  1  0.66346997  0.49456454  0.49952582  1
  I  I131  1  0.66930216  0.50200109  0.83226668  1
  I  I132  1  0.66941691  0.83084566  0.16419196  1
  I  I133  1  0.66643993  0.83360651  0.49829685  1
  I  I134  1  0.66736920  0.83306046  0.83757431  1
