# generated using pymatgen
data_Cs27Sn14Pb13I81
_symmetry_space_group_name_H-M   'P 1'
_cell_length_a   18.98343315
_cell_length_b   18.97802269
_cell_length_c   18.96709841
_cell_angle_alpha   89.99995215
_cell_angle_beta   89.99953522
_cell_angle_gamma   89.99824355
_symmetry_Int_Tables_number   1
_chemical_formula_structural   Cs27Sn14Pb13I81
_chemical_formula_sum   'Cs27 Sn14 Pb13 I81'
_cell_volume   6833.23908086
_cell_formula_units_Z   1
loop_
 _symmetry_equiv_pos_site_id
 _symmetry_equiv_pos_as_xyz
  1  'x, y, z'
loop_
 _atom_site_type_symbol
 _atom_site_label
 _atom_site_symmetry_multiplicity
 _atom_site_fract_x
 _atom_site_fract_y
 _atom_site_fract_z
 _atom_site_occupancy
  Cs  Cs0  1  0.00149622  0.00076608  -0.00299299  1
  Cs  Cs1  1  -0.00117188  0.00026516  0.33513132  1
  Cs  Cs2  1  0.00140929  0.00083840  0.66714000  1
  Cs  Cs3  1  -0.00106221  0.33301605  -0.00160375  1
  Cs  Cs4  1  0.00024003  0.33797437  0.33043817  1
  Cs  Cs5  1  0.00147269  0.32960072  0.66810699  1
  Cs  Cs6  1  0.00205783  0.66501302  -0.00027732  1
  Cs  Cs7  1  -0.00758244  0.65790701  0.32545833  1
  Cs  Cs8  1  -0.00175217  0.66854676  0.66869421  1
  Cs  Cs9  1  0.33444418  -0.00081982  0.00232428  1
  Cs  Cs10  1  0.33408670  -0.00014351  0.33669357  1
  Cs  Cs11  1  0.33206089  -0.00068321  0.66488643  1
  Cs  Cs12  1  0.33759695  0.33200552  -0.00180791  1
  Cs  Cs13  1  0.33051626  0.33674524  0.33740727  1
  Cs  Cs14  1  0.33550633  0.33384179  0.66582625  1
  Cs  Cs15  1  0.33283054  0.66848361  0.00274604  1
  Cs  Cs16  1  0.33120060  0.66363956  0.32900247  1
  Cs  Cs17  1  0.33512027  0.66851798  0.66665689  1
  Cs  Cs18  1  0.66340338  0.00210302  0.00698734  1
  Cs  Cs19  1  0.66683765  -0.00084331  0.32846388  1
  Cs  Cs20  1  0.66692174  -0.00146413  0.66576943  1
  Cs  Cs21  1  0.66230407  0.33109232  0.00201217  1
  Cs  Cs22  1  0.66908148  0.33527676  0.32996031  1
  Cs  Cs23  1  0.66279490  0.33420070  0.66754612  1
  Cs  Cs24  1  0.66444965  0.66769198  -0.00013591  1
  Cs  Cs25  1  0.67671920  0.66537987  0.33282342  1
  Cs  Cs26  1  0.66615957  0.66697137  0.66535698  1
  Sn  Sn27  1  0.83343120  0.16661173  0.50091551  1
  Sn  Sn28  1  0.16686434  0.83336907  0.83252873  1
  Sn  Sn29  1  0.83343498  0.16659474  0.83244977  1
  Sn  Sn30  1  0.16649426  0.49991628  0.83273872  1
  Sn  Sn31  1  0.16676026  0.16623123  0.16674223  1
  Sn  Sn32  1  0.83372467  0.49950184  0.83291671  1
  Sn  Sn33  1  0.49972105  0.50014452  0.16682354  1
  Sn  Sn34  1  0.49933941  0.83396914  0.50056047  1
  Sn  Sn35  1  0.49974126  0.83398120  0.83269007  1
  Sn  Sn36  1  0.16646258  0.16596716  0.50000964  1
  Sn  Sn37  1  0.16671968  0.83322134  0.50024733  1
  Sn  Sn38  1  0.50017088  0.16600630  0.50033529  1
  Sn  Sn39  1  0.16654660  0.16674560  0.83334976  1
  Sn  Sn40  1  0.83326317  0.83391317  0.83308240  1
  Pb  Pb41  1  0.16653460  0.83532584  0.16748823  1
  Pb  Pb42  1  0.16651881  0.50086527  0.50237964  1
  Pb  Pb43  1  0.83577225  0.16656903  0.16634314  1
  Pb  Pb44  1  0.49999493  0.16430934  0.83163612  1
  Pb  Pb45  1  0.83376128  0.83365492  0.16345956  1
  Pb  Pb46  1  0.83354948  0.49691714  0.50299733  1
  Pb  Pb47  1  0.83124434  0.49962299  0.16317236  1
  Pb  Pb48  1  0.83398623  0.83519355  0.50167054  1
  Pb  Pb49  1  0.16812462  0.49742466  0.16360199  1
  Pb  Pb50  1  0.49988452  0.50264929  0.83428781  1
  Pb  Pb51  1  0.49976978  0.83160988  0.16811257  1
  Pb  Pb52  1  0.49737400  0.16816898  0.17020033  1
  Pb  Pb53  1  0.49997525  0.50114230  0.49789823  1
  I  I54  1  0.16758842  0.00336736  0.16091372  1
  I  I55  1  0.16783942  0.00117377  0.50512949  1
  I  I56  1  0.16381731  0.00034272  0.83289591  1
  I  I57  1  0.16720432  0.32955798  0.16844140  1
  I  I58  1  0.16765811  0.32970832  0.50101365  1
  I  I59  1  0.15990405  0.33199612  0.83378569  1
  I  I60  1  0.16822230  0.66638666  0.16611582  1
  I  I61  1  0.17436241  0.67053424  0.50678050  1
  I  I62  1  0.16406235  0.66784164  0.82915826  1
  I  I63  1  0.49976659  0.00006336  0.16421957  1
  I  I64  1  0.49791921  0.00007318  0.50466163  1
  I  I65  1  0.49953821  -0.00380126  0.83253410  1
  I  I66  1  0.49953921  0.33557403  0.16447661  1
  I  I67  1  0.49849624  0.33032182  0.49909950  1
  I  I68  1  0.49980290  0.33317417  0.83314271  1
  I  I69  1  0.49816192  0.66415424  0.16497886  1
  I  I70  1  0.49402439  0.67074229  0.50449094  1
  I  I71  1  0.49989241  0.67067766  0.82803817  1
  I  I72  1  0.83136194  0.00046654  0.16392126  1
  I  I73  1  0.83444976  0.00344831  0.50695787  1
  I  I74  1  0.83772012  0.00052696  0.82892990  1
  I  I75  1  0.83270403  0.33307975  0.16497722  1
  I  I76  1  0.83395738  0.32839575  0.50554502  1
  I  I77  1  0.84157614  0.33233573  0.82983102  1
  I  I78  1  0.83327264  0.66639733  0.16688525  1
  I  I79  1  0.83173612  0.66688619  0.50115178  1
  I  I80  1  0.83653501  0.66720837  0.83494397  1
  I  I81  1  0.16156983  0.16692910  -0.00216290  1
  I  I82  1  0.16767110  0.16150831  0.33512223  1
  I  I83  1  0.16536406  0.16602354  0.66707605  1
  I  I84  1  0.16276944  0.50141152  -0.00467837  1
  I  I85  1  0.16887817  0.49943536  0.33317446  1
  I  I86  1  0.16423837  0.49510507  0.67081906  1
  I  I87  1  0.16662651  0.83410110  -0.00383740  1
  I  I88  1  0.17457355  0.84035401  0.33733560  1
  I  I89  1  0.16752013  0.83826577  0.66809280  1
  I  I90  1  0.49998598  0.16614543  0.00002290  1
  I  I91  1  0.50084125  0.15980366  0.33824434  1
  I  I92  1  0.49561120  0.16668397  0.66354422  1
  I  I93  1  0.49975900  0.50061083  0.00187101  1
  I  I94  1  0.49777049  0.49925808  0.33040772  1
  I  I95  1  0.50034492  0.49833376  0.66671600  1
  I  I96  1  0.49990890  0.83128154  -0.00288204  1
  I  I97  1  0.49330664  0.83770490  0.33751994  1
  I  I98  1  0.49868713  0.83604397  0.66701118  1
  I  I99  1  0.83832974  0.16662457  -0.00397415  1
  I  I100  1  0.83375395  0.16555677  0.33666002  1
  I  I101  1  0.83887359  0.16657263  0.66788586  1
  I  I102  1  0.83840157  0.49759259  -0.00495877  1
  I  I103  1  0.83183882  0.49944941  0.33321228  1
  I  I104  1  0.83597699  0.50286524  0.67118170  1
  I  I105  1  0.83379896  0.83650625  -0.00597964  1
  I  I106  1  0.83218322  0.83480306  0.33383006  1
  I  I107  1  0.83354793  0.83145546  0.67054134  1
  I  I108  1  0.00365299  0.16727693  0.16935662  1
  I  I109  1  0.00122156  0.16258536  0.50209529  1
  I  I110  1  0.00096249  0.16375099  0.82988402  1
  I  I111  1  0.00004677  0.49947522  0.16805864  1
  I  I112  1  0.00007186  0.50098700  0.49654899  1
  I  I113  1  0.00043275  0.50343306  0.83339554  1
  I  I114  1  0.00033574  0.83287761  0.16743725  1
  I  I115  1  0.00325727  0.83958818  0.50616697  1
  I  I116  1  0.00084515  0.83360285  0.82999572  1
  I  I117  1  0.32976649  0.16708558  0.16280727  1
  I  I118  1  0.33222665  0.16322625  0.50016273  1
  I  I119  1  0.33003389  0.16792317  0.83292847  1
  I  I120  1  0.33553833  0.49999825  0.16424026  1
  I  I121  1  0.33320663  0.49397605  0.50277431  1
  I  I122  1  0.33047898  0.49853963  0.83490009  1
  I  I123  1  0.33319247  0.83283264  0.15986780  1
  I  I124  1  0.33281925  0.84279717  0.50976447  1
  I  I125  1  0.33230377  0.83298392  0.83005157  1
  I  I126  1  0.66644096  0.16815341  0.16572210  1
  I  I127  1  0.66676637  0.16359566  0.50642559  1
  I  I128  1  0.66950176  0.16777818  0.82863102  1
  I  I129  1  0.66380932  0.49929112  0.16522818  1
  I  I130  1  0.66672406  0.49950072  0.50210360  1
  I  I131  1  0.66940558  0.49915318  0.83512092  1
  I  I132  1  0.66653772  0.83334827  0.16581329  1
  I  I133  1  0.66416935  0.83763719  0.50519146  1
  I  I134  1  0.66670138  0.83199348  0.82926054  1
