# generated using pymatgen
data_Cs27Sn13Pb14I81
_symmetry_space_group_name_H-M   'P 1'
_cell_length_a   18.97154758
_cell_length_b   18.98578983
_cell_length_c   18.97236184
_cell_angle_alpha   90.00041306
_cell_angle_beta   89.99963427
_cell_angle_gamma   89.99980237
_symmetry_Int_Tables_number   1
_chemical_formula_structural   Cs27Sn13Pb14I81
_chemical_formula_sum   'Cs27 Sn13 Pb14 I81'
_cell_volume   6833.65150414
_cell_formula_units_Z   1
loop_
 _symmetry_equiv_pos_site_id
 _symmetry_equiv_pos_as_xyz
  1  'x, y, z'
loop_
 _atom_site_type_symbol
 _atom_site_label
 _atom_site_symmetry_multiplicity
 _atom_site_fract_x
 _atom_site_fract_y
 _atom_site_fract_z
 _atom_site_occupancy
  Cs  Cs0  1  -0.00031656  -0.00218434  -0.00287772  1
  Cs  Cs1  1  -0.00308424  0.00156812  0.33104599  1
  Cs  Cs2  1  0.00951205  0.00194678  0.67321828  1
  Cs  Cs3  1  -0.00149539  0.33119607  -0.00117680  1
  Cs  Cs4  1  0.00064524  0.33484555  0.33459429  1
  Cs  Cs5  1  -0.00070611  0.33323500  0.66599107  1
  Cs  Cs6  1  -0.00318998  0.67194101  -0.00028068  1
  Cs  Cs7  1  -0.00049912  0.66132648  0.33344083  1
  Cs  Cs8  1  0.00062290  0.66294202  0.66734193  1
  Cs  Cs9  1  0.33346746  -0.00004992  0.00083360  1
  Cs  Cs10  1  0.33284565  -0.00122899  0.33452178  1
  Cs  Cs11  1  0.32900202  -0.00213096  0.66531220  1
  Cs  Cs12  1  0.33657171  0.33761152  0.00274419  1
  Cs  Cs13  1  0.33085120  0.33522116  0.32881832  1
  Cs  Cs14  1  0.33401809  0.33247289  0.66818798  1
  Cs  Cs15  1  0.33428496  0.66351912  0.00028350  1
  Cs  Cs16  1  0.32966474  0.66669214  0.33390399  1
  Cs  Cs17  1  0.33559834  0.67001489  0.66745395  1
  Cs  Cs18  1  0.66779979  -0.00147959  0.00121113  1
  Cs  Cs19  1  0.66844224  0.00091348  0.33475502  1
  Cs  Cs20  1  0.66463942  0.00199814  0.66192019  1
  Cs  Cs21  1  0.66435290  0.33212334  0.00013827  1
  Cs  Cs22  1  0.66647597  0.33055465  0.33252743  1
  Cs  Cs23  1  0.66779324  0.33429719  0.66690934  1
  Cs  Cs24  1  0.66852477  0.66974206  -0.00007921  1
  Cs  Cs25  1  0.66842744  0.67039522  0.33528995  1
  Cs  Cs26  1  0.66487215  0.66235407  0.66553880  1
  Sn  Sn27  1  0.83414300  0.16754663  0.16711644  1
  Sn  Sn28  1  0.49987049  0.49886326  0.50004444  1
  Sn  Sn29  1  0.83293921  0.49888666  0.16646198  1
  Sn  Sn30  1  0.50014041  0.16649212  0.83253495  1
  Sn  Sn31  1  0.50024326  0.16777116  0.50059829  1
  Sn  Sn32  1  0.50025293  0.83359261  0.83408798  1
  Sn  Sn33  1  0.83309164  0.16557167  0.49968433  1
  Sn  Sn34  1  0.83391733  0.83448685  0.50068799  1
  Sn  Sn35  1  0.49923743  0.83345052  0.16639134  1
  Sn  Sn36  1  0.16742804  0.83401427  0.16686250  1
  Sn  Sn37  1  0.16705089  0.49984099  0.83331063  1
  Sn  Sn38  1  0.49936461  0.49988653  0.83257406  1
  Sn  Sn39  1  0.16585670  0.16607298  0.16668334  1
  Pb  Pb40  1  0.83131280  0.16644742  0.83292836  1
  Pb  Pb41  1  0.83350691  0.83406356  0.16789443  1
  Pb  Pb42  1  0.83273675  0.49994299  0.83552486  1
  Pb  Pb43  1  0.16324157  0.83340402  0.49758136  1
  Pb  Pb44  1  0.50086719  0.83365608  0.50014989  1
  Pb  Pb45  1  0.83135262  0.49916309  0.49833566  1
  Pb  Pb46  1  0.16904033  0.83134584  0.83554332  1
  Pb  Pb47  1  0.16962063  0.16862119  0.83611914  1
  Pb  Pb48  1  0.16434631  0.50012883  0.16464849  1
  Pb  Pb49  1  0.16968175  0.49986978  0.50266355  1
  Pb  Pb50  1  0.83095594  0.83362058  0.82970752  1
  Pb  Pb51  1  0.50021537  0.16482564  0.16707922  1
  Pb  Pb52  1  0.50186964  0.50253076  0.16683112  1
  Pb  Pb53  1  0.16676577  0.16673650  0.49790137  1
  I  I54  1  0.16524012  0.00016296  0.16661744  1
  I  I55  1  0.17220035  0.00012695  0.50200138  1
  I  I56  1  0.16799398  0.00005627  0.83309017  1
  I  I57  1  0.16477066  0.33083284  0.16567109  1
  I  I58  1  0.16280036  0.33330563  0.49674015  1
  I  I59  1  0.17347816  0.33622123  0.83615678  1
  I  I60  1  0.16954474  0.66911742  0.16517234  1
  I  I61  1  0.16633458  0.66660230  0.49638239  1
  I  I62  1  0.17312835  0.66364808  0.83586899  1
  I  I63  1  0.50115475  -0.00291804  0.16309846  1
  I  I64  1  0.50336754  0.00282049  0.50210389  1
  I  I65  1  0.50246888  0.00011567  0.83398605  1
  I  I66  1  0.49852856  0.33323229  0.16442049  1
  I  I67  1  0.50610959  0.33252105  0.50742952  1
  I  I68  1  0.49697368  0.33357533  0.82921670  1
  I  I69  1  0.49700548  0.67028089  0.16340789  1
  I  I70  1  0.50258268  0.66470369  0.50289892  1
  I  I71  1  0.49633845  0.66620472  0.83327382  1
  I  I72  1  0.83330537  0.00283876  0.16975704  1
  I  I73  1  0.82409756  0.00170305  0.49155055  1
  I  I74  1  0.83105259  0.00007005  0.83935343  1
  I  I75  1  0.83747152  0.33170220  0.17200901  1
  I  I76  1  0.82991348  0.33006478  0.49675235  1
  I  I77  1  0.83067501  0.33325936  0.83126256  1
  I  I78  1  0.83215829  0.66531498  0.16804969  1
  I  I79  1  0.83034254  0.66826267  0.49682047  1
  I  I80  1  0.83064595  0.66670219  0.83503767  1
  I  I81  1  0.16137068  0.16261822  0.00396585  1
  I  I82  1  0.16820070  0.16409107  0.32961759  1
  I  I83  1  0.16398602  0.16795757  0.66700005  1
  I  I84  1  0.17580741  0.49934218  -0.00275785  1
  I  I85  1  0.16738209  0.50045233  0.33296928  1
  I  I86  1  0.16759091  0.50011513  0.67064510  1
  I  I87  1  0.16675671  0.83692234  0.00358954  1
  I  I88  1  0.17518940  0.83574355  0.32925733  1
  I  I89  1  0.16724045  0.83229994  0.66698251  1
  I  I90  1  0.49950591  0.16912538  -0.00224643  1
  I  I91  1  0.50175732  0.16944201  0.33599827  1
  I  I92  1  0.50612618  0.16645606  0.66632575  1
  I  I93  1  0.49761817  0.49759396  -0.00288785  1
  I  I94  1  0.50358259  0.49624324  0.33575348  1
  I  I95  1  0.49787132  0.50191556  0.66748680  1
  I  I96  1  0.49744807  0.83321875  -0.00025529  1
  I  I97  1  0.49871933  0.83353911  0.33106268  1
  I  I98  1  0.50329571  0.83214484  0.66930681  1
  I  I99  1  0.83497475  0.17049517  0.00317838  1
  I  I100  1  0.82978836  0.16634449  0.33316951  1
  I  I101  1  0.82896419  0.16348347  0.66317965  1
  I  I102  1  0.83087889  0.49515491  0.00354484  1
  I  I103  1  0.83199643  0.49950344  0.33042795  1
  I  I104  1  0.83443388  0.50032353  0.66659203  1
  I  I105  1  0.83373200  0.83263741  0.00003318  1
  I  I106  1  0.82890355  0.83471621  0.33547900  1
  I  I107  1  0.82937113  0.83848240  0.66200310  1
  I  I108  1  -0.00097140  0.16545783  0.17214301  1
  I  I109  1  -0.00334489  0.16272890  0.49602662  1
  I  I110  1  0.00036620  0.16918527  0.83135272  1
  I  I111  1  -0.00332551  0.50092695  0.16601245  1
  I  I112  1  -0.00020308  0.50063619  0.50067551  1
  I  I113  1  0.00243949  0.50041465  0.83676397  1
  I  I114  1  0.00220297  0.83373695  0.16918548  1
  I  I115  1  -0.00467688  0.83919949  0.49633669  1
  I  I116  1  0.00031373  0.83069579  0.83476396  1
  I  I117  1  0.33150305  0.16395618  0.16582028  1
  I  I118  1  0.33688324  0.17018488  0.50272660  1
  I  I119  1  0.33789584  0.16428835  0.82869132  1
  I  I120  1  0.33351090  0.49817204  0.16805666  1
  I  I121  1  0.33810275  0.49510203  0.49927707  1
  I  I122  1  0.33562852  0.49988467  0.83149476  1
  I  I123  1  0.33378287  0.83837656  0.16333839  1
  I  I124  1  0.33336563  0.83305958  0.50054405  1
  I  I125  1  0.33755455  0.83515166  0.83365199  1
  I  I126  1  0.66904168  0.16858495  0.16777604  1
  I  I127  1  0.66628743  0.16630459  0.49726474  1
  I  I128  1  0.66259825  0.17001347  0.83514204  1
  I  I129  1  0.66942134  0.49495756  0.16547434  1
  I  I130  1  0.66333146  0.49933549  0.50644550  1
  I  I131  1  0.66276547  0.50017135  0.83030823  1
  I  I132  1  0.66439440  0.83285105  0.16380467  1
  I  I133  1  0.66859173  0.83485610  0.49622720  1
  I  I134  1  0.66219451  0.83020778  0.84163106  1
