# generated using pymatgen
data_Cs27Sn14Pb13I81
_symmetry_space_group_name_H-M   'P 1'
_cell_length_a   18.95900099
_cell_length_b   18.95840583
_cell_length_c   18.96768851
_cell_angle_alpha   90.00046250
_cell_angle_beta   90.00109489
_cell_angle_gamma   90.00089712
_symmetry_Int_Tables_number   1
_chemical_formula_structural   Cs27Sn14Pb13I81
_chemical_formula_sum   'Cs27 Sn14 Pb13 I81'
_cell_volume   6817.60246177
_cell_formula_units_Z   1
loop_
 _symmetry_equiv_pos_site_id
 _symmetry_equiv_pos_as_xyz
  1  'x, y, z'
loop_
 _atom_site_type_symbol
 _atom_site_label
 _atom_site_symmetry_multiplicity
 _atom_site_fract_x
 _atom_site_fract_y
 _atom_site_fract_z
 _atom_site_occupancy
  Cs  Cs0  1  0.00036792  -0.00102627  -0.00047055  1
  Cs  Cs1  1  -0.00072349  -0.00024906  0.33255127  1
  Cs  Cs2  1  0.00144269  0.00198132  0.66755448  1
  Cs  Cs3  1  -0.00167597  0.33313037  -0.00076100  1
  Cs  Cs4  1  0.00113204  0.33489145  0.33502370  1
  Cs  Cs5  1  -0.00071562  0.33276079  0.66527957  1
  Cs  Cs6  1  -0.00133612  0.66881185  -0.00191228  1
  Cs  Cs7  1  -0.00088775  0.66589503  0.33287677  1
  Cs  Cs8  1  0.00112475  0.66558025  0.66883492  1
  Cs  Cs9  1  0.33222438  0.00017657  0.00170577  1
  Cs  Cs10  1  0.33283245  0.00010917  0.33031524  1
  Cs  Cs11  1  0.33389370  -0.00045202  0.66693878  1
  Cs  Cs12  1  0.33645897  0.33498548  0.00681055  1
  Cs  Cs13  1  0.33017844  0.33561380  0.32855494  1
  Cs  Cs14  1  0.33284383  0.33213339  0.66461900  1
  Cs  Cs15  1  0.33483700  0.66542103  0.00115560  1
  Cs  Cs16  1  0.33239842  0.66580238  0.33205637  1
  Cs  Cs17  1  0.33428547  0.66872687  0.66690702  1
  Cs  Cs18  1  0.66784961  0.00070647  0.00136662  1
  Cs  Cs19  1  0.66810606  -0.00137669  0.33513468  1
  Cs  Cs20  1  0.66344088  -0.00012866  0.66405380  1
  Cs  Cs21  1  0.66539407  0.33461172  0.00091947  1
  Cs  Cs22  1  0.66681532  0.33337345  0.33418435  1
  Cs  Cs23  1  0.66752132  0.33284159  0.66539946  1
  Cs  Cs24  1  0.66640770  0.66476340  -0.00772437  1
  Cs  Cs25  1  0.66896990  0.66842110  0.33628964  1
  Cs  Cs26  1  0.66344389  0.66950006  0.66985478  1
  Sn  Sn27  1  0.83324240  0.49941418  0.16712158  1
  Sn  Sn28  1  0.16639240  0.83350030  0.49990884  1
  Sn  Sn29  1  0.49986977  0.16680919  0.83292865  1
  Sn  Sn30  1  0.16702912  0.49948432  0.83341860  1
  Sn  Sn31  1  0.50051864  0.49926250  0.49998140  1
  Sn  Sn32  1  0.16720593  0.16728917  0.83342274  1
  Sn  Sn33  1  0.83353125  0.16756957  0.16702487  1
  Sn  Sn34  1  0.50025086  0.16768465  0.50021431  1
  Sn  Sn35  1  0.83285183  0.16669908  0.83311462  1
  Sn  Sn36  1  0.83239673  0.49938909  0.49957487  1
  Sn  Sn37  1  0.16680514  0.83316411  0.83326018  1
  Sn  Sn38  1  0.50003989  0.83320133  0.16665723  1
  Sn  Sn39  1  0.16740080  0.83340305  0.16669266  1
  Sn  Sn40  1  0.83274705  0.16736504  0.49988726  1
  Pb  Pb41  1  0.16647192  0.50187513  0.50155934  1
  Pb  Pb42  1  0.49768993  0.49741677  0.83103624  1
  Pb  Pb43  1  0.16686478  0.16515242  0.50144083  1
  Pb  Pb44  1  0.50270097  0.50233811  0.16909547  1
  Pb  Pb45  1  0.16428407  0.50226855  0.16436593  1
  Pb  Pb46  1  0.83464461  0.49792069  0.83268396  1
  Pb  Pb47  1  0.16419691  0.16505706  0.16425447  1
  Pb  Pb48  1  0.49779894  0.83571712  0.83540591  1
  Pb  Pb49  1  0.83514104  0.83608814  0.83297695  1
  Pb  Pb50  1  0.50218105  0.16538191  0.16728659  1
  Pb  Pb51  1  0.83538165  0.83323200  0.50031673  1
  Pb  Pb52  1  0.49794228  0.83366910  0.49840929  1
  Pb  Pb53  1  0.83317108  0.83282500  0.16660034  1
  I  I54  1  0.16740643  -0.00325278  0.16465880  1
  I  I55  1  0.16631553  -0.00296359  0.50236715  1
  I  I56  1  0.16543908  0.00030163  0.83338652  1
  I  I57  1  0.16736377  0.33341571  0.16490644  1
  I  I58  1  0.16631933  0.33333027  0.50315913  1
  I  I59  1  0.16459973  0.33214747  0.83114088  1
  I  I60  1  0.16771610  0.67045175  0.16446246  1
  I  I61  1  0.16647225  0.66994721  0.50277033  1
  I  I62  1  0.16523805  0.66749723  0.83302634  1
  I  I63  1  0.49716318  -0.00244689  0.16773259  1
  I  I64  1  0.50353070  0.00317799  0.50309724  1
  I  I65  1  0.49920471  0.00406329  0.82699269  1
  I  I66  1  0.49937372  0.33338794  0.16467303  1
  I  I67  1  0.50399742  0.33228992  0.50447530  1
  I  I68  1  0.49823796  0.32904636  0.83296870  1
  I  I69  1  0.49588188  0.66998117  0.16844099  1
  I  I70  1  0.50319319  0.66421011  0.49749530  1
  I  I71  1  0.49820532  0.66655683  0.83254423  1
  I  I72  1  0.83410110  0.00293261  0.16646969  1
  I  I73  1  0.83048618  0.00367778  0.49965597  1
  I  I74  1  0.83593866  0.00490653  0.83391098  1
  I  I75  1  0.83329829  0.33238914  0.16679373  1
  I  I76  1  0.83084874  0.33230751  0.49974358  1
  I  I77  1  0.83710377  0.32941360  0.83328133  1
  I  I78  1  0.83498355  0.66378979  0.17277825  1
  I  I79  1  0.83139725  0.66326654  0.49393234  1
  I  I80  1  0.83664567  0.66633743  0.83455477  1
  I  I81  1  0.16673885  0.16396080  -0.00432708  1
  I  I82  1  0.16625231  0.16321226  0.33317875  1
  I  I83  1  0.16227887  0.16358048  0.67002990  1
  I  I84  1  0.16451285  0.50055135  -0.00363758  1
  I  I85  1  0.16739309  0.50299124  0.33331524  1
  I  I86  1  0.16402987  0.50195071  0.66960066  1
  I  I87  1  0.16945341  0.83484385  -0.00053386  1
  I  I88  1  0.16987098  0.83357068  0.33287096  1
  I  I89  1  0.16479369  0.83420906  0.66774146  1
  I  I90  1  0.49988981  0.16324990  -0.00253233  1
  I  I91  1  0.50502494  0.16751798  0.33650080  1
  I  I92  1  0.50401176  0.16854158  0.66648282  1
  I  I93  1  0.50022872  0.50020581  -0.00001086  1
  I  I94  1  0.49968767  0.49336246  0.33703748  1
  I  I95  1  0.50649825  0.50001781  0.66310139  1
  I  I96  1  0.49517633  0.83523320  0.00308610  1
  I  I97  1  0.49324039  0.83584055  0.33077583  1
  I  I98  1  0.49801253  0.83251235  0.66665420  1
  I  I99  1  0.83493734  0.16892207  -0.00034901  1
  I  I100  1  0.82874435  0.16904638  0.33419475  1
  I  I101  1  0.83431302  0.16982286  0.66636426  1
  I  I102  1  0.83675504  0.49674373  0.00204626  1
  I  I103  1  0.83157854  0.49265433  0.33417439  1
  I  I104  1  0.83248004  0.49571727  0.66358257  1
  I  I105  1  0.83580166  0.83374841  0.00004493  1
  I  I106  1  0.83740257  0.83810208  0.33333893  1
  I  I107  1  0.83606903  0.83269642  0.66655952  1
  I  I108  1  -0.00409158  0.16722863  0.16766840  1
  I  I109  1  -0.00306345  0.16908983  0.50103546  1
  I  I110  1  0.00002824  0.16531349  0.83337693  1
  I  I111  1  -0.00354579  0.49730991  0.17307270  1
  I  I112  1  -0.00300832  0.49643659  0.49794045  1
  I  I113  1  0.00286585  0.49907590  0.83159437  1
  I  I114  1  0.00284348  0.83415287  0.16512466  1
  I  I115  1  0.00367935  0.83410025  0.49842496  1
  I  I116  1  0.00414120  0.83560921  0.83652974  1
  I  I117  1  0.33331347  0.16579323  0.16624046  1
  I  I118  1  0.33620266  0.16837515  0.50561284  1
  I  I119  1  0.33306946  0.16463655  0.82732438  1
  I  I120  1  0.33336888  0.49987372  0.16730788  1
  I  I121  1  0.33579792  0.49693582  0.50309338  1
  I  I122  1  0.32961461  0.49949683  0.83129629  1
  I  I123  1  0.33205786  0.83486591  0.16618573  1
  I  I124  1  0.32992495  0.83373915  0.50298644  1
  I  I125  1  0.32927915  0.83623713  0.83105560  1
  I  I126  1  0.67034764  0.16668184  0.16188336  1
  I  I127  1  0.66730617  0.16887322  0.50484098  1
  I  I128  1  0.66711795  0.16703919  0.83267093  1
  I  I129  1  0.67059026  0.49756001  0.16679203  1
  I  I130  1  0.66751547  0.49596625  0.49620236  1
  I  I131  1  0.66654542  0.49910549  0.83554024  1
  I  I132  1  0.66442924  0.83541047  0.16893102  1
  I  I133  1  0.66643359  0.83386070  0.49667857  1
  I  I134  1  0.66621797  0.83408209  0.83572210  1
