# generated using pymatgen
data_Cs27Sn13Pb14I81
_symmetry_space_group_name_H-M   'P 1'
_cell_length_a   18.98627092
_cell_length_b   18.99801604
_cell_length_c   18.99199481
_cell_angle_alpha   90.00069313
_cell_angle_beta   90.00198750
_cell_angle_gamma   89.99964380
_symmetry_Int_Tables_number   1
_chemical_formula_structural   Cs27Sn13Pb14I81
_chemical_formula_sum   'Cs27 Sn13 Pb14 I81'
_cell_volume   6850.44062199
_cell_formula_units_Z   1
loop_
 _symmetry_equiv_pos_site_id
 _symmetry_equiv_pos_as_xyz
  1  'x, y, z'
loop_
 _atom_site_type_symbol
 _atom_site_label
 _atom_site_symmetry_multiplicity
 _atom_site_fract_x
 _atom_site_fract_y
 _atom_site_fract_z
 _atom_site_occupancy
  Cs  Cs0  1  0.00277168  0.00142818  0.00202255  1
  Cs  Cs1  1  -0.00179208  0.00105713  0.33621867  1
  Cs  Cs2  1  -0.00103138  -0.00157423  0.66499774  1
  Cs  Cs3  1  0.00297762  0.33029732  0.00174194  1
  Cs  Cs4  1  0.00122697  0.33404408  0.33554034  1
  Cs  Cs5  1  0.00028015  0.33730155  0.66429357  1
  Cs  Cs6  1  0.00137618  0.66782808  -0.00279920  1
  Cs  Cs7  1  -0.00117296  0.66378796  0.33762936  1
  Cs  Cs8  1  0.00036072  0.66516905  0.66530394  1
  Cs  Cs9  1  0.32149122  0.00560778  0.00599395  1
  Cs  Cs10  1  0.33538003  -0.00115180  0.33299238  1
  Cs  Cs11  1  0.33409430  0.00287630  0.66557260  1
  Cs  Cs12  1  0.32360108  0.32699687  0.00590821  1
  Cs  Cs13  1  0.33676393  0.33611564  0.32520362  1
  Cs  Cs14  1  0.33582206  0.33006903  0.66992525  1
  Cs  Cs15  1  0.32828248  0.66690217  0.00899077  1
  Cs  Cs16  1  0.33517003  0.66540170  0.32580805  1
  Cs  Cs17  1  0.33671678  0.66734327  0.66737386  1
  Cs  Cs18  1  0.66851414  0.00036639  -0.00010212  1
  Cs  Cs19  1  0.66675990  0.00092903  0.33324237  1
  Cs  Cs20  1  0.66611093  -0.00179445  0.66679135  1
  Cs  Cs21  1  0.66748477  0.33453851  -0.00025556  1
  Cs  Cs22  1  0.66516227  0.33116252  0.33039540  1
  Cs  Cs23  1  0.66466659  0.33498571  0.66843471  1
  Cs  Cs24  1  0.66700341  0.66592200  -0.00279818  1
  Cs  Cs25  1  0.66640027  0.66687604  0.33343747  1
  Cs  Cs26  1  0.66659393  0.66681415  0.66819253  1
  Sn  Sn27  1  0.83308916  0.16661577  0.83205327  1
  Sn  Sn28  1  0.50028616  0.50082899  0.50086837  1
  Sn  Sn29  1  0.50011135  0.83288470  0.83331260  1
  Sn  Sn30  1  0.83292952  0.50011059  0.83409752  1
  Sn  Sn31  1  0.83309634  0.83380091  0.50011895  1
  Sn  Sn32  1  0.50006852  0.83224637  0.50090146  1
  Sn  Sn33  1  0.83377336  0.16613668  0.50132852  1
  Sn  Sn34  1  0.16610629  0.16635319  0.50037708  1
  Sn  Sn35  1  0.83298867  0.83218671  0.16653557  1
  Sn  Sn36  1  0.83278528  0.83332116  0.83336314  1
  Sn  Sn37  1  0.16697298  0.83355690  0.50054722  1
  Sn  Sn38  1  0.50015018  0.50096046  0.83311889  1
  Sn  Sn39  1  0.83300682  0.50102531  0.16555811  1
  Pb  Pb40  1  0.16293910  0.50030949  0.16675476  1
  Pb  Pb41  1  0.50183198  0.16611106  0.83354433  1
  Pb  Pb42  1  0.16732044  0.83310367  0.83107962  1
  Pb  Pb43  1  0.16358042  0.16652594  0.83035979  1
  Pb  Pb44  1  0.50032955  0.16630595  0.16603741  1
  Pb  Pb45  1  0.50026794  0.16638678  0.50002391  1
  Pb  Pb46  1  0.83150202  0.49978822  0.50034667  1
  Pb  Pb47  1  0.16601032  0.16641912  0.17067351  1
  Pb  Pb48  1  0.16322566  0.83319803  0.17002148  1
  Pb  Pb49  1  0.16760643  0.50028459  0.83300678  1
  Pb  Pb50  1  0.17038521  0.49998193  0.50041515  1
  Pb  Pb51  1  0.50230961  0.50016624  0.16518523  1
  Pb  Pb52  1  0.83316581  0.16658057  0.16683262  1
  Pb  Pb53  1  0.50228245  0.83362177  0.16563831  1
  I  I54  1  0.16416601  -0.00027975  0.16350459  1
  I  I55  1  0.16581169  -0.00102524  0.50083004  1
  I  I56  1  0.16737425  -0.00014876  0.83467412  1
  I  I57  1  0.16525783  0.33325836  0.16893379  1
  I  I58  1  0.15917778  0.33043159  0.50042972  1
  I  I59  1  0.16622149  0.33324549  0.83007039  1
  I  I60  1  0.16874126  0.66699752  0.16988679  1
  I  I61  1  0.16078771  0.66986309  0.50031038  1
  I  I62  1  0.15951910  0.66687841  0.82943420  1
  I  I63  1  0.50463791  -0.00061161  0.16914483  1
  I  I64  1  0.50090975  -0.00362217  0.50414997  1
  I  I65  1  0.50689362  -0.00383600  0.82576727  1
  I  I66  1  0.50422101  0.33388803  0.17026764  1
  I  I67  1  0.50182239  0.33609367  0.50425784  1
  I  I68  1  0.50692486  0.33662081  0.82647445  1
  I  I69  1  0.49909376  0.66684784  0.16977193  1
  I  I70  1  0.50185788  0.66820760  0.50385196  1
  I  I71  1  0.51132050  0.66713765  0.82591805  1
  I  I72  1  0.83293425  -0.00313791  0.16538313  1
  I  I73  1  0.83217377  -0.00161683  0.50189291  1
  I  I74  1  0.82932354  -0.00126101  0.83210394  1
  I  I75  1  0.83207535  0.33617159  0.16379459  1
  I  I76  1  0.83682715  0.33077457  0.50228183  1
  I  I77  1  0.82929471  0.33386751  0.83301449  1
  I  I78  1  0.83249746  0.66746855  0.16504153  1
  I  I79  1  0.83609728  0.66980630  0.50108004  1
  I  I80  1  0.82981819  0.66731183  0.83355311  1
  I  I81  1  0.16687004  0.16779215  0.00009165  1
  I  I82  1  0.15724946  0.16179856  0.33834640  1
  I  I83  1  0.16486120  0.16154377  0.66273564  1
  I  I84  1  0.17114660  0.49960860  0.00005186  1
  I  I85  1  0.16599122  0.49936214  0.33378944  1
  I  I86  1  0.15899625  0.49985465  0.66631784  1
  I  I87  1  0.16701901  0.83277529  0.00017441  1
  I  I88  1  0.16779738  0.83790873  0.33822320  1
  I  I89  1  0.16066598  0.83700144  0.66281644  1
  I  I90  1  0.50465778  0.16706166  -0.00067294  1
  I  I91  1  0.50319818  0.16762505  0.33405485  1
  I  I92  1  0.49828022  0.16794250  0.66653726  1
  I  I93  1  0.50539828  0.50589420  -0.00410444  1
  I  I94  1  0.50083794  0.50359847  0.33572471  1
  I  I95  1  0.50724759  0.50402007  0.66713925  1
  I  I96  1  0.50822655  0.82763418  -0.00403758  1
  I  I97  1  0.50078003  0.83009200  0.33670410  1
  I  I98  1  0.50598087  0.82937166  0.66575359  1
  I  I99  1  0.83041151  0.16427770  -0.00316750  1
  I  I100  1  0.83684617  0.16345781  0.33676251  1
  I  I101  1  0.83674940  0.16316332  0.66607811  1
  I  I102  1  0.82722589  0.50284124  -0.00158787  1
  I  I103  1  0.83187992  0.50345966  0.33177050  1
  I  I104  1  0.83170171  0.50158976  0.66952470  1
  I  I105  1  0.82743937  0.83315740  -0.00136900  1
  I  I106  1  0.83370334  0.83359235  0.33481874  1
  I  I107  1  0.83314791  0.83420015  0.66635481  1
  I  I108  1  -0.00067450  0.16737218  0.16399429  1
  I  I109  1  -0.00171353  0.15811800  0.50338372  1
  I  I110  1  -0.00507428  0.16588422  0.83262593  1
  I  I111  1  -0.00530156  0.50418944  0.16171940  1
  I  I112  1  -0.00018641  0.50192640  0.49910003  1
  I  I113  1  -0.00399366  0.50100436  0.83718925  1
  I  I114  1  -0.00507535  0.82987993  0.16458549  1
  I  I115  1  -0.00171496  0.83841695  0.49923423  1
  I  I116  1  -0.00390655  0.83280173  0.83284594  1
  I  I117  1  0.33275149  0.16743749  0.16772523  1
  I  I118  1  0.33080510  0.16218687  0.49892037  1
  I  I119  1  0.33318628  0.16763972  0.83241680  1
  I  I120  1  0.33351783  0.49844487  0.16764567  1
  I  I121  1  0.33824662  0.50357896  0.50685352  1
  I  I122  1  0.33762612  0.50615622  0.82560991  1
  I  I123  1  0.33314031  0.83406882  0.16663101  1
  I  I124  1  0.33426633  0.83449263  0.50620869  1
  I  I125  1  0.33722963  0.82671740  0.82610132  1
  I  I126  1  0.66777419  0.16679085  0.17177531  1
  I  I127  1  0.66999810  0.16288461  0.50299605  1
  I  I128  1  0.67076684  0.16632573  0.82551156  1
  I  I129  1  0.67025249  0.50413491  0.16606352  1
  I  I130  1  0.66392859  0.50430587  0.50113168  1
  I  I131  1  0.66810776  0.50086665  0.83245444  1
  I  I132  1  0.67073511  0.82996432  0.17235900  1
  I  I133  1  0.66767315  0.83373443  0.50020846  1
  I  I134  1  0.66840798  0.83260968  0.82789909  1
