# generated using pymatgen
data_Cs27Sn13Pb14I81
_symmetry_space_group_name_H-M   'P 1'
_cell_length_a   19.06834366
_cell_length_b   19.06009153
_cell_length_c   19.06046631
_cell_angle_alpha   90.00163074
_cell_angle_beta   90.00148748
_cell_angle_gamma   89.99710622
_symmetry_Int_Tables_number   1
_chemical_formula_structural   Cs27Sn13Pb14I81
_chemical_formula_sum   'Cs27 Sn13 Pb14 I81'
_cell_volume   6927.41925888
_cell_formula_units_Z   1
loop_
 _symmetry_equiv_pos_site_id
 _symmetry_equiv_pos_as_xyz
  1  'x, y, z'
loop_
 _atom_site_type_symbol
 _atom_site_label
 _atom_site_symmetry_multiplicity
 _atom_site_fract_x
 _atom_site_fract_y
 _atom_site_fract_z
 _atom_site_occupancy
  Cs  Cs0  1  0.00434211  0.00065360  -0.00023473  1
  Cs  Cs1  1  0.00009659  -0.00003487  0.33621026  1
  Cs  Cs2  1  -0.00113987  0.00080587  0.66570434  1
  Cs  Cs3  1  0.01431860  0.33033815  0.00260091  1
  Cs  Cs4  1  0.00278193  0.34017803  0.33329690  1
  Cs  Cs5  1  0.00271264  0.33470371  0.66557574  1
  Cs  Cs6  1  0.00069036  0.67178610  0.00157680  1
  Cs  Cs7  1  -0.01313965  0.65854006  0.34987580  1
  Cs  Cs8  1  0.00306547  0.66387522  0.65498929  1
  Cs  Cs9  1  0.32585674  -0.00053931  -0.00114545  1
  Cs  Cs10  1  0.33638199  -0.00397568  0.34331572  1
  Cs  Cs11  1  0.33681481  -0.00090493  0.66125949  1
  Cs  Cs12  1  0.32195335  0.33265030  0.00491882  1
  Cs  Cs13  1  0.33260887  0.33520443  0.32563631  1
  Cs  Cs14  1  0.33811305  0.33703041  0.66812158  1
  Cs  Cs15  1  0.33525306  0.66872617  0.00342281  1
  Cs  Cs16  1  0.33464413  0.66873837  0.33080532  1
  Cs  Cs17  1  0.32969479  0.66352782  0.66435615  1
  Cs  Cs18  1  0.66864086  0.00199408  -0.00281413  1
  Cs  Cs19  1  0.66309415  -0.00364148  0.33331753  1
  Cs  Cs20  1  0.66428176  0.00276998  0.66887962  1
  Cs  Cs21  1  0.66677459  0.33080191  -0.00202615  1
  Cs  Cs22  1  0.66728564  0.33190875  0.33097406  1
  Cs  Cs23  1  0.66384949  0.33279369  0.66745211  1
  Cs  Cs24  1  0.66526970  0.66563712  0.00277651  1
  Cs  Cs25  1  0.67805838  0.67223151  0.31636113  1
  Cs  Cs26  1  0.66772663  0.65896852  0.67168937  1
  Sn  Sn27  1  0.16655997  0.83340357  0.83341545  1
  Sn  Sn28  1  0.16579600  0.83335948  0.16703170  1
  Sn  Sn29  1  0.50019501  0.83347166  0.83305672  1
  Sn  Sn30  1  0.50095515  0.50042661  0.49948647  1
  Sn  Sn31  1  0.83286269  0.16644146  0.16605267  1
  Sn  Sn32  1  0.83374693  0.16668912  0.50021784  1
  Sn  Sn33  1  0.83320459  0.49917562  0.83423588  1
  Sn  Sn34  1  0.83322657  0.83327858  0.83295821  1
  Sn  Sn35  1  0.16594628  0.16701441  0.50050041  1
  Sn  Sn36  1  0.50025511  0.16685638  0.83489570  1
  Sn  Sn37  1  0.50062543  0.16598252  0.16471695  1
  Sn  Sn38  1  0.83316451  0.16743937  0.83374246  1
  Sn  Sn39  1  0.50066206  0.49956375  0.83331351  1
  Pb  Pb40  1  0.83343120  0.49700284  0.16283394  1
  Pb  Pb41  1  0.50082239  0.82980554  0.50256303  1
  Pb  Pb42  1  0.49830423  0.83636426  0.16379270  1
  Pb  Pb43  1  0.16696358  0.16467822  0.83121082  1
  Pb  Pb44  1  0.16665924  0.16434968  0.16938156  1
  Pb  Pb45  1  0.83234336  0.83573209  0.50291327  1
  Pb  Pb46  1  0.50027539  0.49771105  0.16560580  1
  Pb  Pb47  1  0.16974101  0.49709478  0.50014183  1
  Pb  Pb48  1  0.16673341  0.83482200  0.49996776  1
  Pb  Pb49  1  0.16609517  0.50413809  0.16682822  1
  Pb  Pb50  1  0.50076870  0.16842451  0.50010023  1
  Pb  Pb51  1  0.16661667  0.50310518  0.83362145  1
  Pb  Pb52  1  0.83562278  0.83613725  0.16390977  1
  Pb  Pb53  1  0.83016479  0.49689233  0.50253096  1
  I  I54  1  0.16636925  -0.00210784  0.15767941  1
  I  I55  1  0.16369489  0.00247983  0.50079904  1
  I  I56  1  0.16656860  -0.00260234  0.83740444  1
  I  I57  1  0.16737661  0.33301952  0.16907248  1
  I  I58  1  0.15836696  0.32972514  0.50022619  1
  I  I59  1  0.16664053  0.33350451  0.83143230  1
  I  I60  1  0.17108806  0.67155009  0.15519986  1
  I  I61  1  0.16809578  0.66650517  0.49992877  1
  I  I62  1  0.16731989  0.67073143  0.83824250  1
  I  I63  1  0.50616996  0.00378860  0.16149561  1
  I  I64  1  0.49796561  0.00001932  0.49946037  1
  I  I65  1  0.50378923  0.00059793  0.83946771  1
  I  I66  1  0.50346738  0.32977062  0.15986414  1
  I  I67  1  0.49969906  0.33521079  0.51126539  1
  I  I68  1  0.51047400  0.33270352  0.83124724  1
  I  I69  1  0.49538543  0.66676073  0.16831898  1
  I  I70  1  0.49594583  0.66245661  0.51133361  1
  I  I71  1  0.50321308  0.66660466  0.82515867  1
  I  I72  1  0.82813570  0.00367444  0.16354156  1
  I  I73  1  0.83723772  0.00400921  0.50340218  1
  I  I74  1  0.82994796  0.00102408  0.83298433  1
  I  I75  1  0.82793183  0.32894936  0.16531090  1
  I  I76  1  0.83877603  0.32951964  0.50347257  1
  I  I77  1  0.82139276  0.33203456  0.83172100  1
  I  I78  1  0.83561504  0.66671142  0.16691425  1
  I  I79  1  0.83518662  0.66619475  0.50088862  1
  I  I80  1  0.82811067  0.66677885  0.83360826  1
  I  I81  1  0.16478706  0.16928086  -0.00002674  1
  I  I82  1  0.16278713  0.16264429  0.33651466  1
  I  I83  1  0.16106816  0.16268575  0.66426535  1
  I  I84  1  0.16976937  0.49120760  -0.00024874  1
  I  I85  1  0.17084365  0.50142374  0.33362225  1
  I  I86  1  0.16333199  0.50425400  0.66704568  1
  I  I87  1  0.16717993  0.83704452  -0.00204758  1
  I  I88  1  0.17064991  0.83986818  0.33065227  1
  I  I89  1  0.16668373  0.83429353  0.66975471  1
  I  I90  1  0.51097025  0.16802174  -0.00201074  1
  I  I91  1  0.50279677  0.17023337  0.33099667  1
  I  I92  1  0.50306128  0.16314136  0.67013196  1
  I  I93  1  0.50616795  0.50483088  -0.00391193  1
  I  I94  1  0.49442256  0.49191427  0.33557229  1
  I  I95  1  0.50427289  0.49550887  0.66959348  1
  I  I96  1  0.50440466  0.82521812  -0.00455585  1
  I  I97  1  0.49346099  0.83461359  0.33307787  1
  I  I98  1  0.49655706  0.84468508  0.67159640  1
  I  I99  1  0.82508335  0.16558144  -0.00170613  1
  I  I100  1  0.83259158  0.16600738  0.33322101  1
  I  I101  1  0.83308803  0.16527029  0.66860403  1
  I  I102  1  0.82126255  0.50009256  -0.00486603  1
  I  I103  1  0.83326753  0.49995387  0.33325234  1
  I  I104  1  0.83127581  0.49889395  0.67042629  1
  I  I105  1  0.82879931  0.83610449  -0.00433521  1
  I  I106  1  0.83720898  0.83365959  0.33318409  1
  I  I107  1  0.83760509  0.83685870  0.67174264  1
  I  I108  1  -0.00279995  0.16502014  0.16043287  1
  I  I109  1  -0.00124641  0.16439067  0.50195176  1
  I  I110  1  -0.00318086  0.16700740  0.83676774  1
  I  I111  1  -0.00022023  0.49293750  0.16345142  1
  I  I112  1  -0.00024930  0.50314500  0.50024407  1
  I  I113  1  -0.00304878  0.49646427  0.83482025  1
  I  I114  1  0.00268615  0.83906023  0.15408274  1
  I  I115  1  -0.00008996  0.83005526  0.50397804  1
  I  I116  1  -0.00057285  0.83669409  0.84016668  1
  I  I117  1  0.33584143  0.16740086  0.16113588  1
  I  I118  1  0.33188770  0.16664855  0.50045572  1
  I  I119  1  0.33660541  0.16737537  0.83682214  1
  I  I120  1  0.33357215  0.49312352  0.16389468  1
  I  I121  1  0.33687976  0.49609325  0.51282388  1
  I  I122  1  0.33646290  0.49811272  0.82782049  1
  I  I123  1  0.33110409  0.83712269  0.15732742  1
  I  I124  1  0.33344165  0.83977577  0.50377597  1
  I  I125  1  0.33387252  0.83487584  0.83882451  1
  I  I126  1  0.66687117  0.16687887  0.16775549  1
  I  I127  1  0.66954634  0.16870844  0.50194315  1
  I  I128  1  0.66711002  0.16105520  0.83064480  1
  I  I129  1  0.66663380  0.50637504  0.17184935  1
  I  I130  1  0.66346687  0.49408127  0.50712246  1
  I  I131  1  0.66620739  0.50429630  0.82773369  1
  I  I132  1  0.66691694  0.82983403  0.16914232  1
  I  I133  1  0.66647916  0.84091413  0.50001763  1
  I  I134  1  0.66668851  0.83551900  0.83010803  1
