# generated using pymatgen
data_Cs27Sn13Pb14I81
_symmetry_space_group_name_H-M   'P 1'
_cell_length_a   18.97880721
_cell_length_b   18.98273251
_cell_length_c   18.97390806
_cell_angle_alpha   90.00008810
_cell_angle_beta   89.99994662
_cell_angle_gamma   89.99609667
_symmetry_Int_Tables_number   1
_chemical_formula_structural   Cs27Sn13Pb14I81
_chemical_formula_sum   'Cs27 Sn13 Pb14 I81'
_cell_volume   6835.72264254
_cell_formula_units_Z   1
loop_
 _symmetry_equiv_pos_site_id
 _symmetry_equiv_pos_as_xyz
  1  'x, y, z'
loop_
 _atom_site_type_symbol
 _atom_site_label
 _atom_site_symmetry_multiplicity
 _atom_site_fract_x
 _atom_site_fract_y
 _atom_site_fract_z
 _atom_site_occupancy
  Cs  Cs0  1  -0.00258123  0.00030432  -0.00202763  1
  Cs  Cs1  1  0.00078287  0.00205203  0.34335609  1
  Cs  Cs2  1  0.00253961  0.00029064  0.66108985  1
  Cs  Cs3  1  -0.00096831  0.33260335  -0.00085709  1
  Cs  Cs4  1  -0.00021038  0.33314472  0.33531411  1
  Cs  Cs5  1  0.00020182  0.33331205  0.66741935  1
  Cs  Cs6  1  0.00059348  0.66676101  -0.00019748  1
  Cs  Cs7  1  -0.00001917  0.66621671  0.33174040  1
  Cs  Cs8  1  -0.00099607  0.66680555  0.66783513  1
  Cs  Cs9  1  0.33538978  0.00059686  -0.00077416  1
  Cs  Cs10  1  0.33311318  0.00186433  0.33957305  1
  Cs  Cs11  1  0.33063234  0.00012116  0.66219777  1
  Cs  Cs12  1  0.33407579  0.33316819  -0.00028432  1
  Cs  Cs13  1  0.33148812  0.33034053  0.33156999  1
  Cs  Cs14  1  0.33390228  0.33445634  0.66719920  1
  Cs  Cs15  1  0.33298925  0.66774011  0.00086346  1
  Cs  Cs16  1  0.33089247  0.66968842  0.32825210  1
  Cs  Cs17  1  0.33541327  0.66548681  0.66741018  1
  Cs  Cs18  1  0.66628697  -0.00081063  0.00051668  1
  Cs  Cs19  1  0.66608707  -0.00172396  0.33496857  1
  Cs  Cs20  1  0.66774945  -0.00071587  0.66336391  1
  Cs  Cs21  1  0.66654951  0.33217010  -0.00019327  1
  Cs  Cs22  1  0.66881892  0.33380472  0.33632805  1
  Cs  Cs23  1  0.66651759  0.33782212  0.66055026  1
  Cs  Cs24  1  0.66638747  0.66761719  -0.00051790  1
  Cs  Cs25  1  0.66838740  0.66745176  0.33540156  1
  Cs  Cs26  1  0.66619621  0.66386526  0.66250441  1
  Sn  Sn27  1  0.83231333  0.83255493  0.83424511  1
  Sn  Sn28  1  0.16749405  0.16732512  0.83467919  1
  Sn  Sn29  1  0.50087258  0.83423049  0.83400504  1
  Sn  Sn30  1  0.50076289  0.83354905  0.16559345  1
  Sn  Sn31  1  0.83380904  0.50065263  0.83450060  1
  Sn  Sn32  1  0.16607748  0.49940393  0.83287840  1
  Sn  Sn33  1  0.83241415  0.50059772  0.16532904  1
  Sn  Sn34  1  0.16700677  0.50033526  0.50100821  1
  Sn  Sn35  1  0.49951451  0.16590233  0.83390662  1
  Sn  Sn36  1  0.16696859  0.16624658  0.16534580  1
  Sn  Sn37  1  0.49931245  0.16646447  0.16567442  1
  Sn  Sn38  1  0.83290004  0.83279297  0.16559669  1
  Sn  Sn39  1  0.50089899  0.49995198  0.16620368  1
  Pb  Pb40  1  0.16678416  0.82998333  0.50004674  1
  Pb  Pb41  1  0.50000640  0.16682197  0.50040571  1
  Pb  Pb42  1  0.83315909  0.83295726  0.50015503  1
  Pb  Pb43  1  0.16675857  0.83360033  0.83352694  1
  Pb  Pb44  1  0.16692938  0.16874148  0.50071170  1
  Pb  Pb45  1  0.83275763  0.16650984  0.83319933  1
  Pb  Pb46  1  0.83530277  0.50019520  0.49988247  1
  Pb  Pb47  1  0.83312269  0.16684437  0.50022310  1
  Pb  Pb48  1  0.50023241  0.50002222  0.83492613  1
  Pb  Pb49  1  0.49722066  0.50011862  0.49614019  1
  Pb  Pb50  1  0.16618277  0.49832536  0.16575512  1
  Pb  Pb51  1  0.83290817  0.16622564  0.16668759  1
  Pb  Pb52  1  0.50002309  0.83312971  0.50014837  1
  Pb  Pb53  1  0.16622133  0.83670766  0.16645670  1
  I  I54  1  0.17041154  0.00458813  0.15960787  1
  I  I55  1  0.16571759  0.00029054  0.49975406  1
  I  I56  1  0.16744080  0.00316254  0.83850890  1
  I  I57  1  0.17117706  0.33054098  0.16552331  1
  I  I58  1  0.16576716  0.33626478  0.50098011  1
  I  I59  1  0.16673619  0.33348232  0.83353808  1
  I  I60  1  0.16984523  0.66663494  0.16778153  1
  I  I61  1  0.16622437  0.66207135  0.50564252  1
  I  I62  1  0.16573319  0.66371331  0.82922895  1
  I  I63  1  0.50040166  -0.00016692  0.16207649  1
  I  I64  1  0.49904886  -0.00001908  0.49596156  1
  I  I65  1  0.49985577  -0.00002423  0.84171517  1
  I  I66  1  0.49918098  0.33292642  0.16258525  1
  I  I67  1  0.50064470  0.33356850  0.50073600  1
  I  I68  1  0.49823540  0.33096282  0.83860582  1
  I  I69  1  0.50340428  0.66707989  0.16301446  1
  I  I70  1  0.49791492  0.66650615  0.50148175  1
  I  I71  1  0.49980612  0.66908075  0.83793765  1
  I  I72  1  0.83029526  -0.00339454  0.16111811  1
  I  I73  1  0.83515466  -0.00044673  0.49951049  1
  I  I74  1  0.83238047  -0.00323008  0.83903851  1
  I  I75  1  0.83093591  0.33633672  0.16267051  1
  I  I76  1  0.83340295  0.33407069  0.49933924  1
  I  I77  1  0.83526781  0.33648961  0.83796100  1
  I  I78  1  0.82636736  0.66630478  0.16328109  1
  I  I79  1  0.83563748  0.66652259  0.49960489  1
  I  I80  1  0.83433943  0.66621435  0.83750911  1
  I  I81  1  0.17112704  0.17340890  -0.00091370  1
  I  I82  1  0.17061752  0.16765965  0.33050903  1
  I  I83  1  0.17049551  0.16826422  0.67044517  1
  I  I84  1  0.16505663  0.49724150  -0.00289772  1
  I  I85  1  0.16749795  0.49794858  0.33449624  1
  I  I86  1  0.16113001  0.49422078  0.66904347  1
  I  I87  1  0.16636876  0.82751724  0.00001003  1
  I  I88  1  0.16678934  0.83332000  0.33286973  1
  I  I89  1  0.16634310  0.83859625  0.66716067  1
  I  I90  1  0.49483749  0.16591436  0.00057122  1
  I  I91  1  0.49554609  0.16601993  0.32932225  1
  I  I92  1  0.49545871  0.16183047  0.67078665  1
  I  I93  1  0.49830741  0.49944198  0.00318546  1
  I  I94  1  0.50478799  0.49969427  0.32767237  1
  I  I95  1  0.50244646  0.49954462  0.66688274  1
  I  I96  1  0.50404644  0.83455336  0.00058780  1
  I  I97  1  0.50394165  0.83385108  0.32919059  1
  I  I98  1  0.50357180  0.83798783  0.67068702  1
  I  I99  1  0.83559620  0.16813061  -0.00000368  1
  I  I100  1  0.83474894  0.16738467  0.33256915  1
  I  I101  1  0.83394122  0.16667598  0.66751320  1
  I  I102  1  0.83634694  0.50394848  -0.00006041  1
  I  I103  1  0.83084516  0.50343983  0.32967765  1
  I  I104  1  0.83531815  0.50329919  0.67020120  1
  I  I105  1  0.82904678  0.82855399  0.00000013  1
  I  I106  1  0.82877790  0.82924140  0.32952243  1
  I  I107  1  0.82918091  0.82921816  0.67061093  1
  I  I108  1  0.00271424  0.16878132  0.16253880  1
  I  I109  1  0.00063198  0.16664461  0.49856562  1
  I  I110  1  0.00291973  0.16856638  0.83748608  1
  I  I111  1  -0.00281248  0.50342138  0.16625957  1
  I  I112  1  0.00305204  0.49838635  0.49915643  1
  I  I113  1  -0.00026664  0.49993021  0.83533176  1
  I  I114  1  -0.00356460  0.82767606  0.16195004  1
  I  I115  1  -0.00016085  0.83509288  0.49936625  1
  I  I116  1  -0.00313105  0.83168545  0.83813494  1
  I  I117  1  0.33446718  0.16848206  0.16290222  1
  I  I118  1  0.33332339  0.16771507  0.49853602  1
  I  I119  1  0.33338014  0.16758983  0.83799946  1
  I  I120  1  0.33583380  0.50211842  0.16690725  1
  I  I121  1  0.32970261  0.49858391  0.50750082  1
  I  I122  1  0.33103036  0.49893823  0.83135670  1
  I  I123  1  0.33679717  0.82914519  0.16220302  1
  I  I124  1  0.33350689  0.83331739  0.49929843  1
  I  I125  1  0.33654425  0.83326812  0.83859516  1
  I  I126  1  0.66309553  0.16723040  0.16127125  1
  I  I127  1  0.66620988  0.16803015  0.49970522  1
  I  I128  1  0.66323640  0.16577446  0.84002955  1
  I  I129  1  0.66692307  0.49831107  0.16060812  1
  I  I130  1  0.66664431  0.49974958  0.50250343  1
  I  I131  1  0.66926169  0.50023612  0.83675453  1
  I  I132  1  0.66596230  0.83422848  0.16240434  1
  I  I133  1  0.66662067  0.83237691  0.49999062  1
  I  I134  1  0.66640506  0.83365780  0.83845866  1
