# generated using pymatgen
data_Cs27Sn13Pb14I81
_symmetry_space_group_name_H-M   'P 1'
_cell_length_a   18.98136149
_cell_length_b   18.98848669
_cell_length_c   19.00630460
_cell_angle_alpha   90.00044512
_cell_angle_beta   90.00084223
_cell_angle_gamma   90.00050390
_symmetry_Int_Tables_number   1
_chemical_formula_structural   Cs27Sn13Pb14I81
_chemical_formula_sum   'Cs27 Sn13 Pb14 I81'
_cell_volume   6850.39161819
_cell_formula_units_Z   1
loop_
 _symmetry_equiv_pos_site_id
 _symmetry_equiv_pos_as_xyz
  1  'x, y, z'
loop_
 _atom_site_type_symbol
 _atom_site_label
 _atom_site_symmetry_multiplicity
 _atom_site_fract_x
 _atom_site_fract_y
 _atom_site_fract_z
 _atom_site_occupancy
  Cs  Cs0  1  0.00117383  0.00196479  -0.00097315  1
  Cs  Cs1  1  -0.00078261  -0.00145109  0.33088800  1
  Cs  Cs2  1  -0.00191007  -0.00165131  0.66981118  1
  Cs  Cs3  1  0.00180676  0.33393473  0.00098296  1
  Cs  Cs4  1  0.00249707  0.33921822  0.33283965  1
  Cs  Cs5  1  0.00317812  0.33770232  0.66522517  1
  Cs  Cs6  1  -0.00165130  0.66204881  0.00045596  1
  Cs  Cs7  1  0.00001479  0.66261251  0.33842952  1
  Cs  Cs8  1  0.00115489  0.66443442  0.66046977  1
  Cs  Cs9  1  0.32612227  -0.00745899  0.00029979  1
  Cs  Cs10  1  0.32617263  -0.00004304  0.33246270  1
  Cs  Cs11  1  0.32353930  0.00249437  0.66636173  1
  Cs  Cs12  1  0.33179557  0.33493680  0.00127991  1
  Cs  Cs13  1  0.33613048  0.33258223  0.33404170  1
  Cs  Cs14  1  0.33366313  0.33015376  0.66292442  1
  Cs  Cs15  1  0.33614181  0.67033761  -0.00147414  1
  Cs  Cs16  1  0.33378058  0.66720958  0.33186014  1
  Cs  Cs17  1  0.33343910  0.66859697  0.66988007  1
  Cs  Cs18  1  0.66764118  0.00047257  0.00044592  1
  Cs  Cs19  1  0.66668814  0.00045012  0.33458937  1
  Cs  Cs20  1  0.66882988  0.00211625  0.66423191  1
  Cs  Cs21  1  0.66605368  0.33309618  -0.00012363  1
  Cs  Cs22  1  0.66409979  0.33161720  0.33160150  1
  Cs  Cs23  1  0.66554535  0.33118039  0.66945667  1
  Cs  Cs24  1  0.66326761  0.66568226  -0.00322519  1
  Cs  Cs25  1  0.66664691  0.66808226  0.33308969  1
  Cs  Cs26  1  0.66511602  0.66614828  0.66872343  1
  Sn  Sn27  1  0.83216384  0.83417167  0.49996638  1
  Sn  Sn28  1  0.83257540  0.16620095  0.83356593  1
  Sn  Sn29  1  0.83247764  0.16605373  0.16672053  1
  Sn  Sn30  1  0.16707161  0.49994768  0.83411545  1
  Sn  Sn31  1  0.50011418  0.16603358  0.83481899  1
  Sn  Sn32  1  0.49946766  0.49961283  0.16714786  1
  Sn  Sn33  1  0.83317941  0.16640930  0.49974433  1
  Sn  Sn34  1  0.83281506  0.83386615  0.16656055  1
  Sn  Sn35  1  0.16813615  0.50007052  0.16568526  1
  Sn  Sn36  1  0.50049430  0.83321645  0.50006358  1
  Sn  Sn37  1  0.83287679  0.83361582  0.83340096  1
  Sn  Sn38  1  0.50066762  0.50101888  0.49941353  1
  Sn  Sn39  1  0.50033513  0.16652194  0.16528932  1
  Pb  Pb40  1  0.83040064  0.49993584  0.50001396  1
  Pb  Pb41  1  0.16259663  0.16658482  0.49978799  1
  Pb  Pb42  1  0.16671891  0.16854273  0.16666226  1
  Pb  Pb43  1  0.16636013  0.16842373  0.83356283  1
  Pb  Pb44  1  0.50196758  0.83663363  0.83071667  1
  Pb  Pb45  1  0.16348489  0.83071784  0.83344299  1
  Pb  Pb46  1  0.83501853  0.49952047  0.83324965  1
  Pb  Pb47  1  0.16638829  0.83341462  0.49989933  1
  Pb  Pb48  1  0.49831020  0.49793130  0.83361825  1
  Pb  Pb49  1  0.50185983  0.83399302  0.16827209  1
  Pb  Pb50  1  0.50133243  0.16591407  0.49962768  1
  Pb  Pb51  1  0.16336881  0.83019458  0.16665988  1
  Pb  Pb52  1  0.83235380  0.49971444  0.16664652  1
  Pb  Pb53  1  0.17019895  0.50010496  0.49969029  1
  I  I54  1  0.16934637  -0.00013807  0.16756812  1
  I  I55  1  0.17417466  -0.00006917  0.50047188  1
  I  I56  1  0.16840795  -0.00003062  0.83186176  1
  I  I57  1  0.16454468  0.33651505  0.16300154  1
  I  I58  1  0.16569044  0.33373171  0.50075614  1
  I  I59  1  0.16343217  0.33612564  0.83773816  1
  I  I60  1  0.17246842  0.66237765  0.16254927  1
  I  I61  1  0.15961536  0.66644009  0.49990189  1
  I  I62  1  0.16669068  0.66302357  0.83796974  1
  I  I63  1  0.50490732  0.00328713  0.16466292  1
  I  I64  1  0.50537787  -0.00253712  0.50024519  1
  I  I65  1  0.50289407  0.00445518  0.83915122  1
  I  I66  1  0.50257499  0.33319294  0.16949284  1
  I  I67  1  0.50073341  0.33505016  0.49876879  1
  I  I68  1  0.50758439  0.33020554  0.83188689  1
  I  I69  1  0.49779172  0.66409308  0.16984400  1
  I  I70  1  0.50625781  0.66658782  0.49436607  1
  I  I71  1  0.50076653  0.66690618  0.83467556  1
  I  I72  1  0.82737694  0.00105990  0.16735210  1
  I  I73  1  0.82661842  -0.00041399  0.49987785  1
  I  I74  1  0.82969344  0.00079109  0.83262622  1
  I  I75  1  0.83290288  0.32996431  0.16623003  1
  I  I76  1  0.83229360  0.33011742  0.50007515  1
  I  I77  1  0.83073502  0.32950919  0.83368254  1
  I  I78  1  0.83460090  0.66949983  0.16769826  1
  I  I79  1  0.83281284  0.67003322  0.49970866  1
  I  I80  1  0.83580618  0.66976021  0.83289898  1
  I  I81  1  0.16134308  0.16729483  0.00014133  1
  I  I82  1  0.16807780  0.17028537  0.33312508  1
  I  I83  1  0.16934106  0.17147206  0.66681344  1
  I  I84  1  0.17105193  0.49854924  0.00109578  1
  I  I85  1  0.16681286  0.49939108  0.33041179  1
  I  I86  1  0.16462800  0.49935041  0.66887146  1
  I  I87  1  0.16571172  0.83425766  0.00006348  1
  I  I88  1  0.16356280  0.83079987  0.33319180  1
  I  I89  1  0.16482671  0.82969107  0.66675109  1
  I  I90  1  0.51044814  0.17487145  0.00103370  1
  I  I91  1  0.50546858  0.16971122  0.33057285  1
  I  I92  1  0.50532772  0.16813888  0.66859844  1
  I  I93  1  0.49856361  0.49710390  0.00295031  1
  I  I94  1  0.49504517  0.49697975  0.33224314  1
  I  I95  1  0.49990636  0.50212247  0.66433912  1
  I  I96  1  0.50231760  0.82953624  -0.00013890  1
  I  I97  1  0.50788556  0.83299211  0.33607979  1
  I  I98  1  0.50723713  0.82636045  0.66306510  1
  I  I99  1  0.82955456  0.16085717  0.00020332  1
  I  I100  1  0.82876205  0.16070563  0.33269281  1
  I  I101  1  0.82873995  0.16071657  0.66706203  1
  I  I102  1  0.83031310  0.50179809  0.00009478  1
  I  I103  1  0.83903377  0.49995071  0.33321142  1
  I  I104  1  0.83486902  0.49938053  0.66659477  1
  I  I105  1  0.83486948  0.83949578  0.00006313  1
  I  I106  1  0.82976854  0.83953820  0.33366677  1
  I  I107  1  0.83002719  0.83996768  0.66627547  1
  I  I108  1  -0.00378790  0.16369623  0.16622769  1
  I  I109  1  -0.00608161  0.16030141  0.50057473  1
  I  I110  1  -0.00393229  0.16318459  0.83349476  1
  I  I111  1  0.00190346  0.50032366  0.16239757  1
  I  I112  1  0.00012693  0.49969304  0.49934830  1
  I  I113  1  0.00287081  0.49843826  0.84044743  1
  I  I114  1  -0.00511801  0.83943427  0.16919041  1
  I  I115  1  -0.00428335  0.83769355  0.50040989  1
  I  I116  1  -0.00495867  0.84111632  0.83075521  1
  I  I117  1  0.33693542  0.17011657  0.16276405  1
  I  I118  1  0.33372567  0.16703243  0.50094070  1
  I  I119  1  0.33640128  0.17002716  0.83700734  1
  I  I120  1  0.33475602  0.49309074  0.16769620  1
  I  I121  1  0.33787661  0.50478034  0.49853812  1
  I  I122  1  0.33064206  0.49726535  0.83454282  1
  I  I123  1  0.33346562  0.83630243  0.16939288  1
  I  I124  1  0.33667475  0.82789155  0.49923824  1
  I  I125  1  0.33348667  0.83466546  0.83105478  1
  I  I126  1  0.66739483  0.17013331  0.16623861  1
  I  I127  1  0.66972021  0.16548130  0.50004834  1
  I  I128  1  0.66801359  0.16527132  0.83373924  1
  I  I129  1  0.66346370  0.49812985  0.17148089  1
  I  I130  1  0.66289584  0.50115640  0.49310817  1
  I  I131  1  0.66642835  0.50136590  0.83381499  1
  I  I132  1  0.67029652  0.83210378  0.16566628  1
  I  I133  1  0.66819074  0.83260428  0.49945683  1
  I  I134  1  0.67041087  0.83301041  0.83539235  1
