# generated using pymatgen
data_Cs27Sn14Pb13I81
_symmetry_space_group_name_H-M   'P 1'
_cell_length_a   18.96473916
_cell_length_b   18.97969815
_cell_length_c   18.98436798
_cell_angle_alpha   90.00010865
_cell_angle_beta   89.99847612
_cell_angle_gamma   90.00019375
_symmetry_Int_Tables_number   1
_chemical_formula_structural   Cs27Sn14Pb13I81
_chemical_formula_sum   'Cs27 Sn14 Pb13 I81'
_cell_volume   6833.32880181
_cell_formula_units_Z   1
loop_
 _symmetry_equiv_pos_site_id
 _symmetry_equiv_pos_as_xyz
  1  'x, y, z'
loop_
 _atom_site_type_symbol
 _atom_site_label
 _atom_site_symmetry_multiplicity
 _atom_site_fract_x
 _atom_site_fract_y
 _atom_site_fract_z
 _atom_site_occupancy
  Cs  Cs0  1  0.00034793  0.00067280  0.00437696  1
  Cs  Cs1  1  0.00206634  -0.00004067  0.33219996  1
  Cs  Cs2  1  -0.00066896  -0.00087783  0.66402185  1
  Cs  Cs3  1  0.00243284  0.33322659  0.00322044  1
  Cs  Cs4  1  0.00065082  0.33411400  0.33032216  1
  Cs  Cs5  1  0.00004429  0.33659884  0.66675941  1
  Cs  Cs6  1  0.00045214  0.66537723  0.00192732  1
  Cs  Cs7  1  -0.00068219  0.66562870  0.33165417  1
  Cs  Cs8  1  -0.00122402  0.66462042  0.66688837  1
  Cs  Cs9  1  0.33569024  -0.00094661  -0.00163310  1
  Cs  Cs10  1  0.33001627  -0.00074197  0.33601418  1
  Cs  Cs11  1  0.32569269  -0.00697181  0.66465807  1
  Cs  Cs12  1  0.33148349  0.33060352  -0.00430051  1
  Cs  Cs13  1  0.33383888  0.33401812  0.33438999  1
  Cs  Cs14  1  0.33412441  0.33302975  0.66900317  1
  Cs  Cs15  1  0.33147692  0.67078290  0.00002183  1
  Cs  Cs16  1  0.33949796  0.66612162  0.33335208  1
  Cs  Cs17  1  0.33230562  0.67429208  0.66596091  1
  Cs  Cs18  1  0.66537096  0.00113562  -0.00215840  1
  Cs  Cs19  1  0.66718655  0.00177122  0.33413756  1
  Cs  Cs20  1  0.66858665  0.00397342  0.66882949  1
  Cs  Cs21  1  0.66730225  0.33219796  -0.00088262  1
  Cs  Cs22  1  0.66556012  0.33435199  0.33244298  1
  Cs  Cs23  1  0.66638258  0.33190955  0.66717183  1
  Cs  Cs24  1  0.66530501  0.66656499  0.00150747  1
  Cs  Cs25  1  0.66011543  0.66358131  0.33241202  1
  Cs  Cs26  1  0.66891904  0.66545176  0.66599188  1
  Sn  Sn27  1  0.83327350  0.83335918  0.83358438  1
  Sn  Sn28  1  0.50064701  0.16733550  0.83256373  1
  Sn  Sn29  1  0.83286964  0.16708816  0.50044641  1
  Sn  Sn30  1  0.83374620  0.49975971  0.50024050  1
  Sn  Sn31  1  0.83341095  0.83313039  0.16687947  1
  Sn  Sn32  1  0.50073246  0.49982358  0.83309926  1
  Sn  Sn33  1  0.83346002  0.16700584  0.83277540  1
  Sn  Sn34  1  0.83311758  0.83308883  0.49956787  1
  Sn  Sn35  1  0.16607229  0.83223014  0.16683583  1
  Sn  Sn36  1  0.50012343  0.16680876  0.16668606  1
  Sn  Sn37  1  0.50047155  0.16661269  0.50071679  1
  Sn  Sn38  1  0.16628851  0.49987030  0.49927811  1
  Sn  Sn39  1  0.83253098  0.49966462  0.83297875  1
  Sn  Sn40  1  0.16676689  0.50072472  0.16758519  1
  Pb  Pb41  1  0.50281869  0.83623744  0.50016834  1
  Pb  Pb42  1  0.50233196  0.83355926  0.83311994  1
  Pb  Pb43  1  0.50005360  0.83553252  0.16678262  1
  Pb  Pb44  1  0.16406885  0.83051630  0.49775640  1
  Pb  Pb45  1  0.50026301  0.49811862  0.50233460  1
  Pb  Pb46  1  0.16665194  0.50007984  0.83302975  1
  Pb  Pb47  1  0.16589798  0.16909585  0.50015213  1
  Pb  Pb48  1  0.16334321  0.83334442  0.83572040  1
  Pb  Pb49  1  0.83433830  0.50190353  0.16658943  1
  Pb  Pb50  1  0.49714401  0.49783293  0.16373987  1
  Pb  Pb51  1  0.16610869  0.16648101  0.83300153  1
  Pb  Pb52  1  0.83179107  0.16465587  0.16677619  1
  Pb  Pb53  1  0.16945905  0.16646594  0.16678211  1
  I  I54  1  0.16226338  -0.00291583  0.16549824  1
  I  I55  1  0.16701071  -0.00025501  0.49825212  1
  I  I56  1  0.16785225  -0.00019609  0.83607792  1
  I  I57  1  0.16733966  0.33615079  0.16980665  1
  I  I58  1  0.16001466  0.33686421  0.49347131  1
  I  I59  1  0.16231781  0.33359186  0.83720156  1
  I  I60  1  0.16111537  0.66662203  0.16950685  1
  I  I61  1  0.16102976  0.66274079  0.49980054  1
  I  I62  1  0.16806814  0.66654609  0.83191407  1
  I  I63  1  0.49965750  0.00355557  0.16304779  1
  I  I64  1  0.50530526  0.00473671  0.50249980  1
  I  I65  1  0.50495792  0.00366142  0.83471640  1
  I  I66  1  0.50013304  0.33001203  0.16863739  1
  I  I67  1  0.50599373  0.33000770  0.49796061  1
  I  I68  1  0.50799173  0.33229777  0.83391135  1
  I  I69  1  0.50132185  0.66650677  0.16503763  1
  I  I70  1  0.50028550  0.66641157  0.50073943  1
  I  I71  1  0.50437379  0.66382896  0.83397213  1
  I  I72  1  0.83896122  -0.00352682  0.16641539  1
  I  I73  1  0.82798050  0.00033024  0.50275724  1
  I  I74  1  0.82962063  0.00055448  0.83115330  1
  I  I75  1  0.83480927  0.33332967  0.16645990  1
  I  I76  1  0.83351521  0.33333997  0.50704691  1
  I  I77  1  0.82906749  0.33331016  0.82599099  1
  I  I78  1  0.83522198  0.67011026  0.16577217  1
  I  I79  1  0.83923927  0.66622853  0.50376612  1
  I  I80  1  0.83020946  0.66609448  0.83042129  1
  I  I81  1  0.16591024  0.16945602  0.00013187  1
  I  I82  1  0.16695266  0.16542305  0.33340870  1
  I  I83  1  0.17109693  0.16876246  0.66645090  1
  I  I84  1  0.16652052  0.50387331  0.00249315  1
  I  I85  1  0.15973659  0.50245602  0.33373255  1
  I  I86  1  0.16348241  0.49737574  0.66399179  1
  I  I87  1  0.16121124  0.82655795  0.00367142  1
  I  I88  1  0.15961147  0.83309591  0.33008067  1
  I  I89  1  0.16736526  0.83279127  0.66633020  1
  I  I90  1  0.50375960  0.16989002  -0.00142420  1
  I  I91  1  0.50457413  0.16527486  0.33425670  1
  I  I92  1  0.50695773  0.17211356  0.66727603  1
  I  I93  1  0.50642864  0.49403607  -0.00382349  1
  I  I94  1  0.50198732  0.49777172  0.33343084  1
  I  I95  1  0.50068188  0.49332859  0.67003796  1
  I  I96  1  0.50257929  0.83611185  -0.00005026  1
  I  I97  1  0.50344121  0.83543952  0.33339396  1
  I  I98  1  0.49924293  0.83405430  0.66667364  1
  I  I99  1  0.82930682  0.16682375  -0.00297114  1
  I  I100  1  0.82911882  0.16675200  0.33641026  1
  I  I101  1  0.82588852  0.16270667  0.66664859  1
  I  I102  1  0.83137510  0.49942404  -0.00308536  1
  I  I103  1  0.83619935  0.49923302  0.33631221  1
  I  I104  1  0.83566784  0.50345238  0.66653496  1
  I  I105  1  0.83717879  0.83377983  -0.00047197  1
  I  I106  1  0.83804631  0.83496616  0.33375397  1
  I  I107  1  0.83121068  0.83369541  0.66660493  1
  I  I108  1  -0.00001904  0.16742429  0.16610873  1
  I  I109  1  -0.00409047  0.16414168  0.50510413  1
  I  I110  1  -0.00463126  0.16771309  0.82843880  1
  I  I111  1  0.00245014  0.50051268  0.16554921  1
  I  I112  1  -0.00212194  0.49820781  0.50242048  1
  I  I113  1  -0.00362693  0.49966385  0.83209085  1
  I  I114  1  -0.00118130  0.83079740  0.16573625  1
  I  I115  1  -0.00446203  0.83920469  0.50310963  1
  I  I116  1  -0.00526645  0.83262183  0.83002072  1
  I  I117  1  0.33748770  0.16568143  0.16555342  1
  I  I118  1  0.33631921  0.16947719  0.50016523  1
  I  I119  1  0.33708266  0.17323995  0.83387045  1
  I  I120  1  0.32937473  0.50661828  0.17257751  1
  I  I121  1  0.33105432  0.49678807  0.49676762  1
  I  I122  1  0.33616824  0.49212679  0.83438467  1
  I  I123  1  0.33039815  0.83030346  0.16643921  1
  I  I124  1  0.33306435  0.83393537  0.49795305  1
  I  I125  1  0.33327965  0.83358135  0.83602332  1
  I  I126  1  0.66387450  0.16494093  0.16606213  1
  I  I127  1  0.66803852  0.16795789  0.50075547  1
  I  I128  1  0.66754698  0.16694869  0.83295065  1
  I  I129  1  0.66642523  0.50141339  0.16899308  1
  I  I130  1  0.67018425  0.50214850  0.50233146  1
  I  I131  1  0.66855703  0.49896916  0.82818528  1
  I  I132  1  0.67004663  0.83525855  0.16607214  1
  I  I133  1  0.67166434  0.82716076  0.49716890  1
  I  I134  1  0.67113778  0.83380771  0.83605315  1
