# generated using pymatgen
data_Cs27Sn14Pb13I81
_symmetry_space_group_name_H-M   'P 1'
_cell_length_a   18.98215182
_cell_length_b   18.97318272
_cell_length_c   18.96822586
_cell_angle_alpha   90.00204067
_cell_angle_beta   89.99738525
_cell_angle_gamma   90.00064582
_symmetry_Int_Tables_number   1
_chemical_formula_structural   Cs27Sn14Pb13I81
_chemical_formula_sum   'Cs27 Sn14 Pb13 I81'
_cell_volume   6831.44133445
_cell_formula_units_Z   1
loop_
 _symmetry_equiv_pos_site_id
 _symmetry_equiv_pos_as_xyz
  1  'x, y, z'
loop_
 _atom_site_type_symbol
 _atom_site_label
 _atom_site_symmetry_multiplicity
 _atom_site_fract_x
 _atom_site_fract_y
 _atom_site_fract_z
 _atom_site_occupancy
  Cs  Cs0  1  0.00009264  0.00454938  0.00310408  1
  Cs  Cs1  1  -0.00141316  0.00197214  0.33244660  1
  Cs  Cs2  1  0.00139123  -0.01120795  0.66472288  1
  Cs  Cs3  1  -0.00005272  0.33302708  0.00105147  1
  Cs  Cs4  1  -0.00082383  0.33096114  0.33138895  1
  Cs  Cs5  1  0.00082993  0.33403958  0.66776634  1
  Cs  Cs6  1  0.00123209  0.66362745  0.00082801  1
  Cs  Cs7  1  -0.00111706  0.66752362  0.33320298  1
  Cs  Cs8  1  -0.00039288  0.67771293  0.66675664  1
  Cs  Cs9  1  0.33655743  -0.00401867  -0.00268993  1
  Cs  Cs10  1  0.33764963  0.00321797  0.33214897  1
  Cs  Cs11  1  0.33278893  0.00067601  0.67015849  1
  Cs  Cs12  1  0.33142329  0.33440541  -0.00057394  1
  Cs  Cs13  1  0.33422321  0.33394416  0.33515527  1
  Cs  Cs14  1  0.33344599  0.33373411  0.66550947  1
  Cs  Cs15  1  0.33329766  0.66749809  0.00199325  1
  Cs  Cs16  1  0.33396498  0.66410297  0.33305439  1
  Cs  Cs17  1  0.32738346  0.66399008  0.66367673  1
  Cs  Cs18  1  0.66163460  0.00171404  -0.00878283  1
  Cs  Cs19  1  0.66484840  -0.00072587  0.33420977  1
  Cs  Cs20  1  0.66688637  -0.00003465  0.67016437  1
  Cs  Cs21  1  0.66846318  0.33399257  -0.00368432  1
  Cs  Cs22  1  0.66607450  0.33394156  0.33460284  1
  Cs  Cs23  1  0.66618777  0.33284548  0.66821081  1
  Cs  Cs24  1  0.66534432  0.66604019  0.00235686  1
  Cs  Cs25  1  0.66648930  0.66653259  0.33146682  1
  Cs  Cs26  1  0.67424107  0.66654801  0.66631183  1
  Sn  Sn27  1  0.83331761  0.16735154  0.50010649  1
  Sn  Sn28  1  0.50015324  0.16767991  0.16682409  1
  Sn  Sn29  1  0.16593097  0.83273526  0.16702463  1
  Sn  Sn30  1  0.49913568  0.50013931  0.83386304  1
  Sn  Sn31  1  0.16670032  0.50047631  0.16639479  1
  Sn  Sn32  1  0.83382923  0.49924879  0.49936850  1
  Sn  Sn33  1  0.83341741  0.50036123  0.16756341  1
  Sn  Sn34  1  0.50025842  0.16581635  0.49956974  1
  Sn  Sn35  1  0.16650822  0.16738882  0.83231186  1
  Sn  Sn36  1  0.49975443  0.83374815  0.50014668  1
  Sn  Sn37  1  0.83380457  0.83315722  0.16658720  1
  Sn  Sn38  1  0.16656764  0.16697903  0.50095422  1
  Sn  Sn39  1  0.16738935  0.49926341  0.83379886  1
  Sn  Sn40  1  0.49995943  0.49876434  0.16602337  1
  Pb  Pb41  1  0.50180982  0.49966000  0.50022816  1
  Pb  Pb42  1  0.83324994  0.83328965  0.83740756  1
  Pb  Pb43  1  0.83660293  0.16663594  0.82984489  1
  Pb  Pb44  1  0.16877367  0.16690381  0.16667155  1
  Pb  Pb45  1  0.83148093  0.83358825  0.49788921  1
  Pb  Pb46  1  0.50016515  0.83305625  0.16768769  1
  Pb  Pb47  1  0.16670357  0.83294981  0.83616877  1
  Pb  Pb48  1  0.16396816  0.49840180  0.49997936  1
  Pb  Pb49  1  0.49975337  0.82949239  0.82993167  1
  Pb  Pb50  1  0.16899930  0.83621272  0.49701050  1
  Pb  Pb51  1  0.83042149  0.16669287  0.16809105  1
  Pb  Pb52  1  0.83417625  0.50006615  0.83360109  1
  Pb  Pb53  1  0.49804194  0.16873422  0.83286778  1
  I  I54  1  0.16327031  -0.00191393  0.16812121  1
  I  I55  1  0.16168501  0.00438618  0.50431917  1
  I  I56  1  0.16651647  0.00275604  0.82972726  1
  I  I57  1  0.16450145  0.33626399  0.16586802  1
  I  I58  1  0.17227936  0.33024253  0.49813893  1
  I  I59  1  0.17065790  0.33444073  0.83569836  1
  I  I60  1  0.16829249  0.66466742  0.16152647  1
  I  I61  1  0.16713197  0.66669261  0.50261988  1
  I  I62  1  0.17047342  0.66313580  0.83601912  1
  I  I63  1  0.49904808  0.00228904  0.17079308  1
  I  I64  1  0.50137269  0.00223054  0.49225289  1
  I  I65  1  0.49859314  0.00012127  0.83682963  1
  I  I66  1  0.49907174  0.33453638  0.17003222  1
  I  I67  1  0.49850727  0.33055341  0.49825000  1
  I  I68  1  0.49793665  0.33663886  0.83342374  1
  I  I69  1  0.50004861  0.66343113  0.16525024  1
  I  I70  1  0.50260076  0.66816302  0.49856996  1
  I  I71  1  0.49404989  0.66171332  0.84037316  1
  I  I72  1  0.83834670  -0.00225404  0.16952142  1
  I  I73  1  0.83486914  0.00294302  0.49806923  1
  I  I74  1  0.83396522  0.00021148  0.83360972  1
  I  I75  1  0.83606688  0.33645649  0.16902489  1
  I  I76  1  0.83096801  0.33319989  0.49319300  1
  I  I77  1  0.83158389  0.33341666  0.83756807  1
  I  I78  1  0.83195047  0.66463522  0.17282696  1
  I  I79  1  0.83023341  0.66419802  0.49807024  1
  I  I80  1  0.83495575  0.66621942  0.82569569  1
  I  I81  1  0.16925519  0.16794229  -0.00191707  1
  I  I82  1  0.16604187  0.16671727  0.33581718  1
  I  I83  1  0.16934198  0.17389575  0.66609871  1
  I  I84  1  0.16566088  0.49754992  0.00111038  1
  I  I85  1  0.16977572  0.50198309  0.33016004  1
  I  I86  1  0.17176757  0.49600777  0.66917512  1
  I  I87  1  0.16437404  0.83405414  0.00413217  1
  I  I88  1  0.16335559  0.82709197  0.32942144  1
  I  I89  1  0.16777718  0.83079388  0.66640291  1
  I  I90  1  0.49823737  0.16845175  0.00242860  1
  I  I91  1  0.49696503  0.16895308  0.33411136  1
  I  I92  1  0.50165430  0.16467138  0.66344717  1
  I  I93  1  0.50154009  0.49467009  0.00203515  1
  I  I94  1  0.49759870  0.49907221  0.33051432  1
  I  I95  1  0.49608377  0.49975311  0.66894085  1
  I  I96  1  0.50040121  0.83669858  0.00006777  1
  I  I97  1  0.50009393  0.83402404  0.33549087  1
  I  I98  1  0.50077226  0.84108846  0.66229646  1
  I  I99  1  0.83324563  0.16641537  0.00004561  1
  I  I100  1  0.83822777  0.16852044  0.33636451  1
  I  I101  1  0.82592603  0.17431751  0.66155057  1
  I  I102  1  0.83281198  0.50461221  0.00358723  1
  I  I103  1  0.83257119  0.49970119  0.33195129  1
  I  I104  1  0.83066904  0.49434227  0.66387489  1
  I  I105  1  0.83610101  0.82511679  0.00548575  1
  I  I106  1  0.83668006  0.83052220  0.33016128  1
  I  I107  1  0.83209887  0.83213739  0.66622098  1
  I  I108  1  0.00002934  0.16800407  0.16760886  1
  I  I109  1  -0.00002164  0.17307960  0.50315796  1
  I  I110  1  0.00457603  0.17480337  0.83218216  1
  I  I111  1  0.00027763  0.50449204  0.16657450  1
  I  I112  1  -0.00368702  0.49415376  0.49509414  1
  I  I113  1  0.00343408  0.49499465  0.83761082  1
  I  I114  1  0.00007733  0.82531591  0.16765185  1
  I  I115  1  0.00006324  0.83389330  0.50087627  1
  I  I116  1  0.00025360  0.83109052  0.82838452  1
  I  I117  1  0.33642195  0.17033329  0.17306309  1
  I  I118  1  0.33382655  0.16264172  0.49910613  1
  I  I119  1  0.33033851  0.16968604  0.82822613  1
  I  I120  1  0.33331390  0.50037094  0.16250033  1
  I  I121  1  0.33324596  0.49949428  0.49770456  1
  I  I122  1  0.33267562  0.49612953  0.84111387  1
  I  I123  1  0.33127240  0.83025024  0.16818996  1
  I  I124  1  0.33653763  0.83722596  0.49656519  1
  I  I125  1  0.33327693  0.83567959  0.83662605  1
  I  I126  1  0.66263519  0.17027662  0.17307075  1
  I  I127  1  0.66606995  0.16712697  0.49301066  1
  I  I128  1  0.66647868  0.16788759  0.83365157  1
  I  I129  1  0.66650626  0.50061047  0.16740853  1
  I  I130  1  0.66952809  0.49548104  0.49553095  1
  I  I131  1  0.66427372  0.49993442  0.83641215  1
  I  I132  1  0.66884301  0.82883670  0.17034975  1
  I  I133  1  0.66395756  0.83792772  0.49614936  1
  I  I134  1  0.66626721  0.83239805  0.83533884  1
