# generated using pymatgen
data_Cs27Sn14Pb13I81
_symmetry_space_group_name_H-M   'P 1'
_cell_length_a   18.98039981
_cell_length_b   18.96881698
_cell_length_c   18.97629457
_cell_angle_alpha   89.99826792
_cell_angle_beta   89.99950049
_cell_angle_gamma   90.00054118
_symmetry_Int_Tables_number   1
_chemical_formula_structural   Cs27Sn14Pb13I81
_chemical_formula_sum   'Cs27 Sn14 Pb13 I81'
_cell_volume   6832.14407019
_cell_formula_units_Z   1
loop_
 _symmetry_equiv_pos_site_id
 _symmetry_equiv_pos_as_xyz
  1  'x, y, z'
loop_
 _atom_site_type_symbol
 _atom_site_label
 _atom_site_symmetry_multiplicity
 _atom_site_fract_x
 _atom_site_fract_y
 _atom_site_fract_z
 _atom_site_occupancy
  Cs  Cs0  1  -0.00228016  0.00152519  0.00222098  1
  Cs  Cs1  1  0.00105767  -0.00415956  0.32886778  1
  Cs  Cs2  1  0.00213086  0.00135901  0.66711483  1
  Cs  Cs3  1  0.00189798  0.33302375  0.00191197  1
  Cs  Cs4  1  0.00034502  0.33269609  0.33279093  1
  Cs  Cs5  1  0.00097152  0.33518027  0.66545503  1
  Cs  Cs6  1  -0.00237259  0.66608827  -0.00363476  1
  Cs  Cs7  1  0.00084246  0.67136516  0.33733230  1
  Cs  Cs8  1  -0.01105415  0.66379930  0.66606419  1
  Cs  Cs9  1  0.33214533  0.00200254  -0.00375533  1
  Cs  Cs10  1  0.33255334  -0.00642716  0.33777805  1
  Cs  Cs11  1  0.33440142  0.00140246  0.66723169  1
  Cs  Cs12  1  0.33249342  0.33422054  -0.00017103  1
  Cs  Cs13  1  0.33235799  0.33378943  0.33396643  1
  Cs  Cs14  1  0.33270763  0.33267259  0.66621068  1
  Cs  Cs15  1  0.33584944  0.66581557  0.00095862  1
  Cs  Cs16  1  0.33374344  0.67115901  0.33009840  1
  Cs  Cs17  1  0.33182667  0.66530875  0.66827236  1
  Cs  Cs18  1  0.67192233  0.00191017  -0.00072380  1
  Cs  Cs19  1  0.66628608  -0.00646806  0.33376113  1
  Cs  Cs20  1  0.66260791  0.00075243  0.66665042  1
  Cs  Cs21  1  0.66387629  0.33092419  0.00373708  1
  Cs  Cs22  1  0.66734950  0.33406789  0.33228817  1
  Cs  Cs23  1  0.66610562  0.33273390  0.66441545  1
  Cs  Cs24  1  0.66349861  0.67014659  0.00152706  1
  Cs  Cs25  1  0.66517991  0.67091196  0.33313008  1
  Cs  Cs26  1  0.67749958  0.66524280  0.66623185  1
  Sn  Sn27  1  0.16711759  0.83371228  0.83305372  1
  Sn  Sn28  1  0.16581996  0.16730512  0.49975380  1
  Sn  Sn29  1  0.83423266  0.16687570  0.50029672  1
  Sn  Sn30  1  0.49911727  0.83343498  0.83296972  1
  Sn  Sn31  1  0.49909410  0.49974171  0.50068839  1
  Sn  Sn32  1  0.16801211  0.16729090  0.16698159  1
  Sn  Sn33  1  0.49879129  0.16669213  0.16660601  1
  Sn  Sn34  1  0.16766392  0.49945536  0.49921492  1
  Sn  Sn35  1  0.16562348  0.49947758  0.16761516  1
  Sn  Sn36  1  0.83445009  0.49989156  0.16669834  1
  Sn  Sn37  1  0.83359663  0.16738710  0.83224312  1
  Sn  Sn38  1  0.49999648  0.16694035  0.83407968  1
  Sn  Sn39  1  0.49999623  0.49985744  0.83220823  1
  Sn  Sn40  1  0.16648126  0.16615008  0.83333503  1
  Pb  Pb41  1  0.49961223  0.83718053  0.16395244  1
  Pb  Pb42  1  0.83365578  0.49798980  0.49790498  1
  Pb  Pb43  1  0.83017891  0.49707915  0.83570966  1
  Pb  Pb44  1  0.49923409  0.49848212  0.16695582  1
  Pb  Pb45  1  0.83362930  0.16753458  0.16712819  1
  Pb  Pb46  1  0.83340685  0.83615567  0.83328192  1
  Pb  Pb47  1  0.49959571  0.16792158  0.49972234  1
  Pb  Pb48  1  0.83355175  0.83715353  0.50015973  1
  Pb  Pb49  1  0.83357543  0.82965591  0.16645693  1
  Pb  Pb50  1  0.16671073  0.83317423  0.16387818  1
  Pb  Pb51  1  0.16795542  0.49996567  0.83325228  1
  Pb  Pb52  1  0.16666313  0.83290240  0.50304203  1
  Pb  Pb53  1  0.49977604  0.82955371  0.50322172  1
  I  I54  1  0.17047415  0.00376771  0.16891813  1
  I  I55  1  0.16267762  0.00362032  0.49768212  1
  I  I56  1  0.17131894  0.00268456  0.83297088  1
  I  I57  1  0.16686073  0.33211134  0.16419205  1
  I  I58  1  0.16688442  0.33224941  0.50209870  1
  I  I59  1  0.16778325  0.33002794  0.83364374  1
  I  I60  1  0.16276270  0.66318235  0.17019979  1
  I  I61  1  0.17211298  0.66305759  0.49556866  1
  I  I62  1  0.17340854  0.66865476  0.83471190  1
  I  I63  1  0.49499083  0.00544071  0.16242885  1
  I  I64  1  0.50081334  0.00004631  0.49965150  1
  I  I65  1  0.49937469  0.00164578  0.83849958  1
  I  I66  1  0.49858165  0.33052444  0.15918675  1
  I  I67  1  0.49838141  0.33569942  0.50644772  1
  I  I68  1  0.49931072  0.33209147  0.83380476  1
  I  I69  1  0.50112319  0.66667340  0.16540537  1
  I  I70  1  0.49353846  0.66138619  0.50251018  1
  I  I71  1  0.49336631  0.66635127  0.82961183  1
  I  I72  1  0.83254881  0.00029939  0.16632405  1
  I  I73  1  0.83859576  0.00548772  0.50370981  1
  I  I74  1  0.82898100  0.00458202  0.83125822  1
  I  I75  1  0.83449403  0.33515124  0.16584757  1
  I  I76  1  0.83489336  0.33016469  0.50474218  1
  I  I77  1  0.83540693  0.32906722  0.82991142  1
  I  I78  1  0.83873653  0.66153330  0.16629008  1
  I  I79  1  0.83326401  0.66627441  0.49872281  1
  I  I80  1  0.83363777  0.66631941  0.83512039  1
  I  I81  1  0.16746747  0.16712744  -0.00046983  1
  I  I82  1  0.16629590  0.17295712  0.33329475  1
  I  I83  1  0.16656581  0.16681248  0.66713999  1
  I  I84  1  0.16504781  0.49599440  0.00235368  1
  I  I85  1  0.16878445  0.49021531  0.33355987  1
  I  I86  1  0.17035551  0.49586137  0.66421446  1
  I  I87  1  0.17133640  0.83804025  -0.00398048  1
  I  I88  1  0.16564389  0.83611125  0.33343263  1
  I  I89  1  0.17227039  0.83943940  0.67082083  1
  I  I90  1  0.49773764  0.16953193  -0.00184306  1
  I  I91  1  0.49807762  0.17213567  0.33094208  1
  I  I92  1  0.49823355  0.16522082  0.66986507  1
  I  I93  1  0.49979551  0.50039653  -0.00268170  1
  I  I94  1  0.49956443  0.49471058  0.33559492  1
  I  I95  1  0.49363663  0.49631425  0.66736297  1
  I  I96  1  0.49556938  0.82696390  -0.00426541  1
  I  I97  1  0.50166867  0.83357549  0.33342968  1
  I  I98  1  0.49518375  0.84206521  0.67119843  1
  I  I99  1  0.83422232  0.16778695  -0.00250984  1
  I  I100  1  0.83596369  0.17029957  0.33577777  1
  I  I101  1  0.83574684  0.16771299  0.66748680  1
  I  I102  1  0.83972409  0.49598724  0.00302842  1
  I  I103  1  0.83196883  0.49408274  0.33049741  1
  I  I104  1  0.83498637  0.50116941  0.66670882  1
  I  I105  1  0.83311645  0.83660120  -0.00044483  1
  I  I106  1  0.83282663  0.83682261  0.33331321  1
  I  I107  1  0.83370967  0.82827758  0.66706525  1
  I  I108  1  0.00323949  0.16904915  0.16344078  1
  I  I109  1  0.00170575  0.17288956  0.50435026  1
  I  I110  1  0.00130501  0.16180890  0.83361629  1
  I  I111  1  0.00203239  0.49189077  0.17071435  1
  I  I112  1  0.00316602  0.49713694  0.49833521  1
  I  I113  1  -0.00012858  0.50085162  0.83140013  1
  I  I114  1  0.00035920  0.83948866  0.16302300  1
  I  I115  1  0.00032660  0.82777835  0.50393526  1
  I  I116  1  0.00302919  0.83840783  0.83394141  1
  I  I117  1  0.33209322  0.17348560  0.16173105  1
  I  I118  1  0.33019386  0.16929687  0.50266953  1
  I  I119  1  0.33332922  0.16617780  0.83413587  1
  I  I120  1  0.33041448  0.49652277  0.16694698  1
  I  I121  1  0.33224485  0.49234395  0.49920172  1
  I  I122  1  0.33611262  0.49487648  0.83455660  1
  I  I123  1  0.33324799  0.82785841  0.16768527  1
  I  I124  1  0.33326343  0.83889336  0.49933811  1
  I  I125  1  0.33372592  0.83963285  0.83344496  1
  I  I126  1  0.66449604  0.17000500  0.16167962  1
  I  I127  1  0.66840623  0.16936932  0.50388032  1
  I  I128  1  0.66548722  0.16738172  0.83412209  1
  I  I129  1  0.66788496  0.49600593  0.16523395  1
  I  I130  1  0.66437462  0.49738980  0.50346508  1
  I  I131  1  0.66205627  0.49993587  0.82875655  1
  I  I132  1  0.66638631  0.83364747  0.16383558  1
  I  I133  1  0.66649788  0.83355089  0.50220296  1
  I  I134  1  0.66344649  0.83401181  0.83386494  1
