# generated using pymatgen
data_Cs27Sn14Pb13I81
_symmetry_space_group_name_H-M   'P 1'
_cell_length_a   18.96215067
_cell_length_b   18.95789809
_cell_length_c   18.96319218
_cell_angle_alpha   89.99978596
_cell_angle_beta   89.99928937
_cell_angle_gamma   89.99979805
_symmetry_Int_Tables_number   1
_chemical_formula_structural   Cs27Sn14Pb13I81
_chemical_formula_sum   'Cs27 Sn14 Pb13 I81'
_cell_volume   6816.93611187
_cell_formula_units_Z   1
loop_
 _symmetry_equiv_pos_site_id
 _symmetry_equiv_pos_as_xyz
  1  'x, y, z'
loop_
 _atom_site_type_symbol
 _atom_site_label
 _atom_site_symmetry_multiplicity
 _atom_site_fract_x
 _atom_site_fract_y
 _atom_site_fract_z
 _atom_site_occupancy
  Cs  Cs0  1  0.00005136  -0.00218213  -0.00046469  1
  Cs  Cs1  1  -0.00145624  0.00121985  0.33387258  1
  Cs  Cs2  1  -0.00033904  -0.00164938  0.66666609  1
  Cs  Cs3  1  -0.00042164  0.33366461  0.00135192  1
  Cs  Cs4  1  0.00100024  0.33389196  0.33290260  1
  Cs  Cs5  1  0.00192217  0.33461560  0.66528486  1
  Cs  Cs6  1  0.00094974  0.66698371  -0.00175574  1
  Cs  Cs7  1  -0.00115028  0.66486699  0.33352656  1
  Cs  Cs8  1  -0.00175272  0.66674844  0.66888196  1
  Cs  Cs9  1  0.33129028  -0.00106107  0.00028035  1
  Cs  Cs10  1  0.33402487  -0.00174024  0.33385099  1
  Cs  Cs11  1  0.33477349  0.00225676  0.66580519  1
  Cs  Cs12  1  0.33364810  0.33354904  -0.00215531  1
  Cs  Cs13  1  0.32825273  0.33248573  0.33357943  1
  Cs  Cs14  1  0.33059146  0.33282512  0.66938342  1
  Cs  Cs15  1  0.33168359  0.66707778  0.00518976  1
  Cs  Cs16  1  0.34442550  0.67054793  0.33183652  1
  Cs  Cs17  1  0.33881305  0.66686165  0.66275684  1
  Cs  Cs18  1  0.67009124  0.00388433  -0.00308293  1
  Cs  Cs19  1  0.66783055  0.00099270  0.33398259  1
  Cs  Cs20  1  0.66645250  -0.00016523  0.66699203  1
  Cs  Cs21  1  0.66561444  0.33270836  -0.00083767  1
  Cs  Cs22  1  0.66965002  0.33199773  0.33150014  1
  Cs  Cs23  1  0.66572078  0.33382232  0.66967964  1
  Cs  Cs24  1  0.66690219  0.66424145  0.00054709  1
  Cs  Cs25  1  0.66090372  0.66671389  0.33553064  1
  Cs  Cs26  1  0.66593024  0.66685870  0.66317786  1
  Sn  Sn27  1  0.83272301  0.16621418  0.50116668  1
  Sn  Sn28  1  0.16548863  0.16698068  0.83416146  1
  Sn  Sn29  1  0.49993098  0.83323794  0.83399323  1
  Sn  Sn30  1  0.83446501  0.83401013  0.49899216  1
  Sn  Sn31  1  0.16744622  0.16697806  0.16584744  1
  Sn  Sn32  1  0.16586299  0.83297223  0.49979149  1
  Sn  Sn33  1  0.83359057  0.83213361  0.16743168  1
  Sn  Sn34  1  0.83406326  0.50118789  0.16599486  1
  Sn  Sn35  1  0.16587290  0.49949569  0.16611753  1
  Sn  Sn36  1  0.83447399  0.16748373  0.83213423  1
  Sn  Sn37  1  0.50083210  0.16684551  0.49913374  1
  Sn  Sn38  1  0.16577014  0.49944363  0.83405269  1
  Sn  Sn39  1  0.83417535  0.49899212  0.83409578  1
  Sn  Sn40  1  0.49878728  0.16672628  0.16743335  1
  Pb  Pb41  1  0.49968875  0.50255219  0.83356621  1
  Pb  Pb42  1  0.83397749  0.16701798  0.16655309  1
  Pb  Pb43  1  0.83209538  0.83295682  0.83305921  1
  Pb  Pb44  1  0.83332228  0.49982066  0.49999141  1
  Pb  Pb45  1  0.50309885  0.83609634  0.16442333  1
  Pb  Pb46  1  0.49985590  0.49739296  0.16662372  1
  Pb  Pb47  1  0.49975769  0.16561227  0.83339807  1
  Pb  Pb48  1  0.16482162  0.83306074  0.16869347  1
  Pb  Pb49  1  0.50078859  0.83545176  0.50139607  1
  Pb  Pb50  1  0.16671122  0.50306815  0.49960101  1
  Pb  Pb51  1  0.49991588  0.49608639  0.49997798  1
  Pb  Pb52  1  0.16616670  0.16535584  0.50003396  1
  Pb  Pb53  1  0.16861374  0.83287509  0.83145352  1
  I  I54  1  0.16842902  0.00286762  0.16358097  1
  I  I55  1  0.16482336  -0.00235057  0.50048446  1
  I  I56  1  0.16360430  0.00303020  0.83621644  1
  I  I57  1  0.16443490  0.33296420  0.16400364  1
  I  I58  1  0.16728566  0.33330371  0.49999010  1
  I  I59  1  0.16366611  0.33263499  0.83602071  1
  I  I60  1  0.16289763  0.66371324  0.16206128  1
  I  I61  1  0.15914937  0.67074772  0.50179864  1
  I  I62  1  0.16245552  0.66341078  0.83679322  1
  I  I63  1  0.49555056  0.00396765  0.16995185  1
  I  I64  1  0.50171564  0.00327003  0.49750697  1
  I  I65  1  0.50130191  -0.00181516  0.83268183  1
  I  I66  1  0.50189744  0.32925934  0.16895528  1
  I  I67  1  0.50618799  0.32795088  0.49791617  1
  I  I68  1  0.50071064  0.33328458  0.83261339  1
  I  I69  1  0.49779468  0.66688537  0.16558734  1
  I  I70  1  0.49989396  0.66708294  0.50196923  1
  I  I71  1  0.50127038  0.66996707  0.83144751  1
  I  I72  1  0.83278797  -0.00151119  0.16750561  1
  I  I73  1  0.83324727  0.00047238  0.49973078  1
  I  I74  1  0.83520983  0.00268379  0.83317641  1
  I  I75  1  0.83387650  0.33564320  0.16586278  1
  I  I76  1  0.82902413  0.33007660  0.50065614  1
  I  I77  1  0.83558253  0.33273354  0.83362157  1
  I  I78  1  0.83902241  0.66572290  0.16540262  1
  I  I79  1  0.83753351  0.66954921  0.49996246  1
  I  I80  1  0.83647772  0.66386886  0.83456963  1
  I  I81  1  0.16680120  0.16918793  -0.00015405  1
  I  I82  1  0.16709490  0.16955358  0.33070457  1
  I  I83  1  0.16635860  0.16946798  0.66937169  1
  I  I84  1  0.16214516  0.49604334  -0.00001418  1
  I  I85  1  0.16104178  0.49428146  0.32968154  1
  I  I86  1  0.16220592  0.49545566  0.67004290  1
  I  I87  1  0.16645668  0.83455191  0.00011644  1
  I  I88  1  0.16459558  0.83545121  0.33641662  1
  I  I89  1  0.16052541  0.83518082  0.66377955  1
  I  I90  1  0.50001160  0.16484929  0.00222904  1
  I  I91  1  0.50107151  0.16538679  0.33337631  1
  I  I92  1  0.50151892  0.16337577  0.66462017  1
  I  I93  1  0.50189627  0.49785844  0.00006866  1
  I  I94  1  0.50019397  0.50375303  0.33301788  1
  I  I95  1  0.50020945  0.49947578  0.66703226  1
  I  I96  1  0.50060186  0.83626562  -0.00270861  1
  I  I97  1  0.49864351  0.83315281  0.33320237  1
  I  I98  1  0.50185857  0.83631291  0.66885328  1
  I  I99  1  0.83305330  0.16640706  -0.00237241  1
  I  I100  1  0.83212397  0.16512412  0.33533432  1
  I  I101  1  0.83263730  0.16550400  0.66697810  1
  I  I102  1  0.83679073  0.49987939  -0.00009618  1
  I  I103  1  0.83785629  0.49957988  0.33021467  1
  I  I104  1  0.83756945  0.49907902  0.66984670  1
  I  I105  1  0.83118066  0.83379958  0.00208489  1
  I  I106  1  0.83691639  0.83538029  0.33399371  1
  I  I107  1  0.83468205  0.83531410  0.66413528  1
  I  I108  1  0.00253729  0.16744317  0.16617364  1
  I  I109  1  -0.00285771  0.16367880  0.50090931  1
  I  I110  1  -0.00025624  0.16892829  0.83329662  1
  I  I111  1  -0.00008788  0.49726685  0.16282350  1
  I  I112  1  -0.00004696  0.49564461  0.49959725  1
  I  I113  1  -0.00034580  0.49639070  0.83734577  1
  I  I114  1  -0.00335740  0.83544171  0.16709692  1
  I  I115  1  -0.00177919  0.84042447  0.49795845  1
  I  I116  1  -0.00005309  0.83433829  0.83364829  1
  I  I117  1  0.33199228  0.17126637  0.16648726  1
  I  I118  1  0.33508870  0.16388096  0.49939102  1
  I  I119  1  0.33046291  0.16929131  0.83350971  1
  I  I120  1  0.32984359  0.49746043  0.16173471  1
  I  I121  1  0.33297470  0.50182904  0.50106752  1
  I  I122  1  0.32962515  0.49548895  0.83711349  1
  I  I123  1  0.33336664  0.83140759  0.16811028  1
  I  I124  1  0.33164736  0.83452558  0.50268936  1
  I  I125  1  0.33584875  0.83578119  0.83031916  1
  I  I126  1  0.66540643  0.16552816  0.16741703  1
  I  I127  1  0.66806680  0.16053709  0.49983071  1
  I  I128  1  0.66943272  0.16835755  0.83307053  1
  I  I129  1  0.67002469  0.50189680  0.16286265  1
  I  I130  1  0.66707457  0.50502555  0.50069454  1
  I  I131  1  0.67014823  0.49603727  0.83707287  1
  I  I132  1  0.67102897  0.82926793  0.17275692  1
  I  I133  1  0.66987638  0.83587685  0.49802275  1
  I  I134  1  0.66476726  0.83583335  0.83177707  1
