# generated using pymatgen
data_Cs27Sn14Pb13I81
_symmetry_space_group_name_H-M   'P 1'
_cell_length_a   18.97377947
_cell_length_b   18.97855622
_cell_length_c   18.97353034
_cell_angle_alpha   89.99678077
_cell_angle_beta   89.99732756
_cell_angle_gamma   89.99938875
_symmetry_Int_Tables_number   1
_chemical_formula_structural   Cs27Sn14Pb13I81
_chemical_formula_sum   'Cs27 Sn14 Pb13 I81'
_cell_volume   6832.27225722
_cell_formula_units_Z   1
loop_
 _symmetry_equiv_pos_site_id
 _symmetry_equiv_pos_as_xyz
  1  'x, y, z'
loop_
 _atom_site_type_symbol
 _atom_site_label
 _atom_site_symmetry_multiplicity
 _atom_site_fract_x
 _atom_site_fract_y
 _atom_site_fract_z
 _atom_site_occupancy
  Cs  Cs0  1  -0.00171907  0.00071099  0.00104515  1
  Cs  Cs1  1  0.00157485  0.00111988  0.33140911  1
  Cs  Cs2  1  -0.00389876  0.00271022  0.66640046  1
  Cs  Cs3  1  0.00053027  0.33320917  -0.00294684  1
  Cs  Cs4  1  0.00014510  0.33174337  0.33106978  1
  Cs  Cs5  1  -0.00081925  0.33239686  0.66948225  1
  Cs  Cs6  1  0.00895239  0.66645366  -0.00136146  1
  Cs  Cs7  1  -0.00267130  0.66569069  0.33840829  1
  Cs  Cs8  1  0.00109618  0.66572592  0.66375042  1
  Cs  Cs9  1  0.33428171  -0.00575416  -0.00026150  1
  Cs  Cs10  1  0.33096769  0.00126925  0.33425188  1
  Cs  Cs11  1  0.33908177  0.00072233  0.66587878  1
  Cs  Cs12  1  0.32959481  0.33899581  0.00262439  1
  Cs  Cs13  1  0.33135642  0.33117114  0.33536377  1
  Cs  Cs14  1  0.33546576  0.33304458  0.66346735  1
  Cs  Cs15  1  0.32380143  0.66679394  -0.00151448  1
  Cs  Cs16  1  0.33653760  0.66781239  0.33543924  1
  Cs  Cs17  1  0.33256610  0.66630802  0.66655462  1
  Cs  Cs18  1  0.66708025  0.00020063  0.00008711  1
  Cs  Cs19  1  0.66639204  -0.00208368  0.33037927  1
  Cs  Cs20  1  0.66582944  0.00124721  0.66924542  1
  Cs  Cs21  1  0.66707408  0.33242608  0.00119610  1
  Cs  Cs22  1  0.66718481  0.33594328  0.32896665  1
  Cs  Cs23  1  0.66538364  0.33248697  0.66825680  1
  Cs  Cs24  1  0.66550776  0.66685140  0.00196783  1
  Cs  Cs25  1  0.66605450  0.66608730  0.33406601  1
  Cs  Cs26  1  0.66667855  0.66614618  0.66462436  1
  Sn  Sn27  1  0.16726634  0.50035149  0.50014361  1
  Sn  Sn28  1  0.50059272  0.83398417  0.16723590  1
  Sn  Sn29  1  0.50066304  0.50023035  0.83299491  1
  Sn  Sn30  1  0.16739424  0.83323549  0.50015338  1
  Sn  Sn31  1  0.50036369  0.16592864  0.16647136  1
  Sn  Sn32  1  0.83246950  0.16592443  0.16666105  1
  Sn  Sn33  1  0.49949607  0.83303410  0.49958187  1
  Sn  Sn34  1  0.83373000  0.16656453  0.83345747  1
  Sn  Sn35  1  0.83282498  0.16682744  0.49967172  1
  Sn  Sn36  1  0.83244463  0.50048176  0.83351494  1
  Sn  Sn37  1  0.16694007  0.16615012  0.83325174  1
  Sn  Sn38  1  0.49956716  0.50056730  0.50078314  1
  Sn  Sn39  1  0.83316501  0.83294086  0.83420881  1
  Sn  Sn40  1  0.83277507  0.83360678  0.16570682  1
  Pb  Pb41  1  0.50187003  0.83106317  0.83361455  1
  Pb  Pb42  1  0.83273179  0.83508526  0.49971107  1
  Pb  Pb43  1  0.16464122  0.16653389  0.50185855  1
  Pb  Pb44  1  0.16661429  0.50010968  0.17037289  1
  Pb  Pb45  1  0.50230569  0.16666481  0.49783785  1
  Pb  Pb46  1  0.49993536  0.50072868  0.16676628  1
  Pb  Pb47  1  0.16640888  0.83333467  0.16922444  1
  Pb  Pb48  1  0.50012870  0.16881726  0.83602214  1
  Pb  Pb49  1  0.16680391  0.49825466  0.83117580  1
  Pb  Pb50  1  0.83282591  0.49753037  0.50197039  1
  Pb  Pb51  1  0.83357153  0.50056549  0.16366640  1
  Pb  Pb52  1  0.16393860  0.83573902  0.83046891  1
  Pb  Pb53  1  0.16660263  0.16643748  0.16406631  1
  I  I54  1  0.16674180  -0.00003676  0.17007784  1
  I  I55  1  0.16994320  -0.00252290  0.50079255  1
  I  I56  1  0.15999468  0.00328943  0.83141569  1
  I  I57  1  0.16705968  0.33296573  0.16873763  1
  I  I58  1  0.17069505  0.33570507  0.50214520  1
  I  I59  1  0.15930415  0.33068608  0.83141184  1
  I  I60  1  0.16645185  0.66697436  0.16135631  1
  I  I61  1  0.16930456  0.66668876  0.50102734  1
  I  I62  1  0.16515658  0.66677003  0.83445490  1
  I  I63  1  0.50510642  -0.00083457  0.17193294  1
  I  I64  1  0.49672609  -0.00277751  0.49789993  1
  I  I65  1  0.50040911  -0.00007484  0.83017808  1
  I  I66  1  0.50569623  0.33088532  0.16589785  1
  I  I67  1  0.49694864  0.33597252  0.50287597  1
  I  I68  1  0.50592177  0.33653128  0.82769064  1
  I  I69  1  0.50615988  0.67005880  0.16925648  1
  I  I70  1  0.49726884  0.66700004  0.49789942  1
  I  I71  1  0.50625617  0.66325098  0.83289570  1
  I  I72  1  0.82918053  0.00053583  0.16219079  1
  I  I73  1  0.83388567  0.00287578  0.50506731  1
  I  I74  1  0.83805979  0.00070754  0.83358581  1
  I  I75  1  0.82895451  0.32999097  0.16685128  1
  I  I76  1  0.83381091  0.32969332  0.49991465  1
  I  I77  1  0.83380086  0.33245896  0.83222968  1
  I  I78  1  0.82798287  0.67034411  0.16412087  1
  I  I79  1  0.83444851  0.66662539  0.50035599  1
  I  I80  1  0.82749873  0.66682400  0.83663487  1
  I  I81  1  0.15938934  0.16816225  -0.00356482  1
  I  I82  1  0.16438353  0.16789482  0.33347020  1
  I  I83  1  0.15843927  0.16711175  0.66948418  1
  I  I84  1  0.16733377  0.49829850  -0.00056464  1
  I  I85  1  0.17296087  0.50234852  0.33854919  1
  I  I86  1  0.16761205  0.50346837  0.66353847  1
  I  I87  1  0.16910447  0.83443077  -0.00027833  1
  I  I88  1  0.16509017  0.83015418  0.33713893  1
  I  I89  1  0.17136613  0.82939189  0.66284914  1
  I  I90  1  0.50639151  0.16168098  0.00362108  1
  I  I91  1  0.50623727  0.16768224  0.33006912  1
  I  I92  1  0.50154997  0.16498602  0.66677052  1
  I  I93  1  0.50656895  0.49773473  -0.00262616  1
  I  I94  1  0.49545307  0.50081502  0.33643252  1
  I  I95  1  0.50069707  0.50447283  0.66578167  1
  I  I96  1  0.50412460  0.83706153  0.00277576  1
  I  I97  1  0.50285811  0.83104959  0.33360589  1
  I  I98  1  0.49798107  0.83078244  0.66399105  1
  I  I99  1  0.83328350  0.16629703  -0.00032449  1
  I  I100  1  0.82942068  0.16180920  0.33212555  1
  I  I101  1  0.83825016  0.16643493  0.66805853  1
  I  I102  1  0.82649645  0.49452367  -0.00453088  1
  I  I103  1  0.83390477  0.49885524  0.33349252  1
  I  I104  1  0.83247098  0.49989116  0.67011661  1
  I  I105  1  0.82710161  0.83874731  0.00026379  1
  I  I106  1  0.83295429  0.83918061  0.33077932  1
  I  I107  1  0.83378674  0.83526644  0.66903862  1
  I  I108  1  -0.00371298  0.16229255  0.16847111  1
  I  I109  1  -0.00349322  0.16615245  0.49664710  1
  I  I110  1  -0.00290474  0.16923382  0.83442336  1
  I  I111  1  -0.00029315  0.49900684  0.16657819  1
  I  I112  1  0.00206348  0.50399449  0.50145898  1
  I  I113  1  -0.00285555  0.50002903  0.83240961  1
  I  I114  1  -0.00347467  0.83885908  0.16374716  1
  I  I115  1  0.00168107  0.82981315  0.50107744  1
  I  I116  1  -0.00441585  0.82921599  0.83788574  1
  I  I117  1  0.33637463  0.16308356  0.16612945  1
  I  I118  1  0.33359971  0.16702717  0.50038668  1
  I  I119  1  0.33142169  0.16965030  0.83321015  1
  I  I120  1  0.33372675  0.49874787  0.15940623  1
  I  I121  1  0.33451503  0.50319756  0.50626124  1
  I  I122  1  0.33592726  0.49743816  0.83177699  1
  I  I123  1  0.33665741  0.83772124  0.16925358  1
  I  I124  1  0.33461850  0.83010318  0.49483166  1
  I  I125  1  0.33332482  0.83348026  0.83606557  1
  I  I126  1  0.66814079  0.16293269  0.16478611  1
  I  I127  1  0.67018229  0.16636831  0.50642960  1
  I  I128  1  0.67005080  0.16556512  0.83184260  1
  I  I129  1  0.66674911  0.49912705  0.17153629  1
  I  I130  1  0.66377851  0.50405669  0.50206011  1
  I  I131  1  0.66735951  0.49734750  0.82678655  1
  I  I132  1  0.66679427  0.83783498  0.16902978  1
  I  I133  1  0.66395682  0.82928904  0.49853931  1
  I  I134  1  0.67015038  0.83919080  0.83156537  1
