# generated using pymatgen
data_Cs27Sn13Pb14I81
_symmetry_space_group_name_H-M   'P 1'
_cell_length_a   18.97547357
_cell_length_b   18.97969296
_cell_length_c   18.97648690
_cell_angle_alpha   89.99998632
_cell_angle_beta   89.99995955
_cell_angle_gamma   89.99811608
_symmetry_Int_Tables_number   1
_chemical_formula_structural   Cs27Sn13Pb14I81
_chemical_formula_sum   'Cs27 Sn13 Pb14 I81'
_cell_volume   6834.35636671
_cell_formula_units_Z   1
loop_
 _symmetry_equiv_pos_site_id
 _symmetry_equiv_pos_as_xyz
  1  'x, y, z'
loop_
 _atom_site_type_symbol
 _atom_site_label
 _atom_site_symmetry_multiplicity
 _atom_site_fract_x
 _atom_site_fract_y
 _atom_site_fract_z
 _atom_site_occupancy
  Cs  Cs0  1  0.00031102  0.00206991  0.00253945  1
  Cs  Cs1  1  -0.00184739  -0.00138762  0.33112758  1
  Cs  Cs2  1  -0.00023894  -0.00318886  0.66584983  1
  Cs  Cs3  1  0.00059568  0.33165015  0.00206802  1
  Cs  Cs4  1  0.00248380  0.33504194  0.32851642  1
  Cs  Cs5  1  -0.00336519  0.33423455  0.66864936  1
  Cs  Cs6  1  0.00238097  0.66685299  -0.00310658  1
  Cs  Cs7  1  0.00158071  0.66516174  0.33905465  1
  Cs  Cs8  1  -0.00140436  0.67035428  0.66487460  1
  Cs  Cs9  1  0.33361477  -0.00342990  -0.00119385  1
  Cs  Cs10  1  0.33427799  0.00253967  0.33816346  1
  Cs  Cs11  1  0.33274201  0.00384892  0.66466488  1
  Cs  Cs12  1  0.33309743  0.33396180  -0.00011568  1
  Cs  Cs13  1  0.33147581  0.33397818  0.33391562  1
  Cs  Cs14  1  0.33442965  0.33006181  0.66598524  1
  Cs  Cs15  1  0.33426674  0.67008208  -0.00041740  1
  Cs  Cs16  1  0.33354837  0.66431345  0.33341280  1
  Cs  Cs17  1  0.33331023  0.66647796  0.66655911  1
  Cs  Cs18  1  0.66607695  -0.00510324  0.00463947  1
  Cs  Cs19  1  0.66803796  -0.00266212  0.32987730  1
  Cs  Cs20  1  0.66774394  0.00200497  0.66538749  1
  Cs  Cs21  1  0.66662820  0.33464260  0.00047359  1
  Cs  Cs22  1  0.66598154  0.33472262  0.33461255  1
  Cs  Cs23  1  0.66725038  0.33396508  0.66564174  1
  Cs  Cs24  1  0.66497665  0.67055615  -0.00429154  1
  Cs  Cs25  1  0.66492670  0.66522754  0.33304855  1
  Cs  Cs26  1  0.66792648  0.66562917  0.67085895  1
  Sn  Sn27  1  0.16683679  0.49979684  0.83303732  1
  Sn  Sn28  1  0.83262364  0.50018368  0.16696235  1
  Sn  Sn29  1  0.50080959  0.49936361  0.16689428  1
  Sn  Sn30  1  0.49989691  0.16739429  0.16591925  1
  Sn  Sn31  1  0.16677707  0.83365654  0.83393959  1
  Sn  Sn32  1  0.16662445  0.83323255  0.16678206  1
  Sn  Sn33  1  0.83242414  0.49888893  0.49919203  1
  Sn  Sn34  1  0.50034505  0.83220914  0.50012418  1
  Sn  Sn35  1  0.50069561  0.50076397  0.49956040  1
  Sn  Sn36  1  0.83349188  0.16748356  0.50005674  1
  Sn  Sn37  1  0.16649226  0.16679182  0.83339931  1
  Sn  Sn38  1  0.50038758  0.16689243  0.83456477  1
  Sn  Sn39  1  0.83317174  0.16676857  0.83305604  1
  Pb  Pb40  1  0.16708530  0.50163837  0.16465539  1
  Pb  Pb41  1  0.83566035  0.83642807  0.83351867  1
  Pb  Pb42  1  0.49812041  0.83614440  0.83100232  1
  Pb  Pb43  1  0.83124585  0.16846756  0.16660170  1
  Pb  Pb44  1  0.16313532  0.16687984  0.50199761  1
  Pb  Pb45  1  0.16926004  0.16480042  0.16468977  1
  Pb  Pb46  1  0.49829977  0.83290856  0.16840771  1
  Pb  Pb47  1  0.50187225  0.16742559  0.49974676  1
  Pb  Pb48  1  0.16882439  0.83336374  0.50000682  1
  Pb  Pb49  1  0.16650107  0.49968914  0.50235212  1
  Pb  Pb50  1  0.83581244  0.82971363  0.16679900  1
  Pb  Pb51  1  0.83514227  0.49832796  0.83335681  1
  Pb  Pb52  1  0.49831566  0.49822710  0.83331450  1
  Pb  Pb53  1  0.83087006  0.83285257  0.49992111  1
  I  I54  1  0.16828581  -0.00295230  0.16072769  1
  I  I55  1  0.16890867  0.00009913  0.50230523  1
  I  I56  1  0.16704229  0.00061316  0.83703174  1
  I  I57  1  0.16561182  0.33345052  0.16439839  1
  I  I58  1  0.17248191  0.33335373  0.50210715  1
  I  I59  1  0.16675913  0.33223921  0.83199398  1
  I  I60  1  0.16854844  0.66922449  0.15881115  1
  I  I61  1  0.16295676  0.66647827  0.50427927  1
  I  I62  1  0.16714755  0.66695626  0.83739904  1
  I  I63  1  0.49812831  0.00243498  0.16383438  1
  I  I64  1  0.49942627  -0.00125017  0.50101649  1
  I  I65  1  0.49817278  0.00435954  0.83699637  1
  I  I66  1  0.50243618  0.33413214  0.16819862  1
  I  I67  1  0.50240071  0.33615825  0.49952236  1
  I  I68  1  0.49677284  0.33000311  0.83199531  1
  I  I69  1  0.50172574  0.66342777  0.16977453  1
  I  I70  1  0.50374987  0.66474887  0.49450976  1
  I  I71  1  0.49701927  0.66663216  0.83502127  1
  I  I72  1  0.83262755  0.00014899  0.16682815  1
  I  I73  1  0.83230733  0.00282853  0.50600668  1
  I  I74  1  0.83451511  0.00494399  0.82683421  1
  I  I75  1  0.83279833  0.33641033  0.16763337  1
  I  I76  1  0.82674863  0.33419451  0.50188409  1
  I  I77  1  0.83611643  0.33011723  0.83166310  1
  I  I78  1  0.82681853  0.66173491  0.17279145  1
  I  I79  1  0.83245934  0.66299759  0.49579722  1
  I  I80  1  0.83625436  0.66646953  0.83228131  1
  I  I81  1  0.16162067  0.16887965  -0.00399957  1
  I  I82  1  0.16761471  0.16413826  0.33301486  1
  I  I83  1  0.17322784  0.16412834  0.67108743  1
  I  I84  1  0.16624772  0.49720894  -0.00331369  1
  I  I85  1  0.16642797  0.50315452  0.33318885  1
  I  I86  1  0.16696401  0.50136480  0.67055791  1
  I  I87  1  0.16833143  0.83355843  -0.00137233  1
  I  I88  1  0.16819100  0.83163909  0.33078447  1
  I  I89  1  0.16764273  0.83451617  0.66996005  1
  I  I90  1  0.50057382  0.17231973  -0.00047637  1
  I  I91  1  0.50195012  0.16701151  0.33100485  1
  I  I92  1  0.49720537  0.16620824  0.66918407  1
  I  I93  1  0.50263573  0.49676479  0.00277193  1
  I  I94  1  0.50291636  0.49801930  0.33320969  1
  I  I95  1  0.50288053  0.50200831  0.66387894  1
  I  I96  1  0.49971287  0.83183022  -0.00011741  1
  I  I97  1  0.49687693  0.83469940  0.33611682  1
  I  I98  1  0.49816598  0.82802274  0.66341285  1
  I  I99  1  0.83631230  0.16862659  -0.00284408  1
  I  I100  1  0.82979336  0.16860334  0.33579796  1
  I  I101  1  0.83170229  0.17267544  0.66722071  1
  I  I102  1  0.83055186  0.49817169  0.00250932  1
  I  I103  1  0.83003105  0.49407037  0.33416772  1
  I  I104  1  0.83004074  0.49716518  0.66385106  1
  I  I105  1  0.83048007  0.83299383  0.00007852  1
  I  I106  1  0.83716126  0.84005186  0.33341330  1
  I  I107  1  0.83576063  0.82961443  0.66671054  1
  I  I108  1  -0.00010106  0.16741157  0.16599456  1
  I  I109  1  -0.00490467  0.17230185  0.50493067  1
  I  I110  1  0.00023159  0.16674610  0.82766431  1
  I  I111  1  -0.00245800  0.50109566  0.17017973  1
  I  I112  1  -0.00342660  0.49553845  0.49662422  1
  I  I113  1  0.00316494  0.49777408  0.83367656  1
  I  I114  1  0.00369373  0.83379287  0.16153177  1
  I  I115  1  -0.00005177  0.83309372  0.50101304  1
  I  I116  1  0.00416425  0.83424810  0.83557744  1
  I  I117  1  0.33730037  0.17282969  0.16280771  1
  I  I118  1  0.33365567  0.16638065  0.50140125  1
  I  I119  1  0.33322638  0.16659490  0.83771074  1
  I  I120  1  0.33653185  0.49716254  0.17020481  1
  I  I121  1  0.33658779  0.50370992  0.49661114  1
  I  I122  1  0.33029925  0.49736122  0.83367404  1
  I  I123  1  0.33067359  0.83162065  0.16133045  1
  I  I124  1  0.33667461  0.82808620  0.50039569  1
  I  I125  1  0.32995141  0.83519702  0.83654415  1
  I  I126  1  0.66329038  0.16743703  0.16097236  1
  I  I127  1  0.66944333  0.16832410  0.50715424  1
  I  I128  1  0.66659836  0.16895728  0.83168993  1
  I  I129  1  0.66572965  0.49538039  0.17081186  1
  I  I130  1  0.66642464  0.49946658  0.49664373  1
  I  I131  1  0.66664499  0.49739160  0.83315402  1
  I  I132  1  0.66637259  0.83570483  0.16846696  1
  I  I133  1  0.66308982  0.83283551  0.49874073  1
  I  I134  1  0.66642361  0.83425891  0.83239893  1
