# generated using pymatgen
data_Cs27Sn14Pb13I81
_symmetry_space_group_name_H-M   'P 1'
_cell_length_a   18.98647524
_cell_length_b   18.96867202
_cell_length_c   18.97275696
_cell_angle_alpha   90.00144425
_cell_angle_beta   89.99915828
_cell_angle_gamma   90.00006623
_symmetry_Int_Tables_number   1
_chemical_formula_structural   Cs27Sn14Pb13I81
_chemical_formula_sum   'Cs27 Sn14 Pb13 I81'
_cell_volume   6833.00467887
_cell_formula_units_Z   1
loop_
 _symmetry_equiv_pos_site_id
 _symmetry_equiv_pos_as_xyz
  1  'x, y, z'
loop_
 _atom_site_type_symbol
 _atom_site_label
 _atom_site_symmetry_multiplicity
 _atom_site_fract_x
 _atom_site_fract_y
 _atom_site_fract_z
 _atom_site_occupancy
  Cs  Cs0  1  -0.00007729  0.00194730  -0.00170008  1
  Cs  Cs1  1  0.00325200  -0.00196765  0.33565118  1
  Cs  Cs2  1  0.00006182  0.00466891  0.66624154  1
  Cs  Cs3  1  -0.00064560  0.33305734  -0.00021069  1
  Cs  Cs4  1  -0.00001615  0.33602719  0.33133292  1
  Cs  Cs5  1  -0.00123990  0.32551892  0.66806626  1
  Cs  Cs6  1  -0.00162100  0.66555899  0.00114885  1
  Cs  Cs7  1  -0.00012349  0.66689934  0.33476706  1
  Cs  Cs8  1  -0.00012326  0.66808168  0.66424169  1
  Cs  Cs9  1  0.33709376  0.00075017  0.00033187  1
  Cs  Cs10  1  0.33044907  -0.00215248  0.33377486  1
  Cs  Cs11  1  0.33164481  -0.00030199  0.66771190  1
  Cs  Cs12  1  0.33235274  0.33222641  0.00270109  1
  Cs  Cs13  1  0.33575803  0.33363915  0.33075764  1
  Cs  Cs14  1  0.33595245  0.33468756  0.66326998  1
  Cs  Cs15  1  0.33248266  0.66664267  -0.00180296  1
  Cs  Cs16  1  0.32994448  0.66683285  0.33232853  1
  Cs  Cs17  1  0.33464277  0.66590099  0.66791131  1
  Cs  Cs18  1  0.66138723  -0.00176002  0.00171627  1
  Cs  Cs19  1  0.66637464  0.00094134  0.33302509  1
  Cs  Cs20  1  0.66785852  -0.00247774  0.66626837  1
  Cs  Cs21  1  0.66783134  0.33483186  -0.00005168  1
  Cs  Cs22  1  0.66360063  0.33059547  0.33418882  1
  Cs  Cs23  1  0.66580661  0.33463675  0.66475859  1
  Cs  Cs24  1  0.67104228  0.66608892  -0.00049275  1
  Cs  Cs25  1  0.67135425  0.66906269  0.33387501  1
  Cs  Cs26  1  0.66596496  0.66703151  0.66732774  1
  Sn  Sn27  1  0.49973729  0.49995167  0.16648025  1
  Sn  Sn28  1  0.83262672  0.83266949  0.50108539  1
  Sn  Sn29  1  0.50004962  0.16657917  0.83355251  1
  Sn  Sn30  1  0.83334745  0.83335508  0.83275144  1
  Sn  Sn31  1  0.16582615  0.49988532  0.50027006  1
  Sn  Sn32  1  0.83396848  0.50009302  0.50024884  1
  Sn  Sn33  1  0.50013786  0.83381158  0.83258672  1
  Sn  Sn34  1  0.16652505  0.83281799  0.83351251  1
  Sn  Sn35  1  0.83327221  0.16645716  0.16664057  1
  Sn  Sn36  1  0.16675129  0.16717383  0.16660741  1
  Sn  Sn37  1  0.50036534  0.83315456  0.50056079  1
  Sn  Sn38  1  0.16658313  0.50024753  0.83317291  1
  Sn  Sn39  1  0.16740093  0.49944258  0.16642905  1
  Sn  Sn40  1  0.49990249  0.16750780  0.16578312  1
  Pb  Pb41  1  0.83351954  0.83568771  0.16700858  1
  Pb  Pb42  1  0.49827713  0.50021790  0.83537757  1
  Pb  Pb43  1  0.83344684  0.49822802  0.16863884  1
  Pb  Pb44  1  0.16885342  0.16697275  0.83517827  1
  Pb  Pb45  1  0.83331439  0.16632773  0.49802522  1
  Pb  Pb46  1  0.49994821  0.83293079  0.16665520  1
  Pb  Pb47  1  0.16652494  0.83152707  0.50249715  1
  Pb  Pb48  1  0.83594111  0.50179158  0.83079294  1
  Pb  Pb49  1  0.83050806  0.16426787  0.83536117  1
  Pb  Pb50  1  0.16686729  0.16988207  0.49729212  1
  Pb  Pb51  1  0.16655566  0.83282497  0.16399525  1
  Pb  Pb52  1  0.50005363  0.50243159  0.49754377  1
  Pb  Pb53  1  0.49994185  0.16395030  0.49993242  1
  I  I54  1  0.16838075  0.00293138  0.16475108  1
  I  I55  1  0.16615602  -0.00017858  0.49877363  1
  I  I56  1  0.16559298  -0.00272701  0.83516340  1
  I  I57  1  0.16785404  0.33420831  0.16504260  1
  I  I58  1  0.16075203  0.33828223  0.50586563  1
  I  I59  1  0.16870736  0.33629399  0.83249679  1
  I  I60  1  0.17191571  0.66300183  0.16829263  1
  I  I61  1  0.16575856  0.66345462  0.49373386  1
  I  I62  1  0.16943257  0.66669935  0.83592949  1
  I  I63  1  0.49921905  0.00293386  0.16521370  1
  I  I64  1  0.50669034  -0.00410042  0.49898591  1
  I  I65  1  0.49804567  -0.00114691  0.83675592  1
  I  I66  1  0.49870095  0.33236112  0.16198726  1
  I  I67  1  0.50031577  0.33360250  0.50205908  1
  I  I68  1  0.49725208  0.33096805  0.83745856  1
  I  I69  1  0.49333042  0.66390206  0.16713480  1
  I  I70  1  0.50112519  0.67010640  0.50582227  1
  I  I71  1  0.50078945  0.66979366  0.83101763  1
  I  I72  1  0.83209891  0.00370966  0.16756653  1
  I  I73  1  0.82856237  -0.00349548  0.50259746  1
  I  I74  1  0.83923006  -0.00406081  0.82679151  1
  I  I75  1  0.83296974  0.33026770  0.16845362  1
  I  I76  1  0.83854093  0.33614434  0.49683227  1
  I  I77  1  0.83360253  0.33323448  0.83253516  1
  I  I78  1  0.83292109  0.66664562  0.16538722  1
  I  I79  1  0.83346266  0.66747525  0.50192145  1
  I  I80  1  0.82728935  0.67028200  0.83375504  1
  I  I81  1  0.16529914  0.17197603  0.00333565  1
  I  I82  1  0.16997551  0.17025662  0.32870491  1
  I  I83  1  0.16818739  0.16729998  0.66694110  1
  I  I84  1  0.17215003  0.50047512  0.00056597  1
  I  I85  1  0.16671404  0.49516577  0.33274296  1
  I  I86  1  0.16327611  0.50728119  0.66682429  1
  I  I87  1  0.16775245  0.82812141  -0.00415956  1
  I  I88  1  0.16674759  0.83343730  0.33351475  1
  I  I89  1  0.16807346  0.82782476  0.67047293  1
  I  I90  1  0.49950258  0.16294624  0.00102384  1
  I  I91  1  0.49983849  0.16976151  0.32978578  1
  I  I92  1  0.49928344  0.16391254  0.66966059  1
  I  I93  1  0.49420165  0.50023533  0.00339052  1
  I  I94  1  0.49421264  0.49444548  0.32975988  1
  I  I95  1  0.49848709  0.49707185  0.66664405  1
  I  I96  1  0.50015818  0.83514495  -0.00311688  1
  I  I97  1  0.50571697  0.83270344  0.33592227  1
  I  I98  1  0.50049587  0.83817049  0.66802341  1
  I  I99  1  0.83570960  0.16618880  0.00336658  1
  I  I100  1  0.83050278  0.16500709  0.32981406  1
  I  I101  1  0.83188064  0.16854066  0.66682545  1
  I  I102  1  0.83401495  0.50143259  -0.00004876  1
  I  I103  1  0.83892690  0.50719601  0.33636038  1
  I  I104  1  0.83704137  0.50147095  0.66274511  1
  I  I105  1  0.83188790  0.83521093  -0.00314482  1
  I  I106  1  0.82825851  0.83084187  0.33672595  1
  I  I107  1  0.83166294  0.82914918  0.66666157  1
  I  I108  1  0.00093214  0.17059577  0.16759430  1
  I  I109  1  0.00009519  0.16151906  0.49824505  1
  I  I110  1  0.00005771  0.16537351  0.83575172  1
  I  I111  1  0.00311901  0.49581614  0.16510118  1
  I  I112  1  0.00052502  0.50713629  0.49660746  1
  I  I113  1  0.00413522  0.50514592  0.83986272  1
  I  I114  1  0.00007011  0.83433490  0.16648253  1
  I  I115  1  -0.00269159  0.83120298  0.50291470  1
  I  I116  1  0.00002415  0.82785509  0.83095047  1
  I  I117  1  0.33375204  0.17168491  0.16249022  1
  I  I118  1  0.33343494  0.16570829  0.49772025  1
  I  I119  1  0.33647668  0.15997077  0.84030816  1
  I  I120  1  0.33217019  0.49243892  0.16855940  1
  I  I121  1  0.33059434  0.50141305  0.50064604  1
  I  I122  1  0.33010344  0.50591973  0.82965662  1
  I  I123  1  0.33333130  0.83713877  0.16788360  1
  I  I124  1  0.33558253  0.83286390  0.50331951  1
  I  I125  1  0.33393377  0.83325850  0.83035001  1
  I  I126  1  0.66524767  0.16977556  0.16344268  1
  I  I127  1  0.66657606  0.17155681  0.49613379  1
  I  I128  1  0.66268961  0.16153429  0.83993568  1
  I  I129  1  0.66426766  0.49590473  0.16804763  1
  I  I130  1  0.66897539  0.50274708  0.49711116  1
  I  I131  1  0.66668697  0.50062790  0.83441679  1
  I  I132  1  0.66660361  0.83290753  0.16286799  1
  I  I133  1  0.66724480  0.82783683  0.50723595  1
  I  I134  1  0.66615278  0.83872024  0.82957947  1
