# generated using pymatgen
data_Cs27Sn14Pb13I81
_symmetry_space_group_name_H-M   'P 1'
_cell_length_a   18.97275644
_cell_length_b   18.97780252
_cell_length_c   18.97590311
_cell_angle_alpha   90.00028341
_cell_angle_beta   89.99941667
_cell_angle_gamma   89.99716060
_symmetry_Int_Tables_number   1
_chemical_formula_structural   Cs27Sn14Pb13I81
_chemical_formula_sum   'Cs27 Sn14 Pb13 I81'
_cell_volume   6832.48691094
_cell_formula_units_Z   1
loop_
 _symmetry_equiv_pos_site_id
 _symmetry_equiv_pos_as_xyz
  1  'x, y, z'
loop_
 _atom_site_type_symbol
 _atom_site_label
 _atom_site_symmetry_multiplicity
 _atom_site_fract_x
 _atom_site_fract_y
 _atom_site_fract_z
 _atom_site_occupancy
  Cs  Cs0  1  -0.00151306  -0.00604170  -0.00639890  1
  Cs  Cs1  1  0.00201246  0.00203205  0.33403098  1
  Cs  Cs2  1  -0.00440185  0.00420171  0.67091226  1
  Cs  Cs3  1  0.00195994  0.33239869  -0.00038795  1
  Cs  Cs4  1  0.00100382  0.33337573  0.33443594  1
  Cs  Cs5  1  -0.00172208  0.33169658  0.66839736  1
  Cs  Cs6  1  -0.00273101  0.67503911  0.00147860  1
  Cs  Cs7  1  0.00038538  0.66546935  0.33237429  1
  Cs  Cs8  1  -0.00103846  0.66473802  0.66571900  1
  Cs  Cs9  1  0.33510930  -0.00069702  -0.00029008  1
  Cs  Cs10  1  0.33322263  0.00046303  0.33326331  1
  Cs  Cs11  1  0.33589082  -0.00009997  0.66494801  1
  Cs  Cs12  1  0.33331690  0.33440978  -0.00117027  1
  Cs  Cs13  1  0.33111905  0.33096609  0.33274579  1
  Cs  Cs14  1  0.33290119  0.33658361  0.66853253  1
  Cs  Cs15  1  0.33037949  0.66840633  -0.00730245  1
  Cs  Cs16  1  0.33086478  0.66876316  0.33716831  1
  Cs  Cs17  1  0.33486949  0.66392553  0.66566105  1
  Cs  Cs18  1  0.66365616  -0.00124053  -0.00251072  1
  Cs  Cs19  1  0.66355226  0.00179767  0.33543194  1
  Cs  Cs20  1  0.66675946  0.00028255  0.66659904  1
  Cs  Cs21  1  0.66385643  0.33691511  0.00941461  1
  Cs  Cs22  1  0.66633165  0.33392944  0.32764610  1
  Cs  Cs23  1  0.66932053  0.33403101  0.66615858  1
  Cs  Cs24  1  0.67160403  0.66417872  0.00344408  1
  Cs  Cs25  1  0.66871559  0.66399199  0.33314749  1
  Cs  Cs26  1  0.66522010  0.66573598  0.66527810  1
  Sn  Sn27  1  0.83350576  0.49980406  0.83296208  1
  Sn  Sn28  1  0.16743474  0.16672793  0.49974909  1
  Sn  Sn29  1  0.16616785  0.83381238  0.50013436  1
  Sn  Sn30  1  0.50021097  0.83400694  0.49998139  1
  Sn  Sn31  1  0.49988721  0.83273236  0.16707066  1
  Sn  Sn32  1  0.50002996  0.16673092  0.83216318  1
  Sn  Sn33  1  0.16684363  0.49975010  0.16728529  1
  Sn  Sn34  1  0.50021680  0.83372684  0.83285591  1
  Sn  Sn35  1  0.83336683  0.83295833  0.49980239  1
  Sn  Sn36  1  0.49928892  0.16648305  0.50084915  1
  Sn  Sn37  1  0.16546686  0.16693591  0.16704727  1
  Sn  Sn38  1  0.83475455  0.16582730  0.16670995  1
  Sn  Sn39  1  0.83412347  0.50042584  0.50060277  1
  Sn  Sn40  1  0.16571316  0.49961566  0.49936611  1
  Pb  Pb41  1  0.83594381  0.49849973  0.16737755  1
  Pb  Pb42  1  0.49899584  0.16525454  0.16695967  1
  Pb  Pb43  1  0.16419761  0.50005555  0.83328310  1
  Pb  Pb44  1  0.16885908  0.83351070  0.82982367  1
  Pb  Pb45  1  0.49992515  0.49945811  0.49972651  1
  Pb  Pb46  1  0.16833892  0.83379654  0.16843128  1
  Pb  Pb47  1  0.83318621  0.16706191  0.49886305  1
  Pb  Pb48  1  0.83135732  0.83585371  0.16932126  1
  Pb  Pb49  1  0.50235392  0.49993566  0.83332377  1
  Pb  Pb50  1  0.49626664  0.50329303  0.16686464  1
  Pb  Pb51  1  0.83083291  0.83158717  0.83072488  1
  Pb  Pb52  1  0.16879627  0.16664764  0.83331092  1
  Pb  Pb53  1  0.83034165  0.16879708  0.83633490  1
  I  I54  1  0.16581704  0.00300749  0.17256107  1
  I  I55  1  0.16912531  0.00036162  0.49516333  1
  I  I56  1  0.16358006  0.00007186  0.83487634  1
  I  I57  1  0.16372554  0.33257965  0.17589535  1
  I  I58  1  0.16695611  0.33310376  0.49568234  1
  I  I59  1  0.17020093  0.33333390  0.82903278  1
  I  I60  1  0.16915577  0.66438097  0.17209878  1
  I  I61  1  0.16714674  0.66661557  0.49642535  1
  I  I62  1  0.17046216  0.66672790  0.83407666  1
  I  I63  1  0.49820995  -0.00261716  0.16836270  1
  I  I64  1  0.49745330  -0.00083085  0.50014251  1
  I  I65  1  0.50030238  -0.00047031  0.83183461  1
  I  I66  1  0.50265707  0.33324212  0.16646202  1
  I  I67  1  0.49703237  0.32993181  0.50450807  1
  I  I68  1  0.50027867  0.33033237  0.82783804  1
  I  I69  1  0.50061698  0.67119540  0.16865216  1
  I  I70  1  0.49743595  0.66994889  0.50121747  1
  I  I71  1  0.49994896  0.66989290  0.83099307  1
  I  I72  1  0.83977449  0.00346554  0.16922518  1
  I  I73  1  0.83402495  -0.00239095  0.49707200  1
  I  I74  1  0.83402880  -0.00000187  0.83287418  1
  I  I75  1  0.83197673  0.33061746  0.16961650  1
  I  I76  1  0.83638146  0.33594113  0.50217538  1
  I  I77  1  0.83203563  0.33626998  0.82410748  1
  I  I78  1  0.83288260  0.66679472  0.16467277  1
  I  I79  1  0.83502175  0.66671076  0.50304733  1
  I  I80  1  0.83136341  0.66374434  0.83230548  1
  I  I81  1  0.16542450  0.17324012  0.00333087  1
  I  I82  1  0.16957653  0.16742843  0.33480042  1
  I  I83  1  0.16916729  0.16695547  0.66287855  1
  I  I84  1  0.16764574  0.49351280  0.00300669  1
  I  I85  1  0.16115483  0.49945540  0.33533676  1
  I  I86  1  0.16585226  0.50005076  0.66288454  1
  I  I87  1  0.16957963  0.83209591  -0.00000276  1
  I  I88  1  0.17029498  0.83308488  0.33716441  1
  I  I89  1  0.16904651  0.83257150  0.66114622  1
  I  I90  1  0.50121423  0.16165934  -0.00194551  1
  I  I91  1  0.49898054  0.16174334  0.33616709  1
  I  I92  1  0.49526457  0.15819081  0.66501861  1
  I  I93  1  0.50134011  0.49878937  0.00013831  1
  I  I94  1  0.50641561  0.49940567  0.33346735  1
  I  I95  1  0.49575996  0.50361587  0.66633431  1
  I  I96  1  0.49929575  0.83883958  -0.00046141  1
  I  I97  1  0.49935621  0.83807514  0.33538098  1
  I  I98  1  0.49977724  0.83786859  0.66512501  1
  I  I99  1  0.83801800  0.16904913  0.00384466  1
  I  I100  1  0.83141645  0.16842401  0.33123341  1
  I  I101  1  0.83484460  0.16531366  0.66659446  1
  I  I102  1  0.83172101  0.49691708  -0.00171548  1
  I  I103  1  0.83505286  0.50347279  0.33644532  1
  I  I104  1  0.83797554  0.50330117  0.66447932  1
  I  I105  1  0.83105479  0.83161150  0.00000926  1
  I  I106  1  0.83059631  0.82639908  0.33756311  1
  I  I107  1  0.83179195  0.83325619  0.66233095  1
  I  I108  1  0.00155253  0.17097005  0.17495492  1
  I  I109  1  0.00285912  0.16433294  0.49644168  1
  I  I110  1  -0.00028395  0.16830727  0.83084384  1
  I  I111  1  0.00360601  0.49852737  0.16994306  1
  I  I112  1  0.00061678  0.50348684  0.49996523  1
  I  I113  1  -0.00336554  0.49913188  0.82958007  1
  I  I114  1  0.00012010  0.83156640  0.16829902  1
  I  I115  1  0.00048324  0.83210765  0.49818207  1
  I  I116  1  -0.00040458  0.83175223  0.83314569  1
  I  I117  1  0.33038620  0.16935664  0.16899628  1
  I  I118  1  0.33297681  0.16335685  0.49734779  1
  I  I119  1  0.33696361  0.16275686  0.83359542  1
  I  I120  1  0.32877855  0.49159275  0.17449275  1
  I  I121  1  0.33007126  0.50238035  0.49585726  1
  I  I122  1  0.33333261  0.50050029  0.83332121  1
  I  I123  1  0.33642845  0.83580758  0.17004788  1
  I  I124  1  0.33379899  0.83367646  0.49949252  1
  I  I125  1  0.33732362  0.83629534  0.83208629  1
  I  I126  1  0.66789996  0.16552179  0.16739400  1
  I  I127  1  0.66401355  0.16250842  0.50144226  1
  I  I128  1  0.66266432  0.16169006  0.82706627  1
  I  I129  1  0.66686471  0.49805372  0.16668271  1
  I  I130  1  0.66949551  0.50354109  0.50424355  1
  I  I131  1  0.66996319  0.50045427  0.82545967  1
  I  I132  1  0.66329073  0.83630389  0.16934129  1
  I  I133  1  0.66555315  0.83360113  0.50028675  1
  I  I134  1  0.66274689  0.83759234  0.83036432  1
