# generated using pymatgen
data_Cs27Sn14Pb13I81
_symmetry_space_group_name_H-M   'P 1'
_cell_length_a   18.97193590
_cell_length_b   18.97554959
_cell_length_c   18.97950872
_cell_angle_alpha   89.99834651
_cell_angle_beta   90.00236758
_cell_angle_gamma   90.00083009
_symmetry_Int_Tables_number   1
_chemical_formula_structural   Cs27Sn14Pb13I81
_chemical_formula_sum   'Cs27 Sn14 Pb13 I81'
_cell_volume   6832.67836479
_cell_formula_units_Z   1
loop_
 _symmetry_equiv_pos_site_id
 _symmetry_equiv_pos_as_xyz
  1  'x, y, z'
loop_
 _atom_site_type_symbol
 _atom_site_label
 _atom_site_symmetry_multiplicity
 _atom_site_fract_x
 _atom_site_fract_y
 _atom_site_fract_z
 _atom_site_occupancy
  Cs  Cs0  1  0.00115776  -0.00002054  0.00172323  1
  Cs  Cs1  1  0.00013954  -0.00043837  0.33363409  1
  Cs  Cs2  1  -0.00111457  -0.00327333  0.66268147  1
  Cs  Cs3  1  -0.00014120  0.33309328  0.00071107  1
  Cs  Cs4  1  -0.00174664  0.33244434  0.33419774  1
  Cs  Cs5  1  -0.00198753  0.33522018  0.66601859  1
  Cs  Cs6  1  -0.00099746  0.66678351  -0.00059552  1
  Cs  Cs7  1  0.00056894  0.66857840  0.33402195  1
  Cs  Cs8  1  0.00083959  0.66702653  0.66688656  1
  Cs  Cs9  1  0.33379655  0.00591529  -0.00031032  1
  Cs  Cs10  1  0.33158207  -0.00338827  0.33120294  1
  Cs  Cs11  1  0.34026506  0.00289935  0.66823581  1
  Cs  Cs12  1  0.33009096  0.32801300  -0.00335167  1
  Cs  Cs13  1  0.33286085  0.33747578  0.33646509  1
  Cs  Cs14  1  0.33700788  0.33521818  0.66743939  1
  Cs  Cs15  1  0.33191488  0.66726180  0.00111351  1
  Cs  Cs16  1  0.33782317  0.66584118  0.33536318  1
  Cs  Cs17  1  0.33062798  0.66303785  0.66271311  1
  Cs  Cs18  1  0.66613261  -0.00233633  -0.00107422  1
  Cs  Cs19  1  0.66627969  0.00263900  0.33526563  1
  Cs  Cs20  1  0.65977424  0.00204083  0.66723612  1
  Cs  Cs21  1  0.66920503  0.33630819  0.00253952  1
  Cs  Cs22  1  0.66594889  0.33213567  0.33202563  1
  Cs  Cs23  1  0.66923111  0.32910963  0.66522715  1
  Cs  Cs24  1  0.66449575  0.66627586  0.00110983  1
  Cs  Cs25  1  0.66022213  0.66506693  0.32829669  1
  Cs  Cs26  1  0.66857313  0.67026065  0.67094311  1
  Sn  Sn27  1  0.83341375  0.50142168  0.50037218  1
  Sn  Sn28  1  0.16654131  0.16576185  0.50036911  1
  Sn  Sn29  1  0.83266908  0.16563287  0.16580898  1
  Sn  Sn30  1  0.16574039  0.83227516  0.16651433  1
  Sn  Sn31  1  0.83320997  0.49938369  0.83258195  1
  Sn  Sn32  1  0.83393220  0.83403085  0.16758927  1
  Sn  Sn33  1  0.50013325  0.50020102  0.83344614  1
  Sn  Sn34  1  0.83414966  0.16675773  0.83400342  1
  Sn  Sn35  1  0.16607765  0.83449597  0.50002848  1
  Sn  Sn36  1  0.50088979  0.16667869  0.16672434  1
  Sn  Sn37  1  0.16615893  0.50081603  0.16607330  1
  Sn  Sn38  1  0.16669049  0.50073315  0.83426122  1
  Sn  Sn39  1  0.16647800  0.83311287  0.83337491  1
  Sn  Sn40  1  0.83353230  0.83221393  0.49898721  1
  Pb  Pb41  1  0.16506680  0.50063808  0.50020609  1
  Pb  Pb42  1  0.49631770  0.83082841  0.83350873  1
  Pb  Pb43  1  0.83444369  0.16603569  0.49986325  1
  Pb  Pb44  1  0.16594964  0.16658080  0.16831677  1
  Pb  Pb45  1  0.49680041  0.16672553  0.49741271  1
  Pb  Pb46  1  0.50306298  0.16896022  0.83531041  1
  Pb  Pb47  1  0.16448768  0.16679463  0.83096041  1
  Pb  Pb48  1  0.49663137  0.49769584  0.16439066  1
  Pb  Pb49  1  0.49996618  0.83522345  0.16652245  1
  Pb  Pb50  1  0.83491615  0.50045712  0.16660796  1
  Pb  Pb51  1  0.83485287  0.83335265  0.83343618  1
  Pb  Pb52  1  0.50039853  0.83316928  0.49999922  1
  Pb  Pb53  1  0.50403631  0.50011547  0.50259901  1
  I  I54  1  0.16566175  -0.00301661  0.16482534  1
  I  I55  1  0.15934422  -0.00204352  0.49852222  1
  I  I56  1  0.16298578  -0.00277707  0.83655891  1
  I  I57  1  0.16628927  0.33554935  0.16310673  1
  I  I58  1  0.16391754  0.33200332  0.49842341  1
  I  I59  1  0.16739561  0.33658241  0.83700388  1
  I  I60  1  0.16051132  0.66778376  0.16697283  1
  I  I61  1  0.16359397  0.66966921  0.50038950  1
  I  I62  1  0.16390143  0.66590742  0.83237048  1
  I  I63  1  0.49892001  0.00305597  0.16568343  1
  I  I64  1  0.50417341  0.00010599  0.50169151  1
  I  I65  1  0.49998255  0.00026638  0.83355712  1
  I  I66  1  0.50662072  0.33021697  0.16619758  1
  I  I67  1  0.49813942  0.33345020  0.49942070  1
  I  I68  1  0.49307056  0.33669827  0.83441920  1
  I  I69  1  0.50211567  0.66640932  0.16565293  1
  I  I70  1  0.49425135  0.66643427  0.49896063  1
  I  I71  1  0.50727294  0.66288647  0.83461721  1
  I  I72  1  0.83641938  -0.00040803  0.16663538  1
  I  I73  1  0.83779067  -0.00292399  0.49870918  1
  I  I74  1  0.83686101  0.00211495  0.83475840  1
  I  I75  1  0.83228517  0.33127697  0.16590933  1
  I  I76  1  0.83650248  0.33517311  0.50173447  1
  I  I77  1  0.83591906  0.33470281  0.83315930  1
  I  I78  1  0.83761051  0.66940140  0.16737463  1
  I  I79  1  0.84118359  0.66742996  0.50124580  1
  I  I80  1  0.83290909  0.66377739  0.83214837  1
  I  I81  1  0.16822704  0.16497196  -0.00006853  1
  I  I82  1  0.16388542  0.16340628  0.33591023  1
  I  I83  1  0.16261951  0.16294020  0.66351425  1
  I  I84  1  0.16401948  0.50680800  -0.00110106  1
  I  I85  1  0.16374624  0.50135064  0.33117467  1
  I  I86  1  0.16731932  0.50273511  0.66968336  1
  I  I87  1  0.16205544  0.82768922  0.00061904  1
  I  I88  1  0.16188438  0.83418628  0.33301527  1
  I  I89  1  0.16124197  0.83212133  0.66634546  1
  I  I90  1  0.49877882  0.16666971  0.00299355  1
  I  I91  1  0.50855168  0.16739785  0.32979284  1
  I  I92  1  0.50065727  0.16723122  0.66690964  1
  I  I93  1  0.50623549  0.49987138  -0.00325603  1
  I  I94  1  0.49893833  0.49883443  0.33308650  1
  I  I95  1  0.49175882  0.49912277  0.67049353  1
  I  I96  1  0.50143862  0.83338001  0.00001671  1
  I  I97  1  0.49520846  0.83274913  0.33314177  1
  I  I98  1  0.50142155  0.83473359  0.66685534  1
  I  I99  1  0.83145666  0.16773462  0.00061709  1
  I  I100  1  0.83191843  0.16638663  0.33063289  1
  I  I101  1  0.83713832  0.16933672  0.66879207  1
  I  I102  1  0.83309855  0.49866407  -0.00282732  1
  I  I103  1  0.83827463  0.49977018  0.33532921  1
  I  I104  1  0.83663236  0.49908214  0.66800887  1
  I  I105  1  0.83824941  0.83468413  0.00259247  1
  I  I106  1  0.84251089  0.83412708  0.33297711  1
  I  I107  1  0.83912172  0.83158947  0.66435474  1
  I  I108  1  -0.00275572  0.16562640  0.16413657  1
  I  I109  1  0.00222346  0.16515842  0.49726021  1
  I  I110  1  -0.00321200  0.17325086  0.84044547  1
  I  I111  1  0.00281397  0.49893616  0.16083671  1
  I  I112  1  -0.00268815  0.50078637  0.50599831  1
  I  I113  1  0.00008881  0.50001131  0.83318764  1
  I  I114  1  0.00045400  0.83588603  0.16747817  1
  I  I115  1  0.00050862  0.83338469  0.49904697  1
  I  I116  1  0.00305993  0.82745725  0.83341295  1
  I  I117  1  0.33459079  0.16759231  0.16894252  1
  I  I118  1  0.32877706  0.16082464  0.49895213  1
  I  I119  1  0.33315571  0.16703759  0.83402433  1
  I  I120  1  0.32856832  0.50430576  0.16329608  1
  I  I121  1  0.33319370  0.49926990  0.50017248  1
  I  I122  1  0.33169604  0.50498239  0.83862735  1
  I  I123  1  0.32950968  0.83081969  0.16747802  1
  I  I124  1  0.32939300  0.83713940  0.49897466  1
  I  I125  1  0.32772732  0.82930894  0.83366601  1
  I  I126  1  0.66886388  0.16203887  0.16298816  1
  I  I127  1  0.66682141  0.16690611  0.50203467  1
  I  I128  1  0.67115092  0.17104955  0.83288332  1
  I  I129  1  0.66676821  0.50199566  0.16607395  1
  I  I130  1  0.67215806  0.50447024  0.50371581  1
  I  I131  1  0.66817237  0.49408950  0.82802910  1
  I  I132  1  0.67023327  0.83516228  0.17144943  1
  I  I133  1  0.67074634  0.82911082  0.49517834  1
  I  I134  1  0.66686622  0.83281677  0.83307011  1
