# generated using pymatgen
data_Cs27Sn13Pb14I81
_symmetry_space_group_name_H-M   'P 1'
_cell_length_a   18.97899612
_cell_length_b   18.97847876
_cell_length_c   18.97266663
_cell_angle_alpha   89.99886325
_cell_angle_beta   90.00027376
_cell_angle_gamma   89.99994462
_symmetry_Int_Tables_number   1
_chemical_formula_structural   Cs27Sn13Pb14I81
_chemical_formula_sum   'Cs27 Sn13 Pb14 I81'
_cell_volume   6833.81174719
_cell_formula_units_Z   1
loop_
 _symmetry_equiv_pos_site_id
 _symmetry_equiv_pos_as_xyz
  1  'x, y, z'
loop_
 _atom_site_type_symbol
 _atom_site_label
 _atom_site_symmetry_multiplicity
 _atom_site_fract_x
 _atom_site_fract_y
 _atom_site_fract_z
 _atom_site_occupancy
  Cs  Cs0  1  0.00143647  -0.00061515  0.00013314  1
  Cs  Cs1  1  -0.00369969  -0.00174098  0.33101254  1
  Cs  Cs2  1  0.00108368  -0.00012403  0.66522661  1
  Cs  Cs3  1  -0.00099895  0.33262501  0.00100081  1
  Cs  Cs4  1  0.00194050  0.33422023  0.33205189  1
  Cs  Cs5  1  -0.00612295  0.33294393  0.66429014  1
  Cs  Cs6  1  0.00118112  0.66747947  0.00021844  1
  Cs  Cs7  1  -0.00094967  0.66770962  0.33810712  1
  Cs  Cs8  1  0.00263763  0.66683715  0.65768634  1
  Cs  Cs9  1  0.33185470  0.00278545  -0.00085761  1
  Cs  Cs10  1  0.34288782  0.00547320  0.33255703  1
  Cs  Cs11  1  0.33169760  -0.00202877  0.66789850  1
  Cs  Cs12  1  0.33277529  0.33381771  0.00053010  1
  Cs  Cs13  1  0.33256116  0.33203734  0.33221277  1
  Cs  Cs14  1  0.33350230  0.33384866  0.66767877  1
  Cs  Cs15  1  0.33255323  0.66497196  -0.00182515  1
  Cs  Cs16  1  0.33274654  0.66497300  0.33681899  1
  Cs  Cs17  1  0.33075629  0.66770263  0.66747356  1
  Cs  Cs18  1  0.66729475  -0.00464607  0.00037401  1
  Cs  Cs19  1  0.66153570  -0.00711599  0.33979123  1
  Cs  Cs20  1  0.66783765  0.00405858  0.66209573  1
  Cs  Cs21  1  0.66885906  0.33556282  -0.00222350  1
  Cs  Cs22  1  0.66571546  0.33137690  0.33509732  1
  Cs  Cs23  1  0.67288217  0.33121539  0.66718133  1
  Cs  Cs24  1  0.66682021  0.66690710  0.00035662  1
  Cs  Cs25  1  0.66747253  0.67511438  0.33107388  1
  Cs  Cs26  1  0.66733775  0.66446268  0.66846879  1
  Sn  Sn27  1  0.49943314  0.49960930  0.83319855  1
  Sn  Sn28  1  0.83307264  0.83304580  0.83320962  1
  Sn  Sn29  1  0.50101538  0.83327885  0.83359726  1
  Sn  Sn30  1  0.50004345  0.49993512  0.16682033  1
  Sn  Sn31  1  0.16699098  0.16797971  0.83236438  1
  Sn  Sn32  1  0.16674894  0.49903903  0.83369581  1
  Sn  Sn33  1  0.16673299  0.16684151  0.50074666  1
  Sn  Sn34  1  0.16649005  0.50117529  0.16595374  1
  Sn  Sn35  1  0.83341099  0.49930827  0.16638724  1
  Sn  Sn36  1  0.50019057  0.49990809  0.50034256  1
  Sn  Sn37  1  0.16730556  0.83261789  0.16679109  1
  Sn  Sn38  1  0.49958448  0.16705299  0.83370247  1
  Sn  Sn39  1  0.83256055  0.16666650  0.16669069  1
  Pb  Pb40  1  0.16828305  0.49835320  0.50009872  1
  Pb  Pb41  1  0.83565261  0.16674709  0.49682161  1
  Pb  Pb42  1  0.16558154  0.16707212  0.16625274  1
  Pb  Pb43  1  0.49969181  0.83080302  0.50319941  1
  Pb  Pb44  1  0.83404032  0.50181027  0.83485407  1
  Pb  Pb45  1  0.50269121  0.16873395  0.16441676  1
  Pb  Pb46  1  0.83021545  0.49997330  0.49651448  1
  Pb  Pb47  1  0.49751123  0.83103535  0.16448263  1
  Pb  Pb48  1  0.83339491  0.83332939  0.50333494  1
  Pb  Pb49  1  0.83365022  0.16477112  0.83495141  1
  Pb  Pb50  1  0.16684190  0.83309897  0.83431369  1
  Pb  Pb51  1  0.49819517  0.16893625  0.50274665  1
  Pb  Pb52  1  0.83492244  0.83300142  0.16530748  1
  Pb  Pb53  1  0.16723172  0.83648360  0.49640429  1
  I  I54  1  0.16236308  -0.00156246  0.16467448  1
  I  I55  1  0.16653104  0.00405477  0.50744314  1
  I  I56  1  0.16972752  0.00248459  0.83275524  1
  I  I57  1  0.16831213  0.33659369  0.16523474  1
  I  I58  1  0.16849689  0.33071378  0.49962558  1
  I  I59  1  0.17458149  0.33405178  0.83659259  1
  I  I60  1  0.16529305  0.66414194  0.15956383  1
  I  I61  1  0.16736256  0.66648561  0.50247379  1
  I  I62  1  0.17039549  0.66364644  0.83738353  1
  I  I63  1  0.49933778  -0.00004258  0.16459066  1
  I  I64  1  0.49920965  0.00023338  0.50041072  1
  I  I65  1  0.49866966  0.00040141  0.83455906  1
  I  I66  1  0.49417210  0.33747399  0.16390199  1
  I  I67  1  0.49822786  0.33679042  0.50066453  1
  I  I68  1  0.49440283  0.33454856  0.83450934  1
  I  I69  1  0.50481539  0.66229225  0.16371928  1
  I  I70  1  0.49814368  0.66263970  0.50058812  1
  I  I71  1  0.49973482  0.66509983  0.83421191  1
  I  I72  1  0.83891295  0.00197474  0.16306501  1
  I  I73  1  0.83340694  0.00019699  0.49662173  1
  I  I74  1  0.82992803  -0.00281625  0.83801944  1
  I  I75  1  0.83624373  0.33484674  0.16400361  1
  I  I76  1  0.83296184  0.33343731  0.50344535  1
  I  I77  1  0.83122282  0.33347754  0.83391042  1
  I  I78  1  0.83125911  0.66351181  0.16428072  1
  I  I79  1  0.83484464  0.66641370  0.49796894  1
  I  I80  1  0.82875976  0.66929995  0.83786412  1
  I  I81  1  0.16934164  0.16784251  -0.00287481  1
  I  I82  1  0.16354664  0.16735822  0.33485530  1
  I  I83  1  0.17065360  0.17159932  0.66899504  1
  I  I84  1  0.17136787  0.49797746  -0.00009308  1
  I  I85  1  0.16776016  0.50147536  0.33010601  1
  I  I86  1  0.17214349  0.49892217  0.66994979  1
  I  I87  1  0.16648864  0.83279112  0.00214791  1
  I  I88  1  0.16384969  0.82588579  0.32866084  1
  I  I89  1  0.16605330  0.83089888  0.66673518  1
  I  I90  1  0.49265780  0.16895657  -0.00391312  1
  I  I91  1  0.49826295  0.16894082  0.33329575  1
  I  I92  1  0.49925852  0.16880657  0.67114125  1
  I  I93  1  0.49893013  0.50012784  -0.00071919  1
  I  I94  1  0.49887646  0.49900327  0.33216596  1
  I  I95  1  0.49388393  0.50103837  0.66874774  1
  I  I96  1  0.50283043  0.83072235  -0.00372010  1
  I  I97  1  0.49923267  0.83230004  0.33315526  1
  I  I98  1  0.50188020  0.83114845  0.67158268  1
  I  I99  1  0.83643101  0.17133110  0.00251934  1
  I  I100  1  0.83697496  0.17222608  0.32894955  1
  I  I101  1  0.83194560  0.16480200  0.66685364  1
  I  I102  1  0.82990093  0.49745081  0.00307187  1
  I  I103  1  0.83642011  0.49648792  0.32815377  1
  I  I104  1  0.83350017  0.50184878  0.66671780  1
  I  I105  1  0.82949410  0.83300102  -0.00246126  1
  I  I106  1  0.83533440  0.83344948  0.33304673  1
  I  I107  1  0.83022889  0.83342870  0.67146074  1
  I  I108  1  -0.00200448  0.17224859  0.16421000  1
  I  I109  1  0.00359350  0.16871093  0.50793658  1
  I  I110  1  0.00319532  0.16966600  0.83217379  1
  I  I111  1  0.00108388  0.49922691  0.16046776  1
  I  I112  1  0.00007848  0.49926656  0.50052872  1
  I  I113  1  0.00332105  0.49683986  0.83934372  1
  I  I114  1  0.00267866  0.82866462  0.16204103  1
  I  I115  1  0.00046970  0.83214919  0.50274861  1
  I  I116  1  -0.00159348  0.83409833  0.83766988  1
  I  I117  1  0.33349105  0.16645712  0.16794469  1
  I  I118  1  0.33034630  0.16771192  0.49951743  1
  I  I119  1  0.33307759  0.16587966  0.83151276  1
  I  I120  1  0.33317637  0.50443746  0.16453415  1
  I  I121  1  0.33614239  0.49887646  0.49684660  1
  I  I122  1  0.33405116  0.50104826  0.83797519  1
  I  I123  1  0.32984171  0.82913430  0.16308750  1
  I  I124  1  0.33340344  0.83250475  0.50264122  1
  I  I125  1  0.33597423  0.83230374  0.83509914  1
  I  I126  1  0.67009295  0.17299114  0.16301955  1
  I  I127  1  0.66638166  0.16791780  0.50082972  1
  I  I128  1  0.66382242  0.17018649  0.83617833  1
  I  I129  1  0.66601617  0.49456310  0.16478309  1
  I  I130  1  0.66223618  0.49843959  0.50425453  1
  I  I131  1  0.66343001  0.49825986  0.83454877  1
  I  I132  1  0.66635284  0.83213792  0.16587660  1
  I  I133  1  0.66637106  0.83364607  0.49595500  1
  I  I134  1  0.66532309  0.83196319  0.83603453  1
