# generated using pymatgen
data_Cs27Sn13Pb14I81
_symmetry_space_group_name_H-M   'P 1'
_cell_length_a   18.97523606
_cell_length_b   18.97967772
_cell_length_c   18.97500945
_cell_angle_alpha   89.99921070
_cell_angle_beta   90.00105255
_cell_angle_gamma   90.00117580
_symmetry_Int_Tables_number   1
_chemical_formula_structural   Cs27Sn13Pb14I81
_chemical_formula_sum   'Cs27 Sn13 Pb14 I81'
_cell_volume   6833.73324330
_cell_formula_units_Z   1
loop_
 _symmetry_equiv_pos_site_id
 _symmetry_equiv_pos_as_xyz
  1  'x, y, z'
loop_
 _atom_site_type_symbol
 _atom_site_label
 _atom_site_symmetry_multiplicity
 _atom_site_fract_x
 _atom_site_fract_y
 _atom_site_fract_z
 _atom_site_occupancy
  Cs  Cs0  1  -0.00792476  0.00147611  0.00155061  1
  Cs  Cs1  1  -0.00066155  -0.00485379  0.32983376  1
  Cs  Cs2  1  -0.00189884  0.00548071  0.66863458  1
  Cs  Cs3  1  0.00169174  0.33003478  -0.00080809  1
  Cs  Cs4  1  0.00284825  0.33842431  0.33728163  1
  Cs  Cs5  1  0.00151037  0.33064967  0.66370597  1
  Cs  Cs6  1  0.00129439  0.66962668  0.00227108  1
  Cs  Cs7  1  0.00822427  0.66667521  0.33301300  1
  Cs  Cs8  1  -0.00241304  0.66460386  0.66482899  1
  Cs  Cs9  1  0.33386459  0.00048528  -0.00080888  1
  Cs  Cs10  1  0.33345271  0.00105397  0.34204342  1
  Cs  Cs11  1  0.33188478  0.00038608  0.66155465  1
  Cs  Cs12  1  0.33378124  0.33382920  -0.00028062  1
  Cs  Cs13  1  0.33093346  0.32924836  0.33214285  1
  Cs  Cs14  1  0.33172115  0.32999042  0.66936689  1
  Cs  Cs15  1  0.33419193  0.66567938  -0.00086263  1
  Cs  Cs16  1  0.32674995  0.67005353  0.33201213  1
  Cs  Cs17  1  0.33672922  0.66937764  0.67063603  1
  Cs  Cs18  1  0.67276781  0.00039873  0.00277019  1
  Cs  Cs19  1  0.66638732  0.00446696  0.33411949  1
  Cs  Cs20  1  0.66892018  -0.00223782  0.66408936  1
  Cs  Cs21  1  0.66501516  0.33407030  0.00200844  1
  Cs  Cs22  1  0.66675841  0.33188420  0.33174277  1
  Cs  Cs23  1  0.66708560  0.33785377  0.66653199  1
  Cs  Cs24  1  0.66523754  0.66624860  -0.00113147  1
  Cs  Cs25  1  0.66657750  0.66493945  0.33469161  1
  Cs  Cs26  1  0.66673038  0.66562924  0.66711037  1
  Sn  Sn27  1  0.50009554  0.83292120  0.16622616  1
  Sn  Sn28  1  0.16690220  0.16634869  0.16631318  1
  Sn  Sn29  1  0.16690878  0.83302541  0.83342971  1
  Sn  Sn30  1  0.83322986  0.83381024  0.49987066  1
  Sn  Sn31  1  0.49941675  0.50011843  0.49950496  1
  Sn  Sn32  1  0.49956602  0.83381930  0.83423135  1
  Sn  Sn33  1  0.49997873  0.50003721  0.83355341  1
  Sn  Sn34  1  0.83302477  0.50031966  0.16586517  1
  Sn  Sn35  1  0.16656226  0.50080735  0.83345155  1
  Sn  Sn36  1  0.83363851  0.49993741  0.83445655  1
  Sn  Sn37  1  0.50059749  0.16602916  0.83339194  1
  Sn  Sn38  1  0.50038636  0.50090248  0.16698158  1
  Sn  Sn39  1  0.83300343  0.16587358  0.49989518  1
  Pb  Pb40  1  0.16721668  0.49897646  0.16435438  1
  Pb  Pb41  1  0.16399121  0.83324727  0.50320059  1
  Pb  Pb42  1  0.16935364  0.83567529  0.16407915  1
  Pb  Pb43  1  0.16847415  0.16609212  0.83465057  1
  Pb  Pb44  1  0.83533992  0.16943751  0.16876649  1
  Pb  Pb45  1  0.17026006  0.50020063  0.50312220  1
  Pb  Pb46  1  0.16418742  0.16652408  0.49745373  1
  Pb  Pb47  1  0.83309262  0.83122116  0.83220699  1
  Pb  Pb48  1  0.83092623  0.83068077  0.16887979  1
  Pb  Pb49  1  0.50128227  0.83139727  0.49997283  1
  Pb  Pb50  1  0.50163506  0.16913193  0.50251252  1
  Pb  Pb51  1  0.83079724  0.16944678  0.83194738  1
  Pb  Pb52  1  0.49883066  0.16649861  0.16492375  1
  Pb  Pb53  1  0.83197344  0.50021287  0.49959229  1
  I  I54  1  0.16787833  0.00284024  0.16374336  1
  I  I55  1  0.17008704  -0.00010378  0.50243485  1
  I  I56  1  0.17289331  -0.00290466  0.83416471  1
  I  I57  1  0.16867503  0.33152531  0.16353766  1
  I  I58  1  0.16351300  0.33352660  0.50241464  1
  I  I59  1  0.16871138  0.33612714  0.83484258  1
  I  I60  1  0.16480390  0.66681078  0.16761397  1
  I  I61  1  0.16221989  0.66654287  0.49632451  1
  I  I62  1  0.17258169  0.66572319  0.83402117  1
  I  I63  1  0.49805152  -0.00278961  0.16079453  1
  I  I64  1  0.50037267  -0.00004319  0.50044481  1
  I  I65  1  0.49461470  -0.00131396  0.83762659  1
  I  I66  1  0.50239245  0.33670183  0.16482367  1
  I  I67  1  0.50409860  0.33715818  0.50062863  1
  I  I68  1  0.50006189  0.33550659  0.83304257  1
  I  I69  1  0.50349615  0.66521112  0.16125582  1
  I  I70  1  0.50487967  0.66351953  0.50566508  1
  I  I71  1  0.49940356  0.66543534  0.83338959  1
  I  I72  1  0.83292343  -0.00009835  0.16644843  1
  I  I73  1  0.83137109  -0.00016705  0.50185868  1
  I  I74  1  0.83325765  0.00003224  0.83262171  1
  I  I75  1  0.82580361  0.33729985  0.16467379  1
  I  I76  1  0.83115744  0.33190284  0.50068414  1
  I  I77  1  0.83256731  0.33773091  0.83360255  1
  I  I78  1  0.83148021  0.66268141  0.16440035  1
  I  I79  1  0.83018156  0.66829219  0.50206758  1
  I  I80  1  0.82806923  0.66300315  0.83284356  1
  I  I81  1  0.16771291  0.16891405  0.00205202  1
  I  I82  1  0.16925630  0.16901802  0.32987506  1
  I  I83  1  0.16680883  0.16755668  0.66686026  1
  I  I84  1  0.17153964  0.50224349  -0.00374002  1
  I  I85  1  0.16554951  0.49783532  0.33311162  1
  I  I86  1  0.16521635  0.50181265  0.67154539  1
  I  I87  1  0.16860518  0.82803708  -0.00383105  1
  I  I88  1  0.16747466  0.83462871  0.33309577  1
  I  I89  1  0.17532484  0.82942162  0.67115600  1
  I  I90  1  0.49907690  0.17242857  -0.00313002  1
  I  I91  1  0.49933018  0.16753301  0.33337495  1
  I  I92  1  0.49908949  0.16777139  0.67064145  1
  I  I93  1  0.50084492  0.50040455  -0.00119661  1
  I  I94  1  0.50767890  0.50388536  0.33201044  1
  I  I95  1  0.50144887  0.50017134  0.66877344  1
  I  I96  1  0.49705285  0.82739500  -0.00141396  1
  I  I97  1  0.50270134  0.82775742  0.33061181  1
  I  I98  1  0.49811521  0.83109141  0.67007550  1
  I  I99  1  0.83374725  0.16650973  0.00006388  1
  I  I100  1  0.83177817  0.16537551  0.33639926  1
  I  I101  1  0.83280809  0.16576707  0.66415194  1
  I  I102  1  0.82712038  0.50004975  -0.00081848  1
  I  I103  1  0.82678615  0.49879599  0.33081866  1
  I  I104  1  0.83092838  0.50040382  0.66930856  1
  I  I105  1  0.83478934  0.83365777  0.00007642  1
  I  I106  1  0.83019806  0.83508902  0.33644858  1
  I  I107  1  0.83067658  0.83344685  0.66443868  1
  I  I108  1  0.00280755  0.16840496  0.16446724  1
  I  I109  1  -0.00366588  0.16577009  0.50247727  1
  I  I110  1  -0.00018535  0.16755888  0.83293765  1
  I  I111  1  -0.00236638  0.49692903  0.16282777  1
  I  I112  1  0.00005318  0.49922967  0.50046505  1
  I  I113  1  -0.00016946  0.50472667  0.83758577  1
  I  I114  1  -0.00000581  0.83294081  0.16661409  1
  I  I115  1  -0.00385351  0.83503805  0.50103024  1
  I  I116  1  0.00238308  0.82764716  0.83041552  1
  I  I117  1  0.33133371  0.17049324  0.16434191  1
  I  I118  1  0.33349659  0.16845461  0.50015861  1
  I  I119  1  0.33652158  0.17280909  0.83421767  1
  I  I120  1  0.33682895  0.50184923  0.16504881  1
  I  I121  1  0.33822028  0.50037273  0.49916345  1
  I  I122  1  0.33501110  0.50038176  0.83313762  1
  I  I123  1  0.33738564  0.82517716  0.16487904  1
  I  I124  1  0.33346321  0.83164619  0.49859689  1
  I  I125  1  0.33506720  0.82714400  0.83641939  1
  I  I126  1  0.66669962  0.16615719  0.16667349  1
  I  I127  1  0.66932231  0.16395841  0.49984804  1
  I  I128  1  0.66273015  0.16731046  0.83408052  1
  I  I129  1  0.66520411  0.50207633  0.16156722  1
  I  I130  1  0.66408871  0.50045932  0.50569379  1
  I  I131  1  0.66511391  0.49994526  0.83296891  1
  I  I132  1  0.66287760  0.83185393  0.15876640  1
  I  I133  1  0.66900446  0.83515298  0.50324712  1
  I  I134  1  0.66329676  0.83119324  0.83475926  1
