# generated using pymatgen
data_Cs27Sn13Pb14I81
_symmetry_space_group_name_H-M   'P 1'
_cell_length_a   18.97656489
_cell_length_b   18.97227680
_cell_length_c   18.98069321
_cell_angle_alpha   90.00259425
_cell_angle_beta   89.99949264
_cell_angle_gamma   90.00166759
_symmetry_Int_Tables_number   1
_chemical_formula_structural   Cs27Sn13Pb14I81
_chemical_formula_sum   'Cs27 Sn13 Pb14 I81'
_cell_volume   6833.59318558
_cell_formula_units_Z   1
loop_
 _symmetry_equiv_pos_site_id
 _symmetry_equiv_pos_as_xyz
  1  'x, y, z'
loop_
 _atom_site_type_symbol
 _atom_site_label
 _atom_site_symmetry_multiplicity
 _atom_site_fract_x
 _atom_site_fract_y
 _atom_site_fract_z
 _atom_site_occupancy
  Cs  Cs0  1  -0.00149765  -0.00132538  0.00031010  1
  Cs  Cs1  1  0.00228679  -0.00081587  0.33376256  1
  Cs  Cs2  1  0.00098822  -0.00156981  0.66578470  1
  Cs  Cs3  1  -0.00163200  0.33443902  0.00781770  1
  Cs  Cs4  1  0.00021880  0.33048043  0.32889432  1
  Cs  Cs5  1  -0.00031422  0.33564090  0.66602585  1
  Cs  Cs6  1  0.00108820  0.66641441  -0.00161124  1
  Cs  Cs7  1  -0.00218090  0.66991115  0.33462572  1
  Cs  Cs8  1  -0.00060127  0.66648019  0.66750614  1
  Cs  Cs9  1  0.33669008  -0.00248039  -0.00332867  1
  Cs  Cs10  1  0.33125907  0.00417608  0.33173202  1
  Cs  Cs11  1  0.33206185  0.00113471  0.66992466  1
  Cs  Cs12  1  0.32882732  0.33785279  0.00004085  1
  Cs  Cs13  1  0.33452444  0.32998549  0.33249776  1
  Cs  Cs14  1  0.33242886  0.33449275  0.66551066  1
  Cs  Cs15  1  0.33250779  0.66618663  0.00161184  1
  Cs  Cs16  1  0.34268599  0.66534092  0.33318674  1
  Cs  Cs17  1  0.33332787  0.66424423  0.66692224  1
  Cs  Cs18  1  0.66430963  0.00317694  -0.00367979  1
  Cs  Cs19  1  0.66478396  -0.00196958  0.33638798  1
  Cs  Cs20  1  0.66522854  0.00055567  0.66828954  1
  Cs  Cs21  1  0.67155108  0.32941680  -0.00074243  1
  Cs  Cs22  1  0.66572375  0.33513146  0.33223343  1
  Cs  Cs23  1  0.66707449  0.33280327  0.66759327  1
  Cs  Cs24  1  0.66634122  0.66662976  0.00213570  1
  Cs  Cs25  1  0.65891860  0.66537526  0.33502742  1
  Cs  Cs26  1  0.66823489  0.66563396  0.66382358  1
  Sn  Sn27  1  0.50022901  0.16662063  0.16681389  1
  Sn  Sn28  1  0.83348097  0.83316885  0.16590081  1
  Sn  Sn29  1  0.83386382  0.83266073  0.83403842  1
  Sn  Sn30  1  0.16679108  0.83213614  0.49999995  1
  Sn  Sn31  1  0.16617732  0.83312996  0.16661177  1
  Sn  Sn32  1  0.50094772  0.16674287  0.49972185  1
  Sn  Sn33  1  0.16583907  0.16646678  0.83345937  1
  Sn  Sn34  1  0.16579722  0.50077351  0.49966930  1
  Sn  Sn35  1  0.50129143  0.50019266  0.83334528  1
  Sn  Sn36  1  0.16575597  0.83405607  0.83338818  1
  Sn  Sn37  1  0.83281205  0.16738432  0.50027984  1
  Sn  Sn38  1  0.83261924  0.50073884  0.83281678  1
  Sn  Sn39  1  0.83434236  0.49916671  0.50037835  1
  Pb  Pb40  1  0.83550467  0.16672036  0.83157095  1
  Pb  Pb41  1  0.50034810  0.83090324  0.83318104  1
  Pb  Pb42  1  0.50028061  0.83524087  0.16653801  1
  Pb  Pb43  1  0.49794576  0.16897016  0.83316676  1
  Pb  Pb44  1  0.83461159  0.83301344  0.50025317  1
  Pb  Pb45  1  0.49656983  0.83608951  0.50032385  1
  Pb  Pb46  1  0.50029317  0.49786887  0.50144910  1
  Pb  Pb47  1  0.16559624  0.50051313  0.83206529  1
  Pb  Pb48  1  0.16656168  0.50291541  0.17037889  1
  Pb  Pb49  1  0.16829489  0.16426143  0.16379057  1
  Pb  Pb50  1  0.83156847  0.16379643  0.16942829  1
  Pb  Pb51  1  0.83335873  0.50249244  0.16710812  1
  Pb  Pb52  1  0.50027390  0.49721524  0.16364394  1
  Pb  Pb53  1  0.16631666  0.16686168  0.50121116  1
  I  I54  1  0.16297079  -0.00389456  0.17235493  1
  I  I55  1  0.16638026  -0.00272749  0.49948465  1
  I  I56  1  0.16315455  -0.00199429  0.82999670  1
  I  I57  1  0.16847870  0.33318152  0.16553510  1
  I  I58  1  0.16619166  0.33557874  0.50517639  1
  I  I59  1  0.16884480  0.33175363  0.82871283  1
  I  I60  1  0.16332719  0.67121296  0.15949773  1
  I  I61  1  0.16003690  0.66705439  0.50336269  1
  I  I62  1  0.16569912  0.66983039  0.83434412  1
  I  I63  1  0.49910771  0.00294439  0.17035901  1
  I  I64  1  0.50551196  0.00402623  0.49792099  1
  I  I65  1  0.50077646  0.00023727  0.83319692  1
  I  I66  1  0.49943573  0.32961763  0.17224456  1
  I  I67  1  0.49817895  0.33011918  0.49762278  1
  I  I68  1  0.50403820  0.33650086  0.83224151  1
  I  I69  1  0.49928603  0.66669178  0.16621348  1
  I  I70  1  0.50164517  0.66638618  0.50063880  1
  I  I71  1  0.49869908  0.66318936  0.83178699  1
  I  I72  1  0.83789642  -0.00395940  0.16170158  1
  I  I73  1  0.83140639  0.00199955  0.49996799  1
  I  I74  1  0.83661303  -0.00286324  0.83509431  1
  I  I75  1  0.83179189  0.33311353  0.16411872  1
  I  I76  1  0.83544845  0.33434755  0.50659347  1
  I  I77  1  0.83098853  0.33608616  0.82939391  1
  I  I78  1  0.83804655  0.67056299  0.16662320  1
  I  I79  1  0.83695819  0.66406850  0.50202556  1
  I  I80  1  0.83567977  0.66693756  0.83077734  1
  I  I81  1  0.16860434  0.16273219  -0.00395530  1
  I  I82  1  0.16632066  0.16551248  0.33330432  1
  I  I83  1  0.16889085  0.16047337  0.66886734  1
  I  I84  1  0.16754324  0.49933275  -0.00000281  1
  I  I85  1  0.16094640  0.50280655  0.33845799  1
  I  I86  1  0.16570244  0.50477899  0.66411028  1
  I  I87  1  0.16291135  0.83881537  -0.00086806  1
  I  I88  1  0.16146901  0.82988944  0.33347458  1
  I  I89  1  0.16264762  0.83406597  0.66726592  1
  I  I90  1  0.49732174  0.16662706  0.00194302  1
  I  I91  1  0.50223015  0.16621072  0.33445065  1
  I  I92  1  0.50183800  0.16808824  0.66421783  1
  I  I93  1  0.50421298  0.49881242  -0.00420092  1
  I  I94  1  0.49978913  0.50110653  0.33347042  1
  I  I95  1  0.50056735  0.49748173  0.66916719  1
  I  I96  1  0.49566193  0.83598689  -0.00021302  1
  I  I97  1  0.50121190  0.83082541  0.33348302  1
  I  I98  1  0.49989982  0.83661862  0.66675040  1
  I  I99  1  0.83241989  0.16874479  -0.00005782  1
  I  I100  1  0.83371451  0.17117982  0.33740571  1
  I  I101  1  0.82808909  0.16552332  0.66362292  1
  I  I102  1  0.82980388  0.50210904  -0.00320574  1
  I  I103  1  0.83807317  0.49710823  0.33692242  1
  I  I104  1  0.83337856  0.50258403  0.66676775  1
  I  I105  1  0.84163392  0.82849058  -0.00136448  1
  I  I106  1  0.83886254  0.83528813  0.33150511  1
  I  I107  1  0.83824015  0.83226536  0.66936908  1
  I  I108  1  -0.00009531  0.16747957  0.16743413  1
  I  I109  1  -0.00228599  0.16739787  0.50332251  1
  I  I110  1  0.00316341  0.16546405  0.82963044  1
  I  I111  1  0.00001815  0.49629930  0.16189263  1
  I  I112  1  -0.00084594  0.49859624  0.50724543  1
  I  I113  1  -0.00300940  0.50219323  0.82934681  1
  I  I114  1  0.00064250  0.83400460  0.16570896  1
  I  I115  1  0.00290150  0.83487093  0.50067315  1
  I  I116  1  0.00037370  0.83141858  0.83351551  1
  I  I117  1  0.33600115  0.16484567  0.17420675  1
  I  I118  1  0.33517733  0.16596207  0.49804357  1
  I  I119  1  0.33018456  0.16166530  0.83068304  1
  I  I120  1  0.33331256  0.50252057  0.16522866  1
  I  I121  1  0.33093643  0.50313306  0.50301852  1
  I  I122  1  0.33447635  0.49856237  0.83116579  1
  I  I123  1  0.33012741  0.83486246  0.16590001  1
  I  I124  1  0.32813422  0.82820106  0.50067912  1
  I  I125  1  0.32994409  0.83611061  0.83359662  1
  I  I126  1  0.66379835  0.16434204  0.16684471  1
  I  I127  1  0.66722405  0.17185193  0.49770931  1
  I  I128  1  0.66688930  0.16448233  0.83389810  1
  I  I129  1  0.66683963  0.50417759  0.17108050  1
  I  I130  1  0.66973835  0.49803853  0.50288023  1
  I  I131  1  0.66857223  0.50443982  0.82692475  1
  I  I132  1  0.66981285  0.83456720  0.16152193  1
  I  I133  1  0.66677716  0.83165883  0.49952700  1
  I  I134  1  0.67030726  0.83195275  0.83783211  1
