# generated using pymatgen
data_Cs27Sn14Pb13I81
_symmetry_space_group_name_H-M   'P 1'
_cell_length_a   18.98190146
_cell_length_b   18.97177444
_cell_length_c   18.97271847
_cell_angle_alpha   90.00261516
_cell_angle_beta   89.99849373
_cell_angle_gamma   89.99906841
_symmetry_Int_Tables_number   1
_chemical_formula_structural   Cs27Sn14Pb13I81
_chemical_formula_sum   'Cs27 Sn14 Pb13 I81'
_cell_volume   6832.46206149
_cell_formula_units_Z   1
loop_
 _symmetry_equiv_pos_site_id
 _symmetry_equiv_pos_as_xyz
  1  'x, y, z'
loop_
 _atom_site_type_symbol
 _atom_site_label
 _atom_site_symmetry_multiplicity
 _atom_site_fract_x
 _atom_site_fract_y
 _atom_site_fract_z
 _atom_site_occupancy
  Cs  Cs0  1  -0.00123138  0.00148863  -0.00026718  1
  Cs  Cs1  1  0.00069771  -0.00290870  0.33267619  1
  Cs  Cs2  1  -0.00036313  -0.00138574  0.66789410  1
  Cs  Cs3  1  0.00976499  0.33230620  -0.00314602  1
  Cs  Cs4  1  0.00017546  0.33580134  0.33198731  1
  Cs  Cs5  1  0.00060178  0.33150084  0.67062853  1
  Cs  Cs6  1  -0.00065771  0.66757592  -0.00001263  1
  Cs  Cs7  1  -0.00507883  0.66750161  0.33754663  1
  Cs  Cs8  1  -0.00253486  0.66917552  0.66245911  1
  Cs  Cs9  1  0.33320694  -0.00190458  0.00263038  1
  Cs  Cs10  1  0.33515292  0.00046495  0.33292016  1
  Cs  Cs11  1  0.33799086  -0.00151615  0.66302465  1
  Cs  Cs12  1  0.32415829  0.34155848  -0.00081930  1
  Cs  Cs13  1  0.33225185  0.33302134  0.33577817  1
  Cs  Cs14  1  0.33213086  0.33572056  0.66258930  1
  Cs  Cs15  1  0.33590756  0.66243698  -0.00407991  1
  Cs  Cs16  1  0.33331951  0.66767664  0.33422827  1
  Cs  Cs17  1  0.33401139  0.66561002  0.66901581  1
  Cs  Cs18  1  0.66836328  -0.00169905  0.00101995  1
  Cs  Cs19  1  0.66432846  0.00165203  0.33044961  1
  Cs  Cs20  1  0.66441054  0.00386913  0.66886651  1
  Cs  Cs21  1  0.66719197  0.33402877  0.00121872  1
  Cs  Cs22  1  0.66659835  0.33349475  0.33346873  1
  Cs  Cs23  1  0.66794568  0.32733720  0.66451049  1
  Cs  Cs24  1  0.66439357  0.66633255  -0.00104772  1
  Cs  Cs25  1  0.67042949  0.66379670  0.33261222  1
  Cs  Cs26  1  0.66809392  0.66619364  0.66872465  1
  Sn  Sn27  1  0.83487370  0.16614026  0.49882484  1
  Sn  Sn28  1  0.50011261  0.83364425  0.16750889  1
  Sn  Sn29  1  0.49919697  0.16710887  0.83551283  1
  Sn  Sn30  1  0.50016089  0.16654185  0.16494921  1
  Sn  Sn31  1  0.83323093  0.83403306  0.16586584  1
  Sn  Sn32  1  0.16517544  0.16692686  0.49975128  1
  Sn  Sn33  1  0.16694961  0.49950529  0.49983090  1
  Sn  Sn34  1  0.16675001  0.83331437  0.16583280  1
  Sn  Sn35  1  0.83321053  0.50047478  0.83374122  1
  Sn  Sn36  1  0.83299452  0.16621828  0.16733930  1
  Sn  Sn37  1  0.50061670  0.83197176  0.49915457  1
  Sn  Sn38  1  0.83400678  0.83262847  0.83413240  1
  Sn  Sn39  1  0.16608583  0.83369946  0.83404081  1
  Sn  Sn40  1  0.49990506  0.50138971  0.49975846  1
  Pb  Pb41  1  0.16653509  0.50350553  0.16931554  1
  Pb  Pb42  1  0.16847927  0.83333254  0.49996219  1
  Pb  Pb43  1  0.50001751  0.16671450  0.49899633  1
  Pb  Pb44  1  0.16961569  0.16409621  0.83098124  1
  Pb  Pb45  1  0.83054366  0.83563046  0.50000995  1
  Pb  Pb46  1  0.83344926  0.49946867  0.16415050  1
  Pb  Pb47  1  0.16451917  0.50283255  0.83084122  1
  Pb  Pb48  1  0.50190767  0.49696387  0.83090720  1
  Pb  Pb49  1  0.50034018  0.83448111  0.83401535  1
  Pb  Pb50  1  0.83229924  0.16617461  0.83445936  1
  Pb  Pb51  1  0.16674663  0.16488898  0.16847799  1
  Pb  Pb52  1  0.49999159  0.49970968  0.16868045  1
  Pb  Pb53  1  0.83332007  0.49736145  0.50182210  1
  I  I54  1  0.16695640  -0.00346615  0.16658224  1
  I  I55  1  0.16534710  0.00200274  0.50004070  1
  I  I56  1  0.15911909  -0.00359313  0.83455688  1
  I  I57  1  0.16666906  0.33326259  0.16652152  1
  I  I58  1  0.17052922  0.33303847  0.50006971  1
  I  I59  1  0.16548464  0.33334968  0.83346819  1
  I  I60  1  0.16720588  0.67195237  0.16481626  1
  I  I61  1  0.17034522  0.66475276  0.50021017  1
  I  I62  1  0.16720197  0.67069971  0.83531897  1
  I  I63  1  0.50109168  -0.00086092  0.16998192  1
  I  I64  1  0.49920602  -0.00188892  0.49939836  1
  I  I65  1  0.50278933  0.00223855  0.82974296  1
  I  I66  1  0.50697566  0.32977218  0.16572045  1
  I  I67  1  0.49902828  0.33508944  0.50147694  1
  I  I68  1  0.50386775  0.32923077  0.83630432  1
  I  I69  1  0.50098847  0.67027049  0.16952122  1
  I  I70  1  0.49418583  0.66731628  0.49550820  1
  I  I71  1  0.49872144  0.66662846  0.83393861  1
  I  I72  1  0.83188806  -0.00092500  0.16499006  1
  I  I73  1  0.83731888  0.00341635  0.50133678  1
  I  I74  1  0.83552941  -0.00282353  0.83427271  1
  I  I75  1  0.82636303  0.32967926  0.17065494  1
  I  I76  1  0.83060363  0.32949243  0.49659135  1
  I  I77  1  0.82902426  0.33479194  0.83013781  1
  I  I78  1  0.83242513  0.67027281  0.16527698  1
  I  I79  1  0.83508093  0.66691770  0.49825625  1
  I  I80  1  0.83595476  0.66869001  0.83702281  1
  I  I81  1  0.16434987  0.16735162  0.00005858  1
  I  I82  1  0.16853746  0.16699930  0.33656760  1
  I  I83  1  0.16267041  0.16773092  0.66296823  1
  I  I84  1  0.16563351  0.49814110  -0.00028699  1
  I  I85  1  0.17023954  0.49739463  0.33729984  1
  I  I86  1  0.17127879  0.49779099  0.66311766  1
  I  I87  1  0.16775520  0.83503508  0.00062685  1
  I  I88  1  0.16478528  0.83384216  0.33074938  1
  I  I89  1  0.16322936  0.83361875  0.66873185  1
  I  I90  1  0.50806836  0.15808956  0.00173892  1
  I  I91  1  0.50141676  0.16420923  0.33064738  1
  I  I92  1  0.50130340  0.16538281  0.66769629  1
  I  I93  1  0.50130620  0.50231374  -0.00018273  1
  I  I94  1  0.49742552  0.49913090  0.33694768  1
  I  I95  1  0.49615948  0.50468019  0.66295343  1
  I  I96  1  0.50035084  0.83731533  0.00315145  1
  I  I97  1  0.49881646  0.83689004  0.33218154  1
  I  I98  1  0.49876874  0.83340135  0.66470230  1
  I  I99  1  0.82893147  0.16404757  0.00314437  1
  I  I100  1  0.82992083  0.16125162  0.33244465  1
  I  I101  1  0.83329244  0.16702561  0.66495700  1
  I  I102  1  0.83196268  0.50067218  -0.00353948  1
  I  I103  1  0.83356157  0.50230200  0.33348650  1
  I  I104  1  0.83291937  0.50589650  0.66941679  1
  I  I105  1  0.83183204  0.83568680  0.00087523  1
  I  I106  1  0.83608298  0.83587726  0.33037238  1
  I  I107  1  0.83688630  0.83143217  0.66916230  1
  I  I108  1  -0.00284056  0.16169437  0.16980165  1
  I  I109  1  -0.00030575  0.17129486  0.49557257  1
  I  I110  1  0.00023064  0.16840104  0.83382407  1
  I  I111  1  -0.00005834  0.49960337  0.16977468  1
  I  I112  1  0.00234455  0.49816824  0.50143156  1
  I  I113  1  -0.00317330  0.49974589  0.83110312  1
  I  I114  1  -0.00087660  0.83762207  0.16211875  1
  I  I115  1  -0.00024602  0.83141121  0.49803652  1
  I  I116  1  -0.00089173  0.83079627  0.83958066  1
  I  I117  1  0.33615722  0.16046137  0.16630151  1
  I  I118  1  0.33167894  0.16698693  0.50084071  1
  I  I119  1  0.33722215  0.16349127  0.83654587  1
  I  I120  1  0.33330713  0.49949814  0.16490560  1
  I  I121  1  0.33353683  0.49694288  0.50030963  1
  I  I122  1  0.33316307  0.50065809  0.83328526  1
  I  I123  1  0.33416590  0.83836126  0.16831727  1
  I  I124  1  0.33632402  0.83588754  0.49681472  1
  I  I125  1  0.33148124  0.83666735  0.83486061  1
  I  I126  1  0.66674855  0.15791318  0.16976776  1
  I  I127  1  0.66843613  0.16606188  0.50010388  1
  I  I128  1  0.66447775  0.16372774  0.82982653  1
  I  I129  1  0.66674861  0.50388021  0.16972792  1
  I  I130  1  0.66434343  0.50216741  0.50129038  1
  I  I131  1  0.66945643  0.50781974  0.83113161  1
  I  I132  1  0.66683297  0.83822521  0.16680254  1
  I  I133  1  0.66272630  0.83011601  0.49694262  1
  I  I134  1  0.66933038  0.83169270  0.83553618  1
