# generated using pymatgen
data_Cs27Sn14Pb13I81
_symmetry_space_group_name_H-M   'P 1'
_cell_length_a   18.97029423
_cell_length_b   18.98091553
_cell_length_c   18.97431840
_cell_angle_alpha   89.99930577
_cell_angle_beta   89.99962533
_cell_angle_gamma   89.99925959
_symmetry_Int_Tables_number   1
_chemical_formula_structural   Cs27Sn14Pb13I81
_chemical_formula_sum   'Cs27 Sn14 Pb13 I81'
_cell_volume   6832.15022537
_cell_formula_units_Z   1
loop_
 _symmetry_equiv_pos_site_id
 _symmetry_equiv_pos_as_xyz
  1  'x, y, z'
loop_
 _atom_site_type_symbol
 _atom_site_label
 _atom_site_symmetry_multiplicity
 _atom_site_fract_x
 _atom_site_fract_y
 _atom_site_fract_z
 _atom_site_occupancy
  Cs  Cs0  1  -0.01086894  0.00071363  0.00442674  1
  Cs  Cs1  1  0.00438867  0.00564836  0.32318654  1
  Cs  Cs2  1  0.00173399  -0.00073905  0.66813711  1
  Cs  Cs3  1  -0.00338893  0.33290523  0.00630248  1
  Cs  Cs4  1  -0.00146010  0.33211551  0.32599270  1
  Cs  Cs5  1  0.00206026  0.33397541  0.66568551  1
  Cs  Cs6  1  0.00109783  0.66655648  0.00589476  1
  Cs  Cs7  1  -0.00751139  0.66429029  0.32728955  1
  Cs  Cs8  1  0.00191435  0.66657479  0.66628491  1
  Cs  Cs9  1  0.33394261  -0.00256817  -0.00205861  1
  Cs  Cs10  1  0.33223934  -0.00153677  0.33194302  1
  Cs  Cs11  1  0.33168604  -0.00020471  0.66667725  1
  Cs  Cs12  1  0.33667836  0.33545876  -0.00294433  1
  Cs  Cs13  1  0.33341750  0.33145008  0.33537576  1
  Cs  Cs14  1  0.33389194  0.33373958  0.66696703  1
  Cs  Cs15  1  0.33248567  0.66577536  -0.00223788  1
  Cs  Cs16  1  0.33404728  0.67028519  0.33224947  1
  Cs  Cs17  1  0.33194940  0.66587681  0.66792984  1
  Cs  Cs18  1  0.67378026  0.00127316  -0.00012862  1
  Cs  Cs19  1  0.66481806  -0.00837288  0.33605389  1
  Cs  Cs20  1  0.66947902  -0.00061042  0.66619700  1
  Cs  Cs21  1  0.66302919  0.33178460  -0.00106386  1
  Cs  Cs22  1  0.66614872  0.33498610  0.33597572  1
  Cs  Cs23  1  0.66555316  0.33353873  0.66599839  1
  Cs  Cs24  1  0.66591288  0.66827250  -0.00068493  1
  Cs  Cs25  1  0.67270718  0.67379067  0.33681642  1
  Cs  Cs26  1  0.66913126  0.66674205  0.66381348  1
  Sn  Sn27  1  0.83287278  0.16672843  0.50043300  1
  Sn  Sn28  1  0.49979710  0.16723389  0.16677802  1
  Sn  Sn29  1  0.49969104  0.49967136  0.16737378  1
  Sn  Sn30  1  0.16637218  0.49975227  0.83272935  1
  Sn  Sn31  1  0.83358544  0.49988339  0.83305452  1
  Sn  Sn32  1  0.16647436  0.83208784  0.50046607  1
  Sn  Sn33  1  0.16693714  0.16672222  0.83340769  1
  Sn  Sn34  1  0.50085803  0.16708593  0.50009681  1
  Sn  Sn35  1  0.50010272  0.50031370  0.83284730  1
  Sn  Sn36  1  0.16733866  0.83346557  0.83283956  1
  Sn  Sn37  1  0.49965152  0.83343658  0.83281661  1
  Sn  Sn38  1  0.16731673  0.50089734  0.50025950  1
  Sn  Sn39  1  0.49921051  0.49981778  0.49979981  1
  Sn  Sn40  1  0.49936665  0.16611000  0.83310411  1
  Pb  Pb41  1  0.83760603  0.83642202  0.50039042  1
  Pb  Pb42  1  0.16695286  0.83314989  0.16605508  1
  Pb  Pb43  1  0.49990350  0.83330049  0.16366600  1
  Pb  Pb44  1  0.16715113  0.16715260  0.50152778  1
  Pb  Pb45  1  0.83374561  0.49847779  0.50169046  1
  Pb  Pb46  1  0.83309397  0.83324678  0.16670896  1
  Pb  Pb47  1  0.49825749  0.83321338  0.50237967  1
  Pb  Pb48  1  0.82955543  0.49980524  0.16381517  1
  Pb  Pb49  1  0.82946846  0.16702789  0.16997635  1
  Pb  Pb50  1  0.83320100  0.16885973  0.83171559  1
  Pb  Pb51  1  0.83403221  0.83051500  0.83300051  1
  Pb  Pb52  1  0.16929065  0.49993252  0.16698949  1
  Pb  Pb53  1  0.16975035  0.16690300  0.16272145  1
  I  I54  1  0.16973936  0.00018251  0.16895950  1
  I  I55  1  0.16695064  -0.00183633  0.50615040  1
  I  I56  1  0.17630826  -0.00010789  0.82781911  1
  I  I57  1  0.16463394  0.33337914  0.16787303  1
  I  I58  1  0.16896226  0.33618403  0.50589751  1
  I  I59  1  0.17093770  0.33419537  0.82864341  1
  I  I60  1  0.17015388  0.66638539  0.16179421  1
  I  I61  1  0.17383700  0.66522164  0.51023935  1
  I  I62  1  0.17085075  0.66584325  0.82926736  1
  I  I63  1  0.49944808  0.00326762  0.16721546  1
  I  I64  1  0.50217974  0.00291858  0.50011952  1
  I  I65  1  0.49255878  0.00098173  0.83301124  1
  I  I66  1  0.49937816  0.33352869  0.16119851  1
  I  I67  1  0.49815139  0.33383085  0.50429289  1
  I  I68  1  0.49794688  0.33370579  0.83356446  1
  I  I69  1  0.49893419  0.66344819  0.16486967  1
  I  I70  1  0.49776874  0.66344687  0.50075774  1
  I  I71  1  0.49756433  0.66520192  0.83417509  1
  I  I72  1  0.83188758  0.00064830  0.16498467  1
  I  I73  1  0.82460501  0.00395328  0.50248350  1
  I  I74  1  0.83309515  0.00020000  0.83316239  1
  I  I75  1  0.83658130  0.33333483  0.16614671  1
  I  I76  1  0.83190397  0.33074108  0.50279464  1
  I  I77  1  0.83209016  0.33655163  0.83164893  1
  I  I78  1  0.83126819  0.66608115  0.16661421  1
  I  I79  1  0.83034500  0.66663599  0.50087541  1
  I  I80  1  0.83052601  0.66261332  0.83170474  1
  I  I81  1  0.17182731  0.16785875  -0.00562880  1
  I  I82  1  0.16621044  0.16566695  0.33330664  1
  I  I83  1  0.17274796  0.16724261  0.66987462  1
  I  I84  1  0.16785257  0.50093948  -0.00393730  1
  I  I85  1  0.17176102  0.50410821  0.33699200  1
  I  I86  1  0.17176584  0.50029686  0.66804834  1
  I  I87  1  0.17215710  0.83126797  -0.00435461  1
  I  I88  1  0.16732697  0.82943622  0.33657762  1
  I  I89  1  0.17124075  0.83224844  0.66825269  1
  I  I90  1  0.49434686  0.17034746  -0.00153792  1
  I  I91  1  0.50444352  0.17489886  0.33423737  1
  I  I92  1  0.49983203  0.17018481  0.66730519  1
  I  I93  1  0.50001881  0.49724414  -0.00192937  1
  I  I94  1  0.49415342  0.49116383  0.33460806  1
  I  I95  1  0.49907038  0.49680709  0.66752179  1
  I  I96  1  0.49310790  0.83172096  -0.00479116  1
  I  I97  1  0.49848884  0.83365292  0.33364523  1
  I  I98  1  0.49749455  0.83321166  0.67060301  1
  I  I99  1  0.83399774  0.16694831  0.00008400  1
  I  I100  1  0.83110853  0.16866840  0.33762382  1
  I  I101  1  0.82585178  0.16829182  0.66427988  1
  I  I102  1  0.83533486  0.49902524  -0.00441497  1
  I  I103  1  0.83412759  0.49902215  0.33338034  1
  I  I104  1  0.82808331  0.49854411  0.66962662  1
  I  I105  1  0.83417021  0.83427146  -0.00069260  1
  I  I106  1  0.83273643  0.83191933  0.33400305  1
  I  I107  1  0.83017512  0.83393622  0.66673584  1
  I  I108  1  -0.00017963  0.16508184  0.16716635  1
  I  I109  1  -0.00142457  0.16637523  0.50534579  1
  I  I110  1  0.00282486  0.16679224  0.82876550  1
  I  I111  1  -0.00009632  0.50115641  0.16627141  1
  I  I112  1  0.00327814  0.50182980  0.50734546  1
  I  I113  1  0.00160291  0.49976785  0.82661835  1
  I  I114  1  0.00030335  0.83383329  0.16433869  1
  I  I115  1  0.00527456  0.82727596  0.51027231  1
  I  I116  1  0.00393233  0.83396586  0.82889986  1
  I  I117  1  0.33770278  0.17100587  0.17238578  1
  I  I118  1  0.33669256  0.16828980  0.49920509  1
  I  I119  1  0.33483531  0.17050013  0.83106710  1
  I  I120  1  0.33735947  0.49576711  0.16081013  1
  I  I121  1  0.33442092  0.49713723  0.50548151  1
  I  I122  1  0.33413578  0.49975247  0.83334377  1
  I  I123  1  0.33364920  0.83417891  0.16813017  1
  I  I124  1  0.33033080  0.83421128  0.50354915  1
  I  I125  1  0.33335597  0.83009154  0.83043960  1
  I  I126  1  0.66170652  0.17188225  0.15809653  1
  I  I127  1  0.66373729  0.17321285  0.50268773  1
  I  I128  1  0.66284245  0.16734080  0.83540296  1
  I  I129  1  0.66143723  0.49462724  0.16596150  1
  I  I130  1  0.66323592  0.49673733  0.50199267  1
  I  I131  1  0.66432804  0.49900728  0.83367013  1
  I  I132  1  0.66589565  0.83297844  0.16489167  1
  I  I133  1  0.66672787  0.83122911  0.50074338  1
  I  I134  1  0.66360519  0.83357683  0.83471197  1
