# generated using pymatgen
data_Cs27Sn13Pb14I81
_symmetry_space_group_name_H-M   'P 1'
_cell_length_a   18.97553912
_cell_length_b   18.97466744
_cell_length_c   18.97857369
_cell_angle_alpha   90.00025476
_cell_angle_beta   90.00099318
_cell_angle_gamma   89.99944184
_symmetry_Int_Tables_number   1
_chemical_formula_structural   Cs27Sn13Pb14I81
_chemical_formula_sum   'Cs27 Sn13 Pb14 I81'
_cell_volume   6833.32170052
_cell_formula_units_Z   1
loop_
 _symmetry_equiv_pos_site_id
 _symmetry_equiv_pos_as_xyz
  1  'x, y, z'
loop_
 _atom_site_type_symbol
 _atom_site_label
 _atom_site_symmetry_multiplicity
 _atom_site_fract_x
 _atom_site_fract_y
 _atom_site_fract_z
 _atom_site_occupancy
  Cs  Cs0  1  -0.00187887  0.00141952  -0.00095985  1
  Cs  Cs1  1  0.00049223  -0.00070590  0.32903284  1
  Cs  Cs2  1  0.00112476  -0.00200798  0.66923574  1
  Cs  Cs3  1  0.00009757  0.33223666  -0.00262987  1
  Cs  Cs4  1  -0.00465506  0.33226368  0.33838182  1
  Cs  Cs5  1  -0.00048918  0.33660707  0.66780976  1
  Cs  Cs6  1  -0.00057244  0.66601522  -0.00155487  1
  Cs  Cs7  1  0.00815522  0.66968584  0.33730840  1
  Cs  Cs8  1  0.00000652  0.66650814  0.66605136  1
  Cs  Cs9  1  0.33618936  0.00099459  -0.00190796  1
  Cs  Cs10  1  0.32893244  0.00138410  0.33440100  1
  Cs  Cs11  1  0.33550866  0.00103144  0.66697994  1
  Cs  Cs12  1  0.33201297  0.33407445  0.00303710  1
  Cs  Cs13  1  0.33440072  0.33183206  0.32772961  1
  Cs  Cs14  1  0.33463217  0.33195959  0.66736229  1
  Cs  Cs15  1  0.33652148  0.66304701  0.00897570  1
  Cs  Cs16  1  0.32942308  0.66725586  0.32813842  1
  Cs  Cs17  1  0.33266449  0.66686456  0.66504056  1
  Cs  Cs18  1  0.66688710  -0.00390460  -0.00057761  1
  Cs  Cs19  1  0.67143192  0.00177192  0.33333564  1
  Cs  Cs20  1  0.66234420  -0.00167749  0.66674822  1
  Cs  Cs21  1  0.66781785  0.33600199  -0.00073490  1
  Cs  Cs22  1  0.66910612  0.33219480  0.33669288  1
  Cs  Cs23  1  0.66540033  0.33395083  0.66373722  1
  Cs  Cs24  1  0.66502360  0.66614837  0.00136863  1
  Cs  Cs25  1  0.66461331  0.66583884  0.33317696  1
  Cs  Cs26  1  0.66714919  0.66690133  0.66678925  1
  Sn  Sn27  1  0.83237882  0.50015061  0.83393532  1
  Sn  Sn28  1  0.49971559  0.50079607  0.50054825  1
  Sn  Sn29  1  0.83267145  0.83337733  0.50064484  1
  Sn  Sn30  1  0.50031503  0.16620681  0.16638310  1
  Sn  Sn31  1  0.50042893  0.49995811  0.83261988  1
  Sn  Sn32  1  0.83376119  0.83332930  0.83259882  1
  Sn  Sn33  1  0.16663956  0.83365532  0.83360776  1
  Sn  Sn34  1  0.50045007  0.83262396  0.49996975  1
  Sn  Sn35  1  0.16609532  0.16588762  0.83307089  1
  Sn  Sn36  1  0.16701812  0.16678179  0.16627607  1
  Sn  Sn37  1  0.16640308  0.16701037  0.50056935  1
  Sn  Sn38  1  0.83382331  0.50045786  0.16650775  1
  Sn  Sn39  1  0.83335448  0.16651183  0.83295477  1
  Pb  Pb40  1  0.50184457  0.49825582  0.16702104  1
  Pb  Pb41  1  0.49971158  0.83090740  0.83208269  1
  Pb  Pb42  1  0.49834650  0.16656889  0.49807585  1
  Pb  Pb43  1  0.50015546  0.83599595  0.16996902  1
  Pb  Pb44  1  0.16672767  0.50020591  0.83336305  1
  Pb  Pb45  1  0.83541749  0.16403300  0.50286891  1
  Pb  Pb46  1  0.83185650  0.50223046  0.50043693  1
  Pb  Pb47  1  0.16677371  0.83515914  0.50206214  1
  Pb  Pb48  1  0.83343273  0.83069521  0.16641310  1
  Pb  Pb49  1  0.83356897  0.16832602  0.16443437  1
  Pb  Pb50  1  0.16978124  0.49752862  0.50001299  1
  Pb  Pb51  1  0.16658685  0.83576081  0.16313758  1
  Pb  Pb52  1  0.49991552  0.16876189  0.83488056  1
  Pb  Pb53  1  0.16339068  0.49744638  0.16673713  1
  I  I54  1  0.16882133  0.00418973  0.16924134  1
  I  I55  1  0.16887280  0.00316799  0.49872659  1
  I  I56  1  0.15884395  0.00120029  0.83378357  1
  I  I57  1  0.17133485  0.32908875  0.16249387  1
  I  I58  1  0.16714558  0.32919613  0.50346293  1
  I  I59  1  0.16341574  0.32993318  0.83386064  1
  I  I60  1  0.16687366  0.66666221  0.16577534  1
  I  I61  1  0.16499681  0.66701736  0.50234203  1
  I  I62  1  0.16214868  0.66950459  0.83038095  1
  I  I63  1  0.49634317  0.00390519  0.16586582  1
  I  I64  1  0.50253664  -0.00255117  0.49923217  1
  I  I65  1  0.50215955  -0.00003308  0.83281911  1
  I  I66  1  0.49542785  0.33057445  0.16771334  1
  I  I67  1  0.49855738  0.33574775  0.50275956  1
  I  I68  1  0.50444586  0.33661197  0.82785273  1
  I  I69  1  0.50118167  0.66643404  0.16489329  1
  I  I70  1  0.50477184  0.66659374  0.50528101  1
  I  I71  1  0.50429518  0.66305110  0.83210684  1
  I  I72  1  0.83345759  0.00015338  0.16609613  1
  I  I73  1  0.82657797  -0.00373759  0.50484229  1
  I  I74  1  0.83878113  -0.00020071  0.82978573  1
  I  I75  1  0.83328112  0.33605466  0.16042487  1
  I  I76  1  0.83271810  0.33326019  0.50046728  1
  I  I77  1  0.83435000  0.33349121  0.83837927  1
  I  I78  1  0.83008901  0.66300402  0.15942908  1
  I  I79  1  0.83243622  0.67000932  0.50617531  1
  I  I80  1  0.83393754  0.66684988  0.83317351  1
  I  I81  1  0.16618634  0.16328853  -0.00103332  1
  I  I82  1  0.17293762  0.16796053  0.33301321  1
  I  I83  1  0.16277384  0.16291776  0.66812978  1
  I  I84  1  0.17136105  0.49822226  -0.00021956  1
  I  I85  1  0.16601297  0.49863637  0.33334741  1
  I  I86  1  0.16319402  0.49621466  0.66688956  1
  I  I87  1  0.15982712  0.83830118  -0.00489238  1
  I  I88  1  0.16587174  0.83532022  0.33346150  1
  I  I89  1  0.16463310  0.84016738  0.66996493  1
  I  I90  1  0.49440295  0.16958634  0.00246302  1
  I  I91  1  0.49441266  0.16862803  0.33036165  1
  I  I92  1  0.49860854  0.16649988  0.66669176  1
  I  I93  1  0.50237822  0.49805648  -0.00248336  1
  I  I94  1  0.50181054  0.50188861  0.33603104  1
  I  I95  1  0.50600092  0.50135952  0.66717226  1
  I  I96  1  0.50005357  0.83252496  -0.00008052  1
  I  I97  1  0.50566569  0.82670925  0.33804005  1
  I  I98  1  0.50152631  0.83327013  0.66405883  1
  I  I99  1  0.83830484  0.16322774  -0.00386730  1
  I  I100  1  0.83440861  0.16769877  0.33348474  1
  I  I101  1  0.83794170  0.17210971  0.67103773  1
  I  I102  1  0.82775625  0.50077546  -0.00260602  1
  I  I103  1  0.83097828  0.49876759  0.33149623  1
  I  I104  1  0.83141734  0.49818966  0.67000972  1
  I  I105  1  0.83759462  0.83561975  -0.00384780  1
  I  I106  1  0.82859191  0.83235778  0.33629679  1
  I  I107  1  0.83372296  0.83166623  0.66826872  1
  I  I108  1  0.00283973  0.16810881  0.16719514  1
  I  I109  1  0.00335900  0.16541221  0.49489934  1
  I  I110  1  0.00029632  0.16769136  0.83542906  1
  I  I111  1  -0.00423153  0.49840465  0.15812279  1
  I  I112  1  -0.00012162  0.50039455  0.50005168  1
  I  I113  1  -0.00329446  0.49920150  0.83725981  1
  I  I114  1  -0.00005547  0.83488299  0.17177451  1
  I  I115  1  -0.00251516  0.83456071  0.50291764  1
  I  I116  1  -0.00142095  0.83282264  0.82796361  1
  I  I117  1  0.33223744  0.16794717  0.16478733  1
  I  I118  1  0.33035172  0.16485114  0.50533187  1
  I  I119  1  0.33025543  0.16333998  0.83211221  1
  I  I120  1  0.33339541  0.49969852  0.16572889  1
  I  I121  1  0.33787745  0.50603417  0.50656600  1
  I  I122  1  0.33616034  0.49878953  0.82882261  1
  I  I123  1  0.33333337  0.83069349  0.16633669  1
  I  I124  1  0.33581568  0.83132569  0.50199933  1
  I  I125  1  0.33084718  0.83920392  0.83070582  1
  I  I126  1  0.66477445  0.16908425  0.16585732  1
  I  I127  1  0.66678699  0.16782047  0.49898799  1
  I  I128  1  0.66945452  0.16462529  0.83580767  1
  I  I129  1  0.66941714  0.49632480  0.16331221  1
  I  I130  1  0.66382913  0.49978948  0.50176953  1
  I  I131  1  0.66797162  0.49933960  0.83364486  1
  I  I132  1  0.66680600  0.83716821  0.16226275  1
  I  I133  1  0.66700163  0.83084083  0.50660401  1
  I  I134  1  0.66974956  0.83618627  0.83104592  1
