# generated using pymatgen
data_Cs27Sn13Pb14I81
_symmetry_space_group_name_H-M   'P 1'
_cell_length_a   18.97031716
_cell_length_b   18.97407900
_cell_length_c   18.98484905
_cell_angle_alpha   90.00078790
_cell_angle_beta   89.99992990
_cell_angle_gamma   89.99849612
_symmetry_Int_Tables_number   1
_chemical_formula_structural   Cs27Sn13Pb14I81
_chemical_formula_sum   'Cs27 Sn13 Pb14 I81'
_cell_volume   6833.48813386
_cell_formula_units_Z   1
loop_
 _symmetry_equiv_pos_site_id
 _symmetry_equiv_pos_as_xyz
  1  'x, y, z'
loop_
 _atom_site_type_symbol
 _atom_site_label
 _atom_site_symmetry_multiplicity
 _atom_site_fract_x
 _atom_site_fract_y
 _atom_site_fract_z
 _atom_site_occupancy
  Cs  Cs0  1  0.00168886  0.00063957  -0.00019933  1
  Cs  Cs1  1  0.00114776  -0.00057383  0.33346801  1
  Cs  Cs2  1  0.00076903  0.00222494  0.66642097  1
  Cs  Cs3  1  0.00065958  0.33234304  -0.00220501  1
  Cs  Cs4  1  -0.00015865  0.33296510  0.33552983  1
  Cs  Cs5  1  -0.00099349  0.33213311  0.66711693  1
  Cs  Cs6  1  -0.00144546  0.66771422  0.00393540  1
  Cs  Cs7  1  -0.00106693  0.66725002  0.33034548  1
  Cs  Cs8  1  -0.00050030  0.66649362  0.66520451  1
  Cs  Cs9  1  0.33080456  -0.00110732  0.00184112  1
  Cs  Cs10  1  0.33203562  0.00096843  0.33044635  1
  Cs  Cs11  1  0.33260402  -0.00107120  0.66688221  1
  Cs  Cs12  1  0.33418455  0.34061245  -0.00161941  1
  Cs  Cs13  1  0.34160612  0.33806204  0.33380948  1
  Cs  Cs14  1  0.33221544  0.34284253  0.66695298  1
  Cs  Cs15  1  0.33628252  0.66518713  -0.00149655  1
  Cs  Cs16  1  0.33079689  0.65974830  0.33395365  1
  Cs  Cs17  1  0.34158747  0.66144433  0.66642311  1
  Cs  Cs18  1  0.66632589  0.00117767  -0.00108521  1
  Cs  Cs19  1  0.66459200  -0.00028167  0.33584720  1
  Cs  Cs20  1  0.66528908  -0.00122055  0.66647474  1
  Cs  Cs21  1  0.66673314  0.33178827  0.00228754  1
  Cs  Cs22  1  0.66004405  0.33110926  0.33167304  1
  Cs  Cs23  1  0.67099306  0.33096390  0.66651136  1
  Cs  Cs24  1  0.66654713  0.66438998  0.00029103  1
  Cs  Cs25  1  0.67056782  0.66978311  0.33248475  1
  Cs  Cs26  1  0.66159855  0.66939952  0.66724197  1
  Sn  Sn27  1  0.83364840  0.49933558  0.50057612  1
  Sn  Sn28  1  0.16618997  0.83332841  0.83300737  1
  Sn  Sn29  1  0.16611139  0.16668521  0.16757680  1
  Sn  Sn30  1  0.16635360  0.16613283  0.49907851  1
  Sn  Sn31  1  0.83409042  0.16625330  0.16696831  1
  Sn  Sn32  1  0.49913661  0.83373835  0.16682758  1
  Sn  Sn33  1  0.16656588  0.83389683  0.50012787  1
  Sn  Sn34  1  0.83402361  0.16714066  0.49975898  1
  Sn  Sn35  1  0.83261487  0.16638702  0.83333215  1
  Sn  Sn36  1  0.49987289  0.16644156  0.83312479  1
  Sn  Sn37  1  0.83375821  0.50005557  0.83253256  1
  Sn  Sn38  1  0.16770278  0.83407570  0.16676414  1
  Sn  Sn39  1  0.83408119  0.83339173  0.83326081  1
  Pb  Pb40  1  0.49920257  0.16651491  0.50245540  1
  Pb  Pb41  1  0.83378205  0.83569385  0.16457909  1
  Pb  Pb42  1  0.50029024  0.50341132  0.16652097  1
  Pb  Pb43  1  0.49651957  0.83371589  0.49720328  1
  Pb  Pb44  1  0.16440606  0.49955812  0.49991868  1
  Pb  Pb45  1  0.83355257  0.49678143  0.16693223  1
  Pb  Pb46  1  0.16675208  0.16549013  0.83317566  1
  Pb  Pb47  1  0.50326081  0.49700316  0.83334294  1
  Pb  Pb48  1  0.16393221  0.50367054  0.83335185  1
  Pb  Pb49  1  0.83505229  0.83376163  0.50219941  1
  Pb  Pb50  1  0.49914953  0.16535223  0.16472612  1
  Pb  Pb51  1  0.49984658  0.83506036  0.83488956  1
  Pb  Pb52  1  0.50400024  0.49998063  0.50001509  1
  Pb  Pb53  1  0.16640277  0.49936087  0.16672165  1
  I  I54  1  0.16584904  -0.00020950  0.16704471  1
  I  I55  1  0.15996529  0.00050926  0.49924525  1
  I  I56  1  0.16074466  -0.00276133  0.83399295  1
  I  I57  1  0.16090996  0.32914467  0.17036838  1
  I  I58  1  0.16370045  0.32960776  0.49616359  1
  I  I59  1  0.16694462  0.33329897  0.83367101  1
  I  I60  1  0.17019560  0.67048348  0.16694179  1
  I  I61  1  0.16473285  0.66983092  0.49888980  1
  I  I62  1  0.16194767  0.67210218  0.83444479  1
  I  I63  1  0.49777891  -0.00240715  0.16455999  1
  I  I64  1  0.50642778  0.00011079  0.50131614  1
  I  I65  1  0.50797343  0.00262335  0.83390414  1
  I  I66  1  0.50035037  0.33311307  0.16539567  1
  I  I67  1  0.49492113  0.33304276  0.49969228  1
  I  I68  1  0.50403964  0.32910521  0.83477281  1
  I  I69  1  0.49350737  0.67148199  0.16428698  1
  I  I70  1  0.50000540  0.66694069  0.50053545  1
  I  I71  1  0.50051427  0.66666813  0.83506330  1
  I  I72  1  0.83508179  0.00386782  0.16645097  1
  I  I73  1  0.83554470  0.00335917  0.50107820  1
  I  I74  1  0.83342934  0.00091755  0.83373201  1
  I  I75  1  0.83879891  0.32844837  0.16139506  1
  I  I76  1  0.83937231  0.33134340  0.50561301  1
  I  I77  1  0.82864685  0.33203458  0.83274781  1
  I  I78  1  0.83299845  0.66694678  0.16598727  1
  I  I79  1  0.83482560  0.66456859  0.50509835  1
  I  I80  1  0.83917215  0.66710762  0.82942228  1
  I  I81  1  0.16237952  0.16080380  0.00239676  1
  I  I82  1  0.15699859  0.15735136  0.33328628  1
  I  I83  1  0.16217039  0.16121520  0.66411497  1
  I  I84  1  0.16374322  0.49847738  -0.00011474  1
  I  I85  1  0.16252564  0.50531092  0.33343164  1
  I  I86  1  0.16694522  0.49883079  0.66669243  1
  I  I87  1  0.16576023  0.83825827  0.00036532  1
  I  I88  1  0.17051913  0.83818739  0.33302503  1
  I  I89  1  0.15938400  0.83902820  0.66668957  1
  I  I90  1  0.50625317  0.16461718  -0.00286195  1
  I  I91  1  0.50348804  0.16542251  0.33318203  1
  I  I92  1  0.50625099  0.16440284  0.67016401  1
  I  I93  1  0.50241272  0.49913251  -0.00032530  1
  I  I94  1  0.50154677  0.49852335  0.33328239  1
  I  I95  1  0.49702556  0.50141579  0.66693562  1
  I  I96  1  0.49422273  0.83596484  0.00250741  1
  I  I97  1  0.49763080  0.83619118  0.32929473  1
  I  I98  1  0.49955256  0.83366026  0.66676757  1
  I  I99  1  0.83349934  0.16585286  -0.00069674  1
  I  I100  1  0.83831438  0.17056848  0.33380266  1
  I  I101  1  0.83377720  0.16756479  0.66694122  1
  I  I102  1  0.83312333  0.49973386  -0.00316980  1
  I  I103  1  0.83455507  0.49650254  0.33652266  1
  I  I104  1  0.83503892  0.49392417  0.66735940  1
  I  I105  1  0.83833297  0.83387994  -0.00358135  1
  I  I106  1  0.83320793  0.83223731  0.33332896  1
  I  I107  1  0.83837569  0.83789187  0.67033669  1
  I  I108  1  -0.00010590  0.16088188  0.16488066  1
  I  I109  1  -0.00091985  0.16620901  0.50160524  1
  I  I110  1  -0.00322814  0.16775954  0.83343306  1
  I  I111  1  -0.00031064  0.50590676  0.16579458  1
  I  I112  1  -0.00356600  0.49744288  0.50504098  1
  I  I113  1  -0.00426644  0.49313038  0.82991048  1
  I  I114  1  0.00317932  0.83542560  0.16741937  1
  I  I115  1  0.00324152  0.83502971  0.49539937  1
  I  I116  1  -0.00026240  0.83608610  0.83569712  1
  I  I117  1  0.32982616  0.16266744  0.16945363  1
  I  I118  1  0.32948269  0.16044223  0.49637210  1
  I  I119  1  0.33512542  0.16142942  0.83441834  1
  I  I120  1  0.33329084  0.49483998  0.16650708  1
  I  I121  1  0.33323771  0.49972978  0.49975817  1
  I  I122  1  0.33348545  0.49892258  0.83384530  1
  I  I123  1  0.33100982  0.84056989  0.16424384  1
  I  I124  1  0.32806545  0.84083184  0.50613346  1
  I  I125  1  0.33026711  0.83796379  0.83270313  1
  I  I126  1  0.66944436  0.16546912  0.16762357  1
  I  I127  1  0.67014956  0.17114532  0.49797892  1
  I  I128  1  0.66974333  0.16473630  0.83395368  1
  I  I129  1  0.66720048  0.50053039  0.16652627  1
  I  I130  1  0.67209028  0.49336592  0.50481610  1
  I  I131  1  0.67149515  0.50562987  0.82915589  1
  I  I132  1  0.66508589  0.83501230  0.16315555  1
  I  I133  1  0.66683028  0.83289944  0.49991890  1
  I  I134  1  0.66978818  0.83251000  0.83525970  1
