# generated using pymatgen
data_Cs27Sn13Pb14I81
_symmetry_space_group_name_H-M   'P 1'
_cell_length_a   18.97824477
_cell_length_b   18.97824463
_cell_length_c   18.97346442
_cell_angle_alpha   90.00169344
_cell_angle_beta   90.00169358
_cell_angle_gamma   90.00377806
_symmetry_Int_Tables_number   1
_chemical_formula_structural   Cs27Sn13Pb14I81
_chemical_formula_sum   'Cs27 Sn13 Pb14 I81'
_cell_volume   6833.74422760
_cell_formula_units_Z   1
loop_
 _symmetry_equiv_pos_site_id
 _symmetry_equiv_pos_as_xyz
  1  'x, y, z'
loop_
 _atom_site_type_symbol
 _atom_site_label
 _atom_site_symmetry_multiplicity
 _atom_site_fract_x
 _atom_site_fract_y
 _atom_site_fract_z
 _atom_site_occupancy
  Cs  Cs0  1  -0.00044078  -0.00140258  -0.00199513  1
  Cs  Cs1  1  0.00208868  0.00103394  0.33357033  1
  Cs  Cs2  1  -0.00295543  0.00180773  0.66912650  1
  Cs  Cs3  1  -0.00062904  0.33270440  0.00330252  1
  Cs  Cs4  1  -0.00019034  0.33314305  0.33546971  1
  Cs  Cs5  1  -0.00144408  0.33188891  0.65521304  1
  Cs  Cs6  1  -0.00093681  0.66894998  -0.00094423  1
  Cs  Cs7  1  -0.00100813  0.66575264  0.33269065  1
  Cs  Cs8  1  0.00239239  0.66591357  0.66776917  1
  Cs  Cs9  1  0.33241308  0.00430473  0.00113939  1
  Cs  Cs10  1  0.33538315  -0.00128450  0.33428041  1
  Cs  Cs11  1  0.33320783  -0.00327019  0.66401576  1
  Cs  Cs12  1  0.33561663  0.33239657  -0.00094435  1
  Cs  Cs13  1  0.33241916  0.33232514  0.33269071  1
  Cs  Cs14  1  0.33258012  0.33572578  0.66776906  1
  Cs  Cs15  1  0.33024799  0.66358122  -0.00608170  1
  Cs  Cs16  1  0.33567190  0.66900517  0.33354685  1
  Cs  Cs17  1  0.33333117  0.66666468  0.67224117  1
  Cs  Cs18  1  0.66791875  0.00125197  -0.00147744  1
  Cs  Cs19  1  0.65988697  -0.00677947  0.33112170  1
  Cs  Cs20  1  0.66825817  0.00159153  0.66895595  1
  Cs  Cs21  1  0.66526400  0.33289252  -0.00199518  1
  Cs  Cs22  1  0.66770064  0.33542207  0.33357030  1
  Cs  Cs23  1  0.66847441  0.33037794  0.66912646  1
  Cs  Cs24  1  0.67097131  0.66574632  0.00113943  1
  Cs  Cs25  1  0.66538214  0.66871634  0.33428036  1
  Cs  Cs26  1  0.66339670  0.66654116  0.66401560  1
  Sn  Sn27  1  0.16666932  0.50000266  0.16687250  1
  Sn  Sn28  1  0.83341597  0.49923235  0.16600288  1
  Sn  Sn29  1  0.49992715  0.49996260  0.16721442  1
  Sn  Sn30  1  0.83448419  0.83335166  0.49985340  1
  Sn  Sn31  1  0.50001830  0.16781753  0.49985342  1
  Sn  Sn32  1  0.16541729  0.83311050  0.49954609  1
  Sn  Sn33  1  0.49977717  0.49875060  0.49954611  1
  Sn  Sn34  1  0.83355434  0.16688765  0.16703349  1
  Sn  Sn35  1  0.50025024  0.83358355  0.83428979  1
  Sn  Sn36  1  0.16589897  0.16674927  0.16600285  1
  Sn  Sn37  1  0.83387249  0.49973051  0.83342012  1
  Sn  Sn38  1  0.16639722  0.16720585  0.83342017  1
  Sn  Sn39  1  0.16662931  0.83326048  0.16721440  1
  Pb  Pb40  1  0.83533547  0.83330114  0.16802961  1
  Pb  Pb41  1  0.16816207  0.16480561  0.49929938  1
  Pb  Pb42  1  0.83157766  0.83140192  0.83110305  1
  Pb  Pb43  1  0.49954951  0.83288280  0.50132139  1
  Pb  Pb44  1  0.83558943  0.16892277  0.83548810  1
  Pb  Pb45  1  0.16401247  0.49734579  0.83538379  1
  Pb  Pb46  1  0.83147232  0.50149533  0.49929936  1
  Pb  Pb47  1  0.49806864  0.16491096  0.83110300  1
  Pb  Pb48  1  0.16902017  0.50235351  0.49770172  1
  Pb  Pb49  1  0.49996779  0.16866884  0.16802959  1
  Pb  Pb50  1  0.49731898  0.83065234  0.16389790  1
  Pb  Pb51  1  0.50181447  0.50108903  0.83362678  1
  Pb  Pb52  1  0.83090957  0.16424284  0.49686535  1
  Pb  Pb53  1  0.16775567  0.83514782  0.83362684  1
  I  I54  1  0.16213722  0.00051077  0.16674548  1
  I  I55  1  0.16748198  -0.00306766  0.49396438  1
  I  I56  1  0.16795828  0.00272959  0.83968323  1
  I  I57  1  0.16643307  0.33338410  0.16194198  1
  I  I58  1  0.16694310  0.33341419  0.49993473  1
  I  I59  1  0.16881579  0.32983514  0.83945206  1
  I  I60  1  0.16714375  0.66623432  0.17200363  1
  I  I61  1  0.16568022  0.67027520  0.49504908  1
  I  I62  1  0.16751619  0.66643343  0.83386210  1
  I  I63  1  0.50006309  -0.00008623  0.16873688  1
  I  I64  1  0.49924370  0.00150049  0.50144662  1
  I  I65  1  0.49945372  -0.00273551  0.83010625  1
  I  I66  1  0.49597341  0.33693337  0.16780560  1
  I  I67  1  0.49973951  0.33419353  0.49564225  1
  I  I68  1  0.49989932  0.33336651  0.83387045  1
  I  I69  1  0.50190691  0.66254598  0.17392527  1
  I  I70  1  0.50069698  0.66429577  0.49663868  1
  I  I71  1  0.49812074  0.66875994  0.83006846  1
  I  I72  1  0.83831925  0.00251390  0.16922547  1
  I  I73  1  0.83486241  -0.00330225  0.49908456  1
  I  I74  1  0.83238328  0.00024027  0.83376642  1
  I  I75  1  0.83784257  0.33446175  0.16414989  1
  I  I76  1  0.83313115  0.33325578  0.50159758  1
  I  I77  1  0.83096302  0.33671728  0.83552357  1
  I  I78  1  0.83384357  0.66356051  0.16471768  1
  I  I79  1  0.83411989  0.66927122  0.49758536  1
  I  I80  1  0.83332338  0.66364535  0.84133330  1
  I  I81  1  0.16455652  0.16409233  0.00239290  1
  I  I82  1  0.16434111  0.16852068  0.32981107  1
  I  I83  1  0.16979872  0.16355905  0.66847633  1
  I  I84  1  0.17173418  0.50506736  0.00427659  1
  I  I85  1  0.16161175  0.49494520  0.32908166  1
  I  I86  1  0.16707164  0.50040493  0.66660369  1
  I  I87  1  0.16903191  0.83127167  0.00320026  1
  I  I88  1  0.16434829  0.83492327  0.33244543  1
  I  I89  1  0.16597815  0.83578471  0.66418912  1
  I  I90  1  0.50080199  0.16656400  0.00020579  1
  I  I91  1  0.49786018  0.16635130  0.33587811  1
  I  I92  1  0.49797136  0.17211818  0.66321156  1
  I  I93  1  0.49793804  0.50236501  0.00320024  1
  I  I94  1  0.50159009  0.49768202  0.33244542  1
  I  I95  1  0.50245148  0.49931125  0.66418914  1
  I  I96  1  0.49874211  0.83207559  -0.00297562  1
  I  I97  1  0.50087408  0.83420729  0.33304822  1
  I  I98  1  0.49761173  0.83094517  0.66853684  1
  I  I99  1  0.83401614  0.16734947  0.00382537  1
  I  I100  1  0.84134943  0.17468253  0.32922819  1
  I  I101  1  0.83436666  0.16770031  0.66638936  1
  I  I102  1  0.83075919  0.49788982  0.00239292  1
  I  I103  1  0.83518726  0.49767466  0.32981104  1
  I  I104  1  0.83022538  0.50313194  0.66847635  1
  I  I105  1  0.83323049  0.83413542  0.00020581  1
  I  I106  1  0.83301840  0.83119349  0.33587812  1
  I  I107  1  0.83878477  0.83130451  0.66321156  1
  I  I108  1  0.00112843  0.17117600  0.16414970  1
  I  I109  1  -0.00007754  0.16646453  0.50159792  1
  I  I110  1  0.00338393  0.16429632  0.83552334  1
  I  I111  1  0.00005078  0.49976608  0.16194201  1
  I  I112  1  0.00008085  0.50027675  0.49993479  1
  I  I113  1  -0.00349818  0.50214932  0.83945203  1
  I  I114  1  0.00359999  0.82930689  0.16780528  1
  I  I115  1  0.00086023  0.83307243  0.49564261  1
  I  I116  1  0.00003313  0.83323258  0.83387045  1
  I  I117  1  0.33022722  0.16717672  0.16471777  1
  I  I118  1  0.33593788  0.16745364  0.49758521  1
  I  I119  1  0.33031204  0.16665675  0.84133330  1
  I  I120  1  0.33290096  0.50047744  0.17200382  1
  I  I121  1  0.33694186  0.49901297  0.49504901  1
  I  I122  1  0.33310012  0.50084942  0.83386199  1
  I  I123  1  0.32921263  0.83524003  0.17392557  1
  I  I124  1  0.33096244  0.83403057  0.49663847  1
  I  I125  1  0.33542660  0.83145406  0.83006832  1
  I  I126  1  0.66918053  0.17165261  0.16922554  1
  I  I127  1  0.66336440  0.16819535  0.49908435  1
  I  I128  1  0.66690684  0.16571663  0.83376660  1
  I  I129  1  0.66717742  0.49547059  0.16674534  1
  I  I130  1  0.66359904  0.50081547  0.49396441  1
  I  I131  1  0.66939626  0.50129162  0.83968356  1
  I  I132  1  0.66658044  0.83339644  0.16873693  1
  I  I133  1  0.66816721  0.83257732  0.50144653  1
  I  I134  1  0.66393116  0.83278709  0.83010617  1
