# generated using pymatgen
data_Cs27Sn14Pb13I81
_symmetry_space_group_name_H-M   'P 1'
_cell_length_a   18.98189341
_cell_length_b   18.97780460
_cell_length_c   18.97094722
_cell_angle_alpha   89.99920086
_cell_angle_beta   89.99680763
_cell_angle_gamma   90.00154940
_symmetry_Int_Tables_number   1
_chemical_formula_structural   Cs27Sn14Pb13I81
_chemical_formula_sum   'Cs27 Sn14 Pb13 I81'
_cell_volume   6833.99278369
_cell_formula_units_Z   1
loop_
 _symmetry_equiv_pos_site_id
 _symmetry_equiv_pos_as_xyz
  1  'x, y, z'
loop_
 _atom_site_type_symbol
 _atom_site_label
 _atom_site_symmetry_multiplicity
 _atom_site_fract_x
 _atom_site_fract_y
 _atom_site_fract_z
 _atom_site_occupancy
  Cs  Cs0  1  0.00031658  -0.00130627  0.00113988  1
  Cs  Cs1  1  -0.00576491  0.00041613  0.33772167  1
  Cs  Cs2  1  0.00459874  0.00107469  0.66369103  1
  Cs  Cs3  1  0.00189704  0.33751903  -0.00031774  1
  Cs  Cs4  1  -0.00212601  0.32981388  0.33647422  1
  Cs  Cs5  1  -0.00196753  0.33733703  0.66390717  1
  Cs  Cs6  1  0.00195036  0.66441520  -0.00036141  1
  Cs  Cs7  1  -0.00308608  0.67018232  0.33427601  1
  Cs  Cs8  1  -0.00189415  0.66128692  0.66590793  1
  Cs  Cs9  1  0.33395837  0.00024069  -0.00112350  1
  Cs  Cs10  1  0.33138806  0.00033421  0.33241187  1
  Cs  Cs11  1  0.33253818  0.00031639  0.66702826  1
  Cs  Cs12  1  0.33284034  0.33294855  0.00187528  1
  Cs  Cs13  1  0.33364489  0.33578344  0.33033609  1
  Cs  Cs14  1  0.33241274  0.32969515  0.66802707  1
  Cs  Cs15  1  0.33124019  0.66777221  0.00175326  1
  Cs  Cs16  1  0.33559496  0.66301473  0.33420062  1
  Cs  Cs17  1  0.33384468  0.66939123  0.66439590  1
  Cs  Cs18  1  0.66610813  0.00008906  -0.00046926  1
  Cs  Cs19  1  0.67510433  -0.00125040  0.33037203  1
  Cs  Cs20  1  0.66208331  -0.00034945  0.67259154  1
  Cs  Cs21  1  0.66531041  0.33151221  0.00004315  1
  Cs  Cs22  1  0.66864655  0.33590796  0.33512158  1
  Cs  Cs23  1  0.66776063  0.33546614  0.66717886  1
  Cs  Cs24  1  0.66666257  0.66921963  0.00003482  1
  Cs  Cs25  1  0.66805188  0.66419251  0.34255793  1
  Cs  Cs26  1  0.66707202  0.66339925  0.66068897  1
  Sn  Sn27  1  0.16710605  0.16555384  0.16587267  1
  Sn  Sn28  1  0.16735191  0.49988235  0.49994263  1
  Sn  Sn29  1  0.83360732  0.83407425  0.83357851  1
  Sn  Sn30  1  0.49988155  0.83300208  0.83414931  1
  Sn  Sn31  1  0.16746906  0.83451769  0.16603169  1
  Sn  Sn32  1  0.83305718  0.50002514  0.16595784  1
  Sn  Sn33  1  0.49981547  0.16677296  0.83374015  1
  Sn  Sn34  1  0.49951788  0.50037579  0.83387434  1
  Sn  Sn35  1  0.50002406  0.16602342  0.49926401  1
  Sn  Sn36  1  0.16629832  0.16611720  0.83428320  1
  Sn  Sn37  1  0.49946235  0.16565632  0.16680638  1
  Sn  Sn38  1  0.49936947  0.83405130  0.16617260  1
  Sn  Sn39  1  0.16651395  0.83412694  0.83412938  1
  Sn  Sn40  1  0.83390663  0.16600206  0.83373673  1
  Pb  Pb41  1  0.83555120  0.49978602  0.49723432  1
  Pb  Pb42  1  0.16509107  0.50011133  0.16844182  1
  Pb  Pb43  1  0.16853466  0.16784947  0.49972875  1
  Pb  Pb44  1  0.49817972  0.49743684  0.50266124  1
  Pb  Pb45  1  0.16696767  0.83166743  0.49969043  1
  Pb  Pb46  1  0.49983197  0.83604571  0.49930063  1
  Pb  Pb47  1  0.83350690  0.16801098  0.16429204  1
  Pb  Pb48  1  0.83098582  0.50012075  0.83469187  1
  Pb  Pb49  1  0.16886796  0.50011795  0.83211134  1
  Pb  Pb50  1  0.83026519  0.16634432  0.50348615  1
  Pb  Pb51  1  0.83325550  0.83380729  0.50388725  1
  Pb  Pb52  1  0.83315945  0.83169993  0.16460336  1
  Pb  Pb53  1  0.50156814  0.50039530  0.16493109  1
  I  I54  1  0.17124893  0.00034766  0.16173807  1
  I  I55  1  0.16774729  0.00010452  0.50124074  1
  I  I56  1  0.17056513  0.00039826  0.83577414  1
  I  I57  1  0.17057188  0.33008521  0.16262813  1
  I  I58  1  0.16837893  0.33545652  0.50088274  1
  I  I59  1  0.16784772  0.33000566  0.83622754  1
  I  I60  1  0.16994906  0.66998833  0.16222724  1
  I  I61  1  0.16711777  0.66397145  0.50107383  1
  I  I62  1  0.16686449  0.67004114  0.83651307  1
  I  I63  1  0.49670209  0.00066593  0.16102716  1
  I  I64  1  0.49744523  0.00367097  0.50777834  1
  I  I65  1  0.50071992  0.00049275  0.83303477  1
  I  I66  1  0.49678947  0.32999590  0.16425074  1
  I  I67  1  0.49864186  0.32965538  0.50068080  1
  I  I68  1  0.50037815  0.33120226  0.83319616  1
  I  I69  1  0.49611617  0.66997724  0.15967569  1
  I  I70  1  0.49979195  0.66665527  0.50092699  1
  I  I71  1  0.49986723  0.66833225  0.83861848  1
  I  I72  1  0.83305279  -0.00004730  0.16792253  1
  I  I73  1  0.83541032  0.00036681  0.49403508  1
  I  I74  1  0.82760337  0.00024284  0.83478313  1
  I  I75  1  0.83317427  0.33542086  0.16304423  1
  I  I76  1  0.83346391  0.33311267  0.50274268  1
  I  I77  1  0.83211012  0.33046996  0.83493546  1
  I  I78  1  0.83417795  0.66440372  0.16256546  1
  I  I79  1  0.83294195  0.66648438  0.50188208  1
  I  I80  1  0.83356124  0.66964573  0.83588008  1
  I  I81  1  0.17188611  0.16438226  -0.00091237  1
  I  I82  1  0.17182177  0.16492838  0.32988073  1
  I  I83  1  0.16834615  0.16351787  0.67019558  1
  I  I84  1  0.16593308  0.49959503  0.00004087  1
  I  I85  1  0.16670462  0.49883595  0.33578058  1
  I  I86  1  0.16791646  0.49898876  0.66460083  1
  I  I87  1  0.16808546  0.83624618  -0.00101397  1
  I  I88  1  0.17214890  0.83596111  0.32945338  1
  I  I89  1  0.16782711  0.83731219  0.67051578  1
  I  I90  1  0.49971243  0.16633556  -0.00107805  1
  I  I91  1  0.49321386  0.16327312  0.33162728  1
  I  I92  1  0.50021805  0.16719745  0.66922186  1
  I  I93  1  0.49952338  0.49487151  -0.00306900  1
  I  I94  1  0.50116417  0.49975378  0.33330483  1
  I  I95  1  0.50096037  0.50069590  0.67077019  1
  I  I96  1  0.49947681  0.83789499  -0.00141890  1
  I  I97  1  0.49397295  0.83682883  0.32943675  1
  I  I98  1  0.49983204  0.83427047  0.67051124  1
  I  I99  1  0.82756284  0.16343053  -0.00375045  1
  I  I100  1  0.83340663  0.16993017  0.33312594  1
  I  I101  1  0.83424050  0.16430690  0.67193420  1
  I  I102  1  0.83493512  0.49948656  0.00192509  1
  I  I103  1  0.83144504  0.49981424  0.32974054  1
  I  I104  1  0.83279263  0.50033791  0.66677738  1
  I  I105  1  0.83197166  0.83709524  -0.00360837  1
  I  I106  1  0.83331121  0.83015718  0.33295095  1
  I  I107  1  0.83229291  0.83593507  0.67249137  1
  I  I108  1  0.00322412  0.16477906  0.16180605  1
  I  I109  1  0.00006855  0.16907731  0.50016803  1
  I  I110  1  0.00116538  0.16041496  0.83842687  1
  I  I111  1  -0.00234503  0.49980408  0.16530500  1
  I  I112  1  0.00301751  0.49827917  0.50316896  1
  I  I113  1  0.00011991  0.49965898  0.83202913  1
  I  I114  1  0.00307782  0.83513177  0.16222705  1
  I  I115  1  0.00021812  0.83274516  0.49885612  1
  I  I116  1  0.00102458  0.83986531  0.83742800  1
  I  I117  1  0.33392760  0.16479893  0.16155047  1
  I  I118  1  0.33621539  0.16759621  0.50659385  1
  I  I119  1  0.33401550  0.16512109  0.83295435  1
  I  I120  1  0.33338629  0.49962929  0.16740761  1
  I  I121  1  0.33098693  0.50022152  0.49861302  1
  I  I122  1  0.33666629  0.49827008  0.83372423  1
  I  I123  1  0.33354535  0.83635397  0.15793120  1
  I  I124  1  0.33344133  0.83214199  0.50620007  1
  I  I125  1  0.33370341  0.83576855  0.83618813  1
  I  I126  1  0.66330239  0.16394844  0.16491029  1
  I  I127  1  0.66220390  0.16804000  0.49937594  1
  I  I128  1  0.66505138  0.16452084  0.83291842  1
  I  I129  1  0.66897910  0.49896417  0.16366604  1
  I  I130  1  0.66649511  0.49948592  0.50036711  1
  I  I131  1  0.66314506  0.49842997  0.83410183  1
  I  I132  1  0.66344838  0.83756418  0.16112568  1
  I  I133  1  0.66638486  0.83179417  0.49887612  1
  I  I134  1  0.66525659  0.83706831  0.83729785  1
