# generated using pymatgen
data_Cs27Sn14Pb13I81
_symmetry_space_group_name_H-M   'P 1'
_cell_length_a   18.97569116
_cell_length_b   18.97280370
_cell_length_c   18.97555921
_cell_angle_alpha   90.00226029
_cell_angle_beta   89.99954673
_cell_angle_gamma   89.99997403
_symmetry_Int_Tables_number   1
_chemical_formula_structural   Cs27Sn14Pb13I81
_chemical_formula_sum   'Cs27 Sn14 Pb13 I81'
_cell_volume   6831.61997667
_cell_formula_units_Z   1
loop_
 _symmetry_equiv_pos_site_id
 _symmetry_equiv_pos_as_xyz
  1  'x, y, z'
loop_
 _atom_site_type_symbol
 _atom_site_label
 _atom_site_symmetry_multiplicity
 _atom_site_fract_x
 _atom_site_fract_y
 _atom_site_fract_z
 _atom_site_occupancy
  Cs  Cs0  1  0.00298938  -0.00173941  0.00228105  1
  Cs  Cs1  1  0.00033535  -0.00832381  0.33964723  1
  Cs  Cs2  1  0.00210061  -0.00024036  0.65513504  1
  Cs  Cs3  1  0.00133127  0.33351992  -0.00045712  1
  Cs  Cs4  1  0.00218688  0.33330597  0.33129605  1
  Cs  Cs5  1  -0.01044669  0.33447585  0.66841230  1
  Cs  Cs6  1  0.00379594  0.66970794  -0.00369329  1
  Cs  Cs7  1  -0.00307625  0.67293895  0.33458981  1
  Cs  Cs8  1  -0.00143221  0.66539989  0.66983258  1
  Cs  Cs9  1  0.33268478  0.00080432  0.00048968  1
  Cs  Cs10  1  0.33165609  0.00164730  0.33589826  1
  Cs  Cs11  1  0.33199643  0.00344677  0.66228676  1
  Cs  Cs12  1  0.33193045  0.33305770  0.00165094  1
  Cs  Cs13  1  0.33285014  0.33535559  0.33160412  1
  Cs  Cs14  1  0.33401427  0.33126548  0.66351440  1
  Cs  Cs15  1  0.33421983  0.66661248  -0.00199309  1
  Cs  Cs16  1  0.33646177  0.66238904  0.33302512  1
  Cs  Cs17  1  0.33418258  0.66624808  0.66892963  1
  Cs  Cs18  1  0.66662780  -0.00059728  -0.00148102  1
  Cs  Cs19  1  0.66773678  -0.00240794  0.33323366  1
  Cs  Cs20  1  0.66696369  0.00701833  0.67073720  1
  Cs  Cs21  1  0.66776419  0.33155054  0.00167319  1
  Cs  Cs22  1  0.66672752  0.33512753  0.33044651  1
  Cs  Cs23  1  0.67496915  0.32574254  0.66865068  1
  Cs  Cs24  1  0.66418403  0.66899749  0.00001582  1
  Cs  Cs25  1  0.66535283  0.66604825  0.33375876  1
  Cs  Cs26  1  0.66606299  0.66621324  0.66706496  1
  Sn  Sn27  1  0.16708209  0.49978980  0.49945793  1
  Sn  Sn28  1  0.49963916  0.50029250  0.50055949  1
  Sn  Sn29  1  0.83364999  0.49994892  0.16636877  1
  Sn  Sn30  1  0.49997907  0.16665306  0.16653420  1
  Sn  Sn31  1  0.50065692  0.83299042  0.83295153  1
  Sn  Sn32  1  0.83393000  0.16683774  0.16656076  1
  Sn  Sn33  1  0.16643828  0.49975632  0.16730284  1
  Sn  Sn34  1  0.50017295  0.49969239  0.83302330  1
  Sn  Sn35  1  0.83290837  0.83354040  0.83342408  1
  Sn  Sn36  1  0.16663082  0.16685097  0.83368451  1
  Sn  Sn37  1  0.16621354  0.16713950  0.16598424  1
  Sn  Sn38  1  0.50006762  0.83274327  0.50039464  1
  Sn  Sn39  1  0.49993400  0.49995250  0.16632499  1
  Sn  Sn40  1  0.49967802  0.83339076  0.16677254  1
  Pb  Pb41  1  0.83335343  0.16675392  0.49647593  1
  Pb  Pb42  1  0.16877380  0.49809194  0.83319046  1
  Pb  Pb43  1  0.16660943  0.16976345  0.49920613  1
  Pb  Pb44  1  0.16744814  0.83594234  0.83313298  1
  Pb  Pb45  1  0.82997722  0.83297323  0.50318033  1
  Pb  Pb46  1  0.83631429  0.16399800  0.83596116  1
  Pb  Pb47  1  0.49851379  0.16669927  0.83544001  1
  Pb  Pb48  1  0.16935901  0.83288643  0.16678472  1
  Pb  Pb49  1  0.83284117  0.50006131  0.49756068  1
  Pb  Pb50  1  0.16948623  0.82971522  0.50004968  1
  Pb  Pb51  1  0.83113976  0.83315587  0.16520057  1
  Pb  Pb52  1  0.83057454  0.50165773  0.83625820  1
  Pb  Pb53  1  0.50024968  0.16748727  0.49715113  1
  I  I54  1  0.16764085  0.00310331  0.16145768  1
  I  I55  1  0.16748240  0.00004880  0.49984511  1
  I  I56  1  0.16948793  0.00358988  0.84299770  1
  I  I57  1  0.17160245  0.33383764  0.16655431  1
  I  I58  1  0.17656927  0.33732532  0.49657622  1
  I  I59  1  0.16994034  0.33054176  0.83775979  1
  I  I60  1  0.16706585  0.66293069  0.17023719  1
  I  I61  1  0.16927243  0.66200745  0.49258522  1
  I  I62  1  0.16545525  0.66648262  0.83417296  1
  I  I63  1  0.50030067  -0.00000154  0.16572131  1
  I  I64  1  0.50114291  -0.00286279  0.49978580  1
  I  I65  1  0.50258042  -0.00292869  0.83445594  1
  I  I66  1  0.49982892  0.33444270  0.16659940  1
  I  I67  1  0.49508137  0.33714418  0.49870734  1
  I  I68  1  0.49675118  0.33612510  0.83474114  1
  I  I69  1  0.50027644  0.66557909  0.16664533  1
  I  I70  1  0.49643808  0.66585994  0.49501713  1
  I  I71  1  0.50198675  0.66664542  0.83840748  1
  I  I72  1  0.83204517  0.00265157  0.16413302  1
  I  I73  1  0.83245263  -0.00033553  0.49716807  1
  I  I74  1  0.82263097  -0.00321866  0.83719290  1
  I  I75  1  0.82775641  0.33366915  0.16633620  1
  I  I76  1  0.82996713  0.33366008  0.50423132  1
  I  I77  1  0.83228786  0.33314063  0.83189222  1
  I  I78  1  0.83229651  0.66378637  0.16604632  1
  I  I79  1  0.83580631  0.66656195  0.49595402  1
  I  I80  1  0.83129021  0.66944009  0.83649279  1
  I  I81  1  0.16803186  0.17217416  0.00258617  1
  I  I82  1  0.16830348  0.16941813  0.32937713  1
  I  I83  1  0.16961016  0.16571601  0.66890951  1
  I  I84  1  0.16843136  0.49778373  0.00332152  1
  I  I85  1  0.17333433  0.49382906  0.33138473  1
  I  I86  1  0.17408985  0.49953863  0.66413752  1
  I  I87  1  0.16991785  0.82913666  0.00005581  1
  I  I88  1  0.16677531  0.83914820  0.33326997  1
  I  I89  1  0.16858205  0.83494794  0.66662568  1
  I  I90  1  0.50133845  0.16737422  0.00411799  1
  I  I91  1  0.49702049  0.16686713  0.32837121  1
  I  I92  1  0.49717875  0.16647574  0.66676543  1
  I  I93  1  0.49973812  0.50284288  0.00153227  1
  I  I94  1  0.49943351  0.50223890  0.33179745  1
  I  I95  1  0.49298950  0.50930439  0.66635782  1
  I  I96  1  0.50335141  0.83027967  0.00024387  1
  I  I97  1  0.49865677  0.83034312  0.33263658  1
  I  I98  1  0.50298543  0.82433080  0.66710949  1
  I  I99  1  0.82954714  0.17089577  0.00402267  1
  I  I100  1  0.83402573  0.17049074  0.32789439  1
  I  I101  1  0.83464738  0.16567119  0.66716027  1
  I  I102  1  0.83319630  0.49586641  0.00437183  1
  I  I103  1  0.82790733  0.49661486  0.32905994  1
  I  I104  1  0.83398279  0.50149540  0.66702932  1
  I  I105  1  0.82491866  0.83284278  -0.00233224  1
  I  I106  1  0.83236152  0.83439072  0.33331204  1
  I  I107  1  0.82776022  0.83277449  0.67080113  1
  I  I108  1  0.00063727  0.17599758  0.16148126  1
  I  I109  1  0.00027532  0.16792000  0.49950782  1
  I  I110  1  0.00356972  0.16723211  0.84097603  1
  I  I111  1  0.00075094  0.49161916  0.17103403  1
  I  I112  1  0.00292886  0.49731230  0.49474552  1
  I  I113  1  -0.00007500  0.50157382  0.83315890  1
  I  I114  1  -0.00008307  0.83313863  0.16364613  1
  I  I115  1  -0.00011148  0.83345072  0.50116286  1
  I  I116  1  -0.00237883  0.83437990  0.83709835  1
  I  I117  1  0.33347159  0.16929918  0.16298588  1
  I  I118  1  0.33348268  0.16340435  0.49832071  1
  I  I119  1  0.33098066  0.16556555  0.84121379  1
  I  I120  1  0.33462056  0.49788766  0.16742273  1
  I  I121  1  0.33490180  0.50341501  0.49394900  1
  I  I122  1  0.33704283  0.50659202  0.83891612  1
  I  I123  1  0.33808301  0.83284737  0.16325826  1
  I  I124  1  0.33777082  0.83257369  0.50161816  1
  I  I125  1  0.33737408  0.82955577  0.83473700  1
  I  I126  1  0.66592471  0.17026468  0.16757423  1
  I  I127  1  0.66640032  0.16857492  0.49962287  1
  I  I128  1  0.66679877  0.16809747  0.83462104  1
  I  I129  1  0.66491640  0.49744499  0.16667487  1
  I  I130  1  0.66282512  0.50502611  0.49749621  1
  I  I131  1  0.66214679  0.50118621  0.83363162  1
  I  I132  1  0.66244528  0.83257590  0.16830127  1
  I  I133  1  0.66186450  0.82523970  0.49483699  1
  I  I134  1  0.66409296  0.82947810  0.83488995  1
