# generated using pymatgen
data_Cs27Sn14Pb13I81
_symmetry_space_group_name_H-M   'P 1'
_cell_length_a   18.96381240
_cell_length_b   18.96442036
_cell_length_c   18.95617134
_cell_angle_alpha   90.00088908
_cell_angle_beta   89.99996060
_cell_angle_gamma   90.00040411
_symmetry_Int_Tables_number   1
_chemical_formula_structural   Cs27Sn14Pb13I81
_chemical_formula_sum   'Cs27 Sn14 Pb13 I81'
_cell_volume   6817.35404646
_cell_formula_units_Z   1
loop_
 _symmetry_equiv_pos_site_id
 _symmetry_equiv_pos_as_xyz
  1  'x, y, z'
loop_
 _atom_site_type_symbol
 _atom_site_label
 _atom_site_symmetry_multiplicity
 _atom_site_fract_x
 _atom_site_fract_y
 _atom_site_fract_z
 _atom_site_occupancy
  Cs  Cs0  1  0.00088273  0.00059376  0.00086811  1
  Cs  Cs1  1  0.00041614  -0.00086742  0.33684166  1
  Cs  Cs2  1  -0.00103323  -0.00287369  0.66106559  1
  Cs  Cs3  1  -0.00010129  0.33277756  0.00027223  1
  Cs  Cs4  1  -0.00099883  0.33548949  0.33093791  1
  Cs  Cs5  1  -0.00018256  0.33461344  0.66851512  1
  Cs  Cs6  1  0.00003123  0.66700671  0.00187824  1
  Cs  Cs7  1  0.00005218  0.66591941  0.33203981  1
  Cs  Cs8  1  -0.00029002  0.66793624  0.66638055  1
  Cs  Cs9  1  0.33368990  -0.00034268  0.00068584  1
  Cs  Cs10  1  0.33468981  0.00802124  0.33452716  1
  Cs  Cs11  1  0.33155511  0.00102164  0.66580087  1
  Cs  Cs12  1  0.33317403  0.33235112  0.00046723  1
  Cs  Cs13  1  0.33520468  0.32912202  0.33215780  1
  Cs  Cs14  1  0.33315706  0.33349585  0.66755931  1
  Cs  Cs15  1  0.33573920  0.66809616  0.00036168  1
  Cs  Cs16  1  0.33423539  0.66603809  0.33486520  1
  Cs  Cs17  1  0.33270704  0.66648895  0.66440055  1
  Cs  Cs18  1  0.66634358  -0.00272765  -0.00028966  1
  Cs  Cs19  1  0.66597573  0.00239760  0.33510745  1
  Cs  Cs20  1  0.66946523  -0.00049626  0.66498058  1
  Cs  Cs21  1  0.66817035  0.33494201  -0.00138701  1
  Cs  Cs22  1  0.66665412  0.33328395  0.33450083  1
  Cs  Cs23  1  0.66653387  0.33273247  0.66699397  1
  Cs  Cs24  1  0.66062708  0.66903835  -0.00509140  1
  Cs  Cs25  1  0.66461980  0.66502956  0.33198505  1
  Cs  Cs26  1  0.66597564  0.66847735  0.67152667  1
  Sn  Sn27  1  0.16629226  0.16635818  0.83342037  1
  Sn  Sn28  1  0.50009463  0.50076936  0.50007052  1
  Sn  Sn29  1  0.83323528  0.50022846  0.49970088  1
  Sn  Sn30  1  0.83354334  0.16662893  0.83401150  1
  Sn  Sn31  1  0.83369913  0.50061586  0.16692695  1
  Sn  Sn32  1  0.16632101  0.83319714  0.83393262  1
  Sn  Sn33  1  0.83381226  0.83285922  0.16658228  1
  Sn  Sn34  1  0.16653195  0.50048131  0.83380696  1
  Sn  Sn35  1  0.83363580  0.16660821  0.16603974  1
  Sn  Sn36  1  0.50012724  0.16667223  0.83355825  1
  Sn  Sn37  1  0.49992130  0.83292535  0.49969750  1
  Sn  Sn38  1  0.16610751  0.83274871  0.16628622  1
  Sn  Sn39  1  0.16628222  0.50073514  0.16662201  1
  Sn  Sn40  1  0.16665954  0.49998352  0.49953710  1
  Pb  Pb41  1  0.16809344  0.83138234  0.49911879  1
  Pb  Pb42  1  0.49734025  0.49846448  0.83106763  1
  Pb  Pb43  1  0.83561353  0.83565564  0.83543718  1
  Pb  Pb44  1  0.83511858  0.49874434  0.83388530  1
  Pb  Pb45  1  0.49740938  0.83548683  0.83118440  1
  Pb  Pb46  1  0.50007755  0.16694475  0.50207764  1
  Pb  Pb47  1  0.49931986  0.83334450  0.16875278  1
  Pb  Pb48  1  0.83130493  0.83047868  0.49742283  1
  Pb  Pb49  1  0.50319588  0.16671663  0.16401123  1
  Pb  Pb50  1  0.16638879  0.16955969  0.50254054  1
  Pb  Pb51  1  0.16489296  0.16662566  0.16491978  1
  Pb  Pb52  1  0.49978514  0.49996775  0.16853749  1
  Pb  Pb53  1  0.83357652  0.16896685  0.49978137  1
  I  I54  1  0.16291084  -0.00277409  0.16140367  1
  I  I55  1  0.16979274  -0.00020552  0.50046060  1
  I  I56  1  0.16744119  0.00003621  0.83883094  1
  I  I57  1  0.16286436  0.33647178  0.16659959  1
  I  I58  1  0.16917830  0.33831965  0.49878389  1
  I  I59  1  0.16652272  0.33358198  0.83213370  1
  I  I60  1  0.15915376  0.66574945  0.16234489  1
  I  I61  1  0.16494471  0.66284857  0.50470618  1
  I  I62  1  0.16649826  0.66606501  0.83333770  1
  I  I63  1  0.49909307  0.00000137  0.17034539  1
  I  I64  1  0.49924428  -0.00239974  0.50105291  1
  I  I65  1  0.49833327  0.00343256  0.83096573  1
  I  I66  1  0.49892249  0.33338831  0.16931934  1
  I  I67  1  0.49945850  0.33666708  0.50132825  1
  I  I68  1  0.49798904  0.33037755  0.83106910  1
  I  I69  1  0.50414124  0.66659981  0.16447727  1
  I  I70  1  0.49882627  0.66507890  0.49968421  1
  I  I71  1  0.49896654  0.66676427  0.83367361  1
  I  I72  1  0.83672157  -0.00016274  0.16058143  1
  I  I73  1  0.83040567  -0.00030255  0.49958292  1
  I  I74  1  0.83498011  0.00396760  0.83812549  1
  I  I75  1  0.83719920  0.33425450  0.16678915  1
  I  I76  1  0.83187769  0.33735413  0.49523604  1
  I  I77  1  0.83601194  0.33041888  0.83765437  1
  I  I78  1  0.83902870  0.66581297  0.17301502  1
  I  I79  1  0.83690157  0.66227560  0.49560516  1
  I  I80  1  0.83476083  0.66679676  0.83308695  1
  I  I81  1  0.16797752  0.17162757  -0.00356741  1
  I  I82  1  0.16568714  0.16623314  0.33308144  1
  I  I83  1  0.16439562  0.16602231  0.67140236  1
  I  I84  1  0.16114380  0.49940420  0.00039050  1
  I  I85  1  0.16540461  0.50542865  0.33269682  1
  I  I86  1  0.16715908  0.49843422  0.66676282  1
  I  I87  1  0.16349267  0.82908151  0.00012940  1
  I  I88  1  0.16348714  0.82789427  0.32996336  1
  I  I89  1  0.16939895  0.83342697  0.66917919  1
  I  I90  1  0.49592623  0.16672215  -0.00398183  1
  I  I91  1  0.50099153  0.16660572  0.33340759  1
  I  I92  1  0.50097606  0.16795004  0.67014495  1
  I  I93  1  0.50029232  0.49834530  -0.00031061  1
  I  I94  1  0.49595935  0.50254791  0.33699129  1
  I  I95  1  0.50060009  0.50255620  0.66276443  1
  I  I96  1  0.50130314  0.83499994  -0.00016291  1
  I  I97  1  0.49856425  0.82830291  0.33656484  1
  I  I98  1  0.49840711  0.82814754  0.66351362  1
  I  I99  1  0.83404064  0.16984589  0.00009842  1
  I  I100  1  0.83375984  0.16581126  0.33001738  1
  I  I101  1  0.83359282  0.16929523  0.66982174  1
  I  I102  1  0.83902147  0.49974042  0.00332337  1
  I  I103  1  0.83774907  0.49772918  0.33248838  1
  I  I104  1  0.83459744  0.49683961  0.66430204  1
  I  I105  1  0.83421185  0.82794235  0.00380660  1
  I  I106  1  0.84030478  0.83831488  0.32919254  1
  I  I107  1  0.83380493  0.83416174  0.66662910  1
  I  I108  1  -0.00326877  0.16834323  0.16050859  1
  I  I109  1  -0.00007496  0.16702570  0.50344721  1
  I  I110  1  0.00042834  0.16869446  0.83781666  1
  I  I111  1  0.00028869  0.49983007  0.17093261  1
  I  I112  1  0.00051999  0.49796290  0.49923113  1
  I  I113  1  0.00371663  0.49732666  0.82917611  1
  I  I114  1  0.00047908  0.83189176  0.16293949  1
  I  I115  1  0.00000652  0.83285192  0.50217532  1
  I  I116  1  0.00402347  0.83415601  0.83326435  1
  I  I117  1  0.33311292  0.16681683  0.16572197  1
  I  I118  1  0.33325693  0.16887139  0.50143977  1
  I  I119  1  0.33200611  0.16759022  0.83081086  1
  I  I120  1  0.32951586  0.50451807  0.16639163  1
  I  I121  1  0.33253594  0.50389823  0.50167658  1
  I  I122  1  0.32871656  0.49746836  0.83399375  1
  I  I123  1  0.32953242  0.82754213  0.16311492  1
  I  I124  1  0.33575031  0.82658392  0.49989449  1
  I  I125  1  0.32910418  0.83437278  0.83907613  1
  I  I126  1  0.67157227  0.16749787  0.16217258  1
  I  I127  1  0.66685157  0.16946514  0.50266845  1
  I  I128  1  0.66758344  0.16813655  0.83685373  1
  I  I129  1  0.67023064  0.49923877  0.17157063  1
  I  I130  1  0.66715463  0.50208900  0.49437035  1
  I  I131  1  0.66668316  0.49685120  0.83278162  1
  I  I132  1  0.66980312  0.83313920  0.16897152  1
  I  I133  1  0.66365513  0.82803106  0.49928231  1
  I  I134  1  0.66672321  0.83526218  0.83399319  1
