# generated using pymatgen
data_Cs27Sn14Pb13I81
_symmetry_space_group_name_H-M   'P 1'
_cell_length_a   18.96499042
_cell_length_b   18.96168638
_cell_length_c   18.95630420
_cell_angle_alpha   90.00081574
_cell_angle_beta   89.99930578
_cell_angle_gamma   89.99999002
_symmetry_Int_Tables_number   1
_chemical_formula_structural   Cs27Sn14Pb13I81
_chemical_formula_sum   'Cs27 Sn14 Pb13 I81'
_cell_volume   6816.84243828
_cell_formula_units_Z   1
loop_
 _symmetry_equiv_pos_site_id
 _symmetry_equiv_pos_as_xyz
  1  'x, y, z'
loop_
 _atom_site_type_symbol
 _atom_site_label
 _atom_site_symmetry_multiplicity
 _atom_site_fract_x
 _atom_site_fract_y
 _atom_site_fract_z
 _atom_site_occupancy
  Cs  Cs0  1  -0.00150641  0.00163503  0.00138860  1
  Cs  Cs1  1  0.00014920  -0.00209073  0.33435970  1
  Cs  Cs2  1  0.00099015  -0.00261223  0.66512080  1
  Cs  Cs3  1  0.00065249  0.33342394  0.00213773  1
  Cs  Cs4  1  -0.00051125  0.33253127  0.33230404  1
  Cs  Cs5  1  0.00133232  0.33450001  0.66666529  1
  Cs  Cs6  1  0.00078512  0.66539094  0.00062731  1
  Cs  Cs7  1  -0.00112142  0.66949762  0.33221300  1
  Cs  Cs8  1  0.00046869  0.66739283  0.66672827  1
  Cs  Cs9  1  0.33978541  -0.00137155  0.00100387  1
  Cs  Cs10  1  0.33432168  -0.00043154  0.33470019  1
  Cs  Cs11  1  0.33154482  0.00137456  0.66499511  1
  Cs  Cs12  1  0.33102684  0.33275687  0.00524993  1
  Cs  Cs13  1  0.33427712  0.33502558  0.33004109  1
  Cs  Cs14  1  0.33230660  0.33389597  0.66601408  1
  Cs  Cs15  1  0.33335867  0.66792181  0.00186650  1
  Cs  Cs16  1  0.33760728  0.66568322  0.33094337  1
  Cs  Cs17  1  0.33098232  0.66462064  0.66668658  1
  Cs  Cs18  1  0.65986698  0.00497711  -0.00603377  1
  Cs  Cs19  1  0.66474827  0.00092914  0.33296227  1
  Cs  Cs20  1  0.66679033  -0.00122060  0.67148146  1
  Cs  Cs21  1  0.66908754  0.32451167  -0.00173147  1
  Cs  Cs22  1  0.66664403  0.33452513  0.33600994  1
  Cs  Cs23  1  0.66591941  0.33467216  0.66442578  1
  Cs  Cs24  1  0.66629062  0.66993130  0.00044349  1
  Cs  Cs25  1  0.66571794  0.66530157  0.33248983  1
  Cs  Cs26  1  0.66809562  0.66545077  0.66756227  1
  Sn  Sn27  1  0.49973229  0.49989498  0.83366573  1
  Sn  Sn28  1  0.83374246  0.16703111  0.50022546  1
  Sn  Sn29  1  0.50018564  0.83372408  0.50053138  1
  Sn  Sn30  1  0.16638836  0.83346977  0.83436640  1
  Sn  Sn31  1  0.83450077  0.49952371  0.49982765  1
  Sn  Sn32  1  0.16676773  0.49973511  0.83293366  1
  Sn  Sn33  1  0.49979593  0.16575256  0.50041844  1
  Sn  Sn34  1  0.83345919  0.50066984  0.16656917  1
  Sn  Sn35  1  0.16588183  0.49934319  0.50015789  1
  Sn  Sn36  1  0.16649431  0.16683181  0.83286121  1
  Sn  Sn37  1  0.83327869  0.50009020  0.83356917  1
  Sn  Sn38  1  0.16591484  0.83331656  0.16579750  1
  Sn  Sn39  1  0.16647184  0.16767122  0.50056154  1
  Sn  Sn40  1  0.83365601  0.83323535  0.16631581  1
  Pb  Pb41  1  0.50049542  0.83332984  0.16846198  1
  Pb  Pb42  1  0.50351271  0.49986756  0.16308592  1
  Pb  Pb43  1  0.49752850  0.83140514  0.83103169  1
  Pb  Pb44  1  0.83526846  0.83153326  0.83571033  1
  Pb  Pb45  1  0.83114492  0.83300284  0.49839521  1
  Pb  Pb46  1  0.16666740  0.16388342  0.16698176  1
  Pb  Pb47  1  0.83340687  0.16637836  0.16888000  1
  Pb  Pb48  1  0.83571146  0.16879414  0.83078222  1
  Pb  Pb49  1  0.49982221  0.49962263  0.50126497  1
  Pb  Pb50  1  0.16503936  0.50175800  0.16696754  1
  Pb  Pb51  1  0.49733908  0.16903625  0.83094005  1
  Pb  Pb52  1  0.16803038  0.83287781  0.49992270  1
  Pb  Pb53  1  0.49994009  0.16693803  0.16928383  1
  I  I54  1  0.16020367  -0.00412061  0.16453778  1
  I  I55  1  0.16500067  0.00263688  0.50279644  1
  I  I56  1  0.16644404  0.00019779  0.83125487  1
  I  I57  1  0.16533653  0.33345393  0.16496142  1
  I  I58  1  0.16751247  0.33357614  0.50718147  1
  I  I59  1  0.16644843  0.33453206  0.82716719  1
  I  I60  1  0.16434379  0.66964400  0.16396164  1
  I  I61  1  0.16352830  0.66371071  0.50366311  1
  I  I62  1  0.16628239  0.66523436  0.83216383  1
  I  I63  1  0.50169072  -0.00014847  0.16540332  1
  I  I64  1  0.49836608  0.00108687  0.49910985  1
  I  I65  1  0.49860681  0.00024471  0.83371973  1
  I  I66  1  0.50012106  0.33371331  0.16959610  1
  I  I67  1  0.50013091  0.33078071  0.50224430  1
  I  I68  1  0.49946189  0.33694725  0.82960410  1
  I  I69  1  0.49807294  0.66654960  0.17131103  1
  I  I70  1  0.49899268  0.66818048  0.50111459  1
  I  I71  1  0.49837587  0.66340581  0.82918673  1
  I  I72  1  0.83862499  -0.00295186  0.17081451  1
  I  I73  1  0.83646592  0.00265078  0.49730568  1
  I  I74  1  0.83514145  0.00016578  0.83309423  1
  I  I75  1  0.83346798  0.33655392  0.16529564  1
  I  I76  1  0.83202064  0.33454251  0.49848372  1
  I  I77  1  0.83518288  0.33760805  0.83767951  1
  I  I78  1  0.83788160  0.66564450  0.16904189  1
  I  I79  1  0.83665576  0.66315680  0.50183952  1
  I  I80  1  0.83604561  0.66259709  0.82741141  1
  I  I81  1  0.16595955  0.17103040  -0.00319913  1
  I  I82  1  0.16682203  0.17011866  0.33725853  1
  I  I83  1  0.16664507  0.16607700  0.66571340  1
  I  I84  1  0.16582598  0.49793576  -0.00326523  1
  I  I85  1  0.16289179  0.49686466  0.33648406  1
  I  I86  1  0.16280680  0.50159548  0.66713585  1
  I  I87  1  0.16291970  0.83127895  -0.00084477  1
  I  I88  1  0.16439088  0.83306901  0.33124620  1
  I  I89  1  0.16900145  0.83214473  0.66910115  1
  I  I90  1  0.49923864  0.16740924  -0.00078915  1
  I  I91  1  0.49710810  0.16434595  0.33829328  1
  I  I92  1  0.50172734  0.16366873  0.66271488  1
  I  I93  1  0.49547351  0.50205528  -0.00477042  1
  I  I94  1  0.49959073  0.50007639  0.33345662  1
  I  I95  1  0.50262016  0.50030545  0.66907817  1
  I  I96  1  0.50066982  0.83133019  -0.00039053  1
  I  I97  1  0.49688958  0.83599429  0.33656615  1
  I  I98  1  0.49878494  0.83690032  0.66326887  1
  I  I99  1  0.83522692  0.16835979  -0.00039807  1
  I  I100  1  0.83592744  0.17234568  0.33755760  1
  I  I101  1  0.83162242  0.17159426  0.66239384  1
  I  I102  1  0.83442532  0.50581022  -0.00061372  1
  I  I103  1  0.83798025  0.49980281  0.33457615  1
  I  I104  1  0.83433579  0.49561229  0.66632769  1
  I  I105  1  0.83571593  0.82651917  0.00371703  1
  I  I106  1  0.84030378  0.82722379  0.33056410  1
  I  I107  1  0.83401515  0.83216383  0.66667472  1
  I  I108  1  0.00007297  0.16774375  0.16941988  1
  I  I109  1  0.00075701  0.17186425  0.50299766  1
  I  I110  1  0.00396197  0.16848569  0.82764173  1
  I  I111  1  -0.00317365  0.50201294  0.16400859  1
  I  I112  1  -0.00003094  0.49370884  0.50434919  1
  I  I113  1  0.00074646  0.50031903  0.83194648  1
  I  I114  1  0.00018276  0.82890977  0.16501627  1
  I  I115  1  0.00004398  0.83517463  0.50066231  1
  I  I116  1  0.00383000  0.83059188  0.83209135  1
  I  I117  1  0.33291218  0.16530761  0.16886272  1
  I  I118  1  0.33222582  0.16644629  0.50435496  1
  I  I119  1  0.32918745  0.16861776  0.82685005  1
  I  I120  1  0.33323466  0.50200283  0.16793336  1
  I  I121  1  0.33046715  0.49818847  0.50530604  1
  I  I122  1  0.33136181  0.50046210  0.82633851  1
  I  I123  1  0.33053557  0.83349057  0.16383820  1
  I  I124  1  0.33557928  0.83624358  0.49911873  1
  I  I125  1  0.32910686  0.83053027  0.83828855  1
  I  I126  1  0.66699588  0.16538293  0.16806029  1
  I  I127  1  0.66709050  0.16826460  0.49732987  1
  I  I128  1  0.66668433  0.16841462  0.83219877  1
  I  I129  1  0.67173625  0.50678302  0.17075593  1
  I  I130  1  0.66953666  0.49770659  0.50096055  1
  I  I131  1  0.66777352  0.50105709  0.83125766  1
  I  I132  1  0.66979233  0.82723746  0.17100637  1
  I  I133  1  0.66365361  0.83597605  0.49771994  1
  I  I134  1  0.66662323  0.83091268  0.83372075  1
