# generated using pymatgen
data_Cs27Sn13Pb14I81
_symmetry_space_group_name_H-M   'P 1'
_cell_length_a   18.97552059
_cell_length_b   18.97751837
_cell_length_c   18.97859704
_cell_angle_alpha   90.00054734
_cell_angle_beta   90.00111701
_cell_angle_gamma   90.00044783
_symmetry_Int_Tables_number   1
_chemical_formula_structural   Cs27Sn13Pb14I81
_chemical_formula_sum   'Cs27 Sn13 Pb14 I81'
_cell_volume   6834.35013607
_cell_formula_units_Z   1
loop_
 _symmetry_equiv_pos_site_id
 _symmetry_equiv_pos_as_xyz
  1  'x, y, z'
loop_
 _atom_site_type_symbol
 _atom_site_label
 _atom_site_symmetry_multiplicity
 _atom_site_fract_x
 _atom_site_fract_y
 _atom_site_fract_z
 _atom_site_occupancy
  Cs  Cs0  1  0.00518175  -0.00083753  0.00133185  1
  Cs  Cs1  1  -0.00077939  0.00227188  0.33221820  1
  Cs  Cs2  1  0.00159937  0.00032879  0.66726260  1
  Cs  Cs3  1  -0.00106560  0.33104887  -0.00011599  1
  Cs  Cs4  1  -0.00563488  0.33240854  0.33184162  1
  Cs  Cs5  1  0.00189739  0.33336233  0.66752420  1
  Cs  Cs6  1  -0.00233034  0.66766896  0.00045668  1
  Cs  Cs7  1  -0.00127056  0.66566072  0.33547434  1
  Cs  Cs8  1  0.00013135  0.66614421  0.66496654  1
  Cs  Cs9  1  0.32750836  -0.00735074  0.00754310  1
  Cs  Cs10  1  0.34006921  0.00089099  0.32658951  1
  Cs  Cs11  1  0.33260660  -0.00279471  0.66753513  1
  Cs  Cs12  1  0.33372064  0.33427528  -0.00030872  1
  Cs  Cs13  1  0.33376934  0.33489545  0.33466989  1
  Cs  Cs14  1  0.33252188  0.33524736  0.66605664  1
  Cs  Cs15  1  0.33410903  0.66825686  0.00145146  1
  Cs  Cs16  1  0.33185564  0.66550632  0.33267306  1
  Cs  Cs17  1  0.33317389  0.66480211  0.66672016  1
  Cs  Cs18  1  0.66593550  -0.00159167  0.00050124  1
  Cs  Cs19  1  0.65920446  0.00731367  0.33953923  1
  Cs  Cs20  1  0.66532744  -0.00061914  0.66176892  1
  Cs  Cs21  1  0.66768458  0.33382945  -0.00217366  1
  Cs  Cs22  1  0.67249532  0.32651960  0.33176290  1
  Cs  Cs23  1  0.66544476  0.33244693  0.67000935  1
  Cs  Cs24  1  0.66794179  0.66660276  -0.00111330  1
  Cs  Cs25  1  0.67127061  0.66787104  0.33549657  1
  Cs  Cs26  1  0.66708729  0.66895038  0.66694048  1
  Sn  Sn27  1  0.49989583  0.49953480  0.83336814  1
  Sn  Sn28  1  0.83343284  0.83370476  0.83397229  1
  Sn  Sn29  1  0.83331199  0.50006848  0.83314701  1
  Sn  Sn30  1  0.83270061  0.16622124  0.83324750  1
  Sn  Sn31  1  0.49991575  0.49990093  0.49971181  1
  Sn  Sn32  1  0.16681692  0.50011239  0.83385516  1
  Sn  Sn33  1  0.16702496  0.16684538  0.49978944  1
  Sn  Sn34  1  0.16692848  0.49991962  0.16665263  1
  Sn  Sn35  1  0.16722025  0.49978524  0.49967233  1
  Sn  Sn36  1  0.83276791  0.83368729  0.16663848  1
  Sn  Sn37  1  0.16702104  0.83350951  0.49977736  1
  Sn  Sn38  1  0.49975546  0.16684651  0.83381179  1
  Sn  Sn39  1  0.49999567  0.49997861  0.16692654  1
  Pb  Pb40  1  0.83311679  0.50111160  0.16440563  1
  Pb  Pb41  1  0.49739637  0.83085374  0.50000006  1
  Pb  Pb42  1  0.16736280  0.16829214  0.83223222  1
  Pb  Pb43  1  0.83307986  0.49978330  0.50236532  1
  Pb  Pb44  1  0.83503181  0.83353065  0.49993434  1
  Pb  Pb45  1  0.83539660  0.16669743  0.50265161  1
  Pb  Pb46  1  0.16473167  0.83084701  0.16918557  1
  Pb  Pb47  1  0.49987216  0.16930615  0.16357421  1
  Pb  Pb48  1  0.50270547  0.83067549  0.16678693  1
  Pb  Pb49  1  0.16454836  0.83080882  0.83187212  1
  Pb  Pb50  1  0.49764873  0.16923453  0.50246648  1
  Pb  Pb51  1  0.50195266  0.83343901  0.83338989  1
  Pb  Pb52  1  0.83321297  0.16347551  0.16386040  1
  Pb  Pb53  1  0.16676470  0.16939392  0.16935318  1
  I  I54  1  0.16499045  -0.00026100  0.16754354  1
  I  I55  1  0.16206542  0.00005299  0.50375137  1
  I  I56  1  0.16588498  -0.00008472  0.82956271  1
  I  I57  1  0.16900543  0.33817212  0.16723300  1
  I  I58  1  0.17059584  0.33533730  0.50178106  1
  I  I59  1  0.16256312  0.33739889  0.83052740  1
  I  I60  1  0.16978678  0.66242985  0.16762946  1
  I  I61  1  0.16927969  0.66457609  0.50086179  1
  I  I62  1  0.16754793  0.66191752  0.83054774  1
  I  I63  1  0.50054245  0.00004086  0.16515449  1
  I  I64  1  0.49866439  0.00040658  0.50241702  1
  I  I65  1  0.50567903  0.00314364  0.83094553  1
  I  I66  1  0.49644592  0.33801589  0.16823494  1
  I  I67  1  0.49299341  0.33762027  0.49985491  1
  I  I68  1  0.50500165  0.33577759  0.83292730  1
  I  I69  1  0.49528486  0.66200845  0.16271392  1
  I  I70  1  0.49459933  0.66202059  0.50413153  1
  I  I71  1  0.50018309  0.66264116  0.83285063  1
  I  I72  1  0.83645773  -0.00412641  0.15995747  1
  I  I73  1  0.83681534  0.00002248  0.50315474  1
  I  I74  1  0.82905096  0.00016485  0.83649404  1
  I  I75  1  0.83385583  0.33333999  0.16592001  1
  I  I76  1  0.83690132  0.33354222  0.50080716  1
  I  I77  1  0.83278292  0.33432860  0.83156836  1
  I  I78  1  0.83373682  0.66869920  0.15943013  1
  I  I79  1  0.83596249  0.66644362  0.50349757  1
  I  I80  1  0.83414255  0.66565885  0.83651215  1
  I  I81  1  0.16555547  0.16910206  -0.00006643  1
  I  I82  1  0.16611668  0.16941103  0.33756223  1
  I  I83  1  0.16541943  0.17089950  0.66413870  1
  I  I84  1  0.16882920  0.50002146  -0.00073819  1
  I  I85  1  0.17379638  0.50080772  0.33419817  1
  I  I86  1  0.16815654  0.50008108  0.66652749  1
  I  I87  1  0.16687878  0.83159378  0.00018574  1
  I  I88  1  0.16302631  0.82882830  0.33693703  1
  I  I89  1  0.16406529  0.82938559  0.66385797  1
  I  I90  1  0.50426763  0.17471300  -0.00448802  1
  I  I91  1  0.49936577  0.16769799  0.33350351  1
  I  I92  1  0.50461256  0.17434751  0.67024194  1
  I  I93  1  0.49737294  0.49674220  -0.00108464  1
  I  I94  1  0.49015321  0.50272741  0.33355884  1
  I  I95  1  0.49683840  0.49683998  0.66751597  1
  I  I96  1  0.49765099  0.83023331  -0.00007815  1
  I  I97  1  0.50322728  0.83134898  0.33339772  1
  I  I98  1  0.50240436  0.82979483  0.66678178  1
  I  I99  1  0.83126155  0.17194472  -0.00457725  1
  I  I100  1  0.83468931  0.16567916  0.33329234  1
  I  I101  1  0.83012064  0.16604812  0.67106549  1
  I  I102  1  0.83386444  0.49855904  -0.00416340  1
  I  I103  1  0.83403440  0.50357372  0.33314604  1
  I  I104  1  0.83439440  0.50264995  0.67117580  1
  I  I105  1  0.83393614  0.83084387  -0.00174794  1
  I  I106  1  0.83676411  0.82832639  0.33073664  1
  I  I107  1  0.83479161  0.83168497  0.67004095  1
  I  I108  1  -0.00000563  0.17004121  0.16489347  1
  I  I109  1  0.00359009  0.17135620  0.50282377  1
  I  I110  1  -0.00259506  0.16865297  0.83095310  1
  I  I111  1  0.00277226  0.50191454  0.16740590  1
  I  I112  1  0.00364704  0.50069948  0.50066837  1
  I  I113  1  0.00013799  0.50038503  0.83235640  1
  I  I114  1  -0.00280675  0.82966160  0.16102807  1
  I  I115  1  0.00326167  0.82754140  0.50170419  1
  I  I116  1  -0.00368624  0.83285007  0.83583623  1
  I  I117  1  0.33328595  0.16404983  0.16346129  1
  I  I118  1  0.32980372  0.16716379  0.50400660  1
  I  I119  1  0.33608472  0.17537616  0.82998077  1
  I  I120  1  0.33296759  0.50035635  0.16258407  1
  I  I121  1  0.33207345  0.50039014  0.50489896  1
  I  I122  1  0.33361509  0.49509554  0.83213648  1
  I  I123  1  0.33319883  0.83388659  0.16752088  1
  I  I124  1  0.32916755  0.83294841  0.50152217  1
  I  I125  1  0.33309615  0.83297544  0.83151276  1
  I  I126  1  0.66661234  0.16978234  0.16923466  1
  I  I127  1  0.66623833  0.16801967  0.49928705  1
  I  I128  1  0.66708107  0.17378277  0.83341554  1
  I  I129  1  0.66381598  0.50230210  0.16544354  1
  I  I130  1  0.66340878  0.50083137  0.50084300  1
  I  I131  1  0.66636673  0.49968209  0.83347954  1
  I  I132  1  0.67039203  0.82895393  0.16017805  1
  I  I133  1  0.66659446  0.83048756  0.50080193  1
  I  I134  1  0.67040423  0.82696751  0.83582245  1
