# generated using pymatgen
data_Cs27Sn13Pb14I81
_symmetry_space_group_name_H-M   'P 1'
_cell_length_a   18.97509015
_cell_length_b   18.97567171
_cell_length_c   18.97962538
_cell_angle_alpha   90.00020502
_cell_angle_beta   90.00059726
_cell_angle_gamma   89.99806113
_symmetry_Int_Tables_number   1
_chemical_formula_structural   Cs27Sn13Pb14I81
_chemical_formula_sum   'Cs27 Sn13 Pb14 I81'
_cell_volume   6833.90035034
_cell_formula_units_Z   1
loop_
 _symmetry_equiv_pos_site_id
 _symmetry_equiv_pos_as_xyz
  1  'x, y, z'
loop_
 _atom_site_type_symbol
 _atom_site_label
 _atom_site_symmetry_multiplicity
 _atom_site_fract_x
 _atom_site_fract_y
 _atom_site_fract_z
 _atom_site_occupancy
  Cs  Cs0  1  -0.00202074  -0.00057992  -0.00020119  1
  Cs  Cs1  1  0.00014565  0.00221770  0.33515848  1
  Cs  Cs2  1  0.00155228  -0.00011110  0.66540554  1
  Cs  Cs3  1  0.00124496  0.33380715  0.00072678  1
  Cs  Cs4  1  -0.00185538  0.33058634  0.33262273  1
  Cs  Cs5  1  -0.00025791  0.33398980  0.66626758  1
  Cs  Cs6  1  0.00166158  0.66702613  -0.00069860  1
  Cs  Cs7  1  0.00335158  0.66861271  0.33205867  1
  Cs  Cs8  1  -0.00080998  0.66620122  0.66790022  1
  Cs  Cs9  1  0.33608174  0.00047921  -0.00169660  1
  Cs  Cs10  1  0.34073725  -0.00123802  0.33479747  1
  Cs  Cs11  1  0.33146185  0.00007949  0.66703682  1
  Cs  Cs12  1  0.33443480  0.33566013  -0.00040990  1
  Cs  Cs13  1  0.33343593  0.33083736  0.33742018  1
  Cs  Cs14  1  0.33382366  0.32932220  0.66463588  1
  Cs  Cs15  1  0.32988468  0.66359405  -0.00027473  1
  Cs  Cs16  1  0.33287433  0.66967206  0.33232928  1
  Cs  Cs17  1  0.33327450  0.66849827  0.66745647  1
  Cs  Cs18  1  0.66672842  0.00003530  0.00130031  1
  Cs  Cs19  1  0.66281515  -0.00349471  0.33088376  1
  Cs  Cs20  1  0.66628583  -0.00032528  0.66886198  1
  Cs  Cs21  1  0.66441545  0.33115363  0.00263273  1
  Cs  Cs22  1  0.66856267  0.33738296  0.33092077  1
  Cs  Cs23  1  0.66590606  0.33701155  0.66484777  1
  Cs  Cs24  1  0.66869233  0.66782751  -0.00148273  1
  Cs  Cs25  1  0.66279862  0.66473174  0.33583287  1
  Cs  Cs26  1  0.66774372  0.66344197  0.66517103  1
  Sn  Sn27  1  0.16577237  0.83261963  0.50072880  1
  Sn  Sn28  1  0.83402212  0.83395929  0.49989485  1
  Sn  Sn29  1  0.16636975  0.16628269  0.16581660  1
  Sn  Sn30  1  0.83333926  0.16580796  0.49991937  1
  Sn  Sn31  1  0.83319888  0.49996555  0.16635570  1
  Sn  Sn32  1  0.16568514  0.16597536  0.83443882  1
  Sn  Sn33  1  0.49938810  0.83229969  0.83332555  1
  Sn  Sn34  1  0.83419193  0.16712243  0.16657853  1
  Sn  Sn35  1  0.49995421  0.50082863  0.83391118  1
  Sn  Sn36  1  0.16640259  0.50089566  0.50012939  1
  Sn  Sn37  1  0.50049368  0.49999438  0.16587054  1
  Sn  Sn38  1  0.16704469  0.83396441  0.83292192  1
  Sn  Sn39  1  0.83415677  0.16682803  0.83337736  1
  Pb  Pb40  1  0.49732423  0.50014290  0.49991220  1
  Pb  Pb41  1  0.16832016  0.49965567  0.83161821  1
  Pb  Pb42  1  0.49990005  0.83334092  0.50247628  1
  Pb  Pb43  1  0.83531297  0.50025856  0.49784859  1
  Pb  Pb44  1  0.16661588  0.83636347  0.16652958  1
  Pb  Pb45  1  0.83132219  0.49742233  0.83560139  1
  Pb  Pb46  1  0.83373619  0.83516454  0.83143187  1
  Pb  Pb47  1  0.16527643  0.16584247  0.50009406  1
  Pb  Pb48  1  0.49989718  0.83033017  0.16357997  1
  Pb  Pb49  1  0.49978077  0.16675438  0.83332481  1
  Pb  Pb50  1  0.50005307  0.16866865  0.16664950  1
  Pb  Pb51  1  0.83346406  0.83350752  0.16932637  1
  Pb  Pb52  1  0.16667848  0.49771988  0.16866804  1
  Pb  Pb53  1  0.50401294  0.16659481  0.49994256  1
  I  I54  1  0.15856748  0.00436781  0.16704914  1
  I  I55  1  0.16359656  -0.00274483  0.50205072  1
  I  I56  1  0.16895754  -0.00003571  0.83061621  1
  I  I57  1  0.16460999  0.32982443  0.16246570  1
  I  I58  1  0.16615438  0.33456606  0.49959314  1
  I  I59  1  0.16423912  0.33027134  0.83486560  1
  I  I60  1  0.16630011  0.66654876  0.16547731  1
  I  I61  1  0.16102194  0.66822454  0.50491464  1
  I  I62  1  0.16944033  0.66935461  0.83022991  1
  I  I63  1  0.50068305  -0.00003836  0.16640333  1
  I  I64  1  0.49506620  -0.00021502  0.50167230  1
  I  I65  1  0.49851962  -0.00252974  0.83081213  1
  I  I66  1  0.50153624  0.33652434  0.15936293  1
  I  I67  1  0.49725867  0.33363275  0.50361111  1
  I  I68  1  0.50045664  0.33595368  0.83748293  1
  I  I69  1  0.50613022  0.66236420  0.16619987  1
  I  I70  1  0.50478329  0.66670226  0.49840335  1
  I  I71  1  0.49398699  0.66699089  0.83720529  1
  I  I72  1  0.83793384  0.00362198  0.16506342  1
  I  I73  1  0.84018132  0.00062551  0.49891384  1
  I  I74  1  0.83235226  0.00351610  0.83787707  1
  I  I75  1  0.83278579  0.33198120  0.16894806  1
  I  I76  1  0.83558055  0.33054482  0.50115552  1
  I  I77  1  0.83829280  0.32911060  0.82818319  1
  I  I78  1  0.82851000  0.66371775  0.16873414  1
  I  I79  1  0.83557895  0.66928423  0.49918278  1
  I  I80  1  0.83497561  0.66660349  0.83323413  1
  I  I81  1  0.15881699  0.16279009  -0.00101520  1
  I  I82  1  0.16171827  0.16885962  0.33129017  1
  I  I83  1  0.16326973  0.16604212  0.66936584  1
  I  I84  1  0.16576974  0.50172169  0.00002358  1
  I  I85  1  0.16775447  0.50418781  0.33640844  1
  I  I86  1  0.16757165  0.49892087  0.66384219  1
  I  I87  1  0.17066749  0.83544481  -0.00346771  1
  I  I88  1  0.16208219  0.83053530  0.33651888  1
  I  I89  1  0.16714605  0.83583445  0.66710887  1
  I  I90  1  0.50411976  0.16467658  -0.00016270  1
  I  I91  1  0.49673661  0.16880453  0.33312026  1
  I  I92  1  0.49918631  0.17012345  0.66703461  1
  I  I93  1  0.50285066  0.50297996  -0.00010242  1
  I  I94  1  0.50410993  0.49723107  0.33044362  1
  I  I95  1  0.49877771  0.50326259  0.66958038  1
  I  I96  1  0.49444629  0.83345238  -0.00439588  1
  I  I97  1  0.49949057  0.83295245  0.33340103  1
  I  I98  1  0.49867455  0.82722801  0.67034166  1
  I  I99  1  0.83724648  0.17130562  0.00024467  1
  I  I100  1  0.83834281  0.16757232  0.33275927  1
  I  I101  1  0.83747289  0.16173618  0.66683021  1
  I  I102  1  0.83312863  0.49456883  0.00360219  1
  I  I103  1  0.82725390  0.49318250  0.33010309  1
  I  I104  1  0.83173649  0.49800004  0.66660110  1
  I  I105  1  0.83322866  0.83436777  -0.00019276  1
  I  I106  1  0.83988136  0.83883461  0.33732662  1
  I  I107  1  0.83484617  0.83885519  0.66352114  1
  I  I108  1  -0.00123203  0.17276398  0.16594976  1
  I  I109  1  -0.00287649  0.16582807  0.49945607  1
  I  I110  1  0.00045006  0.16139483  0.83413068  1
  I  I111  1  -0.00247547  0.49606957  0.16963905  1
  I  I112  1  0.00293085  0.50094044  0.49904379  1
  I  I113  1  0.00003755  0.50200235  0.83402390  1
  I  I114  1  0.00003416  0.82782562  0.16233651  1
  I  I115  1  0.00086739  0.83360300  0.50571319  1
  I  I116  1  0.00304696  0.83641318  0.83059845  1
  I  I117  1  0.33032141  0.16780876  0.16145416  1
  I  I118  1  0.33293510  0.16722378  0.49992633  1
  I  I119  1  0.33001485  0.16587606  0.83750146  1
  I  I120  1  0.33575394  0.49869542  0.16346720  1
  I  I121  1  0.32955229  0.50512003  0.49829078  1
  I  I122  1  0.33628856  0.49943330  0.83938910  1
  I  I123  1  0.33316762  0.83416451  0.17196313  1
  I  I124  1  0.32999469  0.82933924  0.50189552  1
  I  I125  1  0.33198970  0.83594966  0.82746962  1
  I  I126  1  0.67023988  0.16886790  0.16606993  1
  I  I127  1  0.67254848  0.16175266  0.50063367  1
  I  I128  1  0.66972595  0.16659159  0.83372695  1
  I  I129  1  0.66720695  0.49301707  0.16409962  1
  I  I130  1  0.66685506  0.49927291  0.50111858  1
  I  I131  1  0.66328078  0.50469604  0.83344265  1
  I  I132  1  0.66675096  0.83829672  0.16666037  1
  I  I133  1  0.66961407  0.83879122  0.50035064  1
  I  I134  1  0.66446774  0.83129410  0.83203436  1
