# generated using pymatgen
data_Cs27Sn14Pb13I81
_symmetry_space_group_name_H-M   'P 1'
_cell_length_a   18.97949900
_cell_length_b   18.96829052
_cell_length_c   18.97851927
_cell_angle_alpha   90.00068083
_cell_angle_beta   89.99913782
_cell_angle_gamma   89.99778049
_symmetry_Int_Tables_number   1
_chemical_formula_structural   Cs27Sn14Pb13I81
_chemical_formula_sum   'Cs27 Sn14 Pb13 I81'
_cell_volume   6832.43111295
_cell_formula_units_Z   1
loop_
 _symmetry_equiv_pos_site_id
 _symmetry_equiv_pos_as_xyz
  1  'x, y, z'
loop_
 _atom_site_type_symbol
 _atom_site_label
 _atom_site_symmetry_multiplicity
 _atom_site_fract_x
 _atom_site_fract_y
 _atom_site_fract_z
 _atom_site_occupancy
  Cs  Cs0  1  -0.00496491  -0.00062074  0.00253809  1
  Cs  Cs1  1  -0.00009807  0.00068123  0.33180312  1
  Cs  Cs2  1  -0.00133658  0.00212827  0.66732908  1
  Cs  Cs3  1  0.00584544  0.33358013  -0.00303277  1
  Cs  Cs4  1  -0.00044008  0.33683672  0.33588565  1
  Cs  Cs5  1  0.00982591  0.33492792  0.66696255  1
  Cs  Cs6  1  -0.00244852  0.66634377  0.00194412  1
  Cs  Cs7  1  -0.00413985  0.66015294  0.33227342  1
  Cs  Cs8  1  -0.00040361  0.66387407  0.66647458  1
  Cs  Cs9  1  0.33448993  -0.00021512  0.00287097  1
  Cs  Cs10  1  0.33209554  -0.00135569  0.33385636  1
  Cs  Cs11  1  0.33328092  -0.00237254  0.66474297  1
  Cs  Cs12  1  0.33480609  0.33364975  0.00157508  1
  Cs  Cs13  1  0.33239519  0.33411200  0.32931753  1
  Cs  Cs14  1  0.32571079  0.33268009  0.66843301  1
  Cs  Cs15  1  0.33234110  0.66676756  -0.00149281  1
  Cs  Cs16  1  0.33397965  0.67127317  0.33242198  1
  Cs  Cs17  1  0.33754060  0.66941291  0.66794782  1
  Cs  Cs18  1  0.67111208  0.00290459  -0.00182306  1
  Cs  Cs19  1  0.66743166  0.00097560  0.33499287  1
  Cs  Cs20  1  0.66790753  0.00004711  0.66561522  1
  Cs  Cs21  1  0.66120991  0.33023365  -0.00115183  1
  Cs  Cs22  1  0.66717697  0.33298873  0.33158572  1
  Cs  Cs23  1  0.66712013  0.33589554  0.66672184  1
  Cs  Cs24  1  0.67009997  0.66660730  -0.00173098  1
  Cs  Cs25  1  0.66854179  0.66444595  0.33393642  1
  Cs  Cs26  1  0.66458410  0.66563118  0.66681385  1
  Sn  Sn27  1  0.50083560  0.50073582  0.83237871  1
  Sn  Sn28  1  0.50034931  0.16689645  0.50023784  1
  Sn  Sn29  1  0.16604100  0.83341273  0.49984295  1
  Sn  Sn30  1  0.83285713  0.16624950  0.49945234  1
  Sn  Sn31  1  0.16704244  0.83360941  0.83353314  1
  Sn  Sn32  1  0.16575430  0.16573101  0.16693500  1
  Sn  Sn33  1  0.49984004  0.49973916  0.50052160  1
  Sn  Sn34  1  0.83257081  0.49961101  0.83316404  1
  Sn  Sn35  1  0.83418827  0.16678216  0.16741559  1
  Sn  Sn36  1  0.50014545  0.83344826  0.16646296  1
  Sn  Sn37  1  0.83329230  0.83379567  0.49993512  1
  Sn  Sn38  1  0.49970364  0.83308969  0.83362256  1
  Sn  Sn39  1  0.16700947  0.83381952  0.16671862  1
  Sn  Sn40  1  0.50037097  0.83343175  0.49985585  1
  Pb  Pb41  1  0.16675586  0.50062987  0.16679881  1
  Pb  Pb42  1  0.50009921  0.50292274  0.16636881  1
  Pb  Pb43  1  0.16776666  0.50272938  0.83338727  1
  Pb  Pb44  1  0.83139631  0.49924630  0.50160966  1
  Pb  Pb45  1  0.17013551  0.50317786  0.49987509  1
  Pb  Pb46  1  0.49989833  0.16633829  0.83039388  1
  Pb  Pb47  1  0.16653732  0.16469194  0.49819857  1
  Pb  Pb48  1  0.16688173  0.16318943  0.83635647  1
  Pb  Pb49  1  0.83335292  0.16954293  0.83241435  1
  Pb  Pb50  1  0.50001248  0.16419956  0.16900351  1
  Pb  Pb51  1  0.83310472  0.83204075  0.83078820  1
  Pb  Pb52  1  0.83332458  0.83461142  0.16903658  1
  Pb  Pb53  1  0.83302886  0.49629543  0.16386140  1
  I  I54  1  0.16732000  -0.00172128  0.16692266  1
  I  I55  1  0.17230539  -0.00391080  0.50179399  1
  I  I56  1  0.17334563  -0.00493702  0.82943740  1
  I  I57  1  0.16247220  0.33006324  0.16782999  1
  I  I58  1  0.16646842  0.33328031  0.49825157  1
  I  I59  1  0.16659051  0.33336393  0.83480834  1
  I  I60  1  0.17220108  0.67104823  0.16650705  1
  I  I61  1  0.16546544  0.67195420  0.49732806  1
  I  I62  1  0.16876016  0.67099865  0.83514752  1
  I  I63  1  0.49782512  -0.00405744  0.16668623  1
  I  I64  1  0.50041093  -0.00178240  0.49971910  1
  I  I65  1  0.49542473  -0.00378132  0.83231201  1
  I  I66  1  0.49930989  0.33301517  0.16685624  1
  I  I67  1  0.50673478  0.33319877  0.50388311  1
  I  I68  1  0.50524715  0.33645618  0.82939922  1
  I  I69  1  0.49326457  0.67132502  0.17169312  1
  I  I70  1  0.49935700  0.66849322  0.50101483  1
  I  I71  1  0.49975969  0.66810770  0.82816079  1
  I  I72  1  0.83422457  0.00258968  0.16777483  1
  I  I73  1  0.82792864  -0.00045784  0.49771465  1
  I  I74  1  0.83328226  0.00006106  0.83443657  1
  I  I75  1  0.83866970  0.32844733  0.17543954  1
  I  I76  1  0.82740267  0.33013420  0.49650291  1
  I  I77  1  0.82470044  0.33718972  0.83287265  1
  I  I78  1  0.83404910  0.66667227  0.16798061  1
  I  I79  1  0.83286031  0.66936059  0.50155589  1
  I  I80  1  0.83119380  0.66433639  0.83075631  1
  I  I81  1  0.16063993  0.16118851  0.00436428  1
  I  I82  1  0.16671699  0.15856460  0.33044818  1
  I  I83  1  0.16588092  0.16597188  0.66645379  1
  I  I84  1  0.16824717  0.50158630  -0.00012631  1
  I  I85  1  0.16771631  0.50298802  0.33353339  1
  I  I86  1  0.16343842  0.49954735  0.66662947  1
  I  I87  1  0.17492102  0.83639273  0.00036809  1
  I  I88  1  0.17195366  0.83771451  0.33337711  1
  I  I89  1  0.17086388  0.83182207  0.66616088  1
  I  I90  1  0.50043082  0.16671460  0.00023163  1
  I  I91  1  0.50129329  0.16582988  0.33711021  1
  I  I92  1  0.50659494  0.16082339  0.66220252  1
  I  I93  1  0.50306236  0.50494876  -0.00345601  1
  I  I94  1  0.49964495  0.50180973  0.33651194  1
  I  I95  1  0.50458929  0.50671272  0.66652492  1
  I  I96  1  0.49214666  0.82860155  -0.00054175  1
  I  I97  1  0.49668006  0.83372393  0.33473596  1
  I  I98  1  0.49732984  0.83258512  0.66570601  1
  I  I99  1  0.83767163  0.16677285  0.00267962  1
  I  I100  1  0.83259208  0.16149042  0.33445434  1
  I  I101  1  0.82764351  0.16201628  0.66297568  1
  I  I102  1  0.82639439  0.50220051  -0.00377175  1
  I  I103  1  0.83233205  0.50219089  0.33356309  1
  I  I104  1  0.82977817  0.50049574  0.66924931  1
  I  I105  1  0.83300761  0.83396670  -0.00003065  1
  I  I106  1  0.83168957  0.83432402  0.33724346  1
  I  I107  1  0.83261788  0.83909458  0.66264119  1
  I  I108  1  0.00007720  0.15903025  0.17188470  1
  I  I109  1  -0.00279356  0.16084290  0.49809879  1
  I  I110  1  0.00004939  0.16787430  0.82866423  1
  I  I111  1  -0.00022355  0.50585970  0.16458266  1
  I  I112  1  0.00000785  0.50070794  0.50194440  1
  I  I113  1  -0.00204451  0.50072548  0.83371793  1
  I  I114  1  0.00287093  0.83590746  0.16580315  1
  I  I115  1  0.00004257  0.83916950  0.50060367  1
  I  I116  1  0.00261137  0.83190411  0.83362603  1
  I  I117  1  0.33102602  0.16337733  0.16780785  1
  I  I118  1  0.33607109  0.16498671  0.49940254  1
  I  I119  1  0.33343556  0.17184590  0.83317385  1
  I  I120  1  0.33360547  0.49430244  0.16504466  1
  I  I121  1  0.33831350  0.49904615  0.50712552  1
  I  I122  1  0.33696751  0.50319430  0.82872495  1
  I  I123  1  0.33319650  0.83836529  0.17070508  1
  I  I124  1  0.33445473  0.83305453  0.50002896  1
  I  I125  1  0.33450854  0.82811429  0.82933684  1
  I  I126  1  0.66894492  0.16531068  0.16923694  1
  I  I127  1  0.66661720  0.16048945  0.49449639  1
  I  I128  1  0.66661644  0.16173397  0.83879140  1
  I  I129  1  0.66650178  0.50097459  0.16858158  1
  I  I130  1  0.66328235  0.50601810  0.50212102  1
  I  I131  1  0.66482414  0.50672042  0.82927484  1
  I  I132  1  0.66394418  0.83420475  0.16707200  1
  I  I133  1  0.66521299  0.83399267  0.50019960  1
  I  I134  1  0.66346891  0.83116720  0.83294687  1
