# generated using pymatgen
data_Cs27Sn14Pb13I81
_symmetry_space_group_name_H-M   'P 1'
_cell_length_a   19.03537436
_cell_length_b   19.05561038
_cell_length_c   19.05339359
_cell_angle_alpha   89.99804943
_cell_angle_beta   89.99832470
_cell_angle_gamma   89.99850171
_symmetry_Int_Tables_number   1
_chemical_formula_structural   Cs27Sn14Pb13I81
_chemical_formula_sum   'Cs27 Sn14 Pb13 I81'
_cell_volume   6911.25034858
_cell_formula_units_Z   1
loop_
 _symmetry_equiv_pos_site_id
 _symmetry_equiv_pos_as_xyz
  1  'x, y, z'
loop_
 _atom_site_type_symbol
 _atom_site_label
 _atom_site_symmetry_multiplicity
 _atom_site_fract_x
 _atom_site_fract_y
 _atom_site_fract_z
 _atom_site_occupancy
  Cs  Cs0  1  0.00137078  -0.00174218  -0.00226342  1
  Cs  Cs1  1  0.00783467  0.00232933  0.33715757  1
  Cs  Cs2  1  0.00128530  0.00639452  0.66801971  1
  Cs  Cs3  1  -0.00083691  0.33943194  -0.00001395  1
  Cs  Cs4  1  -0.00077968  0.33608638  0.34053500  1
  Cs  Cs5  1  0.00275450  0.33125159  0.66309514  1
  Cs  Cs6  1  -0.00225589  0.66427960  -0.00126106  1
  Cs  Cs7  1  -0.00035245  0.66325164  0.33119154  1
  Cs  Cs8  1  -0.00208276  0.66604684  0.67032932  1
  Cs  Cs9  1  0.32904373  0.00411293  0.00831343  1
  Cs  Cs10  1  0.32795535  -0.01488295  0.31705619  1
  Cs  Cs11  1  0.33629235  0.00105648  0.66805245  1
  Cs  Cs12  1  0.33409335  0.33061111  0.00596147  1
  Cs  Cs13  1  0.33638935  0.33530572  0.33076376  1
  Cs  Cs14  1  0.33325579  0.33511900  0.66098774  1
  Cs  Cs15  1  0.33210818  0.66429628  -0.00053762  1
  Cs  Cs16  1  0.34025734  0.68007729  0.34996425  1
  Cs  Cs17  1  0.33513919  0.66415974  0.65612800  1
  Cs  Cs18  1  0.66880127  0.00067524  -0.00407050  1
  Cs  Cs19  1  0.66487668  0.00270637  0.33566569  1
  Cs  Cs20  1  0.66651955  0.00335562  0.66777028  1
  Cs  Cs21  1  0.66595780  0.33380515  0.00061367  1
  Cs  Cs22  1  0.66712952  0.32876635  0.32877009  1
  Cs  Cs23  1  0.66488184  0.32654306  0.66728733  1
  Cs  Cs24  1  0.66972285  0.66401619  -0.00238701  1
  Cs  Cs25  1  0.66363261  0.66909822  0.33483879  1
  Cs  Cs26  1  0.66660756  0.66814998  0.66934723  1
  Sn  Sn27  1  0.83334482  0.83355650  0.16684399  1
  Sn  Sn28  1  0.83336055  0.50017126  0.16678607  1
  Sn  Sn29  1  0.50042466  0.16594072  0.83264086  1
  Sn  Sn30  1  0.83409711  0.16630747  0.16522051  1
  Sn  Sn31  1  0.16709048  0.83208913  0.83307969  1
  Sn  Sn32  1  0.83303780  0.16700610  0.83474969  1
  Sn  Sn33  1  0.16605923  0.50067051  0.16617977  1
  Sn  Sn34  1  0.83348093  0.83355503  0.83312990  1
  Sn  Sn35  1  0.83241854  0.50107039  0.50047329  1
  Sn  Sn36  1  0.16602768  0.50073698  0.83436643  1
  Sn  Sn37  1  0.83369383  0.83276627  0.50019266  1
  Sn  Sn38  1  0.49938812  0.83404497  0.83393453  1
  Sn  Sn39  1  0.83363303  0.49950935  0.83262319  1
  Sn  Sn40  1  0.49937643  0.16606897  0.50022064  1
  Pb  Pb41  1  0.16429227  0.50018929  0.49987267  1
  Pb  Pb42  1  0.16346301  0.83344601  0.50326015  1
  Pb  Pb43  1  0.50352726  0.49754761  0.50010365  1
  Pb  Pb44  1  0.16347949  0.83003036  0.16394591  1
  Pb  Pb45  1  0.50291076  0.83296870  0.16314406  1
  Pb  Pb46  1  0.83264566  0.16636029  0.50004762  1
  Pb  Pb47  1  0.16285104  0.16972194  0.16642868  1
  Pb  Pb48  1  0.49933995  0.49975029  0.83350203  1
  Pb  Pb49  1  0.16687870  0.16733580  0.83335327  1
  Pb  Pb50  1  0.50226530  0.16646921  0.16602272  1
  Pb  Pb51  1  0.17090163  0.16616474  0.49966391  1
  Pb  Pb52  1  0.49934193  0.50073213  0.16671603  1
  Pb  Pb53  1  0.50307452  0.83597387  0.50283032  1
  I  I54  1  0.16802944  -0.00030973  0.16739702  1
  I  I55  1  0.15802999  -0.00024001  0.50330520  1
  I  I56  1  0.16082591  -0.00243560  0.83060965  1
  I  I57  1  0.15957376  0.33739413  0.15512109  1
  I  I58  1  0.16151801  0.33362971  0.50455108  1
  I  I59  1  0.16068283  0.33645530  0.83748906  1
  I  I60  1  0.15490834  0.66300859  0.16267345  1
  I  I61  1  0.17403549  0.66662777  0.49689437  1
  I  I62  1  0.15948997  0.66645266  0.83870248  1
  I  I63  1  0.50094699  -0.00005648  0.17121513  1
  I  I64  1  0.50828756  0.00303228  0.50495319  1
  I  I65  1  0.50783024  -0.00000636  0.82763690  1
  I  I66  1  0.50353883  0.33320273  0.16348084  1
  I  I67  1  0.50351615  0.33008004  0.51179663  1
  I  I68  1  0.50668323  0.33051223  0.82951798  1
  I  I69  1  0.50604733  0.66685466  0.16381480  1
  I  I70  1  0.49575420  0.66709325  0.49930824  1
  I  I71  1  0.50639625  0.66932665  0.83576924  1
  I  I72  1  0.82862697  -0.00017169  0.16136162  1
  I  I73  1  0.83051485  -0.00263136  0.50113942  1
  I  I74  1  0.83280619  -0.00057723  0.83590479  1
  I  I75  1  0.83625196  0.33378534  0.16334526  1
  I  I76  1  0.83226648  0.33574586  0.49965135  1
  I  I77  1  0.83257331  0.33350903  0.83625865  1
  I  I78  1  0.83763462  0.66631857  0.16257139  1
  I  I79  1  0.83366243  0.66661050  0.50166604  1
  I  I80  1  0.83279231  0.66703045  0.83527647  1
  I  I81  1  0.17568350  0.16268164  -0.00041557  1
  I  I82  1  0.16379737  0.17031894  0.33298226  1
  I  I83  1  0.15654171  0.17004349  0.66723275  1
  I  I84  1  0.15385554  0.50451616  -0.00105838  1
  I  I85  1  0.15743266  0.49442541  0.33029447  1
  I  I86  1  0.16182546  0.50413567  0.66977505  1
  I  I87  1  0.16358387  0.83346063  -0.00364555  1
  I  I88  1  0.16730786  0.83404035  0.33323664  1
  I  I89  1  0.16377586  0.82367880  0.67122391  1
  I  I90  1  0.50232285  0.16207434  -0.00347797  1
  I  I91  1  0.50620287  0.17245512  0.33566376  1
  I  I92  1  0.51128226  0.16245731  0.66871412  1
  I  I93  1  0.50758035  0.49653785  -0.00037556  1
  I  I94  1  0.50066295  0.49432719  0.33342362  1
  I  I95  1  0.49914862  0.50330929  0.66708038  1
  I  I96  1  0.50354304  0.84276983  -0.00466711  1
  I  I97  1  0.50035587  0.83440993  0.33342784  1
  I  I98  1  0.50416061  0.83404921  0.67044470  1
  I  I99  1  0.82535005  0.16694929  -0.00165327  1
  I  I100  1  0.83047292  0.16818815  0.33076068  1
  I  I101  1  0.83166895  0.16648570  0.66987050  1
  I  I102  1  0.83682510  0.50197614  -0.00064345  1
  I  I103  1  0.83817007  0.50165890  0.33264483  1
  I  I104  1  0.83746667  0.50355513  0.66812213  1
  I  I105  1  0.83267006  0.83121798  -0.00151047  1
  I  I106  1  0.83188120  0.82909156  0.33306912  1
  I  I107  1  0.83264940  0.82927631  0.66862171  1
  I  I108  1  -0.00514137  0.16170574  0.15695529  1
  I  I109  1  -0.00015544  0.16718475  0.49942505  1
  I  I110  1  -0.00323117  0.16270856  0.83866730  1
  I  I111  1  -0.00302678  0.49965190  0.16449019  1
  I  I112  1  -0.00398794  0.50240811  0.50003720  1
  I  I113  1  -0.00249085  0.50389428  0.83402072  1
  I  I114  1  -0.00456521  0.83723528  0.16346120  1
  I  I115  1  -0.00462021  0.82935724  0.50183221  1
  I  I116  1  -0.00230175  0.83267959  0.83378311  1
  I  I117  1  0.33314468  0.17016822  0.16743686  1
  I  I118  1  0.33856320  0.16968607  0.51636481  1
  I  I119  1  0.33637245  0.16261196  0.82555009  1
  I  I120  1  0.32962841  0.49574412  0.15452712  1
  I  I121  1  0.33332410  0.49655835  0.49997735  1
  I  I122  1  0.32999915  0.50348790  0.84108662  1
  I  I123  1  0.33291269  0.83258453  0.16654258  1
  I  I124  1  0.33352498  0.83469032  0.50021448  1
  I  I125  1  0.33328947  0.83366278  0.83298103  1
  I  I126  1  0.67055117  0.17195737  0.16510794  1
  I  I127  1  0.66536983  0.16724304  0.50344492  1
  I  I128  1  0.66857234  0.16316741  0.83320697  1
  I  I129  1  0.67141850  0.49902659  0.16471704  1
  I  I130  1  0.67163787  0.50687005  0.50093307  1
  I  I131  1  0.67027485  0.50341759  0.83466794  1
  I  I132  1  0.67173120  0.82874396  0.16393915  1
  I  I133  1  0.67060193  0.82700353  0.50209676  1
  I  I134  1  0.66915595  0.83373381  0.83333323  1
