# generated using pymatgen
data_Cs27Sn14Pb13I81
_symmetry_space_group_name_H-M   'P 1'
_cell_length_a   18.99091378
_cell_length_b   18.96094707
_cell_length_c   18.97736158
_cell_angle_alpha   89.99976351
_cell_angle_beta   90.00047502
_cell_angle_gamma   90.00039188
_symmetry_Int_Tables_number   1
_chemical_formula_structural   Cs27Sn14Pb13I81
_chemical_formula_sum   'Cs27 Sn14 Pb13 I81'
_cell_volume   6833.47673876
_cell_formula_units_Z   1
loop_
 _symmetry_equiv_pos_site_id
 _symmetry_equiv_pos_as_xyz
  1  'x, y, z'
loop_
 _atom_site_type_symbol
 _atom_site_label
 _atom_site_symmetry_multiplicity
 _atom_site_fract_x
 _atom_site_fract_y
 _atom_site_fract_z
 _atom_site_occupancy
  Cs  Cs0  1  -0.00051241  -0.00016530  0.00326932  1
  Cs  Cs1  1  -0.00051933  -0.00042710  0.33103086  1
  Cs  Cs2  1  0.00184288  0.00189274  0.66510659  1
  Cs  Cs3  1  -0.00439815  0.33487379  -0.00068853  1
  Cs  Cs4  1  -0.00246171  0.33316990  0.33388783  1
  Cs  Cs5  1  -0.00436227  0.32731815  0.66634247  1
  Cs  Cs6  1  0.00306344  0.66468541  -0.00113133  1
  Cs  Cs7  1  0.00394773  0.66641268  0.33321768  1
  Cs  Cs8  1  0.00348946  0.66805883  0.66801698  1
  Cs  Cs9  1  0.33493197  0.00014399  0.00165182  1
  Cs  Cs10  1  0.33313021  -0.00032648  0.33106860  1
  Cs  Cs11  1  0.33278388  0.00316775  0.66717129  1
  Cs  Cs12  1  0.33342530  0.33393206  -0.00033059  1
  Cs  Cs13  1  0.33684792  0.33608563  0.33509128  1
  Cs  Cs14  1  0.33261926  0.32773194  0.66591217  1
  Cs  Cs15  1  0.33157536  0.66634627  -0.00268977  1
  Cs  Cs16  1  0.33121898  0.66452347  0.33359278  1
  Cs  Cs17  1  0.33115316  0.66774664  0.66898738  1
  Cs  Cs18  1  0.66532136  -0.00060281  0.00248041  1
  Cs  Cs19  1  0.66764949  -0.00138337  0.32900122  1
  Cs  Cs20  1  0.66512983  -0.00060760  0.66667941  1
  Cs  Cs21  1  0.67102886  0.33436131  -0.00072699  1
  Cs  Cs22  1  0.66506297  0.34287673  0.33943026  1
  Cs  Cs23  1  0.67373444  0.32787134  0.65950122  1
  Cs  Cs24  1  0.66566470  0.66731055  -0.00218804  1
  Cs  Cs25  1  0.66541842  0.66390800  0.33516215  1
  Cs  Cs26  1  0.66637025  0.66834348  0.66735169  1
  Sn  Sn27  1  0.16769307  0.50040167  0.83195524  1
  Sn  Sn28  1  0.16681284  0.83334051  0.83266139  1
  Sn  Sn29  1  0.16690885  0.83300481  0.50079700  1
  Sn  Sn30  1  0.83347792  0.83328855  0.49978065  1
  Sn  Sn31  1  0.49975068  0.83296750  0.83332760  1
  Sn  Sn32  1  0.50058736  0.83329332  0.16673110  1
  Sn  Sn33  1  0.83350787  0.83337398  0.83353972  1
  Sn  Sn34  1  0.16682993  0.16690281  0.16650591  1
  Sn  Sn35  1  0.49964122  0.50016132  0.83282321  1
  Sn  Sn36  1  0.49959668  0.83331933  0.49994926  1
  Sn  Sn37  1  0.16670785  0.50056999  0.50139361  1
  Sn  Sn38  1  0.83255796  0.83299356  0.16665970  1
  Sn  Sn39  1  0.83257132  0.16609968  0.16695613  1
  Sn  Sn40  1  0.50052209  0.16647441  0.16659800  1
  Pb  Pb41  1  0.83339077  0.50211917  0.83304640  1
  Pb  Pb42  1  0.83617742  0.50293016  0.50032985  1
  Pb  Pb43  1  0.49996482  0.50074308  0.16424154  1
  Pb  Pb44  1  0.49783666  0.50242931  0.50336482  1
  Pb  Pb45  1  0.83316213  0.16362845  0.83548591  1
  Pb  Pb46  1  0.83319495  0.16384830  0.49717069  1
  Pb  Pb47  1  0.50004521  0.16415058  0.49726810  1
  Pb  Pb48  1  0.16670298  0.16677095  0.83543687  1
  Pb  Pb49  1  0.50011735  0.16680657  0.83518678  1
  Pb  Pb50  1  0.83316448  0.50094182  0.16677926  1
  Pb  Pb51  1  0.16675057  0.16646169  0.49767277  1
  Pb  Pb52  1  0.16686153  0.83430712  0.16653349  1
  Pb  Pb53  1  0.16675502  0.49696137  0.16636476  1
  I  I54  1  0.16659257  0.00216632  0.16647048  1
  I  I55  1  0.16623754  -0.00387491  0.50363293  1
  I  I56  1  0.16750791  -0.00370884  0.82987817  1
  I  I57  1  0.16658102  0.32896540  0.16630168  1
  I  I58  1  0.16767388  0.33636366  0.50334008  1
  I  I59  1  0.17302006  0.33681122  0.83080040  1
  I  I60  1  0.16635418  0.66656613  0.16681746  1
  I  I61  1  0.16604381  0.66874049  0.50252215  1
  I  I62  1  0.16706179  0.66843436  0.83118538  1
  I  I63  1  0.50044525  -0.00182806  0.16460531  1
  I  I64  1  0.49694254  -0.00512945  0.50587873  1
  I  I65  1  0.49939823  -0.00412909  0.83209841  1
  I  I66  1  0.49969161  0.33046759  0.16390023  1
  I  I67  1  0.49748322  0.33371679  0.49886545  1
  I  I68  1  0.49179845  0.33648143  0.83754560  1
  I  I69  1  0.50506986  0.67072015  0.16835295  1
  I  I70  1  0.50295482  0.67131922  0.49346457  1
  I  I71  1  0.49905964  0.66937571  0.83637756  1
  I  I72  1  0.83297492  -0.00169125  0.16632346  1
  I  I73  1  0.83675072  -0.00503685  0.50252621  1
  I  I74  1  0.83319865  -0.00537935  0.83123356  1
  I  I75  1  0.83398694  0.33010979  0.16518865  1
  I  I76  1  0.83507097  0.33336410  0.49767674  1
  I  I77  1  0.83412354  0.33330430  0.83693420  1
  I  I78  1  0.82839692  0.67137794  0.16642026  1
  I  I79  1  0.83028609  0.67174640  0.49650932  1
  I  I80  1  0.83331028  0.67133436  0.83692817  1
  I  I81  1  0.16673304  0.16415302  0.00344858  1
  I  I82  1  0.16628656  0.16393421  0.32967727  1
  I  I83  1  0.16684127  0.16574286  0.66660510  1
  I  I84  1  0.16988721  0.50521637  -0.00350240  1
  I  I85  1  0.16559218  0.50546145  0.33618846  1
  I  I86  1  0.17092242  0.50754939  0.66745579  1
  I  I87  1  0.16663506  0.83075026  -0.00283230  1
  I  I88  1  0.16643142  0.83104536  0.33598234  1
  I  I89  1  0.16614190  0.83010558  0.66697929  1
  I  I90  1  0.49969980  0.15878700  0.00365702  1
  I  I91  1  0.49912521  0.15989510  0.32873678  1
  I  I92  1  0.49821064  0.16521694  0.66660651  1
  I  I93  1  0.49252628  0.50737941  -0.00341860  1
  I  I94  1  0.49835069  0.50005593  0.33370839  1
  I  I95  1  0.49786916  0.50849982  0.67103814  1
  I  I96  1  0.50222824  0.83398132  -0.00011644  1
  I  I97  1  0.50211652  0.83909898  0.33301765  1
  I  I98  1  0.50262081  0.82820613  0.66714722  1
  I  I99  1  0.83355182  0.16004210  0.00396797  1
  I  I100  1  0.83473884  0.15857161  0.32893128  1
  I  I101  1  0.83456405  0.16646338  0.66641198  1
  I  I102  1  0.83663894  0.50235655  -0.00022003  1
  I  I103  1  0.83568605  0.50231296  0.33358198  1
  I  I104  1  0.83053494  0.50121304  0.66672921  1
  I  I105  1  0.83081382  0.83731758  0.00016300  1
  I  I106  1  0.83158955  0.83793445  0.33297915  1
  I  I107  1  0.83098709  0.83067958  0.66682585  1
  I  I108  1  -0.00077846  0.16080560  0.16645800  1
  I  I109  1  0.00006603  0.16404934  0.49622169  1
  I  I110  1  0.00003778  0.16624292  0.83784383  1
  I  I111  1  0.00018205  0.50065040  0.16427304  1
  I  I112  1  0.00415947  0.50620879  0.50517309  1
  I  I113  1  0.00343433  0.50511704  0.83144015  1
  I  I114  1  -0.00243431  0.83783874  0.16662193  1
  I  I115  1  0.00035196  0.82995641  0.50154497  1
  I  I116  1  0.00047728  0.83016693  0.83214727  1
  I  I117  1  0.33416163  0.16068739  0.16600489  1
  I  I118  1  0.33327740  0.16302576  0.49557174  1
  I  I119  1  0.33332559  0.16118748  0.83829738  1
  I  I120  1  0.33328747  0.49997814  0.16822599  1
  I  I121  1  0.33005912  0.50717071  0.49960516  1
  I  I122  1  0.33259917  0.51013703  0.83197033  1
  I  I123  1  0.33604078  0.83792831  0.16638356  1
  I  I124  1  0.33308064  0.83006559  0.50119195  1
  I  I125  1  0.33336596  0.82985430  0.83235661  1
  I  I126  1  0.66662117  0.15805247  0.16489865  1
  I  I127  1  0.66665331  0.16612303  0.49939920  1
  I  I128  1  0.66662544  0.16714783  0.83633069  1
  I  I129  1  0.66645271  0.49628090  0.16459126  1
  I  I130  1  0.66647458  0.50022885  0.49941178  1
  I  I131  1  0.66372553  0.50618888  0.83774095  1
  I  I132  1  0.66638142  0.84084251  0.16578034  1
  I  I133  1  0.66648497  0.83574980  0.50180410  1
  I  I134  1  0.66610256  0.83021891  0.83242624  1
