# generated using pymatgen
data_Cs27Sn14Pb13I81
_symmetry_space_group_name_H-M   'P 1'
_cell_length_a   18.95782208
_cell_length_b   18.96257411
_cell_length_c   18.96081238
_cell_angle_alpha   89.99842070
_cell_angle_beta   89.99986255
_cell_angle_gamma   89.99855170
_symmetry_Int_Tables_number   1
_chemical_formula_structural   Cs27Sn14Pb13I81
_chemical_formula_sum   'Cs27 Sn14 Pb13 I81'
_cell_volume   6816.20548903
_cell_formula_units_Z   1
loop_
 _symmetry_equiv_pos_site_id
 _symmetry_equiv_pos_as_xyz
  1  'x, y, z'
loop_
 _atom_site_type_symbol
 _atom_site_label
 _atom_site_symmetry_multiplicity
 _atom_site_fract_x
 _atom_site_fract_y
 _atom_site_fract_z
 _atom_site_occupancy
  Cs  Cs0  1  -0.00223763  -0.00101870  0.00228909  1
  Cs  Cs1  1  -0.00048070  -0.00089590  0.33211724  1
  Cs  Cs2  1  0.00136180  0.00312491  0.66618323  1
  Cs  Cs3  1  0.00142475  0.33141811  0.00371991  1
  Cs  Cs4  1  -0.00165966  0.33376690  0.33292930  1
  Cs  Cs5  1  0.00100697  0.33415061  0.66558759  1
  Cs  Cs6  1  0.00205016  0.66811738  -0.00111139  1
  Cs  Cs7  1  0.00066471  0.66671510  0.33276007  1
  Cs  Cs8  1  -0.00421098  0.66292785  0.67128276  1
  Cs  Cs9  1  0.33307688  0.00205453  -0.00100544  1
  Cs  Cs10  1  0.33320900  -0.00362406  0.33523076  1
  Cs  Cs11  1  0.33456802  0.00207344  0.66517269  1
  Cs  Cs12  1  0.33509289  0.33451001  -0.00144855  1
  Cs  Cs13  1  0.33512014  0.33437946  0.33329617  1
  Cs  Cs14  1  0.33105855  0.32874967  0.66688167  1
  Cs  Cs15  1  0.33063564  0.66300718  0.00236266  1
  Cs  Cs16  1  0.33362243  0.66874420  0.33251010  1
  Cs  Cs17  1  0.33448994  0.67032496  0.66432097  1
  Cs  Cs18  1  0.66903526  0.00021793  -0.00014377  1
  Cs  Cs19  1  0.66740576  0.00155911  0.33275959  1
  Cs  Cs20  1  0.66492458  -0.00293379  0.66756127  1
  Cs  Cs21  1  0.66128938  0.33331851  0.00142641  1
  Cs  Cs22  1  0.66605907  0.33133410  0.33356224  1
  Cs  Cs23  1  0.66842054  0.33509989  0.66474555  1
  Cs  Cs24  1  0.66452963  0.66600067  -0.00517520  1
  Cs  Cs25  1  0.66621946  0.66671531  0.33376193  1
  Cs  Cs26  1  0.67015591  0.66979634  0.67334132  1
  Sn  Sn27  1  0.49877065  0.16562648  0.16758907  1
  Sn  Sn28  1  0.16796278  0.16719382  0.16713698  1
  Sn  Sn29  1  0.83360181  0.50117844  0.16668419  1
  Sn  Sn30  1  0.16693388  0.83321434  0.83306706  1
  Sn  Sn31  1  0.16674881  0.50067317  0.83324270  1
  Sn  Sn32  1  0.16759790  0.49999827  0.49987953  1
  Sn  Sn33  1  0.50074926  0.16734327  0.49912308  1
  Sn  Sn34  1  0.50088333  0.83404862  0.16663779  1
  Sn  Sn35  1  0.16589437  0.49917647  0.16699835  1
  Sn  Sn36  1  0.83311926  0.16699241  0.83217720  1
  Sn  Sn37  1  0.49945849  0.49957805  0.50004874  1
  Sn  Sn38  1  0.83350832  0.83393543  0.49942697  1
  Sn  Sn39  1  0.83231694  0.83190938  0.16732866  1
  Sn  Sn40  1  0.83267552  0.16580736  0.50099338  1
  Pb  Pb41  1  0.83292575  0.16667755  0.16728378  1
  Pb  Pb42  1  0.49722226  0.49989586  0.82964010  1
  Pb  Pb43  1  0.50207899  0.83339661  0.49835626  1
  Pb  Pb44  1  0.50236776  0.16668921  0.83299059  1
  Pb  Pb45  1  0.16659396  0.83318324  0.16558716  1
  Pb  Pb46  1  0.83312761  0.49999889  0.49843722  1
  Pb  Pb47  1  0.16664662  0.16827326  0.49771319  1
  Pb  Pb48  1  0.83524582  0.49748208  0.83656010  1
  Pb  Pb49  1  0.49988304  0.50001449  0.16811164  1
  Pb  Pb50  1  0.16385151  0.83058874  0.50243187  1
  Pb  Pb51  1  0.49720693  0.83339417  0.83649618  1
  Pb  Pb52  1  0.83497827  0.83503439  0.83363429  1
  Pb  Pb53  1  0.16497556  0.16694534  0.83567534  1
  I  I54  1  0.16640513  0.00221978  0.16411690  1
  I  I55  1  0.16820176  -0.00004635  0.50023124  1
  I  I56  1  0.16397921  -0.00187445  0.83706756  1
  I  I57  1  0.16499052  0.33448052  0.16472997  1
  I  I58  1  0.16531091  0.33663585  0.50331481  1
  I  I59  1  0.16470902  0.33625246  0.83277439  1
  I  I60  1  0.16568272  0.66377604  0.16758018  1
  I  I61  1  0.17129844  0.66238895  0.49345493  1
  I  I62  1  0.16488358  0.66531563  0.83664916  1
  I  I63  1  0.49994692  0.00108158  0.17209952  1
  I  I64  1  0.50283863  0.00294499  0.49706213  1
  I  I65  1  0.49638789  0.00009270  0.83002969  1
  I  I66  1  0.49997153  0.33078694  0.16897026  1
  I  I67  1  0.50213759  0.33222409  0.49339854  1
  I  I68  1  0.49859147  0.33324714  0.83922484  1
  I  I69  1  0.50063783  0.66874299  0.16878635  1
  I  I70  1  0.49615641  0.66429779  0.49688797  1
  I  I71  1  0.50303466  0.66660279  0.83341255  1
  I  I72  1  0.83341686  -0.00209472  0.16721834  1
  I  I73  1  0.82866252  0.00087134  0.49732369  1
  I  I74  1  0.83698543  0.00277456  0.83497585  1
  I  I75  1  0.83578575  0.33518762  0.16696820  1
  I  I76  1  0.83261357  0.33082545  0.50104965  1
  I  I77  1  0.83579560  0.32996017  0.82838287  1
  I  I78  1  0.83458957  0.66731214  0.17256986  1
  I  I79  1  0.83435081  0.66875954  0.49614577  1
  I  I80  1  0.83360161  0.66646235  0.83127582  1
  I  I81  1  0.16919110  0.17172400  0.00382466  1
  I  I82  1  0.16498989  0.17160576  0.32958910  1
  I  I83  1  0.16769635  0.16769057  0.66647451  1
  I  I84  1  0.16118251  0.50031285  0.00107340  1
  I  I85  1  0.16591265  0.49493878  0.33249400  1
  I  I86  1  0.17061609  0.50417404  0.66638083  1
  I  I87  1  0.16472574  0.82833894  -0.00205421  1
  I  I88  1  0.16720430  0.83257315  0.33339479  1
  I  I89  1  0.16444929  0.82895668  0.66999742  1
  I  I90  1  0.49828425  0.16361943  0.00335289  1
  I  I91  1  0.50276975  0.16759754  0.33328785  1
  I  I92  1  0.50175235  0.17093832  0.66303994  1
  I  I93  1  0.49991450  0.49944073  0.00020853  1
  I  I94  1  0.49506726  0.49816640  0.33592341  1
  I  I95  1  0.49657054  0.49355107  0.66153139  1
  I  I96  1  0.50696132  0.83882124  0.00477678  1
  I  I97  1  0.50046925  0.83475929  0.33013658  1
  I  I98  1  0.50084743  0.83332961  0.66645117  1
  I  I99  1  0.83549881  0.16672129  -0.00103148  1
  I  I100  1  0.83223916  0.16621460  0.33574044  1
  I  I101  1  0.82962857  0.16179698  0.66477650  1
  I  I102  1  0.83842437  0.50381174  0.00462632  1
  I  I103  1  0.83926980  0.49902523  0.33042074  1
  I  I104  1  0.83429076  0.50157073  0.66666650  1
  I  I105  1  0.83191633  0.83214309  0.00311335  1
  I  I106  1  0.83122041  0.83582479  0.33240687  1
  I  I107  1  0.83513607  0.83530641  0.66419354  1
  I  I108  1  0.00169096  0.16823407  0.16602847  1
  I  I109  1  -0.00271647  0.16504360  0.50121646  1
  I  I110  1  -0.00283204  0.16682099  0.82964414  1
  I  I111  1  0.00118045  0.49896411  0.16902788  1
  I  I112  1  0.00250141  0.49991033  0.50036096  1
  I  I113  1  0.00353941  0.50292767  0.82895221  1
  I  I114  1  -0.00257614  0.83325179  0.16838128  1
  I  I115  1  -0.00400402  0.83868010  0.49235538  1
  I  I116  1  0.00265504  0.82922010  0.83632490  1
  I  I117  1  0.33396413  0.16683653  0.17059967  1
  I  I118  1  0.33598253  0.16949483  0.49709719  1
  I  I119  1  0.33310323  0.16668834  0.83232807  1
  I  I120  1  0.33042655  0.49911391  0.16516564  1
  I  I121  1  0.33286682  0.49457497  0.49756792  1
  I  I122  1  0.32882097  0.50206214  0.84096395  1
  I  I123  1  0.33552477  0.83443167  0.16504583  1
  I  I124  1  0.33328564  0.83500199  0.49942116  1
  I  I125  1  0.32930908  0.82947294  0.83488063  1
  I  I126  1  0.66427981  0.16646355  0.16780121  1
  I  I127  1  0.66648397  0.16960264  0.49674380  1
  I  I128  1  0.67031371  0.16530123  0.83535778  1
  I  I129  1  0.66884601  0.49963780  0.17013271  1
  I  I130  1  0.66452628  0.49753560  0.49507198  1
  I  I131  1  0.66686254  0.49912319  0.83397191  1
  I  I132  1  0.66758672  0.83412999  0.17067141  1
  I  I133  1  0.67015515  0.83275323  0.49789808  1
  I  I134  1  0.66687086  0.83465847  0.83232296  1
