# generated using pymatgen
data_Cs27Sn14Pb13I81
_symmetry_space_group_name_H-M   'P 1'
_cell_length_a   18.96917249
_cell_length_b   18.97856302
_cell_length_c   18.97931396
_cell_angle_alpha   90.00067038
_cell_angle_beta   90.00130863
_cell_angle_gamma   90.00161708
_symmetry_Int_Tables_number   1
_chemical_formula_structural   Cs27Sn14Pb13I81
_chemical_formula_sum   'Cs27 Sn14 Pb13 I81'
_cell_volume   6832.69793873
_cell_formula_units_Z   1
loop_
 _symmetry_equiv_pos_site_id
 _symmetry_equiv_pos_as_xyz
  1  'x, y, z'
loop_
 _atom_site_type_symbol
 _atom_site_label
 _atom_site_symmetry_multiplicity
 _atom_site_fract_x
 _atom_site_fract_y
 _atom_site_fract_z
 _atom_site_occupancy
  Cs  Cs0  1  0.00252004  0.00043972  0.00197058  1
  Cs  Cs1  1  0.00235384  -0.00021071  0.33206669  1
  Cs  Cs2  1  -0.00099401  0.00082854  0.66700897  1
  Cs  Cs3  1  -0.00203427  0.33397346  -0.00121912  1
  Cs  Cs4  1  -0.00182233  0.33328392  0.33294836  1
  Cs  Cs5  1  0.00054395  0.33574676  0.66811773  1
  Cs  Cs6  1  0.00011401  0.66691246  -0.00258839  1
  Cs  Cs7  1  -0.00091331  0.66910032  0.33495127  1
  Cs  Cs8  1  -0.00809199  0.66028019  0.66905164  1
  Cs  Cs9  1  0.33435952  -0.00090237  -0.00182866  1
  Cs  Cs10  1  0.33015871  -0.00217403  0.33567451  1
  Cs  Cs11  1  0.33356859  0.00133747  0.66556200  1
  Cs  Cs12  1  0.33451033  0.33327546  -0.00174081  1
  Cs  Cs13  1  0.33264702  0.33450176  0.33665887  1
  Cs  Cs14  1  0.33416639  0.33503451  0.66579949  1
  Cs  Cs15  1  0.33380469  0.66867165  0.00250050  1
  Cs  Cs16  1  0.33341430  0.66813227  0.33299264  1
  Cs  Cs17  1  0.33266533  0.66136968  0.66493108  1
  Cs  Cs18  1  0.65744197  0.00002593  -0.00159572  1
  Cs  Cs19  1  0.66847091  0.00130248  0.33405523  1
  Cs  Cs20  1  0.66796773  -0.00105803  0.66815743  1
  Cs  Cs21  1  0.66607457  0.33251149  0.01119524  1
  Cs  Cs22  1  0.66822430  0.33380617  0.32529951  1
  Cs  Cs23  1  0.66266813  0.33155523  0.66607558  1
  Cs  Cs24  1  0.66589450  0.66694633  -0.00139008  1
  Cs  Cs25  1  0.66788302  0.66348941  0.33233128  1
  Cs  Cs26  1  0.67410191  0.66764043  0.66848952  1
  Sn  Sn27  1  0.16687199  0.83351749  0.50117048  1
  Sn  Sn28  1  0.16583028  0.83327616  0.16660866  1
  Sn  Sn29  1  0.16680485  0.16695871  0.16659728  1
  Sn  Sn30  1  0.83379668  0.83388570  0.16645603  1
  Sn  Sn31  1  0.50015735  0.49991593  0.83297398  1
  Sn  Sn32  1  0.49964179  0.83312261  0.50018177  1
  Sn  Sn33  1  0.16661406  0.50005765  0.16680597  1
  Sn  Sn34  1  0.50009377  0.16645885  0.49996361  1
  Sn  Sn35  1  0.83365571  0.16660287  0.83306277  1
  Sn  Sn36  1  0.50006942  0.50024208  0.50080135  1
  Sn  Sn37  1  0.16670173  0.83361244  0.83235377  1
  Sn  Sn38  1  0.16639579  0.16621646  0.50039695  1
  Sn  Sn39  1  0.16601840  0.16596214  0.83288160  1
  Sn  Sn40  1  0.83386515  0.16663850  0.50081229  1
  Pb  Pb41  1  0.83548540  0.16459242  0.16628047  1
  Pb  Pb42  1  0.49787378  0.50014969  0.16689820  1
  Pb  Pb43  1  0.83015474  0.49677926  0.49999278  1
  Pb  Pb44  1  0.16784727  0.50019047  0.49842712  1
  Pb  Pb45  1  0.83026834  0.49670869  0.83352585  1
  Pb  Pb46  1  0.49974911  0.16809340  0.83143343  1
  Pb  Pb47  1  0.49685392  0.16632283  0.16962280  1
  Pb  Pb48  1  0.83565181  0.83595126  0.83570371  1
  Pb  Pb49  1  0.49962567  0.83342284  0.16905524  1
  Pb  Pb50  1  0.83388214  0.83540328  0.49868003  1
  Pb  Pb51  1  0.16803740  0.49977956  0.83529300  1
  Pb  Pb52  1  0.83636552  0.50295695  0.16658471  1
  Pb  Pb53  1  0.49748489  0.83123110  0.83031952  1
  I  I54  1  0.16288284  -0.00018758  0.16803484  1
  I  I55  1  0.17139782  0.00066496  0.49568091  1
  I  I56  1  0.16436672  0.00081144  0.83702678  1
  I  I57  1  0.16905830  0.33212770  0.16757179  1
  I  I58  1  0.16800785  0.32988549  0.49959075  1
  I  I59  1  0.16502180  0.32989511  0.83295111  1
  I  I60  1  0.16437526  0.66810882  0.16712802  1
  I  I61  1  0.17249167  0.66984130  0.49813779  1
  I  I62  1  0.17021588  0.66950083  0.83443517  1
  I  I63  1  0.49862032  -0.00003027  0.16650826  1
  I  I64  1  0.49725899  0.00044872  0.49803775  1
  I  I65  1  0.50145322  0.00000027  0.83312499  1
  I  I66  1  0.49835497  0.33318051  0.16908690  1
  I  I67  1  0.49813185  0.33258382  0.50445782  1
  I  I68  1  0.49651037  0.33567293  0.82597915  1
  I  I69  1  0.49646861  0.66680837  0.16991634  1
  I  I70  1  0.49215561  0.66718475  0.50207285  1
  I  I71  1  0.49661580  0.66363804  0.82794544  1
  I  I72  1  0.84173254  -0.00272066  0.16861082  1
  I  I73  1  0.82965713  0.00349030  0.50257130  1
  I  I74  1  0.83469341  0.00373046  0.82798851  1
  I  I75  1  0.83408163  0.33294573  0.16703954  1
  I  I76  1  0.83680168  0.32839823  0.50228758  1
  I  I77  1  0.84243138  0.32887105  0.82912528  1
  I  I78  1  0.83974490  0.67064452  0.16862056  1
  I  I79  1  0.83340820  0.66681865  0.49796019  1
  I  I80  1  0.83427117  0.66685278  0.83454564  1
  I  I81  1  0.16173799  0.16423519  -0.00032020  1
  I  I82  1  0.16775658  0.16407572  0.33417244  1
  I  I83  1  0.16695692  0.16013805  0.66586434  1
  I  I84  1  0.17022923  0.50014030  0.00317737  1
  I  I85  1  0.16999219  0.49969721  0.33048231  1
  I  I86  1  0.16745641  0.49990304  0.66666830  1
  I  I87  1  0.16217738  0.83598594  0.00038873  1
  I  I88  1  0.16744096  0.83618807  0.33363343  1
  I  I89  1  0.17313373  0.84223075  0.66580991  1
  I  I90  1  0.50066704  0.17000841  -0.00008273  1
  I  I91  1  0.50113971  0.16975771  0.33826955  1
  I  I92  1  0.49475681  0.16522906  0.66295469  1
  I  I93  1  0.49727003  0.49879161  -0.00242681  1
  I  I94  1  0.49797864  0.49924439  0.33667045  1
  I  I95  1  0.49619504  0.49842902  0.66511785  1
  I  I96  1  0.49916631  0.83059615  -0.00028009  1
  I  I97  1  0.49294812  0.83213415  0.33733766  1
  I  I98  1  0.49449005  0.83733367  0.66228007  1
  I  I99  1  0.83958768  0.16617695  -0.00257422  1
  I  I100  1  0.83316029  0.16520808  0.33601568  1
  I  I101  1  0.83854709  0.16566481  0.66578556  1
  I  I102  1  0.83014772  0.49683498  0.00007136  1
  I  I103  1  0.83053665  0.49685973  0.33329761  1
  I  I104  1  0.83729303  0.50359131  0.66667725  1
  I  I105  1  0.84117042  0.83489456  0.00335154  1
  I  I106  1  0.84037121  0.83632421  0.33099420  1
  I  I107  1  0.83351150  0.83271617  0.66678324  1
  I  I108  1  0.00411609  0.16750910  0.17192978  1
  I  I109  1  0.00162684  0.16089885  0.49945395  1
  I  I110  1  0.00196779  0.16349698  0.82845234  1
  I  I111  1  0.00442364  0.49652190  0.16665999  1
  I  I112  1  -0.00012853  0.50019990  0.49811266  1
  I  I113  1  0.00005132  0.50156280  0.83516308  1
  I  I114  1  0.00309589  0.83398364  0.16990081  1
  I  I115  1  0.00368263  0.83910905  0.49941234  1
  I  I116  1  0.00434620  0.83407560  0.82851278  1
  I  I117  1  0.32819835  0.16305856  0.16516154  1
  I  I118  1  0.33234124  0.16638470  0.49911861  1
  I  I119  1  0.32982771  0.16439927  0.83357977  1
  I  I120  1  0.32988056  0.50255116  0.16751290  1
  I  I121  1  0.33605522  0.49511009  0.50235127  1
  I  I122  1  0.33565596  0.49705965  0.82853772  1
  I  I123  1  0.32925940  0.83361643  0.16567116  1
  I  I124  1  0.33190683  0.83804291  0.49741096  1
  I  I125  1  0.32912230  0.84067693  0.83952782  1
  I  I126  1  0.66679985  0.16572686  0.16661671  1
  I  I127  1  0.66641523  0.16625453  0.50571295  1
  I  I128  1  0.66899114  0.16846957  0.82756849  1
  I  I129  1  0.66666280  0.50088732  0.16703652  1
  I  I130  1  0.66177973  0.50227272  0.50327649  1
  I  I131  1  0.66250287  0.50005320  0.82720512  1
  I  I132  1  0.66917566  0.83408463  0.16949256  1
  I  I133  1  0.66410078  0.83466384  0.49681544  1
  I  I134  1  0.66661905  0.83390447  0.83489195  1
