# generated using pymatgen
data_Cs27Sn13Pb14I81
_symmetry_space_group_name_H-M   'P 1'
_cell_length_a   18.98995438
_cell_length_b   19.00380931
_cell_length_c   18.97903252
_cell_angle_alpha   89.99955889
_cell_angle_beta   89.99604072
_cell_angle_gamma   89.99956187
_symmetry_Int_Tables_number   1
_chemical_formula_structural   Cs27Sn13Pb14I81
_chemical_formula_sum   'Cs27 Sn13 Pb14 I81'
_cell_volume   6849.18117394
_cell_formula_units_Z   1
loop_
 _symmetry_equiv_pos_site_id
 _symmetry_equiv_pos_as_xyz
  1  'x, y, z'
loop_
 _atom_site_type_symbol
 _atom_site_label
 _atom_site_symmetry_multiplicity
 _atom_site_fract_x
 _atom_site_fract_y
 _atom_site_fract_z
 _atom_site_occupancy
  Cs  Cs0  1  0.00552361  0.00097427  -0.00056540  1
  Cs  Cs1  1  0.00510303  -0.00213153  0.33379670  1
  Cs  Cs2  1  -0.00382609  0.00427987  0.66471185  1
  Cs  Cs3  1  -0.00169233  0.33031085  0.00003070  1
  Cs  Cs4  1  0.00211022  0.33785824  0.33380567  1
  Cs  Cs5  1  0.00102635  0.33472953  0.66595046  1
  Cs  Cs6  1  -0.00366737  0.66854944  0.00131989  1
  Cs  Cs7  1  -0.00018202  0.66535985  0.33588685  1
  Cs  Cs8  1  -0.00041973  0.66224448  0.66129560  1
  Cs  Cs9  1  0.32224628  -0.00294395  -0.00532419  1
  Cs  Cs10  1  0.33142588  -0.00046522  0.33407372  1
  Cs  Cs11  1  0.33590849  -0.00010001  0.66833887  1
  Cs  Cs12  1  0.33050985  0.33390593  -0.00482476  1
  Cs  Cs13  1  0.33535100  0.33349910  0.33329803  1
  Cs  Cs14  1  0.33329531  0.33439836  0.67383551  1
  Cs  Cs15  1  0.33289498  0.66870463  -0.00761665  1
  Cs  Cs16  1  0.33630272  0.66765768  0.33347843  1
  Cs  Cs17  1  0.33220954  0.66574487  0.67275787  1
  Cs  Cs18  1  0.66786263  -0.00220594  0.00097434  1
  Cs  Cs19  1  0.66488995  -0.00136416  0.33385839  1
  Cs  Cs20  1  0.66694629  0.01020820  0.66612294  1
  Cs  Cs21  1  0.66844229  0.33599967  0.00300013  1
  Cs  Cs22  1  0.66385427  0.33303811  0.33107366  1
  Cs  Cs23  1  0.66602319  0.31971022  0.66734366  1
  Cs  Cs24  1  0.66755585  0.66669542  0.00142454  1
  Cs  Cs25  1  0.66516132  0.66779932  0.33161533  1
  Cs  Cs26  1  0.66734558  0.66883317  0.66840231  1
  Sn  Sn27  1  0.16716559  0.16638404  0.49961575  1
  Sn  Sn28  1  0.83290486  0.83363274  0.16626151  1
  Sn  Sn29  1  0.49937788  0.50031569  0.16701968  1
  Sn  Sn30  1  0.49991508  0.16602152  0.16649726  1
  Sn  Sn31  1  0.83259524  0.50078191  0.83374915  1
  Sn  Sn32  1  0.83296424  0.16620163  0.16719719  1
  Sn  Sn33  1  0.50052768  0.50072089  0.49986292  1
  Sn  Sn34  1  0.83308593  0.83253170  0.83389293  1
  Sn  Sn35  1  0.49927671  0.83233546  0.49946507  1
  Sn  Sn36  1  0.83347439  0.50019537  0.16639468  1
  Sn  Sn37  1  0.50008182  0.83366326  0.16691595  1
  Sn  Sn38  1  0.16715857  0.50053849  0.16666240  1
  Sn  Sn39  1  0.16777664  0.83373861  0.49978519  1
  Pb  Pb40  1  0.49813183  0.16649020  0.49786582  1
  Pb  Pb41  1  0.83569655  0.16682476  0.49644758  1
  Pb  Pb42  1  0.16310340  0.83313380  0.82965601  1
  Pb  Pb43  1  0.16644432  0.16668630  0.82999274  1
  Pb  Pb44  1  0.16686935  0.83104665  0.16814442  1
  Pb  Pb45  1  0.83244597  0.83328278  0.49984740  1
  Pb  Pb46  1  0.49997871  0.16640591  0.83757331  1
  Pb  Pb47  1  0.50291195  0.49997360  0.83348962  1
  Pb  Pb48  1  0.82997925  0.49988025  0.49991580  1
  Pb  Pb49  1  0.16348276  0.50030276  0.83632517  1
  Pb  Pb50  1  0.50243554  0.83346017  0.83330978  1
  Pb  Pb51  1  0.83330012  0.16660549  0.83632648  1
  Pb  Pb52  1  0.16703243  0.16882741  0.16798435  1
  Pb  Pb53  1  0.16949621  0.50033422  0.49834957  1
  I  I54  1  0.16576818  -0.00020670  0.16674344  1
  I  I55  1  0.17154272  -0.00102769  0.49668689  1
  I  I56  1  0.16378188  -0.00032164  0.83844831  1
  I  I57  1  0.16557303  0.33653105  0.17054355  1
  I  I58  1  0.16629669  0.33162473  0.49627162  1
  I  I59  1  0.16444225  0.33368711  0.83109677  1
  I  I60  1  0.16503249  0.66346595  0.17043995  1
  I  I61  1  0.16768617  0.66922052  0.49790616  1
  I  I62  1  0.16853817  0.66670697  0.83082594  1
  I  I63  1  0.50956425  -0.00094683  0.17206477  1
  I  I64  1  0.49850278  -0.00301660  0.49499933  1
  I  I65  1  0.50432945  -0.00018669  0.83120522  1
  I  I66  1  0.50392301  0.33435707  0.17134515  1
  I  I67  1  0.49996021  0.33579404  0.49401252  1
  I  I68  1  0.50263216  0.33342162  0.83096992  1
  I  I69  1  0.50400328  0.66666502  0.17193783  1
  I  I70  1  0.49494163  0.66736466  0.48963078  1
  I  I71  1  0.49921760  0.66665971  0.83674624  1
  I  I72  1  0.82590362  -0.00084674  0.16394292  1
  I  I73  1  0.82948854  -0.00011386  0.50106246  1
  I  I74  1  0.83295938  -0.00303754  0.83715921  1
  I  I75  1  0.83078584  0.33434676  0.16374844  1
  I  I76  1  0.83431760  0.33346180  0.50045343  1
  I  I77  1  0.83310855  0.33621504  0.83865120  1
  I  I78  1  0.83083988  0.66656469  0.16277918  1
  I  I79  1  0.83899295  0.66667007  0.49621173  1
  I  I80  1  0.83255788  0.66658125  0.84346174  1
  I  I81  1  0.16659338  0.16827868  0.00031873  1
  I  I82  1  0.16594213  0.16233332  0.33555774  1
  I  I83  1  0.16701050  0.16302363  0.66192256  1
  I  I84  1  0.17321580  0.49922656  0.00459780  1
  I  I85  1  0.16034796  0.49982127  0.33031587  1
  I  I86  1  0.16594559  0.49894049  0.66658377  1
  I  I87  1  0.16945680  0.83216058  -0.00003300  1
  I  I88  1  0.16537106  0.83623777  0.33592328  1
  I  I89  1  0.17329347  0.83636721  0.66186632  1
  I  I90  1  0.50525140  0.16894749  0.00596389  1
  I  I91  1  0.50440870  0.16790525  0.32967364  1
  I  I92  1  0.49891114  0.16727189  0.66635092  1
  I  I93  1  0.49893311  0.50040576  0.00413003  1
  I  I94  1  0.50238890  0.50061101  0.33109435  1
  I  I95  1  0.49982811  0.50611017  0.66367524  1
  I  I96  1  0.50329330  0.83146443  0.00376812  1
  I  I97  1  0.50271056  0.83216877  0.33191914  1
  I  I98  1  0.49644467  0.82725828  0.66320146  1
  I  I99  1  0.82977692  0.16810577  0.00455001  1
  I  I100  1  0.82836005  0.16723608  0.32840549  1
  I  I101  1  0.83473048  0.16669674  0.66672760  1
  I  I102  1  0.83144920  0.50046356  0.00271586  1
  I  I103  1  0.83523982  0.50114112  0.32938306  1
  I  I104  1  0.83315389  0.50715524  0.66950497  1
  I  I105  1  0.82728979  0.83172839  0.00246047  1
  I  I106  1  0.83230121  0.83186539  0.32980016  1
  I  I107  1  0.83515372  0.82646615  0.66936650  1
  I  I108  1  -0.00282195  0.16736975  0.16778331  1
  I  I109  1  0.00341989  0.15961044  0.49762842  1
  I  I110  1  -0.00039989  0.16677206  0.83607938  1
  I  I111  1  -0.00128117  0.49928673  0.16292104  1
  I  I112  1  -0.00004185  0.50047601  0.49842295  1
  I  I113  1  -0.00442878  0.50408207  0.83865886  1
  I  I114  1  -0.00297830  0.83304913  0.16467580  1
  I  I115  1  0.00209715  0.83758973  0.49939432  1
  I  I116  1  -0.00448069  0.82941748  0.84158729  1
  I  I117  1  0.33632629  0.16752183  0.17005721  1
  I  I118  1  0.33082164  0.16502044  0.49438999  1
  I  I119  1  0.33319076  0.16715519  0.83679452  1
  I  I120  1  0.33471805  0.49882176  0.17382984  1
  I  I121  1  0.33705753  0.50093936  0.49134792  1
  I  I122  1  0.33350929  0.49879209  0.83428495  1
  I  I123  1  0.33652497  0.83354444  0.17047444  1
  I  I124  1  0.33464485  0.83376238  0.49171376  1
  I  I125  1  0.33322753  0.83434666  0.83652553  1
  I  I126  1  0.66675648  0.17125113  0.16762770  1
  I  I127  1  0.66628925  0.16638806  0.50226449  1
  I  I128  1  0.66697671  0.16666627  0.82715523  1
  I  I129  1  0.66663938  0.49957680  0.16650144  1
  I  I130  1  0.66237923  0.50725987  0.49215232  1
  I  I131  1  0.67042841  0.50484553  0.84133534  1
  I  I132  1  0.66659292  0.82983350  0.16885972  1
  I  I133  1  0.66328691  0.82795962  0.49700542  1
  I  I134  1  0.67023939  0.82803088  0.83482794  1
