# generated using pymatgen
data_Cs27Sn14Pb13I81
_symmetry_space_group_name_H-M   'P 1'
_cell_length_a   18.97515086
_cell_length_b   18.97080549
_cell_length_c   18.98262611
_cell_angle_alpha   90.00134614
_cell_angle_beta   90.00079862
_cell_angle_gamma   89.99911278
_symmetry_Int_Tables_number   1
_chemical_formula_structural   Cs27Sn14Pb13I81
_chemical_formula_sum   'Cs27 Sn14 Pb13 I81'
_cell_volume   6833.24987669
_cell_formula_units_Z   1
loop_
 _symmetry_equiv_pos_site_id
 _symmetry_equiv_pos_as_xyz
  1  'x, y, z'
loop_
 _atom_site_type_symbol
 _atom_site_label
 _atom_site_symmetry_multiplicity
 _atom_site_fract_x
 _atom_site_fract_y
 _atom_site_fract_z
 _atom_site_occupancy
  Cs  Cs0  1  0.00115983  -0.00142860  0.00031184  1
  Cs  Cs1  1  0.00143154  0.00336899  0.33302988  1
  Cs  Cs2  1  0.00556619  -0.00908379  0.66695657  1
  Cs  Cs3  1  -0.00041996  0.33525000  0.00125067  1
  Cs  Cs4  1  0.00073391  0.33217052  0.33295519  1
  Cs  Cs5  1  -0.00026055  0.33402024  0.66550623  1
  Cs  Cs6  1  -0.00138494  0.66539249  -0.00141495  1
  Cs  Cs7  1  -0.00090541  0.66478146  0.33183716  1
  Cs  Cs8  1  -0.00559720  0.67533619  0.66975011  1
  Cs  Cs9  1  0.33575524  0.00028453  -0.00072773  1
  Cs  Cs10  1  0.33177945  -0.00081116  0.33305509  1
  Cs  Cs11  1  0.32463731  -0.00137494  0.66921111  1
  Cs  Cs12  1  0.33381839  0.33469351  -0.00148580  1
  Cs  Cs13  1  0.33150428  0.33493658  0.33301744  1
  Cs  Cs14  1  0.33316894  0.33467652  0.67134865  1
  Cs  Cs15  1  0.33427928  0.66534677  0.00162938  1
  Cs  Cs16  1  0.33503377  0.66570638  0.33254663  1
  Cs  Cs17  1  0.33385814  0.66504093  0.66445319  1
  Cs  Cs18  1  0.66486149  0.00071084  0.00175873  1
  Cs  Cs19  1  0.66677194  0.00170803  0.33141665  1
  Cs  Cs20  1  0.66792441  0.00365362  0.66511561  1
  Cs  Cs21  1  0.66658457  0.33244662  -0.00056573  1
  Cs  Cs22  1  0.66786649  0.33137707  0.33451268  1
  Cs  Cs23  1  0.66710436  0.33068852  0.66419693  1
  Cs  Cs24  1  0.66514441  0.66740034  0.00104889  1
  Cs  Cs25  1  0.66529645  0.66589979  0.33821945  1
  Cs  Cs26  1  0.67182367  0.66848591  0.65866370  1
  Sn  Sn27  1  0.83379026  0.16653534  0.83354933  1
  Sn  Sn28  1  0.83314459  0.16651276  0.49995290  1
  Sn  Sn29  1  0.49954635  0.16647852  0.49929936  1
  Sn  Sn30  1  0.16751905  0.50083507  0.16644055  1
  Sn  Sn31  1  0.83254328  0.16597765  0.16639952  1
  Sn  Sn32  1  0.50012041  0.50138219  0.83382647  1
  Sn  Sn33  1  0.50041650  0.83225298  0.83347295  1
  Sn  Sn34  1  0.50018786  0.83314755  0.16619511  1
  Sn  Sn35  1  0.83302096  0.83393635  0.16656757  1
  Sn  Sn36  1  0.16699472  0.50024016  0.83336953  1
  Sn  Sn37  1  0.16686944  0.83243984  0.16652094  1
  Sn  Sn38  1  0.50047459  0.16690602  0.16753090  1
  Sn  Sn39  1  0.16645806  0.50023345  0.50022300  1
  Sn  Sn40  1  0.49960452  0.49988629  0.16613966  1
  Pb  Pb41  1  0.83235576  0.49854029  0.83340905  1
  Pb  Pb42  1  0.16709655  0.16688661  0.16641871  1
  Pb  Pb43  1  0.83045654  0.83557270  0.83575445  1
  Pb  Pb44  1  0.49983016  0.83616301  0.50006274  1
  Pb  Pb45  1  0.83602703  0.49784850  0.50000446  1
  Pb  Pb46  1  0.16911377  0.83063096  0.83599616  1
  Pb  Pb47  1  0.16368166  0.16891200  0.83350279  1
  Pb  Pb48  1  0.16694997  0.16837665  0.50001500  1
  Pb  Pb49  1  0.50111051  0.16669243  0.83340231  1
  Pb  Pb50  1  0.49866753  0.49785080  0.50017422  1
  Pb  Pb51  1  0.83264673  0.49998185  0.16667331  1
  Pb  Pb52  1  0.83326246  0.83618915  0.49703376  1
  Pb  Pb53  1  0.16683878  0.83037229  0.49721509  1
  I  I54  1  0.16873626  -0.00280337  0.16684746  1
  I  I55  1  0.16598580  -0.00019242  0.49865556  1
  I  I56  1  0.16773248  -0.00061003  0.83396231  1
  I  I57  1  0.16936086  0.33680576  0.16661292  1
  I  I58  1  0.16638182  0.33646283  0.49539867  1
  I  I59  1  0.17426474  0.33738836  0.83744523  1
  I  I60  1  0.16960224  0.66575138  0.16709429  1
  I  I61  1  0.16926939  0.66235261  0.50118829  1
  I  I62  1  0.16714390  0.66250278  0.83195356  1
  I  I63  1  0.50064086  -0.00019677  0.16610020  1
  I  I64  1  0.50516486  0.00421628  0.49483725  1
  I  I65  1  0.50331465  -0.00215231  0.83834990  1
  I  I66  1  0.49977360  0.33347282  0.16621266  1
  I  I67  1  0.50399140  0.33000645  0.49522217  1
  I  I68  1  0.49682849  0.33601888  0.83701221  1
  I  I69  1  0.49903483  0.66661529  0.16169139  1
  I  I70  1  0.49802779  0.66653267  0.49731821  1
  I  I71  1  0.49537993  0.66585385  0.84391099  1
  I  I72  1  0.82998428  0.00096852  0.16690125  1
  I  I73  1  0.82881419  0.00442023  0.50137415  1
  I  I74  1  0.83016016  0.00366510  0.83207705  1
  I  I75  1  0.83061160  0.32994109  0.16739006  1
  I  I76  1  0.82923729  0.32937869  0.49562732  1
  I  I77  1  0.83127984  0.33012708  0.83726571  1
  I  I78  1  0.83185188  0.66957977  0.16539275  1
  I  I79  1  0.83433279  0.66698881  0.49902378  1
  I  I80  1  0.83590809  0.66707350  0.83540635  1
  I  I81  1  0.16642709  0.16955719  0.00028006  1
  I  I82  1  0.16257159  0.16974609  0.33292158  1
  I  I83  1  0.16822484  0.17000735  0.66672097  1
  I  I84  1  0.17100013  0.50287860  0.00095777  1
  I  I85  1  0.17055386  0.50280867  0.33163427  1
  I  I86  1  0.17206445  0.49449662  0.66746516  1
  I  I87  1  0.16434185  0.82842486  0.00410855  1
  I  I88  1  0.16992750  0.82870798  0.32870631  1
  I  I89  1  0.16773739  0.83319789  0.66704218  1
  I  I90  1  0.50418012  0.16681628  0.00320680  1
  I  I91  1  0.50781704  0.16733957  0.33122980  1
  I  I92  1  0.50561568  0.16834058  0.66460256  1
  I  I93  1  0.49244118  0.49775413  0.00140705  1
  I  I94  1  0.49609169  0.50206843  0.32997151  1
  I  I95  1  0.49503516  0.50148159  0.66963997  1
  I  I96  1  0.49976602  0.83516077  0.00221010  1
  I  I97  1  0.50025148  0.83054848  0.32932395  1
  I  I98  1  0.49994069  0.82932085  0.66971302  1
  I  I99  1  0.82862303  0.16393445  0.00165184  1
  I  I100  1  0.82893124  0.16320228  0.33223815  1
  I  I101  1  0.82712687  0.17144084  0.66611656  1
  I  I102  1  0.83845927  0.49536863  0.00032829  1
  I  I103  1  0.83398302  0.49784068  0.33298637  1
  I  I104  1  0.83290568  0.49601726  0.66673870  1
  I  I105  1  0.83519194  0.83977552  0.00390902  1
  I  I106  1  0.83022436  0.83807860  0.32858528  1
  I  I107  1  0.83278873  0.83459919  0.66687511  1
  I  I108  1  -0.00311162  0.16417885  0.16785390  1
  I  I109  1  -0.00314596  0.16972333  0.49699994  1
  I  I110  1  -0.00447425  0.16890651  0.83518051  1
  I  I111  1  0.00304131  0.50216112  0.16615039  1
  I  I112  1  0.00418046  0.49650838  0.49718988  1
  I  I113  1  0.00293459  0.49562886  0.83551609  1
  I  I114  1  -0.00001787  0.83388181  0.16838123  1
  I  I115  1  0.00004780  0.83556564  0.49872769  1
  I  I116  1  -0.00003148  0.83333383  0.83468348  1
  I  I117  1  0.33686598  0.16484987  0.17132215  1
  I  I118  1  0.33638048  0.16791373  0.49308183  1
  I  I119  1  0.33353879  0.16530541  0.83314331  1
  I  I120  1  0.33376244  0.50188033  0.16651232  1
  I  I121  1  0.33069709  0.49617624  0.49831883  1
  I  I122  1  0.33396356  0.50160284  0.83511486  1
  I  I123  1  0.33439017  0.83295800  0.16362829  1
  I  I124  1  0.33340396  0.83806977  0.49726914  1
  I  I125  1  0.33694774  0.83510087  0.83994728  1
  I  I126  1  0.66624442  0.16436656  0.16724961  1
  I  I127  1  0.66679306  0.16827051  0.49817752  1
  I  I128  1  0.66904406  0.16911924  0.83450809  1
  I  I129  1  0.66300330  0.50098890  0.16117770  1
  I  I130  1  0.66652587  0.50023257  0.49957819  1
  I  I131  1  0.66281519  0.50135921  0.84119211  1
  I  I132  1  0.66563752  0.83521590  0.16235477  1
  I  I133  1  0.66650382  0.82933091  0.49822536  1
  I  I134  1  0.66275962  0.82683081  0.84092552  1
