# generated using pymatgen
data_Cs27Sn14Pb13I81
_symmetry_space_group_name_H-M   'P 1'
_cell_length_a   18.96969727
_cell_length_b   18.98872264
_cell_length_c   18.96978640
_cell_angle_alpha   90.00020298
_cell_angle_beta   90.00141337
_cell_angle_gamma   89.99974933
_symmetry_Int_Tables_number   1
_chemical_formula_structural   Cs27Sn14Pb13I81
_chemical_formula_sum   'Cs27 Sn14 Pb13 I81'
_cell_volume   6833.11282906
_cell_formula_units_Z   1
loop_
 _symmetry_equiv_pos_site_id
 _symmetry_equiv_pos_as_xyz
  1  'x, y, z'
loop_
 _atom_site_type_symbol
 _atom_site_label
 _atom_site_symmetry_multiplicity
 _atom_site_fract_x
 _atom_site_fract_y
 _atom_site_fract_z
 _atom_site_occupancy
  Cs  Cs0  1  0.00597918  -0.00939470  0.00003935  1
  Cs  Cs1  1  -0.00067465  -0.00117109  0.33502899  1
  Cs  Cs2  1  -0.00045945  -0.00193538  0.66213768  1
  Cs  Cs3  1  0.00620343  0.33651054  -0.00136468  1
  Cs  Cs4  1  -0.00177969  0.33267047  0.33477426  1
  Cs  Cs5  1  -0.00349293  0.33646012  0.66484644  1
  Cs  Cs6  1  0.00434367  0.67336930  -0.00926154  1
  Cs  Cs7  1  0.00031889  0.66725820  0.33243373  1
  Cs  Cs8  1  -0.00113014  0.66584362  0.67129051  1
  Cs  Cs9  1  0.33095235  0.00322621  -0.00374065  1
  Cs  Cs10  1  0.33352604  0.00016601  0.33382278  1
  Cs  Cs11  1  0.33399404  0.00143914  0.66856262  1
  Cs  Cs12  1  0.32923837  0.33108253  -0.00108372  1
  Cs  Cs13  1  0.33298296  0.33464805  0.33243262  1
  Cs  Cs14  1  0.33437711  0.33077976  0.66819491  1
  Cs  Cs15  1  0.33106074  0.66565851  0.00066352  1
  Cs  Cs16  1  0.33566179  0.66502282  0.33632138  1
  Cs  Cs17  1  0.33699521  0.66804485  0.66167525  1
  Cs  Cs18  1  0.66560128  -0.00017928  0.00143130  1
  Cs  Cs19  1  0.66778274  0.00206937  0.33132557  1
  Cs  Cs20  1  0.66660083  0.00419402  0.66675394  1
  Cs  Cs21  1  0.66526739  0.33334608  0.00188636  1
  Cs  Cs22  1  0.66868719  0.33320645  0.33086737  1
  Cs  Cs23  1  0.66870682  0.33157518  0.66870195  1
  Cs  Cs24  1  0.66820828  0.66672227  -0.00007432  1
  Cs  Cs25  1  0.66393609  0.66517984  0.33246447  1
  Cs  Cs26  1  0.66448508  0.66582531  0.66766233  1
  Sn  Sn27  1  0.50027870  0.50063389  0.83466475  1
  Sn  Sn28  1  0.50008834  0.83338303  0.16570980  1
  Sn  Sn29  1  0.83344146  0.83177848  0.49967336  1
  Sn  Sn30  1  0.16573019  0.83300989  0.49970717  1
  Sn  Sn31  1  0.50044696  0.16684753  0.16746742  1
  Sn  Sn32  1  0.16784726  0.16696864  0.49958947  1
  Sn  Sn33  1  0.50044917  0.83241072  0.83449219  1
  Sn  Sn34  1  0.83379300  0.16659812  0.83567792  1
  Sn  Sn35  1  0.83337263  0.49972724  0.16671664  1
  Sn  Sn36  1  0.50065650  0.49979215  0.16552981  1
  Sn  Sn37  1  0.83330313  0.16728153  0.16480166  1
  Sn  Sn38  1  0.49935878  0.16693301  0.49905673  1
  Sn  Sn39  1  0.83384768  0.50134221  0.49922662  1
  Sn  Sn40  1  0.16560009  0.50001782  0.49970708  1
  Pb  Pb41  1  0.16971778  0.83327666  0.83051718  1
  Pb  Pb42  1  0.16290912  0.16669039  0.83059725  1
  Pb  Pb43  1  0.16600461  0.50016549  0.16847463  1
  Pb  Pb44  1  0.83100198  0.83562969  0.83085013  1
  Pb  Pb45  1  0.16975401  0.83316892  0.16904678  1
  Pb  Pb46  1  0.50115192  0.16685563  0.83427305  1
  Pb  Pb47  1  0.50035941  0.83560228  0.49979562  1
  Pb  Pb48  1  0.83342789  0.16707826  0.49911873  1
  Pb  Pb49  1  0.16981931  0.49998532  0.83034478  1
  Pb  Pb50  1  0.50062578  0.49761057  0.49968730  1
  Pb  Pb51  1  0.16600702  0.16670051  0.16852788  1
  Pb  Pb52  1  0.83160657  0.49859900  0.83417142  1
  Pb  Pb53  1  0.83171504  0.83290105  0.16833238  1
  I  I54  1  0.16634254  0.00002473  0.17125138  1
  I  I55  1  0.16632592  0.00007880  0.49969089  1
  I  I56  1  0.16985943  0.00001996  0.82998271  1
  I  I57  1  0.17186753  0.33339721  0.17077145  1
  I  I58  1  0.16648042  0.33341367  0.49935552  1
  I  I59  1  0.17048496  0.33328686  0.82990631  1
  I  I60  1  0.16810369  0.66661278  0.17178177  1
  I  I61  1  0.16315724  0.66650462  0.49933196  1
  I  I62  1  0.16395956  0.66664405  0.83067025  1
  I  I63  1  0.50436340  0.00083450  0.16872896  1
  I  I64  1  0.49787076  0.00333647  0.49716512  1
  I  I65  1  0.50181105  -0.00184921  0.83424110  1
  I  I66  1  0.50456146  0.33331275  0.16824462  1
  I  I67  1  0.49716145  0.32991823  0.49734891  1
  I  I68  1  0.50196609  0.33550486  0.83416328  1
  I  I69  1  0.50389235  0.66590811  0.16344312  1
  I  I70  1  0.49743610  0.66655988  0.49857671  1
  I  I71  1  0.50117891  0.66645775  0.83876942  1
  I  I72  1  0.82746367  0.00271267  0.16667966  1
  I  I73  1  0.83530695  -0.00144930  0.50059468  1
  I  I74  1  0.82879212  0.00332736  0.83569425  1
  I  I75  1  0.82337358  0.33348126  0.17155502  1
  I  I76  1  0.83553025  0.33563510  0.49937412  1
  I  I77  1  0.82858964  0.33079653  0.82936577  1
  I  I78  1  0.82700349  0.66358537  0.17244356  1
  I  I79  1  0.83971184  0.66558122  0.49519619  1
  I  I80  1  0.83301977  0.66676440  0.83365668  1
  I  I81  1  0.17038422  0.16685593  -0.00002001  1
  I  I82  1  0.16674026  0.16663946  0.33721664  1
  I  I83  1  0.17318849  0.16627631  0.66198053  1
  I  I84  1  0.16474221  0.49967403  -0.00008712  1
  I  I85  1  0.16890241  0.49952638  0.33719438  1
  I  I86  1  0.16139717  0.49921574  0.66182165  1
  I  I87  1  0.16496434  0.83348422  -0.00015968  1
  I  I88  1  0.16543750  0.83423321  0.33762671  1
  I  I89  1  0.16527019  0.83419222  0.66211552  1
  I  I90  1  0.50377914  0.16643627  0.00334673  1
  I  I91  1  0.50243382  0.16620798  0.33239677  1
  I  I92  1  0.49871413  0.16616444  0.66468259  1
  I  I93  1  0.50663591  0.49879393  0.00159421  1
  I  I94  1  0.50048222  0.50228660  0.33060727  1
  I  I95  1  0.49925872  0.50331125  0.66831727  1
  I  I96  1  0.50230078  0.83519392  0.00085398  1
  I  I97  1  0.49974670  0.83113574  0.33087600  1
  I  I98  1  0.49951111  0.83007851  0.66840855  1
  I  I99  1  0.82280877  0.17268131  0.00194696  1
  I  I100  1  0.83095600  0.16770735  0.33084825  1
  I  I101  1  0.83192116  0.16621217  0.66767939  1
  I  I102  1  0.82781676  0.49584448  0.00340671  1
  I  I103  1  0.83023515  0.49686493  0.33348530  1
  I  I104  1  0.83552714  0.50049522  0.66391926  1
  I  I105  1  0.83335895  0.83178831  0.00005582  1
  I  I106  1  0.83404425  0.83549454  0.33661196  1
  I  I107  1  0.83472963  0.83038954  0.66259776  1
  I  I108  1  -0.00376087  0.17302579  0.16606309  1
  I  I109  1  0.00216314  0.16615493  0.50088457  1
  I  I110  1  -0.00475503  0.16826271  0.83707690  1
  I  I111  1  -0.00375341  0.49241186  0.17203505  1
  I  I112  1  -0.00091886  0.49718749  0.49452640  1
  I  I113  1  -0.00008792  0.49779684  0.83450202  1
  I  I114  1  -0.00015295  0.83440009  0.16751490  1
  I  I115  1  -0.00004759  0.83701285  0.49929797  1
  I  I116  1  -0.00009139  0.83486218  0.83365124  1
  I  I117  1  0.33674025  0.16728647  0.17006575  1
  I  I118  1  0.33383346  0.16629588  0.49519764  1
  I  I119  1  0.33328616  0.16631684  0.83340828  1
  I  I120  1  0.33689719  0.49910069  0.16518982  1
  I  I121  1  0.33146263  0.50216548  0.50051166  1
  I  I122  1  0.33802593  0.50185864  0.83807672  1
  I  I123  1  0.33849400  0.83388606  0.16585838  1
  I  I124  1  0.33125827  0.83132347  0.49997204  1
  I  I125  1  0.33774957  0.83152481  0.83486216  1
  I  I126  1  0.66562276  0.16733515  0.17078674  1
  I  I127  1  0.66464040  0.16587567  0.49943846  1
  I  I128  1  0.66874902  0.16675357  0.82899596  1
  I  I129  1  0.66598043  0.49863956  0.17065761  1
  I  I130  1  0.66937967  0.50306175  0.49902260  1
  I  I131  1  0.66349627  0.50262832  0.83059031  1
  I  I132  1  0.66321454  0.83407520  0.16751787  1
  I  I133  1  0.66886227  0.83037856  0.49996842  1
  I  I134  1  0.66312379  0.83018831  0.83347045  1
