# generated using pymatgen
data_Cs27Sn14Pb13I81
_symmetry_space_group_name_H-M   'P 1'
_cell_length_a   18.96857320
_cell_length_b   18.97869544
_cell_length_c   18.97969498
_cell_angle_alpha   89.99966887
_cell_angle_beta   90.00146429
_cell_angle_gamma   90.00220685
_symmetry_Int_Tables_number   1
_chemical_formula_structural   Cs27Sn14Pb13I81
_chemical_formula_sum   'Cs27 Sn14 Pb13 I81'
_cell_volume   6832.66691265
_cell_formula_units_Z   1
loop_
 _symmetry_equiv_pos_site_id
 _symmetry_equiv_pos_as_xyz
  1  'x, y, z'
loop_
 _atom_site_type_symbol
 _atom_site_label
 _atom_site_symmetry_multiplicity
 _atom_site_fract_x
 _atom_site_fract_y
 _atom_site_fract_z
 _atom_site_occupancy
  Cs  Cs0  1  0.00162259  0.00264129  -0.00162198  1
  Cs  Cs1  1  0.00133116  -0.00079520  0.33300109  1
  Cs  Cs2  1  0.00091630  0.00001909  0.66822734  1
  Cs  Cs3  1  -0.00004902  0.33486129  -0.01056490  1
  Cs  Cs4  1  0.00172746  0.33586814  0.33698498  1
  Cs  Cs5  1  -0.01210056  0.33917137  0.67341388  1
  Cs  Cs6  1  0.00350834  0.66445149  -0.00095769  1
  Cs  Cs7  1  0.00313014  0.66537423  0.33326910  1
  Cs  Cs8  1  -0.00215025  0.66422345  0.66787334  1
  Cs  Cs9  1  0.33160676  0.00141136  0.00078085  1
  Cs  Cs10  1  0.33232667  0.00108101  0.33390449  1
  Cs  Cs11  1  0.33334498  -0.00046524  0.66541354  1
  Cs  Cs12  1  0.33318583  0.33387778  0.00105074  1
  Cs  Cs13  1  0.33147195  0.33188405  0.33357135  1
  Cs  Cs14  1  0.33624781  0.32985744  0.66500065  1
  Cs  Cs15  1  0.33219837  0.66523028  -0.00093715  1
  Cs  Cs16  1  0.33178254  0.66647213  0.33424044  1
  Cs  Cs17  1  0.33601279  0.66896063  0.66577838  1
  Cs  Cs18  1  0.66817002  -0.00096073  0.00950721  1
  Cs  Cs19  1  0.66959449  -0.00008949  0.32683945  1
  Cs  Cs20  1  0.66540287  -0.00285385  0.66522869  1
  Cs  Cs21  1  0.66711382  0.33279755  0.00124451  1
  Cs  Cs22  1  0.66876035  0.33127553  0.33246468  1
  Cs  Cs23  1  0.66864988  0.33355689  0.66653695  1
  Cs  Cs24  1  0.66617366  0.66753807  0.00198202  1
  Cs  Cs25  1  0.66633486  0.66853463  0.33074355  1
  Cs  Cs26  1  0.66449255  0.66784515  0.66685026  1
  Sn  Sn27  1  0.83318262  0.83344007  0.50042446  1
  Sn  Sn28  1  0.83218616  0.83352209  0.83297959  1
  Sn  Sn29  1  0.50007824  0.50002209  0.83323058  1
  Sn  Sn30  1  0.16654910  0.16619115  0.16736662  1
  Sn  Sn31  1  0.50068681  0.50007629  0.16703474  1
  Sn  Sn32  1  0.49992290  0.49983875  0.49961625  1
  Sn  Sn33  1  0.50015295  0.16593434  0.83284726  1
  Sn  Sn34  1  0.16703444  0.83413516  0.16728374  1
  Sn  Sn35  1  0.50025478  0.83386211  0.50007117  1
  Sn  Sn36  1  0.16671434  0.16632294  0.49986349  1
  Sn  Sn37  1  0.83301803  0.49990202  0.16697880  1
  Sn  Sn38  1  0.49974384  0.16613169  0.50037285  1
  Sn  Sn39  1  0.50095153  0.83396740  0.83311127  1
  Sn  Sn40  1  0.16665201  0.83403698  0.49934113  1
  Pb  Pb41  1  0.16935684  0.49989330  0.83263958  1
  Pb  Pb42  1  0.83029582  0.50269256  0.83528301  1
  Pb  Pb43  1  0.16662439  0.49942303  0.16674552  1
  Pb  Pb44  1  0.16845233  0.49950752  0.50050816  1
  Pb  Pb45  1  0.83717701  0.16956313  0.16679910  1
  Pb  Pb46  1  0.16703527  0.83331627  0.83245248  1
  Pb  Pb47  1  0.83616226  0.83187118  0.16646778  1
  Pb  Pb48  1  0.83340822  0.16427660  0.49999305  1
  Pb  Pb49  1  0.16863585  0.16667890  0.83192509  1
  Pb  Pb50  1  0.83045922  0.50267984  0.49826494  1
  Pb  Pb51  1  0.49844586  0.16899874  0.16717892  1
  Pb  Pb52  1  0.82973288  0.16357133  0.83321220  1
  Pb  Pb53  1  0.49785069  0.83157930  0.16668542  1
  I  I54  1  0.16800874  -0.00050968  0.17097119  1
  I  I55  1  0.17277778  -0.00095673  0.49535843  1
  I  I56  1  0.16922585  -0.00016720  0.83584919  1
  I  I57  1  0.16907753  0.33043794  0.17222308  1
  I  I58  1  0.17477369  0.32973590  0.49297310  1
  I  I59  1  0.16884642  0.33300980  0.83618831  1
  I  I60  1  0.16732960  0.66910473  0.17107622  1
  I  I61  1  0.16830244  0.67009480  0.49527226  1
  I  I62  1  0.16928191  0.66712852  0.83571926  1
  I  I63  1  0.50032303  0.00003665  0.16550070  1
  I  I64  1  0.49808114  -0.00072824  0.50775094  1
  I  I65  1  0.50225799  -0.00079009  0.82501081  1
  I  I66  1  0.50047170  0.33702864  0.16627904  1
  I  I67  1  0.49412135  0.33291783  0.50233836  1
  I  I68  1  0.49649669  0.33346148  0.83063501  1
  I  I69  1  0.50047045  0.66355465  0.16689380  1
  I  I70  1  0.49969458  0.66759522  0.50241264  1
  I  I71  1  0.50317148  0.66722728  0.83044248  1
  I  I72  1  0.83212854  -0.00020312  0.16633123  1
  I  I73  1  0.82826379  -0.00413954  0.50244786  1
  I  I74  1  0.82838718  -0.00434348  0.82982254  1
  I  I75  1  0.82757088  0.33719903  0.16714315  1
  I  I76  1  0.83393179  0.33357514  0.49813797  1
  I  I77  1  0.83394846  0.33356527  0.83521426  1
  I  I78  1  0.82939321  0.66432264  0.16684575  1
  I  I79  1  0.83418239  0.67085091  0.50343377  1
  I  I80  1  0.82762081  0.67030676  0.82908217  1
  I  I81  1  0.16849439  0.16260539  0.00232226  1
  I  I82  1  0.17419605  0.16201518  0.33450203  1
  I  I83  1  0.17195720  0.15935979  0.66273434  1
  I  I84  1  0.16956781  0.50129401  0.00024894  1
  I  I85  1  0.17030941  0.50130538  0.33344538  1
  I  I86  1  0.16746875  0.50185157  0.66627014  1
  I  I87  1  0.16729949  0.83603888  0.00240089  1
  I  I88  1  0.16752642  0.83619078  0.33479947  1
  I  I89  1  0.16824840  0.83781025  0.66296001  1
  I  I90  1  0.49829566  0.16686541  -0.00249765  1
  I  I91  1  0.49758505  0.16624453  0.33663018  1
  I  I92  1  0.49397949  0.17003756  0.66557115  1
  I  I93  1  0.50322850  0.50073329  -0.00031304  1
  I  I94  1  0.50294968  0.50125182  0.33403827  1
  I  I95  1  0.49725926  0.50116317  0.66641078  1
  I  I96  1  0.50306759  0.83259122  -0.00283592  1
  I  I97  1  0.50200990  0.83298037  0.33665128  1
  I  I98  1  0.49844727  0.82928117  0.66566168  1
  I  I99  1  0.83299788  0.16380976  -0.00000187  1
  I  I100  1  0.82681326  0.16405071  0.33338715  1
  I  I101  1  0.83892346  0.17041171  0.66662323  1
  I  I102  1  0.82784200  0.50281802  0.00288683  1
  I  I103  1  0.82671862  0.50292073  0.33065699  1
  I  I104  1  0.83416935  0.49892039  0.66674726  1
  I  I105  1  0.82792533  0.83130913  -0.00251500  1
  I  I106  1  0.82982305  0.83168453  0.33618057  1
  I  I107  1  0.83350750  0.83293409  0.66586883  1
  I  I108  1  0.00495012  0.16290524  0.17411983  1
  I  I109  1  0.00346871  0.16063506  0.49339555  1
  I  I110  1  -0.00021229  0.16570707  0.83437883  1
  I  I111  1  -0.00230406  0.50233903  0.16747442  1
  I  I112  1  -0.00039711  0.50046201  0.49610115  1
  I  I113  1  -0.00086698  0.50129834  0.83669699  1
  I  I114  1  0.00382627  0.83370824  0.17086644  1
  I  I115  1  0.00070300  0.83816636  0.49943651  1
  I  I116  1  -0.00256662  0.83239712  0.83069974  1
  I  I117  1  0.33066053  0.16457263  0.16799429  1
  I  I118  1  0.33458403  0.16232757  0.49983093  1
  I  I119  1  0.33735687  0.16392433  0.83207355  1
  I  I120  1  0.33636051  0.50060072  0.16584954  1
  I  I121  1  0.33761453  0.50523726  0.49743433  1
  I  I122  1  0.33866238  0.50464429  0.83720363  1
  I  I123  1  0.33017790  0.83402749  0.17063186  1
  I  I124  1  0.33441945  0.83289030  0.50019196  1
  I  I125  1  0.33702939  0.83221210  0.83033174  1
  I  I126  1  0.66659968  0.16615425  0.16642998  1
  I  I127  1  0.66293753  0.16726477  0.50497918  1
  I  I128  1  0.66147441  0.17086001  0.82637238  1
  I  I129  1  0.66473694  0.50190521  0.16646992  1
  I  I130  1  0.66180549  0.49935881  0.50305917  1
  I  I131  1  0.66202092  0.49826688  0.83021926  1
  I  I132  1  0.66656497  0.83307142  0.16878311  1
  I  I133  1  0.66523188  0.83181887  0.50541429  1
  I  I134  1  0.66484059  0.83224756  0.82487074  1
