# generated using pymatgen
data_Cs27Sn14Pb13I81
_symmetry_space_group_name_H-M   'P 1'
_cell_length_a   18.95468110
_cell_length_b   18.96337222
_cell_length_c   18.96336779
_cell_angle_alpha   90.00011792
_cell_angle_beta   89.99988000
_cell_angle_gamma   89.99809180
_symmetry_Int_Tables_number   1
_chemical_formula_structural   Cs27Sn14Pb13I81
_chemical_formula_sum   'Cs27 Sn14 Pb13 I81'
_cell_volume   6816.28153005
_cell_formula_units_Z   1
loop_
 _symmetry_equiv_pos_site_id
 _symmetry_equiv_pos_as_xyz
  1  'x, y, z'
loop_
 _atom_site_type_symbol
 _atom_site_label
 _atom_site_symmetry_multiplicity
 _atom_site_fract_x
 _atom_site_fract_y
 _atom_site_fract_z
 _atom_site_occupancy
  Cs  Cs0  1  -0.00193608  -0.00033970  0.00043545  1
  Cs  Cs1  1  0.00131828  0.00378288  0.33276112  1
  Cs  Cs2  1  -0.00007399  -0.00178394  0.66638345  1
  Cs  Cs3  1  -0.00075436  0.33218714  -0.00002837  1
  Cs  Cs4  1  -0.00106371  0.33168117  0.33539033  1
  Cs  Cs5  1  0.00212857  0.33442438  0.66399513  1
  Cs  Cs6  1  -0.00079334  0.66731406  0.00183766  1
  Cs  Cs7  1  0.00376219  0.66172891  0.33045686  1
  Cs  Cs8  1  0.00005149  0.66798007  0.66476233  1
  Cs  Cs9  1  0.33567644  0.00227238  0.00052863  1
  Cs  Cs10  1  0.33349704  -0.00192284  0.33358408  1
  Cs  Cs11  1  0.33163466  0.00118608  0.66656393  1
  Cs  Cs12  1  0.33425089  0.33124044  -0.00537166  1
  Cs  Cs13  1  0.33365536  0.33298489  0.33554717  1
  Cs  Cs14  1  0.33224146  0.33248859  0.66852724  1
  Cs  Cs15  1  0.33080310  0.66691731  0.00087999  1
  Cs  Cs16  1  0.33194047  0.67043085  0.33092739  1
  Cs  Cs17  1  0.33449681  0.66676748  0.66712680  1
  Cs  Cs18  1  0.66780508  0.00242438  0.00101076  1
  Cs  Cs19  1  0.66352188  -0.00176994  0.33490691  1
  Cs  Cs20  1  0.66981852  -0.00592255  0.66462120  1
  Cs  Cs21  1  0.66603316  0.33410242  0.00077373  1
  Cs  Cs22  1  0.66811829  0.33362259  0.33228360  1
  Cs  Cs23  1  0.66569158  0.33444082  0.66601071  1
  Cs  Cs24  1  0.66862039  0.66357371  -0.00299762  1
  Cs  Cs25  1  0.66452643  0.66618975  0.33537821  1
  Cs  Cs26  1  0.66593097  0.66903364  0.66880659  1
  Sn  Sn27  1  0.83290587  0.49887717  0.83374195  1
  Sn  Sn28  1  0.83385737  0.16657099  0.16599811  1
  Sn  Sn29  1  0.83256148  0.50002372  0.16596731  1
  Sn  Sn30  1  0.83328645  0.16762837  0.83355330  1
  Sn  Sn31  1  0.83301187  0.83321895  0.16714516  1
  Sn  Sn32  1  0.16746683  0.83333848  0.83297866  1
  Sn  Sn33  1  0.16655337  0.16702440  0.16695041  1
  Sn  Sn34  1  0.49952147  0.16713563  0.50019966  1
  Sn  Sn35  1  0.50049180  0.50064262  0.83352263  1
  Sn  Sn36  1  0.49910240  0.83295671  0.83375992  1
  Sn  Sn37  1  0.16660482  0.83391751  0.50054479  1
  Sn  Sn38  1  0.50028862  0.49981553  0.16636696  1
  Sn  Sn39  1  0.16760641  0.16597365  0.49929760  1
  Sn  Sn40  1  0.49987448  0.49934683  0.50002743  1
  Pb  Pb41  1  0.16502106  0.83558533  0.16651153  1
  Pb  Pb42  1  0.50032701  0.16862175  0.16858314  1
  Pb  Pb43  1  0.83335349  0.16666634  0.49993345  1
  Pb  Pb44  1  0.83338560  0.83295434  0.83476023  1
  Pb  Pb45  1  0.50216668  0.83088784  0.16403881  1
  Pb  Pb46  1  0.16428107  0.16463706  0.83308049  1
  Pb  Pb47  1  0.83647914  0.83308226  0.49670568  1
  Pb  Pb48  1  0.16652989  0.49699559  0.16641768  1
  Pb  Pb49  1  0.49811773  0.83325485  0.50181740  1
  Pb  Pb50  1  0.50244151  0.16671283  0.83093412  1
  Pb  Pb51  1  0.16934736  0.49982102  0.49999569  1
  Pb  Pb52  1  0.83101895  0.50020928  0.50014299  1
  Pb  Pb53  1  0.16619311  0.50238772  0.83341368  1
  I  I54  1  0.16073244  0.00352401  0.16808321  1
  I  I55  1  0.17228369  0.00106628  0.49966876  1
  I  I56  1  0.17055806  -0.00323603  0.83211929  1
  I  I57  1  0.16104695  0.32913824  0.17276697  1
  I  I58  1  0.16789981  0.33009176  0.49583031  1
  I  I59  1  0.16845170  0.33303820  0.83300567  1
  I  I60  1  0.16506555  0.66672781  0.16798204  1
  I  I61  1  0.16675093  0.66945370  0.50408761  1
  I  I62  1  0.16602953  0.67042812  0.82764351  1
  I  I63  1  0.50154387  0.00007111  0.16719263  1
  I  I64  1  0.49824469  0.00238751  0.50099702  1
  I  I65  1  0.49815096  -0.00226101  0.83097824  1
  I  I66  1  0.50496075  0.33688365  0.16248561  1
  I  I67  1  0.49486923  0.33371140  0.50173380  1
  I  I68  1  0.50280126  0.33635541  0.83480040  1
  I  I69  1  0.50461225  0.66255701  0.17166972  1
  I  I70  1  0.49987257  0.66381277  0.49884644  1
  I  I71  1  0.50259219  0.66521771  0.83093850  1
  I  I72  1  0.83872513  0.00136324  0.16218451  1
  I  I73  1  0.82799870  0.00008732  0.50130273  1
  I  I74  1  0.83350295  0.00198155  0.83775843  1
  I  I75  1  0.83311680  0.33342990  0.16260847  1
  I  I76  1  0.83729177  0.33330115  0.49710457  1
  I  I77  1  0.82834345  0.33416675  0.84095327  1
  I  I78  1  0.82954819  0.66524592  0.16223565  1
  I  I79  1  0.83318836  0.66664441  0.50080672  1
  I  I80  1  0.83159961  0.66383016  0.83797428  1
  I  I81  1  0.16330181  0.16573096  0.00227078  1
  I  I82  1  0.16442343  0.16191468  0.33382514  1
  I  I83  1  0.16903749  0.16456344  0.66390157  1
  I  I84  1  0.17124054  0.50056367  -0.00001939  1
  I  I85  1  0.16658436  0.50424082  0.33321294  1
  I  I86  1  0.16578034  0.49609784  0.66669916  1
  I  I87  1  0.16857269  0.83359002  -0.00244591  1
  I  I88  1  0.16496534  0.83590720  0.33565893  1
  I  I89  1  0.16963225  0.83879844  0.66661743  1
  I  I90  1  0.49744463  0.16711851  -0.00012941  1
  I  I91  1  0.50053660  0.17166392  0.33656471  1
  I  I92  1  0.49511141  0.17212534  0.66323597  1
  I  I93  1  0.50510465  0.50431096  -0.00054892  1
  I  I94  1  0.50420309  0.49474179  0.33311239  1
  I  I95  1  0.50351660  0.50019282  0.66750032  1
  I  I96  1  0.49393392  0.82927990  -0.00401047  1
  I  I97  1  0.49969807  0.83198211  0.33322598  1
  I  I98  1  0.50031295  0.82810198  0.66983005  1
  I  I99  1  0.83824555  0.16731291  0.00122951  1
  I  I100  1  0.83494444  0.16806727  0.33004936  1
  I  I101  1  0.83275310  0.17123088  0.66942205  1
  I  I102  1  0.82574705  0.49899228  0.00039675  1
  I  I103  1  0.82994625  0.49891871  0.32978601  1
  I  I104  1  0.82971638  0.49561087  0.67011849  1
  I  I105  1  0.83547440  0.83360861  0.00263224  1
  I  I106  1  0.83358742  0.83402285  0.32872338  1
  I  I107  1  0.83223982  0.83377940  0.66685762  1
  I  I108  1  -0.00114123  0.16818804  0.16892427  1
  I  I109  1  0.00293158  0.16216383  0.49864014  1
  I  I110  1  -0.00372573  0.17063285  0.83377621  1
  I  I111  1  -0.00360211  0.50212060  0.16163219  1
  I  I112  1  0.00012912  0.49979441  0.49985481  1
  I  I113  1  -0.00354740  0.49773019  0.83917423  1
  I  I114  1  -0.00313885  0.82877410  0.16421398  1
  I  I115  1  0.00433448  0.84045970  0.50788297  1
  I  I116  1  0.00217450  0.83440912  0.83069101  1
  I  I117  1  0.33107991  0.16742504  0.16962436  1
  I  I118  1  0.33265890  0.16706784  0.49507636  1
  I  I119  1  0.33338421  0.16831991  0.83534983  1
  I  I120  1  0.33654041  0.49896202  0.16629900  1
  I  I121  1  0.33774775  0.49840144  0.50054426  1
  I  I122  1  0.33674927  0.50203042  0.83385407  1
  I  I123  1  0.33339233  0.83301001  0.16758671  1
  I  I124  1  0.33015211  0.83487412  0.50082799  1
  I  I125  1  0.33366768  0.82809585  0.82996477  1
  I  I126  1  0.66985871  0.16598607  0.16415077  1
  I  I127  1  0.66404393  0.17171199  0.50000603  1
  I  I128  1  0.67028776  0.16631014  0.83903610  1
  I  I129  1  0.66746577  0.49776813  0.16587523  1
  I  I130  1  0.66262922  0.49389168  0.49969003  1
  I  I131  1  0.66619939  0.50208387  0.83404103  1
  I  I132  1  0.67028867  0.83914255  0.16461206  1
  I  I133  1  0.66641605  0.83447630  0.50130009  1
  I  I134  1  0.66449016  0.83136182  0.83440609  1
