# generated using pymatgen
data_Cs27Sn13Pb14I81
_symmetry_space_group_name_H-M   'P 1'
_cell_length_a   18.97583317
_cell_length_b   18.98048792
_cell_length_c   18.97528964
_cell_angle_alpha   90.00201632
_cell_angle_beta   90.00177237
_cell_angle_gamma   90.00079142
_symmetry_Int_Tables_number   1
_chemical_formula_structural   Cs27Sn13Pb14I81
_chemical_formula_sum   'Cs27 Sn13 Pb14 I81'
_cell_volume   6834.34092211
_cell_formula_units_Z   1
loop_
 _symmetry_equiv_pos_site_id
 _symmetry_equiv_pos_as_xyz
  1  'x, y, z'
loop_
 _atom_site_type_symbol
 _atom_site_label
 _atom_site_symmetry_multiplicity
 _atom_site_fract_x
 _atom_site_fract_y
 _atom_site_fract_z
 _atom_site_occupancy
  Cs  Cs0  1  -0.00257760  -0.00104402  -0.00756610  1
  Cs  Cs1  1  0.00273838  -0.00336290  0.33382894  1
  Cs  Cs2  1  -0.00208546  -0.00077584  0.67219524  1
  Cs  Cs3  1  -0.00021567  0.33440754  -0.00093064  1
  Cs  Cs4  1  0.00058834  0.33435514  0.33425274  1
  Cs  Cs5  1  -0.00164894  0.33071906  0.66585140  1
  Cs  Cs6  1  -0.00166278  0.66579140  0.00192080  1
  Cs  Cs7  1  0.00098704  0.66716396  0.33196723  1
  Cs  Cs8  1  0.00018826  0.66975079  0.66719553  1
  Cs  Cs9  1  0.33608798  -0.00033189  -0.00041186  1
  Cs  Cs10  1  0.33303941  0.00015858  0.33394434  1
  Cs  Cs11  1  0.33344043  0.00262211  0.66577820  1
  Cs  Cs12  1  0.33265766  0.33451804  -0.00168505  1
  Cs  Cs13  1  0.33040227  0.33194733  0.33303533  1
  Cs  Cs14  1  0.33475863  0.33157980  0.66987948  1
  Cs  Cs15  1  0.33546839  0.66471543  -0.00482781  1
  Cs  Cs16  1  0.33078015  0.66851305  0.33334549  1
  Cs  Cs17  1  0.34152187  0.66481161  0.67288425  1
  Cs  Cs18  1  0.66600352  0.00157396  0.00085669  1
  Cs  Cs19  1  0.66456867  0.00145683  0.32976887  1
  Cs  Cs20  1  0.66764653  -0.00029432  0.67050661  1
  Cs  Cs21  1  0.66798084  0.33249438  0.00421663  1
  Cs  Cs22  1  0.67015520  0.33289548  0.33402935  1
  Cs  Cs23  1  0.66589826  0.33458588  0.66146083  1
  Cs  Cs24  1  0.66909351  0.66729085  -0.00099971  1
  Cs  Cs25  1  0.66669142  0.66664487  0.33560529  1
  Cs  Cs26  1  0.65867706  0.66511661  0.66623387  1
  Sn  Sn27  1  0.16593218  0.83334218  0.16682569  1
  Sn  Sn28  1  0.16616019  0.83304630  0.49977023  1
  Sn  Sn29  1  0.16678317  0.50018077  0.16730943  1
  Sn  Sn30  1  0.49982264  0.50025473  0.16740092  1
  Sn  Sn31  1  0.16621796  0.16638694  0.16697721  1
  Sn  Sn32  1  0.16676426  0.50037320  0.49987509  1
  Sn  Sn33  1  0.16703470  0.16658224  0.49929459  1
  Sn  Sn34  1  0.83386170  0.83330162  0.49904574  1
  Sn  Sn35  1  0.50009974  0.16683744  0.83278205  1
  Sn  Sn36  1  0.83346152  0.50077531  0.16625209  1
  Sn  Sn37  1  0.49952154  0.16665214  0.50035574  1
  Sn  Sn38  1  0.83419502  0.83267366  0.16777194  1
  Sn  Sn39  1  0.83364383  0.49998819  0.83337751  1
  Pb  Pb40  1  0.16682724  0.83317178  0.83334772  1
  Pb  Pb41  1  0.49720526  0.49773513  0.49768286  1
  Pb  Pb42  1  0.83330929  0.83107273  0.83346330  1
  Pb  Pb43  1  0.49759946  0.16869768  0.16724126  1
  Pb  Pb44  1  0.83547887  0.50222966  0.49945832  1
  Pb  Pb45  1  0.83644175  0.16620185  0.16687441  1
  Pb  Pb46  1  0.83406762  0.16369612  0.49968084  1
  Pb  Pb47  1  0.49973161  0.83086168  0.16681062  1
  Pb  Pb48  1  0.16801968  0.16674721  0.83313056  1
  Pb  Pb49  1  0.83069391  0.16943297  0.83333612  1
  Pb  Pb50  1  0.16482320  0.49999212  0.83323941  1
  Pb  Pb51  1  0.50011706  0.83592667  0.83348880  1
  Pb  Pb52  1  0.50256078  0.49794253  0.83569661  1
  Pb  Pb53  1  0.49949781  0.83563504  0.49977507  1
  I  I54  1  0.16343406  -0.00051722  0.17330639  1
  I  I55  1  0.16774781  -0.00001766  0.49326380  1
  I  I56  1  0.16717338  0.00003042  0.83463420  1
  I  I57  1  0.16709554  0.33414605  0.17206599  1
  I  I58  1  0.17097274  0.33320055  0.49318280  1
  I  I59  1  0.16587165  0.33341043  0.83427393  1
  I  I60  1  0.16532067  0.66625677  0.17287855  1
  I  I61  1  0.16063972  0.66692054  0.49229459  1
  I  I62  1  0.16731167  0.66650833  0.83267941  1
  I  I63  1  0.50032920  0.00027445  0.16555384  1
  I  I64  1  0.49383329  0.00358916  0.50229777  1
  I  I65  1  0.49917492  0.00407186  0.83051627  1
  I  I66  1  0.50036199  0.33658317  0.16654149  1
  I  I67  1  0.49473235  0.32990611  0.50318216  1
  I  I68  1  0.49928300  0.33042078  0.82887009  1
  I  I69  1  0.49558988  0.66287092  0.16631775  1
  I  I70  1  0.49929010  0.66644932  0.49954360  1
  I  I71  1  0.50041735  0.66605591  0.83397870  1
  I  I72  1  0.83697393  -0.00357196  0.17091270  1
  I  I73  1  0.83856933  -0.00415324  0.49372462  1
  I  I74  1  0.83207443  -0.00011132  0.83405481  1
  I  I75  1  0.83398850  0.33653372  0.16243479  1
  I  I76  1  0.83417982  0.33352335  0.50038427  1
  I  I77  1  0.83488355  0.33714910  0.84090784  1
  I  I78  1  0.83811141  0.66603668  0.16609930  1
  I  I79  1  0.83957926  0.66997827  0.49802729  1
  I  I80  1  0.83375234  0.66347624  0.83721093  1
  I  I81  1  0.16794343  0.16775525  0.00330741  1
  I  I82  1  0.17240246  0.16703650  0.33376337  1
  I  I83  1  0.16863880  0.16694716  0.66294510  1
  I  I84  1  0.16839915  0.49970895  0.00394397  1
  I  I85  1  0.16478898  0.49906965  0.33206177  1
  I  I86  1  0.16414171  0.49893720  0.66328270  1
  I  I87  1  0.16220604  0.83313537  0.00421937  1
  I  I88  1  0.16286473  0.83326274  0.33300837  1
  I  I89  1  0.16154535  0.83485334  0.66260226  1
  I  I90  1  0.49874600  0.16888582  -0.00170088  1
  I  I91  1  0.49648336  0.16715648  0.33598722  1
  I  I92  1  0.49305616  0.16706292  0.66548718  1
  I  I93  1  0.49389860  0.49728160  0.00361466  1
  I  I94  1  0.50489689  0.49784144  0.32977069  1
  I  I95  1  0.50056566  0.50075417  0.66647206  1
  I  I96  1  0.49953689  0.83628774  0.00047783  1
  I  I97  1  0.50095176  0.83645574  0.33323651  1
  I  I98  1  0.50026120  0.83014024  0.66632406  1
  I  I99  1  0.83287105  0.16280692  0.00028306  1
  I  I100  1  0.82704029  0.17217686  0.33326293  1
  I  I101  1  0.83788721  0.16690728  0.66641058  1
  I  I102  1  0.83513255  0.50480867  0.00270831  1
  I  I103  1  0.83244323  0.50150232  0.32989761  1
  I  I104  1  0.83568423  0.50041316  0.66840543  1
  I  I105  1  0.83844546  0.83092898  0.00361987  1
  I  I106  1  0.83810824  0.82749772  0.33221044  1
  I  I107  1  0.83918224  0.83386689  0.66361158  1
  I  I108  1  0.00459144  0.17170559  0.17359439  1
  I  I109  1  0.00389366  0.16943031  0.49472544  1
  I  I110  1  -0.00016813  0.16664077  0.83314904  1
  I  I111  1  0.00067543  0.50053366  0.16616080  1
  I  I112  1  0.00375608  0.49442147  0.49457867  1
  I  I113  1  -0.00283962  0.50012027  0.84060408  1
  I  I114  1  0.00071916  0.82833078  0.17126853  1
  I  I115  1  0.00145055  0.83475981  0.49530473  1
  I  I116  1  -0.00007179  0.83488031  0.83270274  1
  I  I117  1  0.32937119  0.16637003  0.16830104  1
  I  I118  1  0.33156509  0.16492101  0.49973857  1
  I  I119  1  0.33586999  0.16870051  0.83201629  1
  I  I120  1  0.33159843  0.49913678  0.17138283  1
  I  I121  1  0.32892313  0.50469408  0.49415996  1
  I  I122  1  0.33365289  0.49924746  0.83446934  1
  I  I123  1  0.32947962  0.83340600  0.17177633  1
  I  I124  1  0.32941763  0.83265932  0.49411169  1
  I  I125  1  0.33330797  0.83160985  0.83409423  1
  I  I126  1  0.66657203  0.16733989  0.16632201  1
  I  I127  1  0.66408079  0.16600022  0.50460611  1
  I  I128  1  0.66283686  0.16676246  0.82734614  1
  I  I129  1  0.66777552  0.50344929  0.16126544  1
  I  I130  1  0.66668533  0.49965237  0.49914004  1
  I  I131  1  0.67023950  0.49972378  0.83910386  1
  I  I132  1  0.67010341  0.82869145  0.17021612  1
  I  I133  1  0.66959487  0.83395564  0.49563092  1
  I  I134  1  0.66705008  0.83331350  0.83327929  1
