# generated using pymatgen
data_Cs27Sn14Pb13I81
_symmetry_space_group_name_H-M   'P 1'
_cell_length_a   18.97734992
_cell_length_b   18.97623176
_cell_length_c   18.97214694
_cell_angle_alpha   90.00054479
_cell_angle_beta   89.99986459
_cell_angle_gamma   89.99807826
_symmetry_Int_Tables_number   1
_chemical_formula_structural   Cs27Sn14Pb13I81
_chemical_formula_sum   'Cs27 Sn14 Pb13 I81'
_cell_volume   6832.22280554
_cell_formula_units_Z   1
loop_
 _symmetry_equiv_pos_site_id
 _symmetry_equiv_pos_as_xyz
  1  'x, y, z'
loop_
 _atom_site_type_symbol
 _atom_site_label
 _atom_site_symmetry_multiplicity
 _atom_site_fract_x
 _atom_site_fract_y
 _atom_site_fract_z
 _atom_site_occupancy
  Cs  Cs0  1  -0.00784484  -0.00054783  -0.00214563  1
  Cs  Cs1  1  0.00180716  -0.00464594  0.33240274  1
  Cs  Cs2  1  0.00186644  -0.00017529  0.67001814  1
  Cs  Cs3  1  0.00228926  0.33447636  -0.00039870  1
  Cs  Cs4  1  0.00257380  0.33526257  0.33224125  1
  Cs  Cs5  1  -0.00179338  0.33343390  0.66790502  1
  Cs  Cs6  1  -0.00450793  0.66412700  -0.00000564  1
  Cs  Cs7  1  -0.00119596  0.66773973  0.33450220  1
  Cs  Cs8  1  0.00544067  0.66597357  0.66446637  1
  Cs  Cs9  1  0.33473449  0.00344078  0.00065649  1
  Cs  Cs10  1  0.33479983  -0.00112180  0.33327037  1
  Cs  Cs11  1  0.32957108  -0.00175370  0.66657283  1
  Cs  Cs12  1  0.33112340  0.33204534  0.00103004  1
  Cs  Cs13  1  0.33138417  0.33118615  0.33127403  1
  Cs  Cs14  1  0.33425487  0.33315092  0.66757231  1
  Cs  Cs15  1  0.33688028  0.66618685  -0.00184019  1
  Cs  Cs16  1  0.33236849  0.67080738  0.33166860  1
  Cs  Cs17  1  0.33209714  0.66797296  0.67097930  1
  Cs  Cs18  1  0.66960409  -0.00033585  0.00039399  1
  Cs  Cs19  1  0.66476020  -0.00116737  0.33248519  1
  Cs  Cs20  1  0.67115742  0.00480878  0.66720926  1
  Cs  Cs21  1  0.66679367  0.33325228  0.00007095  1
  Cs  Cs22  1  0.66655815  0.33348565  0.33877554  1
  Cs  Cs23  1  0.66814931  0.33335026  0.65723586  1
  Cs  Cs24  1  0.66629090  0.66757815  -0.00009783  1
  Cs  Cs25  1  0.66826509  0.66768873  0.33257511  1
  Cs  Cs26  1  0.66065401  0.66184598  0.66578386  1
  Sn  Sn27  1  0.50081884  0.49963360  0.16684171  1
  Sn  Sn28  1  0.16737306  0.16745162  0.83261560  1
  Sn  Sn29  1  0.49968626  0.16693846  0.83367088  1
  Sn  Sn30  1  0.49905913  0.83341431  0.16699380  1
  Sn  Sn31  1  0.83245498  0.16785358  0.16711017  1
  Sn  Sn32  1  0.83208149  0.83334276  0.50052844  1
  Sn  Sn33  1  0.50103473  0.16701435  0.16614877  1
  Sn  Sn34  1  0.16669773  0.16745981  0.50056855  1
  Sn  Sn35  1  0.83222187  0.49881458  0.16619692  1
  Sn  Sn36  1  0.16726556  0.83335526  0.16569118  1
  Sn  Sn37  1  0.16609748  0.49917803  0.83262751  1
  Sn  Sn38  1  0.16712278  0.49910285  0.50053444  1
  Sn  Sn39  1  0.50112533  0.83349564  0.49985831  1
  Sn  Sn40  1  0.83354805  0.49979948  0.83360307  1
  Pb  Pb41  1  0.16663759  0.83337182  0.83651284  1
  Pb  Pb42  1  0.50019930  0.83623829  0.83350046  1
  Pb  Pb43  1  0.83332117  0.16896248  0.83508590  1
  Pb  Pb44  1  0.83251041  0.83297091  0.16757805  1
  Pb  Pb45  1  0.49804169  0.16473038  0.49983375  1
  Pb  Pb46  1  0.16648511  0.16473325  0.16606111  1
  Pb  Pb47  1  0.83520686  0.50158994  0.49976550  1
  Pb  Pb48  1  0.49997526  0.49741230  0.83522436  1
  Pb  Pb49  1  0.16720385  0.83337445  0.49868693  1
  Pb  Pb50  1  0.16658127  0.50186753  0.16610371  1
  Pb  Pb51  1  0.83618121  0.16467149  0.49718283  1
  Pb  Pb52  1  0.49707012  0.50223145  0.49726395  1
  Pb  Pb53  1  0.83306308  0.82992424  0.82993688  1
  I  I54  1  0.17061338  -0.00277362  0.16942237  1
  I  I55  1  0.16683421  0.00221575  0.50255200  1
  I  I56  1  0.17111786  0.00329393  0.82946417  1
  I  I57  1  0.16870225  0.33332654  0.16802829  1
  I  I58  1  0.16624223  0.33333894  0.50178879  1
  I  I59  1  0.16677986  0.33333143  0.83038326  1
  I  I60  1  0.17056843  0.66945206  0.16895559  1
  I  I61  1  0.16605209  0.66446546  0.50252684  1
  I  I62  1  0.16274721  0.66339122  0.82949163  1
  I  I63  1  0.49913270  0.00027133  0.16708310  1
  I  I64  1  0.50034478  -0.00304468  0.49262108  1
  I  I65  1  0.49280758  0.00412924  0.83957913  1
  I  I66  1  0.50365127  0.33279656  0.16160382  1
  I  I67  1  0.50011754  0.33332230  0.49885191  1
  I  I68  1  0.49702714  0.32974263  0.84033710  1
  I  I69  1  0.49920418  0.66687929  0.17132521  1
  I  I70  1  0.50165110  0.67010095  0.49371487  1
  I  I71  1  0.49925757  0.66631385  0.83442973  1
  I  I72  1  0.83179194  0.00204391  0.16820185  1
  I  I73  1  0.83168235  -0.00298493  0.49608050  1
  I  I74  1  0.83446757  0.00034560  0.83503573  1
  I  I75  1  0.82695972  0.33403285  0.16375589  1
  I  I76  1  0.83328193  0.33335130  0.50065990  1
  I  I77  1  0.83600353  0.33671648  0.83589266  1
  I  I78  1  0.83162870  0.66390174  0.16443559  1
  I  I79  1  0.83275301  0.66928976  0.49604786  1
  I  I80  1  0.84022972  0.66214117  0.84249722  1
  I  I81  1  0.16839466  0.17076516  -0.00259408  1
  I  I82  1  0.16638038  0.16909169  0.33509523  1
  I  I83  1  0.17235937  0.16913009  0.66744487  1
  I  I84  1  0.16563020  0.49599680  -0.00256564  1
  I  I85  1  0.16674487  0.49763633  0.33511770  1
  I  I86  1  0.16053633  0.49764070  0.66741677  1
  I  I87  1  0.17338027  0.83334882  0.00427945  1
  I  I88  1  0.16810549  0.83345391  0.33082877  1
  I  I89  1  0.16678739  0.83316532  0.66684456  1
  I  I90  1  0.49661552  0.16483708  0.00158865  1
  I  I91  1  0.50160027  0.16726871  0.33003151  1
  I  I92  1  0.49660678  0.16483673  0.66907898  1
  I  I93  1  0.49867445  0.50502847  0.00367159  1
  I  I94  1  0.50460012  0.49534654  0.32896228  1
  I  I95  1  0.50241763  0.50058939  0.66659314  1
  I  I96  1  0.49519194  0.83141865  0.00360876  1
  I  I97  1  0.49903667  0.83538390  0.33162136  1
  I  I98  1  0.50309501  0.83418302  0.66375628  1
  I  I99  1  0.83462542  0.16622438  0.00332974  1
  I  I100  1  0.82822488  0.17241673  0.32919215  1
  I  I101  1  0.83056229  0.16678335  0.66659943  1
  I  I102  1  0.83705573  0.49721464  0.00112979  1
  I  I103  1  0.83129912  0.49853897  0.33030821  1
  I  I104  1  0.83688375  0.50232837  0.66909520  1
  I  I105  1  0.83446564  0.83496252  -0.00000390  1
  I  I106  1  0.83364805  0.83141823  0.33524072  1
  I  I107  1  0.82906742  0.83378242  0.66223666  1
  I  I108  1  -0.00219343  0.16934141  0.16733446  1
  I  I109  1  0.00396469  0.16745501  0.50440075  1
  I  I110  1  0.00283252  0.16837585  0.83127107  1
  I  I111  1  -0.00239231  0.49748547  0.16612384  1
  I  I112  1  0.00316897  0.50004499  0.49810253  1
  I  I113  1  0.00094824  0.49465780  0.83635780  1
  I  I114  1  0.00138879  0.83374252  0.16992217  1
  I  I115  1  -0.00129267  0.83262705  0.49587669  1
  I  I116  1  0.00000361  0.83858607  0.83451272  1
  I  I117  1  0.33597900  0.16828151  0.16602817  1
  I  I118  1  0.33012383  0.16746684  0.49807391  1
  I  I119  1  0.33251251  0.17191623  0.83660785  1
  I  I120  1  0.33583424  0.49829059  0.16725312  1
  I  I121  1  0.32929255  0.49868157  0.50463743  1
  I  I122  1  0.33054752  0.49835381  0.83113778  1
  I  I123  1  0.33514552  0.83338013  0.17344954  1
  I  I124  1  0.33565637  0.83381613  0.49504443  1
  I  I125  1  0.33333467  0.82845780  0.82947640  1
  I  I126  1  0.66525701  0.16392800  0.16070663  1
  I  I127  1  0.66664885  0.16647862  0.50253754  1
  I  I128  1  0.66418152  0.16578145  0.83774490  1
  I  I129  1  0.66691281  0.50237238  0.16088251  1
  I  I130  1  0.66642286  0.50043309  0.50259991  1
  I  I131  1  0.66903174  0.50044592  0.83735820  1
  I  I132  1  0.66354688  0.83363629  0.16954123  1
  I  I133  1  0.66573204  0.83301299  0.49140082  1
  I  I134  1  0.66662613  0.83377009  0.83861629  1
