# generated using pymatgen
data_Cs27Sn14Pb13I81
_symmetry_space_group_name_H-M   'P 1'
_cell_length_a   18.98424718
_cell_length_b   18.98325011
_cell_length_c   18.96041322
_cell_angle_alpha   89.99821093
_cell_angle_beta   89.99904369
_cell_angle_gamma   90.00022943
_symmetry_Int_Tables_number   1
_chemical_formula_structural   Cs27Sn14Pb13I81
_chemical_formula_sum   'Cs27 Sn14 Pb13 I81'
_cell_volume   6833.00514017
_cell_formula_units_Z   1
loop_
 _symmetry_equiv_pos_site_id
 _symmetry_equiv_pos_as_xyz
  1  'x, y, z'
loop_
 _atom_site_type_symbol
 _atom_site_label
 _atom_site_symmetry_multiplicity
 _atom_site_fract_x
 _atom_site_fract_y
 _atom_site_fract_z
 _atom_site_occupancy
  Cs  Cs0  1  -0.00110172  -0.00515705  -0.00357362  1
  Cs  Cs1  1  0.00346073  0.00352322  0.33167585  1
  Cs  Cs2  1  0.00042228  0.00364389  0.67604672  1
  Cs  Cs3  1  -0.00289087  0.33537941  0.00127687  1
  Cs  Cs4  1  0.00007419  0.33354287  0.33391418  1
  Cs  Cs5  1  0.00361120  0.33045083  0.66568874  1
  Cs  Cs6  1  0.00325454  0.66690914  0.00054977  1
  Cs  Cs7  1  0.00091244  0.66543299  0.33400257  1
  Cs  Cs8  1  -0.00404824  0.66795592  0.66418793  1
  Cs  Cs9  1  0.33164068  -0.00463956  -0.00252767  1
  Cs  Cs10  1  0.33321033  0.00102458  0.33389313  1
  Cs  Cs11  1  0.33314467  0.00081097  0.67112768  1
  Cs  Cs12  1  0.33614019  0.33684540  -0.00262265  1
  Cs  Cs13  1  0.33423520  0.33270521  0.33333070  1
  Cs  Cs14  1  0.33031071  0.33292850  0.67077281  1
  Cs  Cs15  1  0.32921628  0.66540643  -0.00483773  1
  Cs  Cs16  1  0.33275887  0.66665804  0.33286974  1
  Cs  Cs17  1  0.33597510  0.66663438  0.67145466  1
  Cs  Cs18  1  0.66879530  0.00286720  -0.00137628  1
  Cs  Cs19  1  0.66444083  0.00154737  0.33235796  1
  Cs  Cs20  1  0.66721140  -0.00890991  0.67340836  1
  Cs  Cs21  1  0.66679044  0.33305314  0.00128994  1
  Cs  Cs22  1  0.66610617  0.33330728  0.33224165  1
  Cs  Cs23  1  0.66619541  0.33329847  0.66654155  1
  Cs  Cs24  1  0.66632052  0.66323617  0.00229167  1
  Cs  Cs25  1  0.66646899  0.66605288  0.33516545  1
  Cs  Cs26  1  0.66768192  0.67690108  0.66277319  1
  Sn  Sn27  1  0.50110812  0.16731768  0.49946762  1
  Sn  Sn28  1  0.83293859  0.49979176  0.83352275  1
  Sn  Sn29  1  0.50071696  0.83318588  0.16717912  1
  Sn  Sn30  1  0.83201529  0.16636613  0.49927135  1
  Sn  Sn31  1  0.16691010  0.49893458  0.16759202  1
  Sn  Sn32  1  0.16690839  0.16763015  0.16689187  1
  Sn  Sn33  1  0.83352808  0.16645627  0.16757669  1
  Sn  Sn34  1  0.16661737  0.83270150  0.49958875  1
  Sn  Sn35  1  0.49972522  0.50022122  0.16745609  1
  Sn  Sn36  1  0.49921169  0.49921649  0.49923458  1
  Sn  Sn37  1  0.83333866  0.50017715  0.16628569  1
  Sn  Sn38  1  0.83250990  0.83326723  0.16760719  1
  Sn  Sn39  1  0.49963737  0.16657542  0.16705436  1
  Sn  Sn40  1  0.16782582  0.50108399  0.49905617  1
  Pb  Pb41  1  0.16724146  0.16711958  0.49854360  1
  Pb  Pb42  1  0.83298554  0.49840319  0.49950429  1
  Pb  Pb43  1  0.16432751  0.49992796  0.83292714  1
  Pb  Pb44  1  0.50254419  0.49995951  0.83253355  1
  Pb  Pb45  1  0.83325659  0.83032038  0.83648808  1
  Pb  Pb46  1  0.16681022  0.83303914  0.16773686  1
  Pb  Pb47  1  0.83306075  0.16885426  0.83360661  1
  Pb  Pb48  1  0.16653668  0.83289561  0.82937557  1
  Pb  Pb49  1  0.50014218  0.83308023  0.83703087  1
  Pb  Pb50  1  0.16669071  0.16713622  0.83766838  1
  Pb  Pb51  1  0.49831563  0.83364902  0.49794707  1
  Pb  Pb52  1  0.50021954  0.16692036  0.83312345  1
  Pb  Pb53  1  0.83562424  0.83688454  0.49732196  1
  I  I54  1  0.16653040  0.00246860  0.16969739  1
  I  I55  1  0.16617628  -0.00130224  0.49556614  1
  I  I56  1  0.16543148  -0.00001787  0.83324016  1
  I  I57  1  0.16519329  0.33441461  0.17261123  1
  I  I58  1  0.16664024  0.33616825  0.49714708  1
  I  I59  1  0.16572297  0.33369095  0.82789767  1
  I  I60  1  0.16589005  0.66343883  0.16855066  1
  I  I61  1  0.17066822  0.66453169  0.49221235  1
  I  I62  1  0.16589052  0.66628774  0.84039680  1
  I  I63  1  0.50226761  0.00110111  0.17071448  1
  I  I64  1  0.50160851  0.00310901  0.49366360  1
  I  I65  1  0.50056545  0.00002901  0.83257383  1
  I  I66  1  0.50205494  0.33363104  0.16982160  1
  I  I67  1  0.49860536  0.33370596  0.49095598  1
  I  I68  1  0.50062876  0.33354777  0.83871209  1
  I  I69  1  0.50351687  0.66534753  0.17060600  1
  I  I70  1  0.49820826  0.66370021  0.49503747  1
  I  I71  1  0.50107279  0.66632699  0.83303476  1
  I  I72  1  0.83131140  0.00097352  0.17230840  1
  I  I73  1  0.82892099  0.00468776  0.49265630  1
  I  I74  1  0.83402758  -0.00010423  0.83356263  1
  I  I75  1  0.83223827  0.33345193  0.16604067  1
  I  I76  1  0.83470482  0.33061470  0.49344760  1
  I  I77  1  0.83344919  0.33623265  0.84192442  1
  I  I78  1  0.83127326  0.66570629  0.16173607  1
  I  I79  1  0.83178643  0.66674987  0.50020654  1
  I  I80  1  0.83354109  0.66268695  0.83855717  1
  I  I81  1  0.16615298  0.17238736  0.00623675  1
  I  I82  1  0.16554847  0.16819076  0.32997348  1
  I  I83  1  0.16563759  0.16622558  0.66643201  1
  I  I84  1  0.16933690  0.49601670  0.00376350  1
  I  I85  1  0.16465307  0.49986999  0.33198546  1
  I  I86  1  0.16986893  0.50374158  0.66296623  1
  I  I87  1  0.16670098  0.83437067  0.00023561  1
  I  I88  1  0.16643151  0.83106493  0.33513487  1
  I  I89  1  0.16713925  0.82693555  0.66137270  1
  I  I90  1  0.50137752  0.16788970  0.00466653  1
  I  I91  1  0.50128828  0.16811497  0.33168880  1
  I  I92  1  0.50376995  0.17262069  0.66260821  1
  I  I93  1  0.49768195  0.49926889  0.00397597  1
  I  I94  1  0.50146077  0.49893883  0.33168349  1
  I  I95  1  0.49571978  0.49393235  0.66275245  1
  I  I96  1  0.50260188  0.83381413  0.00580304  1
  I  I97  1  0.50381084  0.83313841  0.32956353  1
  I  I98  1  0.49807417  0.83315092  0.66628297  1
  I  I99  1  0.83272118  0.16493083  0.00430804  1
  I  I100  1  0.83266644  0.16988192  0.33111992  1
  I  I101  1  0.83004374  0.16995800  0.66348815  1
  I  I102  1  0.83342952  0.49800154  0.00368035  1
  I  I103  1  0.83381521  0.50120329  0.32967028  1
  I  I104  1  0.83441761  0.49608148  0.66823097  1
  I  I105  1  0.83098102  0.84000360  0.00504298  1
  I  I106  1  0.82956821  0.82661258  0.32925505  1
  I  I107  1  0.83527372  0.83286897  0.66638051  1
  I  I108  1  -0.00074015  0.16968869  0.17151952  1
  I  I109  1  -0.00194407  0.16766024  0.49415638  1
  I  I110  1  -0.00023094  0.16779778  0.83077006  1
  I  I111  1  -0.00002516  0.49751067  0.16654197  1
  I  I112  1  0.00222810  0.50168663  0.49632882  1
  I  I113  1  -0.00319567  0.49932361  0.84002391  1
  I  I114  1  -0.00245482  0.83348067  0.16839718  1
  I  I115  1  0.00300323  0.82611391  0.49538158  1
  I  I116  1  -0.00025599  0.83338544  0.83699150  1
  I  I117  1  0.33417128  0.16858535  0.17155894  1
  I  I118  1  0.33619469  0.16737589  0.49375879  1
  I  I119  1  0.33343185  0.16718971  0.83201179  1
  I  I120  1  0.33360971  0.49745383  0.17146030  1
  I  I121  1  0.33377016  0.49812132  0.49079346  1
  I  I122  1  0.33341609  0.50046810  0.83644390  1
  I  I123  1  0.33591107  0.83443074  0.16933902  1
  I  I124  1  0.33073832  0.83370094  0.49422672  1
  I  I125  1  0.33324877  0.83273796  0.83727928  1
  I  I126  1  0.66669983  0.16881699  0.16978395  1
  I  I127  1  0.66588459  0.17394612  0.48985825  1
  I  I128  1  0.66672939  0.16832360  0.83827521  1
  I  I129  1  0.66648028  0.49846449  0.16600218  1
  I  I130  1  0.66385489  0.49699594  0.49587872  1
  I  I131  1  0.66989289  0.49809356  0.84135506  1
  I  I132  1  0.66672623  0.83266836  0.16741419  1
  I  I133  1  0.66671786  0.83031167  0.50116806  1
  I  I134  1  0.66695673  0.83275059  0.82858546  1
