# generated using pymatgen
data_Cs27Sn13Pb14I81
_symmetry_space_group_name_H-M   'P 1'
_cell_length_a   18.97085459
_cell_length_b   18.97705118
_cell_length_c   18.98171465
_cell_angle_alpha   90.00311629
_cell_angle_beta   89.99894760
_cell_angle_gamma   89.99856682
_symmetry_Int_Tables_number   1
_chemical_formula_structural   Cs27Sn13Pb14I81
_chemical_formula_sum   'Cs27 Sn13 Pb14 I81'
_cell_volume   6833.62375284
_cell_formula_units_Z   1
loop_
 _symmetry_equiv_pos_site_id
 _symmetry_equiv_pos_as_xyz
  1  'x, y, z'
loop_
 _atom_site_type_symbol
 _atom_site_label
 _atom_site_symmetry_multiplicity
 _atom_site_fract_x
 _atom_site_fract_y
 _atom_site_fract_z
 _atom_site_occupancy
  Cs  Cs0  1  -0.00215845  0.00124688  0.00001195  1
  Cs  Cs1  1  0.00175008  -0.00172257  0.33558763  1
  Cs  Cs2  1  -0.00028695  -0.00106939  0.66450629  1
  Cs  Cs3  1  0.00033932  0.33478500  0.00035953  1
  Cs  Cs4  1  0.00137960  0.33372389  0.32970999  1
  Cs  Cs5  1  -0.00178441  0.33306432  0.66906009  1
  Cs  Cs6  1  0.00246679  0.66434455  0.00117608  1
  Cs  Cs7  1  -0.00026081  0.66795073  0.33229468  1
  Cs  Cs8  1  0.00270777  0.66889308  0.66606016  1
  Cs  Cs9  1  0.34458278  -0.00219269  0.00147889  1
  Cs  Cs10  1  0.33147524  0.00823216  0.33058907  1
  Cs  Cs11  1  0.33105757  -0.00025210  0.66803071  1
  Cs  Cs12  1  0.32807721  0.33261787  0.00258322  1
  Cs  Cs13  1  0.33264849  0.32506475  0.33685100  1
  Cs  Cs14  1  0.33730569  0.33341559  0.66199886  1
  Cs  Cs15  1  0.33133466  0.66919384  -0.00268747  1
  Cs  Cs16  1  0.33969523  0.66631084  0.33448800  1
  Cs  Cs17  1  0.32968775  0.66707222  0.66822323  1
  Cs  Cs18  1  0.66354356  -0.00080636  0.00027930  1
  Cs  Cs19  1  0.66749857  -0.00383976  0.32992959  1
  Cs  Cs20  1  0.66922111  0.00088882  0.67000774  1
  Cs  Cs21  1  0.66926276  0.33443579  -0.00206408  1
  Cs  Cs22  1  0.66644625  0.33705916  0.33684305  1
  Cs  Cs23  1  0.66593781  0.33509655  0.66681818  1
  Cs  Cs24  1  0.66658006  0.66643578  0.00173347  1
  Cs  Cs25  1  0.66536831  0.66588521  0.33442523  1
  Cs  Cs26  1  0.66750095  0.66384733  0.66344714  1
  Sn  Sn27  1  0.49985776  0.49950998  0.16552299  1
  Sn  Sn28  1  0.16633615  0.83331177  0.16655152  1
  Sn  Sn29  1  0.49998012  0.83410137  0.50027970  1
  Sn  Sn30  1  0.50043143  0.50000998  0.83469925  1
  Sn  Sn31  1  0.83478570  0.49944855  0.50068920  1
  Sn  Sn32  1  0.83345320  0.83289456  0.83418204  1
  Sn  Sn33  1  0.83417271  0.16665043  0.83344572  1
  Sn  Sn34  1  0.83425433  0.83375625  0.16578540  1
  Sn  Sn35  1  0.16617592  0.16644226  0.83353695  1
  Sn  Sn36  1  0.83334223  0.16746361  0.49981593  1
  Sn  Sn37  1  0.83298068  0.50045984  0.83258382  1
  Sn  Sn38  1  0.16549258  0.50009468  0.49983703  1
  Sn  Sn39  1  0.83330451  0.16604416  0.16671168  1
  Pb  Pb40  1  0.50019932  0.50089339  0.50045323  1
  Pb  Pb41  1  0.50294022  0.16959490  0.16660300  1
  Pb  Pb42  1  0.16432123  0.16443352  0.16431511  1
  Pb  Pb43  1  0.50034341  0.16913121  0.83335092  1
  Pb  Pb44  1  0.50042010  0.83182190  0.16801473  1
  Pb  Pb45  1  0.50287090  0.16348692  0.50019306  1
  Pb  Pb46  1  0.16953797  0.50169633  0.16902970  1
  Pb  Pb47  1  0.16402005  0.16855168  0.50205904  1
  Pb  Pb48  1  0.16638525  0.49829732  0.83179894  1
  Pb  Pb49  1  0.83246672  0.50020874  0.16667456  1
  Pb  Pb50  1  0.16439980  0.83583028  0.83533093  1
  Pb  Pb51  1  0.83247087  0.83318699  0.49989038  1
  Pb  Pb52  1  0.50250542  0.83087269  0.83124476  1
  Pb  Pb53  1  0.16915669  0.83170926  0.49783084  1
  I  I54  1  0.16457716  -0.00333745  0.16821438  1
  I  I55  1  0.16661326  0.00024216  0.50002782  1
  I  I56  1  0.15888874  0.00347885  0.83187009  1
  I  I57  1  0.16653288  0.33308750  0.16688599  1
  I  I58  1  0.16681688  0.33662461  0.49957509  1
  I  I59  1  0.15905878  0.33069165  0.83375198  1
  I  I60  1  0.15833663  0.66943204  0.16626090  1
  I  I61  1  0.15968291  0.66366319  0.50158675  1
  I  I62  1  0.16597582  0.66671568  0.83286832  1
  I  I63  1  0.49886624  0.00002043  0.16876230  1
  I  I64  1  0.50236463  -0.00384377  0.49827588  1
  I  I65  1  0.50105502  -0.00013580  0.83200945  1
  I  I66  1  0.50204538  0.33739202  0.16433544  1
  I  I67  1  0.49887506  0.33331367  0.49976807  1
  I  I68  1  0.50767318  0.33715958  0.83438770  1
  I  I69  1  0.50394247  0.66407497  0.16478320  1
  I  I70  1  0.50418715  0.66820037  0.49899078  1
  I  I71  1  0.50582987  0.66294360  0.83591181  1
  I  I72  1  0.83594552  -0.00024175  0.16430934  1
  I  I73  1  0.83022300  0.00247116  0.50274718  1
  I  I74  1  0.83767047  0.00056403  0.83274429  1
  I  I75  1  0.83061428  0.33095290  0.16456705  1
  I  I76  1  0.83534852  0.33396000  0.50301590  1
  I  I77  1  0.83270200  0.33337060  0.83264925  1
  I  I78  1  0.83438554  0.66924956  0.16412897  1
  I  I79  1  0.83382257  0.66392189  0.50309106  1
  I  I80  1  0.82805659  0.66601417  0.83290380  1
  I  I81  1  0.15845421  0.16948763  -0.00322040  1
  I  I82  1  0.16571048  0.16692913  0.33323472  1
  I  I83  1  0.15950109  0.16667414  0.66973486  1
  I  I84  1  0.16506395  0.49968539  -0.00004580  1
  I  I85  1  0.16050806  0.50078884  0.33672200  1
  I  I86  1  0.16665524  0.50031637  0.66392590  1
  I  I87  1  0.16463842  0.83138501  0.00310029  1
  I  I88  1  0.15830144  0.83240331  0.33019804  1
  I  I89  1  0.16653927  0.83308949  0.66683535  1
  I  I90  1  0.50263179  0.16392919  -0.00003476  1
  I  I91  1  0.50131932  0.17014713  0.33336738  1
  I  I92  1  0.50285807  0.16966098  0.66675779  1
  I  I93  1  0.50810022  0.50108082  -0.00096503  1
  I  I94  1  0.50202621  0.50361901  0.33184176  1
  I  I95  1  0.50307224  0.50112836  0.66907741  1
  I  I96  1  0.49905308  0.83299111  -0.00016705  1
  I  I97  1  0.50438373  0.82738768  0.33540934  1
  I  I98  1  0.50310752  0.82959397  0.66395886  1
  I  I99  1  0.83667889  0.16687982  -0.00085741  1
  I  I100  1  0.83148978  0.16679505  0.33335061  1
  I  I101  1  0.83621989  0.16722879  0.66748522  1
  I  I102  1  0.83029771  0.49788922  -0.00280919  1
  I  I103  1  0.83361847  0.49745542  0.33587883  1
  I  I104  1  0.83020041  0.49732269  0.66732814  1
  I  I105  1  0.83551970  0.83576504  -0.00005870  1
  I  I106  1  0.83430585  0.83602841  0.33075315  1
  I  I107  1  0.83020166  0.83514935  0.66922634  1
  I  I108  1  -0.00426699  0.16683764  0.16811423  1
  I  I109  1  -0.00444143  0.16694242  0.49886671  1
  I  I110  1  -0.00312697  0.16932708  0.83318862  1
  I  I111  1  -0.00005288  0.49899663  0.16545500  1
  I  I112  1  -0.00225079  0.49758603  0.50542232  1
  I  I113  1  -0.00361789  0.50079556  0.83074207  1
  I  I114  1  -0.00214541  0.83558992  0.16424911  1
  I  I115  1  -0.00015261  0.83387011  0.50097568  1
  I  I116  1  -0.00438467  0.82830566  0.83325387  1
  I  I117  1  0.33315576  0.16533127  0.16512643  1
  I  I118  1  0.33303740  0.16860829  0.50164064  1
  I  I119  1  0.33070479  0.16899554  0.83300183  1
  I  I120  1  0.33713401  0.50416829  0.16153395  1
  I  I121  1  0.33157173  0.50382965  0.50023437  1
  I  I122  1  0.33579803  0.49830115  0.83461171  1
  I  I123  1  0.33127974  0.82971985  0.16924466  1
  I  I124  1  0.33660012  0.82760746  0.49874442  1
  I  I125  1  0.33336259  0.83347353  0.83398578  1
  I  I126  1  0.67148339  0.15948184  0.16328337  1
  I  I127  1  0.67147365  0.17445011  0.50344890  1
  I  I128  1  0.67081657  0.16527234  0.83304479  1
  I  I129  1  0.66480001  0.50203413  0.16776456  1
  I  I130  1  0.66963733  0.49760044  0.50137939  1
  I  I131  1  0.66886091  0.49813720  0.83091423  1
  I  I132  1  0.66992782  0.83633063  0.16431319  1
  I  I133  1  0.66517770  0.82963021  0.49780197  1
  I  I134  1  0.67108860  0.83839575  0.83903585  1
