# generated using pymatgen
data_Cs27Sn13Pb14I81
_symmetry_space_group_name_H-M   'P 1'
_cell_length_a   18.97794299
_cell_length_b   18.97604665
_cell_length_c   18.98066761
_cell_angle_alpha   89.99929118
_cell_angle_beta   90.00184039
_cell_angle_gamma   90.00101093
_symmetry_Int_Tables_number   1
_chemical_formula_structural   Cs27Sn13Pb14I81
_chemical_formula_sum   'Cs27 Sn13 Pb14 I81'
_cell_volume   6835.43819192
_cell_formula_units_Z   1
loop_
 _symmetry_equiv_pos_site_id
 _symmetry_equiv_pos_as_xyz
  1  'x, y, z'
loop_
 _atom_site_type_symbol
 _atom_site_label
 _atom_site_symmetry_multiplicity
 _atom_site_fract_x
 _atom_site_fract_y
 _atom_site_fract_z
 _atom_site_occupancy
  Cs  Cs0  1  -0.00029410  0.00085342  0.00209575  1
  Cs  Cs1  1  0.00104324  0.00048146  0.33254351  1
  Cs  Cs2  1  0.00312034  -0.00403228  0.66516839  1
  Cs  Cs3  1  -0.00142654  0.33263825  0.00065900  1
  Cs  Cs4  1  -0.00093532  0.33211396  0.33331959  1
  Cs  Cs5  1  -0.00182245  0.33352014  0.66646940  1
  Cs  Cs6  1  0.00037212  0.66787769  -0.00050204  1
  Cs  Cs7  1  -0.00226442  0.66821561  0.33150345  1
  Cs  Cs8  1  0.00740506  0.67217683  0.66984746  1
  Cs  Cs9  1  0.33370565  0.00169540  0.00195710  1
  Cs  Cs10  1  0.33198990  0.00140614  0.33132880  1
  Cs  Cs11  1  0.33468920  -0.00660994  0.66635794  1
  Cs  Cs12  1  0.33540708  0.33364034  -0.00048240  1
  Cs  Cs13  1  0.33324155  0.33399275  0.33415269  1
  Cs  Cs14  1  0.33139746  0.34079350  0.66753334  1
  Cs  Cs15  1  0.33216842  0.66314350  -0.00330489  1
  Cs  Cs16  1  0.33841488  0.66424751  0.33661245  1
  Cs  Cs17  1  0.33242032  0.66712436  0.66605997  1
  Cs  Cs18  1  0.66592285  0.00040440  -0.00081775  1
  Cs  Cs19  1  0.66705332  0.00077115  0.33234027  1
  Cs  Cs20  1  0.66304055  -0.00345607  0.66797639  1
  Cs  Cs21  1  0.66717870  0.33263029  -0.00059128  1
  Cs  Cs22  1  0.66830844  0.33313226  0.33300083  1
  Cs  Cs23  1  0.66998660  0.33129957  0.66806276  1
  Cs  Cs24  1  0.66713436  0.66667638  -0.00055825  1
  Cs  Cs25  1  0.66442699  0.66749065  0.33580509  1
  Cs  Cs26  1  0.66054096  0.67652024  0.66324730  1
  Sn  Sn27  1  0.50040419  0.16724485  0.49946989  1
  Sn  Sn28  1  0.83356320  0.49956974  0.50053791  1
  Sn  Sn29  1  0.50015460  0.16613304  0.16750730  1
  Sn  Sn30  1  0.16606956  0.16684579  0.83384921  1
  Sn  Sn31  1  0.83312587  0.49962520  0.83281973  1
  Sn  Sn32  1  0.16664080  0.16708395  0.16590785  1
  Sn  Sn33  1  0.83439253  0.16688711  0.83323455  1
  Sn  Sn34  1  0.49915061  0.83406824  0.16643714  1
  Sn  Sn35  1  0.83410137  0.49914272  0.16668530  1
  Sn  Sn36  1  0.16588620  0.49978187  0.16685850  1
  Sn  Sn37  1  0.83255222  0.16692583  0.50008269  1
  Sn  Sn38  1  0.16782340  0.83298378  0.16670740  1
  Sn  Sn39  1  0.83320481  0.16737426  0.16665675  1
  Pb  Pb40  1  0.83312908  0.83320447  0.16664026  1
  Pb  Pb41  1  0.50038170  0.49961372  0.16652199  1
  Pb  Pb42  1  0.16670193  0.16669815  0.50037496  1
  Pb  Pb43  1  0.16676067  0.83320979  0.49710164  1
  Pb  Pb44  1  0.49974641  0.83338334  0.83643646  1
  Pb  Pb45  1  0.16394125  0.49984068  0.49771105  1
  Pb  Pb46  1  0.49992554  0.83615006  0.49730418  1
  Pb  Pb47  1  0.50296226  0.49978663  0.83308198  1
  Pb  Pb48  1  0.16445921  0.49769329  0.83553065  1
  Pb  Pb49  1  0.83340521  0.83357502  0.83343956  1
  Pb  Pb50  1  0.50253752  0.49722163  0.50005105  1
  Pb  Pb51  1  0.49977549  0.16685480  0.83300723  1
  Pb  Pb52  1  0.16665504  0.83605693  0.83600620  1
  Pb  Pb53  1  0.83352547  0.83364514  0.49989820  1
  I  I54  1  0.16665257  0.00157351  0.16334677  1
  I  I55  1  0.16314993  0.00053922  0.49759299  1
  I  I56  1  0.15925123  0.00443734  0.83944200  1
  I  I57  1  0.16522575  0.33211510  0.16363160  1
  I  I58  1  0.16932915  0.33298744  0.49606804  1
  I  I59  1  0.16473020  0.32951058  0.84021143  1
  I  I60  1  0.16482192  0.66630676  0.16830044  1
  I  I61  1  0.16352912  0.66641723  0.49813835  1
  I  I62  1  0.16394594  0.66644080  0.83590215  1
  I  I63  1  0.49749052  0.00204739  0.17005367  1
  I  I64  1  0.50793347  0.00430135  0.49788759  1
  I  I65  1  0.50352564  0.00062135  0.83190159  1
  I  I66  1  0.49857409  0.32973684  0.16960160  1
  I  I67  1  0.50175107  0.32902446  0.49090889  1
  I  I68  1  0.49801327  0.33274300  0.83778294  1
  I  I69  1  0.49756274  0.66923691  0.16555223  1
  I  I70  1  0.50279716  0.66673642  0.49768146  1
  I  I71  1  0.50292469  0.66666300  0.83639605  1
  I  I72  1  0.83545059  0.00359948  0.16687330  1
  I  I73  1  0.83016319  0.00430959  0.49829400  1
  I  I74  1  0.83605905  0.00430004  0.83514080  1
  I  I75  1  0.83562438  0.33215880  0.16685336  1
  I  I76  1  0.82967832  0.33196752  0.49849293  1
  I  I77  1  0.83674257  0.33187829  0.83454014  1
  I  I78  1  0.83628490  0.66314537  0.16644468  1
  I  I79  1  0.83452351  0.66318773  0.49662772  1
  I  I80  1  0.83264358  0.66315143  0.83679209  1
  I  I81  1  0.16312201  0.16609201  0.00230494  1
  I  I82  1  0.16411602  0.16582789  0.32956250  1
  I  I83  1  0.16201450  0.16726961  0.66969021  1
  I  I84  1  0.16080306  0.50151675  0.00416285  1
  I  I85  1  0.16120091  0.49604530  0.32863518  1
  I  I86  1  0.16530817  0.49726084  0.66699142  1
  I  I87  1  0.16954225  0.83216561  0.00457606  1
  I  I88  1  0.16848165  0.83851846  0.32808740  1
  I  I89  1  0.16552225  0.83544687  0.66710784  1
  I  I90  1  0.50240356  0.16295738  0.00345609  1
  I  I91  1  0.50380037  0.16314067  0.33147889  1
  I  I92  1  0.50535244  0.16806536  0.66372852  1
  I  I93  1  0.50298206  0.49797957  0.00048361  1
  I  I94  1  0.50220391  0.50169696  0.33293435  1
  I  I95  1  0.50065487  0.49678683  0.66646961  1
  I  I96  1  0.49782342  0.84204174  0.00488338  1
  I  I97  1  0.49650658  0.83556548  0.32921834  1
  I  I98  1  0.50168121  0.83509570  0.66629190  1
  I  I99  1  0.83372558  0.17132371  0.00116091  1
  I  I100  1  0.83285828  0.17135385  0.33214298  1
  I  I101  1  0.83317510  0.17332519  0.66669621  1
  I  I102  1  0.83691281  0.49338895  0.00103743  1
  I  I103  1  0.83719069  0.49320060  0.33228589  1
  I  I104  1  0.83141436  0.48954556  0.66669491  1
  I  I105  1  0.83233333  0.83391840  0.00041077  1
  I  I106  1  0.83429109  0.83374774  0.33288871  1
  I  I107  1  0.83275123  0.83418919  0.66667012  1
  I  I108  1  -0.00036831  0.16658338  0.16647785  1
  I  I109  1  -0.00350719  0.17071438  0.49670504  1
  I  I110  1  -0.00128399  0.17012561  0.83817591  1
  I  I111  1  -0.00111565  0.49675855  0.16697592  1
  I  I112  1  -0.00458827  0.49040151  0.50015137  1
  I  I113  1  -0.00397654  0.49639766  0.83252484  1
  I  I114  1  0.00277962  0.83623667  0.16613957  1
  I  I115  1  -0.00004118  0.83668843  0.49690144  1
  I  I116  1  0.00009445  0.83276786  0.83668285  1
  I  I117  1  0.33276863  0.16580271  0.16650260  1
  I  I118  1  0.33603187  0.16435879  0.49399932  1
  I  I119  1  0.33044089  0.16527285  0.83947399  1
  I  I120  1  0.33044187  0.49682177  0.16603927  1
  I  I121  1  0.33330834  0.49864393  0.49752204  1
  I  I122  1  0.33273969  0.49758211  0.83640363  1
  I  I123  1  0.33283963  0.83951161  0.16680887  1
  I  I124  1  0.33355823  0.83634532  0.50038111  1
  I  I125  1  0.33304088  0.83652899  0.83282602  1
  I  I126  1  0.66763107  0.16642353  0.16688379  1
  I  I127  1  0.66808969  0.17038492  0.49521292  1
  I  I128  1  0.67012582  0.17084008  0.83670187  1
  I  I129  1  0.67044963  0.49644564  0.16643634  1
  I  I130  1  0.67126901  0.49714079  0.49449279  1
  I  I131  1  0.67210801  0.49062018  0.83948422  1
  I  I132  1  0.66404946  0.83787550  0.16737859  1
  I  I133  1  0.66664983  0.83153465  0.49628041  1
  I  I134  1  0.66671296  0.83524190  0.83628310  1
