# generated using pymatgen
data_Cs27Sn14Pb13I81
_symmetry_space_group_name_H-M   'P 1'
_cell_length_a   18.96271806
_cell_length_b   18.96165060
_cell_length_c   18.95839033
_cell_angle_alpha   90.00022841
_cell_angle_beta   90.00352784
_cell_angle_gamma   89.99752275
_symmetry_Int_Tables_number   1
_chemical_formula_structural   Cs27Sn14Pb13I81
_chemical_formula_sum   'Cs27 Sn14 Pb13 I81'
_cell_volume   6816.76287386
_cell_formula_units_Z   1
loop_
 _symmetry_equiv_pos_site_id
 _symmetry_equiv_pos_as_xyz
  1  'x, y, z'
loop_
 _atom_site_type_symbol
 _atom_site_label
 _atom_site_symmetry_multiplicity
 _atom_site_fract_x
 _atom_site_fract_y
 _atom_site_fract_z
 _atom_site_occupancy
  Cs  Cs0  1  -0.00284601  -0.00022814  0.00149446  1
  Cs  Cs1  1  0.00220851  -0.00111106  0.33116721  1
  Cs  Cs2  1  0.00199428  -0.00332243  0.66706570  1
  Cs  Cs3  1  0.00142961  0.33185281  0.00093870  1
  Cs  Cs4  1  -0.00101376  0.33316820  0.33367834  1
  Cs  Cs5  1  -0.00190652  0.33433538  0.66502274  1
  Cs  Cs6  1  -0.00006120  0.66953874  -0.00301620  1
  Cs  Cs7  1  -0.00272315  0.66967503  0.33679180  1
  Cs  Cs8  1  0.00350297  0.66974073  0.66683577  1
  Cs  Cs9  1  0.33432470  0.00551263  -0.00013409  1
  Cs  Cs10  1  0.33230191  -0.00327402  0.33700659  1
  Cs  Cs11  1  0.33391341  -0.00176808  0.66373593  1
  Cs  Cs12  1  0.33214334  0.33349111  0.00157989  1
  Cs  Cs13  1  0.33103587  0.33419778  0.32958128  1
  Cs  Cs14  1  0.33448912  0.33358307  0.66785887  1
  Cs  Cs15  1  0.33344947  0.66087620  0.00135614  1
  Cs  Cs16  1  0.33655514  0.66891016  0.33222127  1
  Cs  Cs17  1  0.32976273  0.66738318  0.66627559  1
  Cs  Cs18  1  0.66884627  -0.00035192  -0.00085728  1
  Cs  Cs19  1  0.66397046  -0.00175394  0.33505757  1
  Cs  Cs20  1  0.66394430  0.00317312  0.66705347  1
  Cs  Cs21  1  0.66603292  0.33285169  -0.00189200  1
  Cs  Cs22  1  0.66999642  0.33347306  0.33669941  1
  Cs  Cs23  1  0.66698454  0.33363137  0.66613106  1
  Cs  Cs24  1  0.66698815  0.66873346  0.00269448  1
  Cs  Cs25  1  0.66609837  0.66804377  0.32879814  1
  Cs  Cs26  1  0.66789566  0.66167023  0.66823866  1
  Sn  Sn27  1  0.50056340  0.50007259  0.83273448  1
  Sn  Sn28  1  0.83347788  0.49929460  0.16556142  1
  Sn  Sn29  1  0.16650909  0.16695155  0.83224717  1
  Sn  Sn30  1  0.50113884  0.16687719  0.16643074  1
  Sn  Sn31  1  0.16659382  0.16757332  0.50075247  1
  Sn  Sn32  1  0.16766221  0.49918648  0.50004150  1
  Sn  Sn33  1  0.83292045  0.49930409  0.83440989  1
  Sn  Sn34  1  0.50001618  0.16681862  0.83387688  1
  Sn  Sn35  1  0.83216670  0.16750493  0.16614808  1
  Sn  Sn36  1  0.49986712  0.83305828  0.83345502  1
  Sn  Sn37  1  0.49900340  0.49964671  0.50041395  1
  Sn  Sn38  1  0.16697219  0.83299125  0.16593529  1
  Sn  Sn39  1  0.83356985  0.16749477  0.83385655  1
  Sn  Sn40  1  0.83260987  0.83375450  0.50046427  1
  Pb  Pb41  1  0.16380290  0.50230635  0.16916277  1
  Pb  Pb42  1  0.83535886  0.16473280  0.50020967  1
  Pb  Pb43  1  0.16643354  0.16569892  0.16660439  1
  Pb  Pb44  1  0.16638156  0.49805127  0.83182183  1
  Pb  Pb45  1  0.50218441  0.83047737  0.50223307  1
  Pb  Pb46  1  0.83152219  0.83340750  0.83161914  1
  Pb  Pb47  1  0.16926740  0.83595825  0.83554610  1
  Pb  Pb48  1  0.83434944  0.83381613  0.16808661  1
  Pb  Pb49  1  0.50200760  0.49781928  0.16630268  1
  Pb  Pb50  1  0.49795254  0.83605392  0.16430666  1
  Pb  Pb51  1  0.83328181  0.50139001  0.50045959  1
  Pb  Pb52  1  0.16555243  0.83321221  0.49866056  1
  Pb  Pb53  1  0.49789841  0.16860780  0.49998692  1
  I  I54  1  0.16471579  -0.00166493  0.16859792  1
  I  I55  1  0.16456303  0.00255212  0.50228988  1
  I  I56  1  0.16581581  0.00446648  0.82789209  1
  I  I57  1  0.16754400  0.33334591  0.16649881  1
  I  I58  1  0.16857415  0.33313772  0.50314695  1
  I  I59  1  0.17036623  0.32961918  0.83296802  1
  I  I60  1  0.16531490  0.66950883  0.16837570  1
  I  I61  1  0.16813182  0.66402078  0.49849759  1
  I  I62  1  0.16625548  0.66658012  0.83216625  1
  I  I63  1  0.50561960  0.00416825  0.16130928  1
  I  I64  1  0.49903624  0.00014119  0.50064507  1
  I  I65  1  0.50026807  0.00183378  0.83784924  1
  I  I66  1  0.49957713  0.32979556  0.16077396  1
  I  I67  1  0.50047028  0.33652657  0.50618275  1
  I  I68  1  0.50104731  0.33290973  0.83275672  1
  I  I69  1  0.50061277  0.66645673  0.16614058  1
  I  I70  1  0.49444186  0.66249101  0.50500179  1
  I  I71  1  0.50496129  0.66511675  0.82845909  1
  I  I72  1  0.83206013  0.00334027  0.16280172  1
  I  I73  1  0.83605016  -0.00244827  0.49985070  1
  I  I74  1  0.83262765  0.00343358  0.83628905  1
  I  I75  1  0.83091744  0.33240960  0.16388351  1
  I  I76  1  0.83319059  0.33327793  0.49934858  1
  I  I77  1  0.82905832  0.33275882  0.83579404  1
  I  I78  1  0.83525288  0.66411009  0.16439734  1
  I  I79  1  0.83548991  0.66867634  0.49973764  1
  I  I80  1  0.82845907  0.66361064  0.83562971  1
  I  I81  1  0.16728992  0.16450678  -0.00278098  1
  I  I82  1  0.16629414  0.16822604  0.33556825  1
  I  I83  1  0.16651832  0.16945329  0.66747813  1
  I  I84  1  0.16894620  0.49943527  -0.00003771  1
  I  I85  1  0.17055426  0.49345081  0.33720273  1
  I  I86  1  0.16539761  0.49904363  0.66373133  1
  I  I87  1  0.16417124  0.83565977  0.00276708  1
  I  I88  1  0.16506123  0.83672528  0.33110773  1
  I  I89  1  0.16596570  0.83287501  0.66694094  1
  I  I90  1  0.49800094  0.16823373  -0.00189112  1
  I  I91  1  0.50311160  0.16854942  0.33085657  1
  I  I92  1  0.50255255  0.16572604  0.67008556  1
  I  I93  1  0.50218948  0.50101582  -0.00340818  1
  I  I94  1  0.49805604  0.49801941  0.33555666  1
  I  I95  1  0.50281920  0.49748071  0.66839761  1
  I  I96  1  0.50122185  0.82925101  -0.00371550  1
  I  I97  1  0.49990572  0.83361724  0.33328335  1
  I  I98  1  0.49997882  0.83981862  0.67016957  1
  I  I99  1  0.83474203  0.16934172  -0.00093048  1
  I  I100  1  0.83104985  0.16972156  0.33046835  1
  I  I101  1  0.83034751  0.17030782  0.67009907  1
  I  I102  1  0.82809904  0.49679633  -0.00115713  1
  I  I103  1  0.83391609  0.49708873  0.33124291  1
  I  I104  1  0.83122250  0.49615246  0.66968390  1
  I  I105  1  0.83401193  0.83312691  -0.00022407  1
  I  I106  1  0.83515253  0.83208913  0.33574367  1
  I  I107  1  0.83483921  0.83233606  0.66423042  1
  I  I108  1  -0.00283827  0.16828945  0.16373067  1
  I  I109  1  0.00330799  0.17203005  0.50314041  1
  I  I110  1  -0.00104276  0.17110585  0.83385706  1
  I  I111  1  -0.00414572  0.49321127  0.16260310  1
  I  I112  1  0.00207806  0.49795777  0.49947226  1
  I  I113  1  -0.00299705  0.49541875  0.83504550  1
  I  I114  1  0.00200864  0.83621251  0.16805018  1
  I  I115  1  -0.00217611  0.83095631  0.50019200  1
  I  I116  1  0.00006147  0.83341073  0.83258075  1
  I  I117  1  0.33550842  0.16492707  0.16269631  1
  I  I118  1  0.32993830  0.16708105  0.50345750  1
  I  I119  1  0.33444123  0.16651289  0.83413919  1
  I  I120  1  0.33344735  0.49931214  0.16518469  1
  I  I121  1  0.33365169  0.49663591  0.50591457  1
  I  I122  1  0.33632463  0.49905707  0.83066362  1
  I  I123  1  0.33059094  0.83582606  0.16854712  1
  I  I124  1  0.33359729  0.83452229  0.49936017  1
  I  I125  1  0.33718321  0.83276095  0.83269055  1
  I  I126  1  0.66739761  0.16909535  0.15900040  1
  I  I127  1  0.66662049  0.16699624  0.50151268  1
  I  I128  1  0.66647081  0.16697451  0.83784248  1
  I  I129  1  0.67003148  0.49946310  0.16814769  1
  I  I130  1  0.66447140  0.50163227  0.50229980  1
  I  I131  1  0.66619534  0.49543059  0.83019208  1
  I  I132  1  0.66645968  0.83232977  0.16791972  1
  I  I133  1  0.66953633  0.83293828  0.49846259  1
  I  I134  1  0.66365855  0.83759556  0.83283310  1
