# generated using pymatgen
data_Cs27Sn13Pb14I81
_symmetry_space_group_name_H-M   'P 1'
_cell_length_a   18.98890534
_cell_length_b   18.99480945
_cell_length_c   18.99620289
_cell_angle_alpha   89.99938079
_cell_angle_beta   90.00051060
_cell_angle_gamma   90.00436629
_symmetry_Int_Tables_number   1
_chemical_formula_structural   Cs27Sn13Pb14I81
_chemical_formula_sum   'Cs27 Sn13 Pb14 I81'
_cell_volume   6851.75252889
_cell_formula_units_Z   1
loop_
 _symmetry_equiv_pos_site_id
 _symmetry_equiv_pos_as_xyz
  1  'x, y, z'
loop_
 _atom_site_type_symbol
 _atom_site_label
 _atom_site_symmetry_multiplicity
 _atom_site_fract_x
 _atom_site_fract_y
 _atom_site_fract_z
 _atom_site_occupancy
  Cs  Cs0  1  0.00178995  0.00065727  -0.00034959  1
  Cs  Cs1  1  -0.00271753  -0.00415337  0.34013979  1
  Cs  Cs2  1  0.00093016  0.00097020  0.66205872  1
  Cs  Cs3  1  0.00134806  0.33355923  -0.00054358  1
  Cs  Cs4  1  0.00142014  0.33030858  0.33843646  1
  Cs  Cs5  1  -0.00089064  0.33155069  0.66240382  1
  Cs  Cs6  1  -0.00074669  0.66618678  0.00261097  1
  Cs  Cs7  1  -0.00989770  0.67812389  0.33602342  1
  Cs  Cs8  1  0.00046531  0.66808158  0.66184960  1
  Cs  Cs9  1  0.33287710  0.00193824  -0.00014285  1
  Cs  Cs10  1  0.33516306  -0.00038169  0.33323264  1
  Cs  Cs11  1  0.33392436  -0.00175423  0.66757502  1
  Cs  Cs12  1  0.33237621  0.33226253  0.00068672  1
  Cs  Cs13  1  0.33088486  0.33716329  0.33157382  1
  Cs  Cs14  1  0.33163390  0.33652512  0.66617652  1
  Cs  Cs15  1  0.33199074  0.66616598  -0.00008149  1
  Cs  Cs16  1  0.33453157  0.66300189  0.33306284  1
  Cs  Cs17  1  0.33378749  0.66560663  0.66661290  1
  Cs  Cs18  1  0.66473532  0.00367454  -0.00244190  1
  Cs  Cs19  1  0.66571833  -0.00058068  0.33529756  1
  Cs  Cs20  1  0.66517346  0.00012304  0.66843458  1
  Cs  Cs21  1  0.66794405  0.33107071  -0.00069769  1
  Cs  Cs22  1  0.66830114  0.33504628  0.33576902  1
  Cs  Cs23  1  0.66899227  0.33682085  0.66606599  1
  Cs  Cs24  1  0.66849472  0.66529181  -0.00073120  1
  Cs  Cs25  1  0.66955759  0.66665439  0.33252452  1
  Cs  Cs26  1  0.66457015  0.66417875  0.66915383  1
  Sn  Sn27  1  0.49989590  0.83413171  0.50016923  1
  Sn  Sn28  1  0.49952691  0.16656862  0.50015719  1
  Sn  Sn29  1  0.50057647  0.83257941  0.83393542  1
  Sn  Sn30  1  0.49961843  0.50066258  0.16520835  1
  Sn  Sn31  1  0.16585851  0.16737805  0.83406487  1
  Sn  Sn32  1  0.83457442  0.16669746  0.16595847  1
  Sn  Sn33  1  0.16667041  0.49968682  0.16600613  1
  Sn  Sn34  1  0.49982977  0.83254250  0.16600763  1
  Sn  Sn35  1  0.83450173  0.16578887  0.83430399  1
  Sn  Sn36  1  0.16718991  0.49924021  0.83426302  1
  Sn  Sn37  1  0.49908095  0.50061978  0.83485874  1
  Sn  Sn38  1  0.16550118  0.16698086  0.16602765  1
  Sn  Sn39  1  0.83287342  0.83411281  0.83385966  1
  Pb  Pb40  1  0.49966732  0.16732901  0.83182405  1
  Pb  Pb41  1  0.83415474  0.49983291  0.83345339  1
  Pb  Pb42  1  0.16851912  0.83325615  0.16659611  1
  Pb  Pb43  1  0.16655126  0.50019601  0.49927760  1
  Pb  Pb44  1  0.83087304  0.16660888  0.50040995  1
  Pb  Pb45  1  0.83399904  0.49755724  0.16652318  1
  Pb  Pb46  1  0.16916907  0.16660909  0.49986293  1
  Pb  Pb47  1  0.49972203  0.16734286  0.16830126  1
  Pb  Pb48  1  0.83022230  0.83350327  0.50330463  1
  Pb  Pb49  1  0.16952650  0.83317966  0.49986447  1
  Pb  Pb50  1  0.83056174  0.83615683  0.16399731  1
  Pb  Pb51  1  0.49995524  0.50053447  0.49982801  1
  Pb  Pb52  1  0.16656909  0.83310050  0.83343001  1
  Pb  Pb53  1  0.83359660  0.50017578  0.49978220  1
  I  I54  1  0.16583651  0.00337426  0.16117910  1
  I  I55  1  0.16697680  0.00028762  0.50064793  1
  I  I56  1  0.16725324  0.00301808  0.83772115  1
  I  I57  1  0.17099097  0.33314223  0.16184297  1
  I  I58  1  0.17136656  0.33313913  0.50084279  1
  I  I59  1  0.16853429  0.33311995  0.83738049  1
  I  I60  1  0.17183313  0.66308922  0.16038753  1
  I  I61  1  0.16943330  0.66650653  0.50228060  1
  I  I62  1  0.16912805  0.66342831  0.83777139  1
  I  I63  1  0.50055702  -0.00223318  0.16466515  1
  I  I64  1  0.50009057  -0.00110100  0.50001683  1
  I  I65  1  0.50085485  -0.00239190  0.83490169  1
  I  I66  1  0.49926550  0.33612607  0.16307065  1
  I  I67  1  0.50028652  0.33131873  0.50014638  1
  I  I68  1  0.49954678  0.33614156  0.83652516  1
  I  I69  1  0.49401589  0.66627811  0.16807021  1
  I  I70  1  0.50025459  0.66976553  0.50105354  1
  I  I71  1  0.50054531  0.66706453  0.83087670  1
  I  I72  1  0.83780141  0.00385498  0.16431439  1
  I  I73  1  0.83336703  0.00006577  0.49787596  1
  I  I74  1  0.83068139  0.00075009  0.83747269  1
  I  I75  1  0.82975956  0.32965664  0.15879465  1
  I  I76  1  0.82808994  0.33263291  0.50297784  1
  I  I77  1  0.83229335  0.33016220  0.83694688  1
  I  I78  1  0.83546174  0.66693382  0.16668441  1
  I  I79  1  0.83131968  0.66732551  0.50104990  1
  I  I80  1  0.82966746  0.66927369  0.83157263  1
  I  I81  1  0.16431506  0.17068504  -0.00042358  1
  I  I82  1  0.16443901  0.17200192  0.32980950  1
  I  I83  1  0.16318184  0.17081792  0.67010883  1
  I  I84  1  0.17325128  0.49466114  -0.00035065  1
  I  I85  1  0.17530521  0.49279580  0.32916743  1
  I  I86  1  0.17236128  0.49558856  0.67036088  1
  I  I87  1  0.17082807  0.83466990  -0.00014986  1
  I  I88  1  0.16883090  0.83383858  0.33297964  1
  I  I89  1  0.16894886  0.83364132  0.66715303  1
  I  I90  1  0.50071655  0.16355056  -0.00005598  1
  I  I91  1  0.50043415  0.16168336  0.33579473  1
  I  I92  1  0.50026621  0.16190795  0.66435205  1
  I  I93  1  0.49615285  0.50773658  -0.00045338  1
  I  I94  1  0.49555646  0.50188214  0.33002552  1
  I  I95  1  0.49653957  0.50261719  0.66990536  1
  I  I96  1  0.50376480  0.82874628  -0.00069297  1
  I  I97  1  0.49709682  0.83436698  0.33292971  1
  I  I98  1  0.50417782  0.83375057  0.66781697  1
  I  I99  1  0.83510468  0.16293353  -0.00098875  1
  I  I100  1  0.83645161  0.16895691  0.33040560  1
  I  I101  1  0.83685850  0.16300424  0.67029417  1
  I  I102  1  0.83044852  0.50229888  -0.00015892  1
  I  I103  1  0.83056660  0.49707946  0.33264377  1
  I  I104  1  0.83101077  0.49721013  0.66746660  1
  I  I105  1  0.82566151  0.83501017  -0.00350905  1
  I  I106  1  0.83270632  0.83407093  0.33321718  1
  I  I107  1  0.82787133  0.84018038  0.67110276  1
  I  I108  1  0.00093497  0.17335272  0.16132305  1
  I  I109  1  0.00003741  0.16762711  0.50011245  1
  I  I110  1  0.00028793  0.16652325  0.83741596  1
  I  I111  1  0.00380908  0.49645607  0.15932783  1
  I  I112  1  0.00042297  0.49822073  0.50242365  1
  I  I113  1  0.00353559  0.49912781  0.83877101  1
  I  I114  1  -0.00035753  0.82980074  0.16504303  1
  I  I115  1  -0.00069177  0.83216068  0.50092453  1
  I  I116  1  -0.00275915  0.83470036  0.83418447  1
  I  I117  1  0.33080927  0.16721621  0.16278994  1
  I  I118  1  0.33671949  0.16123102  0.50040921  1
  I  I119  1  0.33078294  0.16709472  0.83688496  1
  I  I120  1  0.33401179  0.49718463  0.16281159  1
  I  I121  1  0.33366994  0.50014263  0.50097008  1
  I  I122  1  0.33409182  0.49967430  0.83637526  1
  I  I123  1  0.33738266  0.83556710  0.16343082  1
  I  I124  1  0.33833723  0.83788375  0.50442959  1
  I  I125  1  0.33679761  0.83312711  0.83230768  1
  I  I126  1  0.66851689  0.16542908  0.16293086  1
  I  I127  1  0.66325377  0.16258228  0.49968574  1
  I  I128  1  0.66873266  0.16544402  0.83614041  1
  I  I129  1  0.66346073  0.50280790  0.16315404  1
  I  I130  1  0.66581193  0.49780902  0.50095578  1
  I  I131  1  0.66369939  0.50097553  0.83605521  1
  I  I132  1  0.66230112  0.82844717  0.16944460  1
  I  I133  1  0.66228729  0.83818760  0.49704387  1
  I  I134  1  0.66491347  0.83434603  0.83285835  1
