# generated using pymatgen
data_Cs27Sn14Pb13I81
_symmetry_space_group_name_H-M   'P 1'
_cell_length_a   18.97215104
_cell_length_b   18.96829692
_cell_length_c   18.98960607
_cell_angle_alpha   89.99999997
_cell_angle_beta   90.00000005
_cell_angle_gamma   89.99905085
_symmetry_Int_Tables_number   1
_chemical_formula_structural   Cs27Sn14Pb13I81
_chemical_formula_sum   'Cs27 Sn14 Pb13 I81'
_cell_volume   6833.77802982
_cell_formula_units_Z   1
loop_
 _symmetry_equiv_pos_site_id
 _symmetry_equiv_pos_as_xyz
  1  'x, y, z'
loop_
 _atom_site_type_symbol
 _atom_site_label
 _atom_site_symmetry_multiplicity
 _atom_site_fract_x
 _atom_site_fract_y
 _atom_site_fract_z
 _atom_site_occupancy
  Cs  Cs0  1  -0.00100951  0.00226077  0.00011428  1
  Cs  Cs1  1  -0.00100945  0.00226085  0.33321914  1
  Cs  Cs2  1  -0.00560609  -0.00755087  0.66666675  1
  Cs  Cs3  1  -0.00201429  0.33166880  0.00346652  1
  Cs  Cs4  1  -0.00201428  0.33166861  0.32986688  1
  Cs  Cs5  1  -0.00014599  0.33357250  0.66666670  1
  Cs  Cs6  1  -0.00000876  0.66655572  0.00066463  1
  Cs  Cs7  1  -0.00000875  0.66655573  0.33266869  1
  Cs  Cs8  1  0.00732074  0.67246237  0.66666656  1
  Cs  Cs9  1  0.33506433  0.00118453  -0.00004128  1
  Cs  Cs10  1  0.33506423  0.00118453  0.33337463  1
  Cs  Cs11  1  0.33481253  0.00207172  0.66666660  1
  Cs  Cs12  1  0.33403169  0.33178860  -0.00301620  1
  Cs  Cs13  1  0.33403182  0.33178857  0.33634958  1
  Cs  Cs14  1  0.33202379  0.33428374  0.66666670  1
  Cs  Cs15  1  0.33230365  0.66594217  -0.00036055  1
  Cs  Cs16  1  0.33230351  0.66594198  0.33369374  1
  Cs  Cs17  1  0.32320964  0.66025711  0.66666670  1
  Cs  Cs18  1  0.66359074  -0.00069351  -0.00194524  1
  Cs  Cs19  1  0.66359084  -0.00069354  0.33527861  1
  Cs  Cs20  1  0.66756378  0.00024807  0.66666670  1
  Cs  Cs21  1  0.66773048  0.33593835  -0.00161281  1
  Cs  Cs22  1  0.66773044  0.33593818  0.33494637  1
  Cs  Cs23  1  0.66752465  0.33354817  0.66666661  1
  Cs  Cs24  1  0.66676479  0.66500407  0.00319338  1
  Cs  Cs25  1  0.66676475  0.66500409  0.33013995  1
  Cs  Cs26  1  0.66758649  0.66583239  0.66666652  1
  Sn  Sn27  1  0.16682848  0.16617341  0.50126818  1
  Sn  Sn28  1  0.49959806  0.83321764  0.50034137  1
  Sn  Sn29  1  0.83367952  0.50048871  0.50012234  1
  Sn  Sn30  1  0.83323055  0.83315155  0.16666667  1
  Sn  Sn31  1  0.49938295  0.16599702  0.50026261  1
  Sn  Sn32  1  0.49980611  0.83402113  0.16666667  1
  Sn  Sn33  1  0.16682848  0.16617337  0.83206514  1
  Sn  Sn34  1  0.49938298  0.16599702  0.83307075  1
  Sn  Sn35  1  0.83432283  0.50091211  0.16666671  1
  Sn  Sn36  1  0.16637347  0.50038988  0.16666665  1
  Sn  Sn37  1  0.83367949  0.50048871  0.83321096  1
  Sn  Sn38  1  0.50025185  0.16631961  0.16666666  1
  Sn  Sn39  1  0.49959807  0.83321764  0.83299192  1
  Sn  Sn40  1  0.16693622  0.83297377  0.16666669  1
  Pb  Pb41  1  0.83012001  0.16642400  0.16666666  1
  Pb  Pb42  1  0.83103485  0.83118117  0.83560077  1
  Pb  Pb43  1  0.16428694  0.49762175  0.49759840  1
  Pb  Pb44  1  0.50133550  0.50012673  0.83315777  1
  Pb  Pb45  1  0.83312257  0.16809235  0.83325393  1
  Pb  Pb46  1  0.16903566  0.83575279  0.49772180  1
  Pb  Pb47  1  0.16880890  0.16661970  0.16666668  1
  Pb  Pb48  1  0.50133551  0.50012679  0.50017555  1
  Pb  Pb49  1  0.49970363  0.50025050  0.16666666  1
  Pb  Pb50  1  0.83103484  0.83118117  0.49773257  1
  Pb  Pb51  1  0.16903565  0.83575280  0.83561155  1
  Pb  Pb52  1  0.83312257  0.16809234  0.50007938  1
  Pb  Pb53  1  0.16428696  0.49762177  0.83573492  1
  I  I54  1  0.16494342  -0.00265002  0.16666656  1
  I  I55  1  0.16861377  0.00379649  0.50038156  1
  I  I56  1  0.16861398  0.00379653  0.83295184  1
  I  I57  1  0.16171589  0.33538987  0.16666661  1
  I  I58  1  0.17474631  0.32982050  0.50081768  1
  I  I59  1  0.17474621  0.32982049  0.83251557  1
  I  I60  1  0.16841588  0.66723298  0.16666680  1
  I  I61  1  0.16808386  0.66679880  0.50037233  1
  I  I62  1  0.16808380  0.66679875  0.83296089  1
  I  I63  1  0.49995036  -0.00107045  0.16666654  1
  I  I64  1  0.49744706  0.00069153  0.49793864  1
  I  I65  1  0.49744691  0.00069150  0.83539483  1
  I  I66  1  0.49964625  0.33040883  0.16666662  1
  I  I67  1  0.49807484  0.32972348  0.49927050  1
  I  I68  1  0.49807482  0.32972349  0.83406284  1
  I  I69  1  0.50097519  0.67023466  0.16666689  1
  I  I70  1  0.50395477  0.66992310  0.49671481  1
  I  I71  1  0.50395488  0.66992311  0.83661834  1
  I  I72  1  0.83587679  -0.00326050  0.16666680  1
  I  I73  1  0.83464351  -0.00034720  0.49767181  1
  I  I74  1  0.83464349  -0.00034723  0.83566137  1
  I  I75  1  0.83710769  0.33659019  0.16666664  1
  I  I76  1  0.83049649  0.33639458  0.49545577  1
  I  I77  1  0.83049666  0.33639458  0.83787759  1
  I  I78  1  0.83030646  0.66627583  0.16666655  1
  I  I79  1  0.83024254  0.66314949  0.50033770  1
  I  I80  1  0.83024237  0.66314946  0.83299584  1
  I  I81  1  0.17178105  0.16720526  -0.00181073  1
  I  I82  1  0.17178131  0.16720517  0.33514406  1
  I  I83  1  0.17656353  0.16895656  0.66666669  1
  I  I84  1  0.16145048  0.50151790  0.00357681  1
  I  I85  1  0.16145039  0.50151782  0.32975653  1
  I  I86  1  0.16479876  0.50034570  0.66666670  1
  I  I87  1  0.16899600  0.83159978  0.00383820  1
  I  I88  1  0.16899596  0.83159999  0.32949514  1
  I  I89  1  0.16781400  0.83179766  0.66666666  1
  I  I90  1  0.49656244  0.16116295  -0.00020085  1
  I  I91  1  0.49656240  0.16116297  0.33353417  1
  I  I92  1  0.49672822  0.16095540  0.66666666  1
  I  I93  1  0.50338625  0.49839849  0.00019775  1
  I  I94  1  0.50338647  0.49839823  0.33313559  1
  I  I95  1  0.50480772  0.50035448  0.66666669  1
  I  I96  1  0.50059383  0.83955495  0.00108592  1
  I  I97  1  0.50059397  0.83955524  0.33224742  1
  I  I98  1  0.50272915  0.84115895  0.66666665  1
  I  I99  1  0.83391379  0.17056500  0.00020466  1
  I  I100  1  0.83391337  0.17056517  0.33312873  1
  I  I101  1  0.82886715  0.17092553  0.66666664  1
  I  I102  1  0.83583638  0.50311911  0.00153166  1
  I  I103  1  0.83583626  0.50311928  0.33180167  1
  I  I104  1  0.82784989  0.49524996  0.66666666  1
  I  I105  1  0.83041507  0.82750187  0.00388887  1
  I  I106  1  0.83041501  0.82750159  0.32944450  1
  I  I107  1  0.83103971  0.83127006  0.66666666  1
  I  I108  1  0.00008864  0.16462080  0.16666690  1
  I  I109  1  0.00294425  0.17022937  0.50305411  1
  I  I110  1  0.00294428  0.17022915  0.83027885  1
  I  I111  1  -0.00107756  0.50695008  0.16666665  1
  I  I112  1  -0.00364948  0.49760257  0.50046180  1
  I  I113  1  -0.00364944  0.49760262  0.83287163  1
  I  I114  1  -0.00005785  0.82732081  0.16666664  1
  I  I115  1  0.00014970  0.83472384  0.49804541  1
  I  I116  1  0.00014970  0.83472396  0.83528794  1
  I  I117  1  0.33681596  0.16283589  0.16666653  1
  I  I118  1  0.33498104  0.16399934  0.49929336  1
  I  I119  1  0.33498101  0.16399949  0.83404003  1
  I  I120  1  0.33076171  0.50292016  0.16666675  1
  I  I121  1  0.33288799  0.50123555  0.49767182  1
  I  I122  1  0.33288799  0.50123553  0.83566143  1
  I  I123  1  0.33449683  0.83351484  0.16666672  1
  I  I124  1  0.33739197  0.83478140  0.49625293  1
  I  I125  1  0.33739196  0.83478116  0.83708043  1
  I  I126  1  0.66189206  0.16346156  0.16666653  1
  I  I127  1  0.66289090  0.16425882  0.49999908  1
  I  I128  1  0.66289091  0.16425870  0.83333424  1
  I  I129  1  0.66965831  0.50246800  0.16666649  1
  I  I130  1  0.66954468  0.49779503  0.49512823  1
  I  I131  1  0.66954467  0.49779486  0.83820531  1
  I  I132  1  0.66564795  0.83235747  0.16666665  1
  I  I133  1  0.66276032  0.84029590  0.49735424  1
  I  I134  1  0.66276032  0.84029604  0.83597916  1
