# generated using pymatgen
data_Cs27Sn13Pb14I81
_symmetry_space_group_name_H-M   'P 1'
_cell_length_a   18.97366103
_cell_length_b   18.97753504
_cell_length_c   18.97746720
_cell_angle_alpha   90.00158470
_cell_angle_beta   90.00291049
_cell_angle_gamma   89.99948540
_symmetry_Int_Tables_number   1
_chemical_formula_structural   Cs27Sn13Pb14I81
_chemical_formula_sum   'Cs27 Sn13 Pb14 I81'
_cell_volume   6833.27955509
_cell_formula_units_Z   1
loop_
 _symmetry_equiv_pos_site_id
 _symmetry_equiv_pos_as_xyz
  1  'x, y, z'
loop_
 _atom_site_type_symbol
 _atom_site_label
 _atom_site_symmetry_multiplicity
 _atom_site_fract_x
 _atom_site_fract_y
 _atom_site_fract_z
 _atom_site_occupancy
  Cs  Cs0  1  0.00160265  0.00155385  0.00131610  1
  Cs  Cs1  1  0.00052493  -0.00008902  0.33263670  1
  Cs  Cs2  1  -0.00290297  -0.00209224  0.66609168  1
  Cs  Cs3  1  0.00059053  0.33186474  0.00150027  1
  Cs  Cs4  1  -0.00592429  0.33150838  0.33212496  1
  Cs  Cs5  1  -0.00225798  0.34633165  0.66589916  1
  Cs  Cs6  1  0.00009870  0.66621660  -0.00205071  1
  Cs  Cs7  1  0.00375468  0.66892628  0.33438672  1
  Cs  Cs8  1  0.00198864  0.66145446  0.66845286  1
  Cs  Cs9  1  0.33401439  0.00301144  -0.00875408  1
  Cs  Cs10  1  0.33236820  0.00064809  0.33432567  1
  Cs  Cs11  1  0.33442402  0.00089649  0.66882218  1
  Cs  Cs12  1  0.33155957  0.32663350  -0.00066618  1
  Cs  Cs13  1  0.33396888  0.33163623  0.33414609  1
  Cs  Cs14  1  0.33417632  0.33388685  0.66723650  1
  Cs  Cs15  1  0.33514045  0.66982453  0.00313070  1
  Cs  Cs16  1  0.33293538  0.66614326  0.33267385  1
  Cs  Cs17  1  0.33080261  0.66528458  0.66665957  1
  Cs  Cs18  1  0.66502961  -0.00205751  -0.00533081  1
  Cs  Cs19  1  0.66707613  -0.00010959  0.33519614  1
  Cs  Cs20  1  0.66714155  0.00072166  0.66685967  1
  Cs  Cs21  1  0.66819417  0.33796860  0.00192352  1
  Cs  Cs22  1  0.67016942  0.33238128  0.33121583  1
  Cs  Cs23  1  0.66645825  0.33341448  0.66636851  1
  Cs  Cs24  1  0.66474457  0.66438174  0.00455111  1
  Cs  Cs25  1  0.66416687  0.66723518  0.32884920  1
  Cs  Cs26  1  0.66716899  0.66587428  0.66630524  1
  Sn  Sn27  1  0.83377995  0.16656950  0.83293974  1
  Sn  Sn28  1  0.16671168  0.50024265  0.16700476  1
  Sn  Sn29  1  0.16666291  0.16628667  0.50035433  1
  Sn  Sn30  1  0.16626359  0.83284351  0.16716198  1
  Sn  Sn31  1  0.16682789  0.83427053  0.49956528  1
  Sn  Sn32  1  0.83392133  0.83363777  0.16665157  1
  Sn  Sn33  1  0.50003072  0.49993194  0.50038102  1
  Sn  Sn34  1  0.49962773  0.50022758  0.83308045  1
  Sn  Sn35  1  0.83338889  0.83392602  0.83335603  1
  Sn  Sn36  1  0.50008700  0.16611825  0.16717094  1
  Sn  Sn37  1  0.83353617  0.83333570  0.50001237  1
  Sn  Sn38  1  0.49966132  0.83329313  0.49996336  1
  Sn  Sn39  1  0.49943630  0.16662856  0.49915784  1
  Pb  Pb40  1  0.83615102  0.50259403  0.16681431  1
  Pb  Pb41  1  0.16443472  0.83344541  0.83313315  1
  Pb  Pb42  1  0.16951440  0.50008388  0.83638947  1
  Pb  Pb43  1  0.49925972  0.83552313  0.16844477  1
  Pb  Pb44  1  0.16814758  0.16574051  0.16861083  1
  Pb  Pb45  1  0.49797338  0.49781564  0.16715008  1
  Pb  Pb46  1  0.83348301  0.16500936  0.50160362  1
  Pb  Pb47  1  0.83054599  0.50313348  0.49951491  1
  Pb  Pb48  1  0.83105426  0.16392831  0.16456631  1
  Pb  Pb49  1  0.50213579  0.83128976  0.83061036  1
  Pb  Pb50  1  0.83143944  0.50041187  0.83348612  1
  Pb  Pb51  1  0.16359402  0.16679296  0.82948528  1
  Pb  Pb52  1  0.50178572  0.16847119  0.83253089  1
  Pb  Pb53  1  0.16872683  0.49993664  0.49832006  1
  I  I54  1  0.16268343  -0.00335318  0.17051021  1
  I  I55  1  0.17114588  -0.00157408  0.49433469  1
  I  I56  1  0.17013194  0.00006963  0.83778629  1
  I  I57  1  0.17125294  0.33496955  0.16751362  1
  I  I58  1  0.17267052  0.33075593  0.49897997  1
  I  I59  1  0.16386721  0.33330524  0.83405093  1
  I  I60  1  0.16424603  0.66860873  0.17272546  1
  I  I61  1  0.16693238  0.66995460  0.49779647  1
  I  I62  1  0.16426249  0.66685108  0.82849705  1
  I  I63  1  0.49943751  0.00302391  0.17285524  1
  I  I64  1  0.50001423  -0.00021706  0.49507169  1
  I  I65  1  0.50005153  -0.00005879  0.83327685  1
  I  I66  1  0.49789123  0.33021416  0.17201438  1
  I  I67  1  0.49422524  0.33254081  0.50062505  1
  I  I68  1  0.50296701  0.33599267  0.82768563  1
  I  I69  1  0.50197166  0.66696319  0.16716886  1
  I  I70  1  0.50095193  0.66747837  0.50452081  1
  I  I71  1  0.50217276  0.66366144  0.82868275  1
  I  I72  1  0.83954747  -0.00419255  0.17011284  1
  I  I73  1  0.82898592  -0.00369432  0.49857021  1
  I  I74  1  0.83128457  -0.00154174  0.83244956  1
  I  I75  1  0.83391070  0.33300089  0.16410941  1
  I  I76  1  0.83391633  0.33329598  0.50318557  1
  I  I77  1  0.83096051  0.33094300  0.83202427  1
  I  I78  1  0.83153926  0.67123336  0.16496932  1
  I  I79  1  0.83490588  0.67190141  0.50319014  1
  I  I80  1  0.83214929  0.67015473  0.83235111  1
  I  I81  1  0.16908906  0.16640859  0.00000130  1
  I  I82  1  0.16898812  0.16428547  0.33674918  1
  I  I83  1  0.17527905  0.15924259  0.66163858  1
  I  I84  1  0.16843929  0.50726652  0.00409123  1
  I  I85  1  0.17029648  0.50356632  0.33079635  1
  I  I86  1  0.16573047  0.50025016  0.66638859  1
  I  I87  1  0.16233485  0.82896344  0.00323659  1
  I  I88  1  0.16217393  0.83291162  0.33433646  1
  I  I89  1  0.16707582  0.83711760  0.66290201  1
  I  I90  1  0.50117422  0.16830845  0.00190040  1
  I  I91  1  0.49715349  0.16817887  0.33554528  1
  I  I92  1  0.49800948  0.16453511  0.66308943  1
  I  I93  1  0.50004700  0.49809691  -0.00193264  1
  I  I94  1  0.49840910  0.50246236  0.33641233  1
  I  I95  1  0.50034946  0.49867442  0.66494635  1
  I  I96  1  0.50058076  0.83326610  0.00001317  1
  I  I97  1  0.50437122  0.82919340  0.33707333  1
  I  I98  1  0.49950559  0.83840469  0.66199969  1
  I  I99  1  0.83042596  0.16053527  -0.00309779  1
  I  I100  1  0.83385842  0.16563750  0.33347559  1
  I  I101  1  0.83061553  0.15885413  0.66919504  1
  I  I102  1  0.82913168  0.50253494  0.00010221  1
  I  I103  1  0.82972946  0.49956781  0.33326129  1
  I  I104  1  0.83551007  0.50250244  0.66645605  1
  I  I105  1  0.83797227  0.83723006  0.00031805  1
  I  I106  1  0.83368176  0.83234412  0.33396723  1
  I  I107  1  0.83141360  0.83794759  0.66587896  1
  I  I108  1  -0.00000302  0.16894003  0.16710508  1
  I  I109  1  0.00264707  0.16038021  0.50063287  1
  I  I110  1  -0.00402020  0.16056515  0.83423011  1
  I  I111  1  0.00392115  0.50046602  0.16766665  1
  I  I112  1  0.00025919  0.49927307  0.49950588  1
  I  I113  1  -0.00000513  0.49992479  0.83358431  1
  I  I114  1  0.00008283  0.83001324  0.17180959  1
  I  I115  1  0.00039702  0.83905672  0.49859853  1
  I  I116  1  -0.00391542  0.83608456  0.82877476  1
  I  I117  1  0.33619264  0.16550436  0.16881651  1
  I  I118  1  0.33455590  0.16175473  0.49650452  1
  I  I119  1  0.33347733  0.16815701  0.83533200  1
  I  I120  1  0.33058597  0.50850495  0.16745885  1
  I  I121  1  0.33687721  0.50442450  0.50261695  1
  I  I122  1  0.33717191  0.49906534  0.82688362  1
  I  I123  1  0.33034713  0.82978194  0.17297382  1
  I  I124  1  0.33320598  0.83358072  0.49440736  1
  I  I125  1  0.33351586  0.83220881  0.83394601  1
  I  I126  1  0.66326777  0.16667388  0.17447152  1
  I  I127  1  0.66357510  0.16552617  0.49833293  1
  I  I128  1  0.66931884  0.16126958  0.83103617  1
  I  I129  1  0.66634169  0.50064825  0.16610493  1
  I  I130  1  0.66210665  0.49864855  0.50316223  1
  I  I131  1  0.66360099  0.50023476  0.82904431  1
  I  I132  1  0.66903915  0.83564627  0.16790912  1
  I  I133  1  0.66653353  0.83337005  0.50040098  1
  I  I134  1  0.67030524  0.83678515  0.83355748  1
