# generated using pymatgen
data_Cs27Sn14Pb13I81
_symmetry_space_group_name_H-M   'P 1'
_cell_length_a   18.97556496
_cell_length_b   18.97627509
_cell_length_c   18.97462924
_cell_angle_alpha   90.00095024
_cell_angle_beta   89.99999497
_cell_angle_gamma   90.00000654
_symmetry_Int_Tables_number   1
_chemical_formula_structural   Cs27Sn14Pb13I81
_chemical_formula_sum   'Cs27 Sn14 Pb13 I81'
_cell_volume   6832.48962829
_cell_formula_units_Z   1
loop_
 _symmetry_equiv_pos_site_id
 _symmetry_equiv_pos_as_xyz
  1  'x, y, z'
loop_
 _atom_site_type_symbol
 _atom_site_label
 _atom_site_symmetry_multiplicity
 _atom_site_fract_x
 _atom_site_fract_y
 _atom_site_fract_z
 _atom_site_occupancy
  Cs  Cs0  1  0.00013970  0.00131786  0.00180154  1
  Cs  Cs1  1  -0.00221189  -0.00119165  0.33113704  1
  Cs  Cs2  1  -0.00298993  0.00113959  0.66643683  1
  Cs  Cs3  1  0.00069079  0.33413169  0.00108774  1
  Cs  Cs4  1  -0.00067336  0.33382509  0.33773851  1
  Cs  Cs5  1  0.00166789  0.33359697  0.66274235  1
  Cs  Cs6  1  -0.00330445  0.66482650  -0.00463145  1
  Cs  Cs7  1  0.00169070  0.66715457  0.33368785  1
  Cs  Cs8  1  0.00142687  0.66653141  0.66987774  1
  Cs  Cs9  1  0.33275444  0.00942319  0.00441052  1
  Cs  Cs10  1  0.33264777  -0.01114691  0.32661345  1
  Cs  Cs11  1  0.33503189  -0.00182553  0.66835974  1
  Cs  Cs12  1  0.33411071  0.32546836  -0.00030574  1
  Cs  Cs13  1  0.33303273  0.33490748  0.33459658  1
  Cs  Cs14  1  0.33319850  0.33494215  0.66771550  1
  Cs  Cs15  1  0.33325527  0.66680118  -0.00266235  1
  Cs  Cs16  1  0.33401583  0.67339672  0.33264326  1
  Cs  Cs17  1  0.33324666  0.66617642  0.66598634  1
  Cs  Cs18  1  0.66736285  0.00223158  -0.00060688  1
  Cs  Cs19  1  0.66983987  -0.00218245  0.33349464  1
  Cs  Cs20  1  0.66818687  0.00104834  0.66644431  1
  Cs  Cs21  1  0.66574042  0.33455131  0.00499651  1
  Cs  Cs22  1  0.66665673  0.33444158  0.33479553  1
  Cs  Cs23  1  0.66418638  0.33178971  0.66339577  1
  Cs  Cs24  1  0.66980662  0.66359131  -0.00100980  1
  Cs  Cs25  1  0.66452024  0.66693259  0.33075403  1
  Cs  Cs26  1  0.66501894  0.66771050  0.66964141  1
  Sn  Sn27  1  0.16777549  0.83335286  0.83333263  1
  Sn  Sn28  1  0.83307596  0.50157546  0.50028455  1
  Sn  Sn29  1  0.83343699  0.83186542  0.49961224  1
  Sn  Sn30  1  0.49792046  0.16659383  0.49970169  1
  Sn  Sn31  1  0.16723347  0.49968909  0.49976655  1
  Sn  Sn32  1  0.83345175  0.83344671  0.16715710  1
  Sn  Sn33  1  0.16707579  0.50001895  0.16659732  1
  Sn  Sn34  1  0.83342765  0.16744313  0.83433331  1
  Sn  Sn35  1  0.16860892  0.16637955  0.49984925  1
  Sn  Sn36  1  0.49913700  0.50058995  0.83274832  1
  Sn  Sn37  1  0.83344059  0.16652583  0.16560104  1
  Sn  Sn38  1  0.49888049  0.83302033  0.83345468  1
  Sn  Sn39  1  0.16770590  0.50043491  0.83355666  1
  Sn  Sn40  1  0.49955605  0.49958390  0.50058336  1
  Pb  Pb41  1  0.16473453  0.83310819  0.50182463  1
  Pb  Pb42  1  0.49710776  0.50004108  0.16661005  1
  Pb  Pb43  1  0.83517460  0.50007864  0.16923191  1
  Pb  Pb44  1  0.50224665  0.16669759  0.17037890  1
  Pb  Pb45  1  0.16450301  0.83101173  0.16349117  1
  Pb  Pb46  1  0.16502168  0.16710300  0.83132790  1
  Pb  Pb47  1  0.16472972  0.16869939  0.16983857  1
  Pb  Pb48  1  0.50184034  0.16729423  0.83156756  1
  Pb  Pb49  1  0.50245856  0.83312104  0.16294903  1
  Pb  Pb50  1  0.83306550  0.49754000  0.83103467  1
  Pb  Pb51  1  0.83332198  0.83479434  0.83345886  1
  Pb  Pb52  1  0.83333007  0.16684344  0.49952968  1
  Pb  Pb53  1  0.50213744  0.83292688  0.50163357  1
  I  I54  1  0.16634852  -0.00007681  0.16677750  1
  I  I55  1  0.16688189  0.00230231  0.50361413  1
  I  I56  1  0.16787642  -0.00227256  0.82997465  1
  I  I57  1  0.16355942  0.33664641  0.16197708  1
  I  I58  1  0.16328105  0.33529089  0.50232135  1
  I  I59  1  0.16940002  0.33688750  0.83366824  1
  I  I60  1  0.16413362  0.66321408  0.17335178  1
  I  I61  1  0.16808204  0.66312040  0.49893182  1
  I  I62  1  0.16822679  0.66506128  0.83043887  1
  I  I63  1  0.49805979  -0.00006367  0.16680580  1
  I  I64  1  0.49979899  0.00223679  0.50296710  1
  I  I65  1  0.49874699  -0.00221597  0.83070981  1
  I  I66  1  0.50377103  0.33343188  0.16190512  1
  I  I67  1  0.50266798  0.33502480  0.50588943  1
  I  I68  1  0.49637494  0.33660401  0.83003333  1
  I  I69  1  0.50323549  0.66652430  0.17201266  1
  I  I70  1  0.49786166  0.66327743  0.50232675  1
  I  I71  1  0.49744217  0.66542585  0.82654229  1
  I  I72  1  0.83399250  -0.00008793  0.17003066  1
  I  I73  1  0.83339526  -0.00177613  0.50013711  1
  I  I74  1  0.83343530  0.00244965  0.83035617  1
  I  I75  1  0.83495211  0.33111545  0.16456883  1
  I  I76  1  0.83411658  0.33580095  0.50080204  1
  I  I77  1  0.83394018  0.33012648  0.83641476  1
  I  I78  1  0.83496428  0.66896543  0.16910443  1
  I  I79  1  0.83417905  0.66595290  0.49555936  1
  I  I80  1  0.83343418  0.66628313  0.83507467  1
  I  I81  1  0.16538436  0.16782744  0.00005971  1
  I  I82  1  0.16623276  0.17362474  0.33780835  1
  I  I83  1  0.16533265  0.17327685  0.66348840  1
  I  I84  1  0.16868933  0.50555154  -0.00142039  1
  I  I85  1  0.16400020  0.49390684  0.33505883  1
  I  I86  1  0.16642158  0.49989611  0.66618810  1
  I  I87  1  0.16695374  0.82748861  -0.00438445  1
  I  I88  1  0.16587253  0.83280797  0.33327366  1
  I  I89  1  0.16648528  0.82723909  0.66961419  1
  I  I90  1  0.50101138  0.16693697  -0.00001971  1
  I  I91  1  0.49982569  0.17522081  0.33841191  1
  I  I92  1  0.50110197  0.16912184  0.66360647  1
  I  I93  1  0.49743077  0.50463228  -0.00356513  1
  I  I94  1  0.50115280  0.49469574  0.33697972  1
  I  I95  1  0.49631560  0.49994799  0.66596515  1
  I  I96  1  0.49902871  0.82596214  -0.00500750  1
  I  I97  1  0.50048554  0.83358066  0.33336326  1
  I  I98  1  0.49983189  0.83148688  0.66948626  1
  I  I99  1  0.83393418  0.16025463  0.00037490  1
  I  I100  1  0.83369521  0.16537535  0.33147075  1
  I  I101  1  0.83345946  0.16585230  0.66773197  1
  I  I102  1  0.83393247  0.50147838  -0.00011486  1
  I  I103  1  0.83349421  0.49787623  0.33752286  1
  I  I104  1  0.83790098  0.50348134  0.66287250  1
  I  I105  1  0.83375002  0.83690802  0.00209510  1
  I  I106  1  0.83387279  0.83663085  0.33394355  1
  I  I107  1  0.83356753  0.83192688  0.66459853  1
  I  I108  1  -0.00327166  0.16299437  0.16566471  1
  I  I109  1  0.00180450  0.17132864  0.50083498  1
  I  I110  1  -0.00280028  0.16560751  0.83259449  1
  I  I111  1  0.00299438  0.49989128  0.16617439  1
  I  I112  1  0.00090268  0.49830799  0.50032501  1
  I  I113  1  0.00294754  0.50348638  0.83172077  1
  I  I114  1  -0.00334819  0.83733308  0.16942320  1
  I  I115  1  -0.00331302  0.83063552  0.49993551  1
  I  I116  1  0.00212549  0.82868113  0.83249628  1
  I  I117  1  0.33306988  0.16796049  0.16482002  1
  I  I118  1  0.33315323  0.17729913  0.50304545  1
  I  I119  1  0.33332743  0.16561455  0.83324661  1
  I  I120  1  0.32922924  0.50005427  0.17166972  1
  I  I121  1  0.33295242  0.49362242  0.50181918  1
  I  I122  1  0.33272766  0.50420611  0.82759971  1
  I  I123  1  0.33304892  0.83205622  0.16894974  1
  I  I124  1  0.33334853  0.83268463  0.49982153  1
  I  I125  1  0.33311491  0.82796676  0.83002421  1
  I  I126  1  0.67056243  0.16408632  0.16454446  1
  I  I127  1  0.66484663  0.17065066  0.50089293  1
  I  I128  1  0.66964931  0.16520963  0.83277609  1
  I  I129  1  0.66682852  0.49982797  0.16670800  1
  I  I130  1  0.66609146  0.49822248  0.50481099  1
  I  I131  1  0.66387426  0.50366506  0.82779976  1
  I  I132  1  0.67063492  0.83635834  0.17005221  1
  I  I133  1  0.67020151  0.83106727  0.49963933  1
  I  I134  1  0.66452802  0.82957545  0.83231666  1
