# generated using pymatgen
data_Cs27Sn14Pb13I81
_symmetry_space_group_name_H-M   'P 1'
_cell_length_a   18.97331285
_cell_length_b   18.98477764
_cell_length_c   18.96950443
_cell_angle_alpha   89.99914327
_cell_angle_beta   89.99923486
_cell_angle_gamma   90.00018850
_symmetry_Int_Tables_number   1
_chemical_formula_structural   Cs27Sn14Pb13I81
_chemical_formula_sum   'Cs27 Sn14 Pb13 I81'
_cell_volume   6832.89375527
_cell_formula_units_Z   1
loop_
 _symmetry_equiv_pos_site_id
 _symmetry_equiv_pos_as_xyz
  1  'x, y, z'
loop_
 _atom_site_type_symbol
 _atom_site_label
 _atom_site_symmetry_multiplicity
 _atom_site_fract_x
 _atom_site_fract_y
 _atom_site_fract_z
 _atom_site_occupancy
  Cs  Cs0  1  0.00175154  0.00095062  0.00254454  1
  Cs  Cs1  1  0.00257198  -0.00143891  0.33441836  1
  Cs  Cs2  1  -0.00257980  0.00709248  0.65953527  1
  Cs  Cs3  1  0.00381969  0.33529496  -0.00681416  1
  Cs  Cs4  1  -0.00336307  0.33210171  0.33404639  1
  Cs  Cs5  1  -0.00554980  0.32853092  0.67532893  1
  Cs  Cs6  1  0.00408931  0.66403036  -0.00102579  1
  Cs  Cs7  1  -0.00077033  0.66937310  0.33517221  1
  Cs  Cs8  1  -0.00982427  0.66569086  0.66400667  1
  Cs  Cs9  1  0.33353762  -0.00179084  0.00010701  1
  Cs  Cs10  1  0.33322723  -0.00041712  0.33390702  1
  Cs  Cs11  1  0.33264663  0.00017642  0.66518389  1
  Cs  Cs12  1  0.33174154  0.33662799  -0.00103563  1
  Cs  Cs13  1  0.33603749  0.33679844  0.33335704  1
  Cs  Cs14  1  0.33331974  0.33385568  0.66704679  1
  Cs  Cs15  1  0.33091268  0.66627031  -0.00027486  1
  Cs  Cs16  1  0.33379167  0.66441961  0.33431616  1
  Cs  Cs17  1  0.33536297  0.66633757  0.66402337  1
  Cs  Cs18  1  0.66612672  -0.00144905  0.00121937  1
  Cs  Cs19  1  0.66498051  0.00191117  0.33018333  1
  Cs  Cs20  1  0.66826464  -0.00232615  0.67234732  1
  Cs  Cs21  1  0.66485858  0.33162561  0.00230666  1
  Cs  Cs22  1  0.66470035  0.33348273  0.33277870  1
  Cs  Cs23  1  0.66823516  0.33486968  0.66540600  1
  Cs  Cs24  1  0.66605426  0.67040997  -0.00019739  1
  Cs  Cs25  1  0.66588347  0.66489236  0.33205790  1
  Cs  Cs26  1  0.67106259  0.66711659  0.67010800  1
  Sn  Sn27  1  0.16730419  0.16647684  0.16688653  1
  Sn  Sn28  1  0.49954645  0.83384303  0.16743074  1
  Sn  Sn29  1  0.49990834  0.16644632  0.50024559  1
  Sn  Sn30  1  0.49976735  0.49951617  0.83267880  1
  Sn  Sn31  1  0.50005508  0.83330663  0.49932153  1
  Sn  Sn32  1  0.49964115  0.16751428  0.83360353  1
  Sn  Sn33  1  0.16640336  0.49960522  0.50046460  1
  Sn  Sn34  1  0.83356053  0.49997672  0.16652749  1
  Sn  Sn35  1  0.83348167  0.83313036  0.16663832  1
  Sn  Sn36  1  0.49937908  0.50015156  0.50114605  1
  Sn  Sn37  1  0.49931468  0.16604155  0.16660677  1
  Sn  Sn38  1  0.16707844  0.83384900  0.16596033  1
  Sn  Sn39  1  0.83365328  0.16692160  0.16658728  1
  Sn  Sn40  1  0.16630752  0.83348327  0.83269027  1
  Pb  Pb41  1  0.50116027  0.50021473  0.16663732  1
  Pb  Pb42  1  0.16836540  0.83178307  0.49988954  1
  Pb  Pb43  1  0.83300155  0.49972455  0.49819874  1
  Pb  Pb44  1  0.83083165  0.16640029  0.83602270  1
  Pb  Pb45  1  0.49863094  0.83342407  0.83345965  1
  Pb  Pb46  1  0.83061450  0.16660581  0.49780813  1
  Pb  Pb47  1  0.83701286  0.83367833  0.83577330  1
  Pb  Pb48  1  0.16904940  0.16456750  0.83528339  1
  Pb  Pb49  1  0.16861087  0.50227244  0.83031986  1
  Pb  Pb50  1  0.16866403  0.16910005  0.49784158  1
  Pb  Pb51  1  0.83025850  0.83362463  0.49766336  1
  Pb  Pb52  1  0.83048054  0.50003839  0.83617201  1
  Pb  Pb53  1  0.16418957  0.50003587  0.16842290  1
  I  I54  1  0.16426881  -0.00058699  0.16389012  1
  I  I55  1  0.16841557  0.00007384  0.50073096  1
  I  I56  1  0.17135777  -0.00312146  0.83706022  1
  I  I57  1  0.16881237  0.33054802  0.16941701  1
  I  I58  1  0.17516538  0.33658540  0.49604616  1
  I  I59  1  0.16687865  0.33330104  0.83522359  1
  I  I60  1  0.16790881  0.66979543  0.16464620  1
  I  I61  1  0.17565429  0.66415045  0.49612696  1
  I  I62  1  0.17154382  0.66965790  0.84392342  1
  I  I63  1  0.50344731  0.00037749  0.16880969  1
  I  I64  1  0.50036706  0.00014992  0.49702364  1
  I  I65  1  0.49878448  0.00253973  0.83273778  1
  I  I66  1  0.50082159  0.33040319  0.16869774  1
  I  I67  1  0.49658512  0.33324155  0.49840621  1
  I  I68  1  0.49959905  0.33277207  0.83230962  1
  I  I69  1  0.50046559  0.66953192  0.16912888  1
  I  I70  1  0.49560787  0.66657313  0.49827210  1
  I  I71  1  0.49836305  0.66463116  0.83091487  1
  I  I72  1  0.83123602  -0.00000146  0.16652110  1
  I  I73  1  0.83370661  0.00003608  0.49759134  1
  I  I74  1  0.82815184  -0.00002818  0.83602170  1
  I  I75  1  0.83006166  0.33225585  0.16831321  1
  I  I76  1  0.83004077  0.33325780  0.49367264  1
  I  I77  1  0.83565447  0.33328046  0.83730720  1
  I  I78  1  0.83128518  0.66771169  0.16755203  1
  I  I79  1  0.83063943  0.66667030  0.49540115  1
  I  I80  1  0.82961419  0.66681080  0.83697173  1
  I  I81  1  0.16894067  0.16596450  0.00414253  1
  I  I82  1  0.16854582  0.15958351  0.32915728  1
  I  I83  1  0.16932910  0.16484470  0.66664176  1
  I  I84  1  0.16712078  0.49879428  0.00001811  1
  I  I85  1  0.17627634  0.50184502  0.33573505  1
  I  I86  1  0.17196809  0.50248559  0.66274320  1
  I  I87  1  0.16998293  0.83607235  0.00283261  1
  I  I88  1  0.16519908  0.83613461  0.32975465  1
  I  I89  1  0.17361244  0.83024618  0.66869859  1
  I  I90  1  0.50118693  0.16640523  0.00160618  1
  I  I91  1  0.50073734  0.16646980  0.33216921  1
  I  I92  1  0.49854949  0.16702674  0.66619827  1
  I  I93  1  0.50289010  0.49691450  -0.00196711  1
  I  I94  1  0.49850411  0.49838181  0.33577195  1
  I  I95  1  0.49558051  0.49728601  0.66563008  1
  I  I96  1  0.50227596  0.83620591  0.00336031  1
  I  I97  1  0.49851349  0.83551068  0.33187177  1
  I  I98  1  0.49589459  0.83556313  0.66415270  1
  I  I99  1  0.82958229  0.16570300  0.00492299  1
  I  I100  1  0.83005668  0.16618010  0.32868748  1
  I  I101  1  0.83262177  0.16762333  0.66682356  1
  I  I102  1  0.83199679  0.50004845  0.00437983  1
  I  I103  1  0.82924458  0.50015490  0.32988824  1
  I  I104  1  0.83456003  0.50084737  0.66675934  1
  I  I105  1  0.82483635  0.83420780  0.00494887  1
  I  I106  1  0.83812814  0.83374253  0.32857632  1
  I  I107  1  0.83268831  0.83127603  0.66669229  1
  I  I108  1  0.00007412  0.16305421  0.16743609  1
  I  I109  1  0.00013426  0.16879537  0.49763503  1
  I  I110  1  0.00026625  0.16633153  0.83529125  1
  I  I111  1  -0.00347696  0.50033137  0.16997019  1
  I  I112  1  0.00244337  0.50311190  0.49439058  1
  I  I113  1  0.00010180  0.50139397  0.83265988  1
  I  I114  1  0.00041370  0.83595418  0.16160881  1
  I  I115  1  0.00007510  0.82912012  0.49882359  1
  I  I116  1  0.00464070  0.83143346  0.84098978  1
  I  I117  1  0.33472123  0.15930147  0.16710373  1
  I  I118  1  0.33757515  0.16447292  0.49604493  1
  I  I119  1  0.33746752  0.16980600  0.83673636  1
  I  I120  1  0.33334702  0.50015922  0.16539933  1
  I  I121  1  0.33589491  0.50038962  0.50085346  1
  I  I122  1  0.33681186  0.49628252  0.83441033  1
  I  I123  1  0.33391945  0.84008661  0.16678754  1
  I  I124  1  0.33701892  0.83481361  0.49315067  1
  I  I125  1  0.33139357  0.83331789  0.84183925  1
  I  I126  1  0.66532939  0.16431576  0.16697053  1
  I  I127  1  0.66157444  0.17004595  0.49637999  1
  I  I128  1  0.66203686  0.16895756  0.83535994  1
  I  I129  1  0.66898608  0.50011133  0.16822987  1
  I  I130  1  0.66276051  0.49951958  0.50186397  1
  I  I131  1  0.66230333  0.49765363  0.82636728  1
  I  I132  1  0.66575572  0.83559194  0.17154328  1
  I  I133  1  0.66150845  0.83058336  0.49503748  1
  I  I134  1  0.66650354  0.83276045  0.83387015  1
