# generated using pymatgen
data_Cs27Sn13Pb14I81
_symmetry_space_group_name_H-M   'P 1'
_cell_length_a   18.97635157
_cell_length_b   18.98097095
_cell_length_c   18.97152084
_cell_angle_alpha   89.99829027
_cell_angle_beta   89.99999790
_cell_angle_gamma   89.99985962
_symmetry_Int_Tables_number   1
_chemical_formula_structural   Cs27Sn13Pb14I81
_chemical_formula_sum   'Cs27 Sn13 Pb14 I81'
_cell_volume   6833.34407827
_cell_formula_units_Z   1
loop_
 _symmetry_equiv_pos_site_id
 _symmetry_equiv_pos_as_xyz
  1  'x, y, z'
loop_
 _atom_site_type_symbol
 _atom_site_label
 _atom_site_symmetry_multiplicity
 _atom_site_fract_x
 _atom_site_fract_y
 _atom_site_fract_z
 _atom_site_occupancy
  Cs  Cs0  1  0.00785486  0.00077810  -0.00125942  1
  Cs  Cs1  1  -0.00010047  0.00084083  0.33029342  1
  Cs  Cs2  1  0.00078112  -0.00249000  0.67024261  1
  Cs  Cs3  1  0.00436395  0.33060555  0.00649863  1
  Cs  Cs4  1  -0.00985412  0.33244160  0.32746126  1
  Cs  Cs5  1  -0.00174238  0.33385236  0.66666218  1
  Cs  Cs6  1  0.00843207  0.66959074  -0.00218067  1
  Cs  Cs7  1  -0.00066128  0.66559011  0.33452554  1
  Cs  Cs8  1  -0.00214789  0.66849180  0.66663117  1
  Cs  Cs9  1  0.33224343  0.00115005  0.00205283  1
  Cs  Cs10  1  0.33562134  -0.00137921  0.33434159  1
  Cs  Cs11  1  0.33552095  0.00204394  0.66480924  1
  Cs  Cs12  1  0.32906885  0.34045957  -0.00113501  1
  Cs  Cs13  1  0.33369510  0.33487208  0.33612389  1
  Cs  Cs14  1  0.33262634  0.33423833  0.66647083  1
  Cs  Cs15  1  0.33003066  0.65759010  0.00140764  1
  Cs  Cs16  1  0.33319062  0.66806215  0.33540989  1
  Cs  Cs17  1  0.33387341  0.66402210  0.66369891  1
  Cs  Cs18  1  0.66585101  -0.00080625  -0.00133730  1
  Cs  Cs19  1  0.66485204  0.00050946  0.33239694  1
  Cs  Cs20  1  0.66582918  0.00094778  0.66822149  1
  Cs  Cs21  1  0.66623153  0.33515083  -0.00048381  1
  Cs  Cs22  1  0.67612079  0.33146169  0.33196316  1
  Cs  Cs23  1  0.66861321  0.33087068  0.66713108  1
  Cs  Cs24  1  0.66459455  0.66627127  -0.00046670  1
  Cs  Cs25  1  0.66688331  0.66755037  0.33237968  1
  Cs  Cs26  1  0.66739282  0.66784749  0.66814455  1
  Sn  Sn27  1  0.50036089  0.16612848  0.83457851  1
  Sn  Sn28  1  0.50036731  0.83265990  0.50011130  1
  Sn  Sn29  1  0.16676278  0.49953209  0.49998547  1
  Sn  Sn30  1  0.50057552  0.83384259  0.16629788  1
  Sn  Sn31  1  0.83292236  0.16747286  0.83362515  1
  Sn  Sn32  1  0.49993608  0.16645011  0.16564563  1
  Sn  Sn33  1  0.83268786  0.83339709  0.16679634  1
  Sn  Sn34  1  0.83283875  0.83365769  0.49923824  1
  Sn  Sn35  1  0.16629898  0.16686012  0.49982796  1
  Sn  Sn36  1  0.16665620  0.83363494  0.50009449  1
  Sn  Sn37  1  0.50041126  0.50033391  0.49985562  1
  Sn  Sn38  1  0.49979045  0.83363381  0.83368604  1
  Sn  Sn39  1  0.83331014  0.49918004  0.83368576  1
  Pb  Pb40  1  0.16740800  0.16668166  0.83156840  1
  Pb  Pb41  1  0.17068067  0.83328581  0.83093217  1
  Pb  Pb42  1  0.16372853  0.49984488  0.83083278  1
  Pb  Pb43  1  0.50128837  0.49962068  0.83115204  1
  Pb  Pb44  1  0.83582489  0.16370791  0.50190537  1
  Pb  Pb45  1  0.16737135  0.83329810  0.16893726  1
  Pb  Pb46  1  0.83316380  0.50207403  0.50125817  1
  Pb  Pb47  1  0.16988241  0.16662201  0.16948735  1
  Pb  Pb48  1  0.50028067  0.49995068  0.16954018  1
  Pb  Pb49  1  0.16654708  0.49994563  0.17001537  1
  Pb  Pb50  1  0.83319149  0.50321802  0.16336732  1
  Pb  Pb51  1  0.83115231  0.16396185  0.16374327  1
  Pb  Pb52  1  0.83175104  0.83371866  0.83402013  1
  Pb  Pb53  1  0.49912761  0.16689090  0.49997520  1
  I  I54  1  0.16462958  -0.00013691  0.17002784  1
  I  I55  1  0.16840328  -0.00122542  0.50065930  1
  I  I56  1  0.16122520  -0.00014589  0.82872122  1
  I  I57  1  0.16846300  0.33308577  0.16936718  1
  I  I58  1  0.17506304  0.33397733  0.50203040  1
  I  I59  1  0.17138599  0.33325157  0.82819982  1
  I  I60  1  0.16849722  0.66698418  0.16792347  1
  I  I61  1  0.16874782  0.66746242  0.50034357  1
  I  I62  1  0.16512897  0.66674825  0.83082380  1
  I  I63  1  0.50346038  -0.00156557  0.16906730  1
  I  I64  1  0.49890146  -0.00312137  0.50037878  1
  I  I65  1  0.50595999  -0.00036290  0.83006507  1
  I  I66  1  0.49844321  0.33029027  0.16322041  1
  I  I67  1  0.49351355  0.33560390  0.50137793  1
  I  I68  1  0.50237836  0.33029049  0.83508262  1
  I  I69  1  0.50357208  0.67032891  0.16521698  1
  I  I70  1  0.49552273  0.66884585  0.50063401  1
  I  I71  1  0.50266325  0.66946981  0.83360610  1
  I  I72  1  0.83027101  -0.00377587  0.17089334  1
  I  I73  1  0.83054609  -0.00442085  0.49942237  1
  I  I74  1  0.82985094  0.00217024  0.83126673  1
  I  I75  1  0.83200384  0.33305068  0.16853206  1
  I  I76  1  0.83334356  0.33317478  0.50028138  1
  I  I77  1  0.82629570  0.33241303  0.82976273  1
  I  I78  1  0.82563414  0.67112121  0.17064046  1
  I  I79  1  0.83611868  0.67033500  0.50021289  1
  I  I80  1  0.83126753  0.66538127  0.83094603  1
  I  I81  1  0.16445210  0.16598511  0.00012275  1
  I  I82  1  0.16921003  0.16477335  0.33772266  1
  I  I83  1  0.16989367  0.16508370  0.66316990  1
  I  I84  1  0.16653587  0.50033703  -0.00015641  1
  I  I85  1  0.17140624  0.50262624  0.33857107  1
  I  I86  1  0.17159758  0.50150525  0.66246088  1
  I  I87  1  0.16440325  0.83393256  0.00002440  1
  I  I88  1  0.17145355  0.83292430  0.33780715  1
  I  I89  1  0.16485028  0.83318795  0.66202591  1
  I  I90  1  0.50470964  0.15664154  -0.00072325  1
  I  I91  1  0.49645151  0.16213517  0.33130188  1
  I  I92  1  0.50196350  0.16283278  0.66911326  1
  I  I93  1  0.50147201  0.50335532  -0.00013669  1
  I  I94  1  0.49549851  0.50504626  0.33770929  1
  I  I95  1  0.49661387  0.50505137  0.66311880  1
  I  I96  1  0.50795028  0.83922672  0.00027259  1
  I  I97  1  0.49991363  0.83389463  0.33421888  1
  I  I98  1  0.50018750  0.83387287  0.66571451  1
  I  I99  1  0.83120816  0.16828302  -0.00405321  1
  I  I100  1  0.83288902  0.16771682  0.33312570  1
  I  I101  1  0.82615308  0.16718738  0.66964486  1
  I  I102  1  0.82941251  0.49752148  -0.00424268  1
  I  I103  1  0.83388543  0.49933139  0.33335209  1
  I  I104  1  0.83282173  0.49940198  0.66899885  1
  I  I105  1  0.82602702  0.83283468  0.00252783  1
  I  I106  1  0.82879345  0.83280812  0.33451700  1
  I  I107  1  0.83285807  0.83285906  0.66420446  1
  I  I108  1  -0.00018021  0.16539664  0.16622680  1
  I  I109  1  0.00367836  0.16691282  0.50256588  1
  I  I110  1  -0.00267974  0.16948340  0.82933186  1
  I  I111  1  -0.00034042  0.50134717  0.16891408  1
  I  I112  1  0.00258467  0.50261987  0.50291083  1
  I  I113  1  -0.00404901  0.49614130  0.83003852  1
  I  I114  1  -0.00274260  0.83216677  0.17148012  1
  I  I115  1  -0.00005220  0.83300025  0.49628701  1
  I  I116  1  0.00001829  0.83350027  0.83240412  1
  I  I117  1  0.33789222  0.15801744  0.16100979  1
  I  I118  1  0.33116295  0.16220532  0.50155061  1
  I  I119  1  0.33705701  0.16073210  0.83462745  1
  I  I120  1  0.33373638  0.50214731  0.16413379  1
  I  I121  1  0.33358423  0.50542812  0.50082881  1
  I  I122  1  0.33337961  0.50041914  0.83316266  1
  I  I123  1  0.33720985  0.83767834  0.16846252  1
  I  I124  1  0.33427334  0.83268080  0.50061513  1
  I  I125  1  0.33888970  0.83985383  0.83303708  1
  I  I126  1  0.66313464  0.16363438  0.16827468  1
  I  I127  1  0.66682936  0.16690563  0.49913625  1
  I  I128  1  0.66545808  0.16574915  0.83416480  1
  I  I129  1  0.66663669  0.49895157  0.17097844  1
  I  I130  1  0.66412926  0.50588852  0.50181573  1
  I  I131  1  0.66890515  0.49975263  0.82861984  1
  I  I132  1  0.66515603  0.83654135  0.17288599  1
  I  I133  1  0.66536528  0.82851648  0.49994339  1
  I  I134  1  0.66357919  0.83457514  0.82731051  1
