# generated using pymatgen
data_Cs27Sn13Pb14I81
_symmetry_space_group_name_H-M   'P 1'
_cell_length_a   18.97803781
_cell_length_b   18.97879281
_cell_length_c   18.97477179
_cell_angle_alpha   90.00016360
_cell_angle_beta   89.99884379
_cell_angle_gamma   90.00048719
_symmetry_Int_Tables_number   1
_chemical_formula_structural   Cs27Sn13Pb14I81
_chemical_formula_sum   'Cs27 Sn13 Pb14 I81'
_cell_volume   6834.33800036
_cell_formula_units_Z   1
loop_
 _symmetry_equiv_pos_site_id
 _symmetry_equiv_pos_as_xyz
  1  'x, y, z'
loop_
 _atom_site_type_symbol
 _atom_site_label
 _atom_site_symmetry_multiplicity
 _atom_site_fract_x
 _atom_site_fract_y
 _atom_site_fract_z
 _atom_site_occupancy
  Cs  Cs0  1  -0.00113358  -0.00263217  0.00154840  1
  Cs  Cs1  1  -0.00142067  0.00055829  0.33045559  1
  Cs  Cs2  1  0.00005357  -0.00106480  0.66802408  1
  Cs  Cs3  1  0.00194611  0.33363160  0.00105831  1
  Cs  Cs4  1  0.00202503  0.33452596  0.33458883  1
  Cs  Cs5  1  -0.00096403  0.33339409  0.66515120  1
  Cs  Cs6  1  0.00114578  0.66783688  0.00018099  1
  Cs  Cs7  1  0.00045010  0.66554312  0.33289989  1
  Cs  Cs8  1  -0.00014746  0.66729847  0.66792199  1
  Cs  Cs9  1  0.33229868  -0.00113846  -0.00251776  1
  Cs  Cs10  1  0.33456784  0.00311385  0.33482787  1
  Cs  Cs11  1  0.33607871  -0.00085377  0.66883422  1
  Cs  Cs12  1  0.33437656  0.33381850  0.00152835  1
  Cs  Cs13  1  0.33703412  0.32744385  0.33827707  1
  Cs  Cs14  1  0.33140270  0.33450089  0.66204526  1
  Cs  Cs15  1  0.33154170  0.66784796  0.00163597  1
  Cs  Cs16  1  0.33328026  0.66698165  0.33325932  1
  Cs  Cs17  1  0.33413131  0.66671127  0.66234743  1
  Cs  Cs18  1  0.66768856  -0.00039652  0.00226864  1
  Cs  Cs19  1  0.66698635  0.00020904  0.33264024  1
  Cs  Cs20  1  0.66463658  0.00153211  0.66505619  1
  Cs  Cs21  1  0.66220018  0.33574820  -0.00093654  1
  Cs  Cs22  1  0.66307340  0.33291054  0.32891023  1
  Cs  Cs23  1  0.66945679  0.33368843  0.67048159  1
  Cs  Cs24  1  0.66771609  0.66401989  -0.00150037  1
  Cs  Cs25  1  0.66588217  0.66791146  0.33453823  1
  Cs  Cs26  1  0.66630744  0.66289333  0.66681656  1
  Sn  Sn27  1  0.83362079  0.49994651  0.49898230  1
  Sn  Sn28  1  0.16659818  0.49932193  0.83383021  1
  Sn  Sn29  1  0.16645271  0.16759295  0.83348765  1
  Sn  Sn30  1  0.16629139  0.50029033  0.16643360  1
  Sn  Sn31  1  0.83357367  0.16643216  0.83323144  1
  Sn  Sn32  1  0.83365913  0.16661047  0.50029931  1
  Sn  Sn33  1  0.49999513  0.16604521  0.83342949  1
  Sn  Sn34  1  0.83429468  0.83336297  0.50009407  1
  Sn  Sn35  1  0.16732078  0.83282016  0.16767171  1
  Sn  Sn36  1  0.50020346  0.83349963  0.83425021  1
  Sn  Sn37  1  0.49920848  0.83320659  0.16570387  1
  Sn  Sn38  1  0.83413033  0.50002549  0.16724056  1
  Sn  Sn39  1  0.16584060  0.83360320  0.49897082  1
  Pb  Pb40  1  0.49997109  0.83336900  0.49988044  1
  Pb  Pb41  1  0.83350070  0.83129321  0.16853443  1
  Pb  Pb42  1  0.16501049  0.50174144  0.49951579  1
  Pb  Pb43  1  0.50271232  0.16674457  0.50255121  1
  Pb  Pb44  1  0.49916696  0.50224202  0.16672640  1
  Pb  Pb45  1  0.16447648  0.16394213  0.50240469  1
  Pb  Pb46  1  0.49682552  0.49994590  0.83335792  1
  Pb  Pb47  1  0.83346421  0.16958012  0.16665432  1
  Pb  Pb48  1  0.83073218  0.83537959  0.83104557  1
  Pb  Pb49  1  0.49989728  0.16385872  0.16419967  1
  Pb  Pb50  1  0.83551807  0.49801834  0.83357772  1
  Pb  Pb51  1  0.50304958  0.49982612  0.49987101  1
  Pb  Pb52  1  0.16806989  0.83323595  0.83339884  1
  Pb  Pb53  1  0.16665997  0.16669310  0.16476296  1
  I  I54  1  0.17020454  -0.00344566  0.16876432  1
  I  I55  1  0.16116232  -0.00397891  0.49572207  1
  I  I56  1  0.16547859  0.00239242  0.83232526  1
  I  I57  1  0.16094511  0.33662459  0.16304022  1
  I  I58  1  0.16514386  0.33324907  0.49882573  1
  I  I59  1  0.16745916  0.33312509  0.83863001  1
  I  I60  1  0.16601194  0.66685000  0.16358413  1
  I  I61  1  0.16105694  0.66974046  0.50211707  1
  I  I62  1  0.16754077  0.66457058  0.83439911  1
  I  I63  1  0.49481455  -0.00426662  0.16552015  1
  I  I64  1  0.50272768  -0.00014429  0.49865735  1
  I  I65  1  0.49761211  0.00034466  0.83657538  1
  I  I66  1  0.50084678  0.33338623  0.16539367  1
  I  I67  1  0.49945620  0.33307975  0.50175417  1
  I  I68  1  0.50319704  0.33011357  0.83190724  1
  I  I69  1  0.49884445  0.67032383  0.15974288  1
  I  I70  1  0.50293392  0.66712771  0.50416226  1
  I  I71  1  0.49846767  0.66957354  0.83653223  1
  I  I72  1  0.83350955  -0.00016931  0.16739599  1
  I  I73  1  0.83666242  -0.00011891  0.50582469  1
  I  I74  1  0.83841533  0.00365849  0.82860249  1
  I  I75  1  0.83986011  0.33744563  0.17157204  1
  I  I76  1  0.83283345  0.33329717  0.50193857  1
  I  I77  1  0.82903653  0.32990505  0.82773453  1
  I  I78  1  0.83471866  0.66346915  0.17141858  1
  I  I79  1  0.83686312  0.66675130  0.49518793  1
  I  I80  1  0.83307301  0.66655737  0.83168283  1
  I  I81  1  0.16377305  0.16536406  -0.00399474  1
  I  I82  1  0.16450354  0.16848810  0.33363083  1
  I  I83  1  0.16852936  0.17099516  0.67071154  1
  I  I84  1  0.16047134  0.50247121  0.00070831  1
  I  I85  1  0.16296281  0.50473893  0.33036045  1
  I  I86  1  0.16561771  0.49758104  0.66893138  1
  I  I87  1  0.16937592  0.83222667  0.00244827  1
  I  I88  1  0.16824227  0.82699090  0.33239736  1
  I  I89  1  0.16376196  0.83358131  0.66462929  1
  I  I90  1  0.50341432  0.16528699  -0.00429165  1
  I  I91  1  0.50174601  0.16585368  0.33340116  1
  I  I92  1  0.49766323  0.15849566  0.67089727  1
  I  I93  1  0.50595174  0.49854425  -0.00005819  1
  I  I94  1  0.49657537  0.50280693  0.33310172  1
  I  I95  1  0.49973399  0.50372611  0.66701068  1
  I  I96  1  0.49381655  0.83747357  0.00004957  1
  I  I97  1  0.49910416  0.83064449  0.33056521  1
  I  I98  1  0.49968423  0.83826795  0.66935524  1
  I  I99  1  0.83297769  0.16785626  -0.00329814  1
  I  I100  1  0.83403477  0.16420417  0.33651973  1
  I  I101  1  0.83304116  0.16835931  0.66678281  1
  I  I102  1  0.83547744  0.49913558  0.00248714  1
  I  I103  1  0.83958106  0.49899615  0.33369181  1
  I  I104  1  0.83453853  0.50146110  0.66408060  1
  I  I105  1  0.83533665  0.83357807  -0.00000331  1
  I  I106  1  0.83244714  0.83808184  0.33676026  1
  I  I107  1  0.83851710  0.82852673  0.66287429  1
  I  I108  1  -0.00000878  0.16153078  0.16249736  1
  I  I109  1  -0.00364429  0.16842964  0.50676400  1
  I  I110  1  -0.00003217  0.17148498  0.82877523  1
  I  I111  1  0.00082972  0.50587186  0.16602487  1
  I  I112  1  -0.00329675  0.49830048  0.49943385  1
  I  I113  1  0.00330932  0.49583327  0.83437515  1
  I  I114  1  0.00285749  0.83116670  0.16848417  1
  I  I115  1  -0.00027141  0.83336064  0.49555677  1
  I  I116  1  -0.00001832  0.83483816  0.83483377  1
  I  I117  1  0.33321293  0.17082219  0.16491936  1
  I  I118  1  0.33309160  0.16487753  0.50128956  1
  I  I119  1  0.33322676  0.16518909  0.83588184  1
  I  I120  1  0.32963574  0.50350493  0.16013385  1
  I  I121  1  0.33276129  0.50292930  0.50083618  1
  I  I122  1  0.32892495  0.49571345  0.83967058  1
  I  I123  1  0.33205134  0.82737359  0.16777030  1
  I  I124  1  0.33052042  0.83217483  0.49992028  1
  I  I125  1  0.33583960  0.83891948  0.83252345  1
  I  I126  1  0.66683269  0.16645705  0.16483722  1
  I  I127  1  0.67116992  0.16361424  0.50548624  1
  I  I128  1  0.66690979  0.16180592  0.82824556  1
  I  I129  1  0.66942881  0.50050686  0.17136369  1
  I  I130  1  0.67210370  0.50381853  0.49561273  1
  I  I131  1  0.66684531  0.49933873  0.83299462  1
  I  I132  1  0.66444466  0.83271441  0.16391731  1
  I  I133  1  0.66979563  0.83342118  0.50058110  1
  I  I134  1  0.66286675  0.83814258  0.83806314  1
