# generated using pymatgen
data_Cs27Sn14Pb13I81
_symmetry_space_group_name_H-M   'P 1'
_cell_length_a   18.97212973
_cell_length_b   18.97104181
_cell_length_c   18.98283907
_cell_angle_alpha   89.99953187
_cell_angle_beta   90.00126185
_cell_angle_gamma   90.00042269
_symmetry_Int_Tables_number   1
_chemical_formula_structural   Cs27Sn14Pb13I81
_chemical_formula_sum   'Cs27 Sn14 Pb13 I81'
_cell_volume   6832.32367667
_cell_formula_units_Z   1
loop_
 _symmetry_equiv_pos_site_id
 _symmetry_equiv_pos_as_xyz
  1  'x, y, z'
loop_
 _atom_site_type_symbol
 _atom_site_label
 _atom_site_symmetry_multiplicity
 _atom_site_fract_x
 _atom_site_fract_y
 _atom_site_fract_z
 _atom_site_occupancy
  Cs  Cs0  1  -0.00367013  -0.00049095  0.00131223  1
  Cs  Cs1  1  -0.00046866  0.00001381  0.33342771  1
  Cs  Cs2  1  -0.00485819  -0.00636664  0.66550861  1
  Cs  Cs3  1  0.00031880  0.33504216  -0.00029528  1
  Cs  Cs4  1  0.00359540  0.33078477  0.33195003  1
  Cs  Cs5  1  0.00275223  0.33406031  0.66968381  1
  Cs  Cs6  1  0.00167518  0.66414442  -0.00977737  1
  Cs  Cs7  1  -0.00195345  0.66967666  0.33739310  1
  Cs  Cs8  1  -0.00600144  0.67522061  0.67243286  1
  Cs  Cs9  1  0.33486765  0.00011877  0.00136335  1
  Cs  Cs10  1  0.33256799  0.00041702  0.33295442  1
  Cs  Cs11  1  0.33639628  0.00206020  0.66591318  1
  Cs  Cs12  1  0.33171359  0.33158407  -0.00152073  1
  Cs  Cs13  1  0.33104381  0.33191532  0.33505072  1
  Cs  Cs14  1  0.33350207  0.33276391  0.66561578  1
  Cs  Cs15  1  0.33260506  0.67079170  -0.00050983  1
  Cs  Cs16  1  0.33404966  0.66775230  0.32960438  1
  Cs  Cs17  1  0.33276183  0.66689166  0.67025794  1
  Cs  Cs18  1  0.66624431  0.00114641  -0.00017359  1
  Cs  Cs19  1  0.66771005  0.00116891  0.33250512  1
  Cs  Cs20  1  0.66435389  0.00066666  0.66811586  1
  Cs  Cs21  1  0.66978190  0.33329725  0.00025267  1
  Cs  Cs22  1  0.66711444  0.33767721  0.33330503  1
  Cs  Cs23  1  0.66612972  0.33384098  0.66589047  1
  Cs  Cs24  1  0.66546227  0.66255829  0.00613649  1
  Cs  Cs25  1  0.66763171  0.65516267  0.33208844  1
  Cs  Cs26  1  0.67013208  0.66737395  0.66199103  1
  Sn  Sn27  1  0.50029084  0.16613586  0.49969126  1
  Sn  Sn28  1  0.50009103  0.16673899  0.16702069  1
  Sn  Sn29  1  0.16708920  0.16621170  0.83317453  1
  Sn  Sn30  1  0.16626274  0.16693567  0.50044039  1
  Sn  Sn31  1  0.83329412  0.83364221  0.16672314  1
  Sn  Sn32  1  0.16654231  0.49988245  0.49968035  1
  Sn  Sn33  1  0.49923929  0.16684180  0.83333377  1
  Sn  Sn34  1  0.16653697  0.16695283  0.16644998  1
  Sn  Sn35  1  0.50009806  0.49979305  0.83324508  1
  Sn  Sn36  1  0.16674612  0.49954685  0.16759430  1
  Sn  Sn37  1  0.50022062  0.83331329  0.83268568  1
  Sn  Sn38  1  0.83340413  0.16604473  0.16777716  1
  Sn  Sn39  1  0.49981385  0.83376022  0.49997971  1
  Sn  Sn40  1  0.83333063  0.16695003  0.49931095  1
  Pb  Pb41  1  0.82986550  0.83357482  0.83602185  1
  Pb  Pb42  1  0.50185788  0.83516447  0.16723295  1
  Pb  Pb43  1  0.16892880  0.83356509  0.49994852  1
  Pb  Pb44  1  0.16429383  0.83345596  0.16671236  1
  Pb  Pb45  1  0.49723877  0.49703441  0.16464449  1
  Pb  Pb46  1  0.83014170  0.83561431  0.49780160  1
  Pb  Pb47  1  0.83691469  0.49709718  0.50008370  1
  Pb  Pb48  1  0.16902493  0.83672995  0.83327320  1
  Pb  Pb49  1  0.49780845  0.49982438  0.50161904  1
  Pb  Pb50  1  0.83656075  0.49938787  0.16678661  1
  Pb  Pb51  1  0.83032192  0.49983208  0.83309519  1
  Pb  Pb52  1  0.83329425  0.16674069  0.83322212  1
  Pb  Pb53  1  0.16829938  0.49815425  0.83291611  1
  I  I54  1  0.16920641  0.00411154  0.16763647  1
  I  I55  1  0.16578158  0.00418411  0.49866516  1
  I  I56  1  0.17279442  0.00516824  0.83386296  1
  I  I57  1  0.16561330  0.33055170  0.16716275  1
  I  I58  1  0.16930917  0.33055226  0.49871687  1
  I  I59  1  0.17331519  0.32957830  0.83342536  1
  I  I60  1  0.16636905  0.66363126  0.17172340  1
  I  I61  1  0.17086952  0.66373788  0.49331707  1
  I  I62  1  0.16913120  0.66659153  0.83485396  1
  I  I63  1  0.49521448  0.00415599  0.16275441  1
  I  I64  1  0.49813890  0.00271634  0.50471418  1
  I  I65  1  0.49627755  0.00167715  0.83257103  1
  I  I66  1  0.50478065  0.32836722  0.16773980  1
  I  I67  1  0.50123965  0.32949394  0.50074862  1
  I  I68  1  0.49563076  0.33127691  0.83338872  1
  I  I69  1  0.50090692  0.66645343  0.16584905  1
  I  I70  1  0.49783469  0.66911547  0.50543272  1
  I  I71  1  0.50029762  0.66712441  0.82826833  1
  I  I72  1  0.83500558  0.00299056  0.16965424  1
  I  I73  1  0.83873799  0.00412768  0.49810264  1
  I  I74  1  0.83223981  0.00041094  0.83213282  1
  I  I75  1  0.83093334  0.32941711  0.16989630  1
  I  I76  1  0.82636797  0.32853641  0.49321007  1
  I  I77  1  0.83029978  0.33267228  0.83610165  1
  I  I78  1  0.83183845  0.66901013  0.16557892  1
  I  I79  1  0.83246434  0.66684200  0.49815005  1
  I  I80  1  0.83381902  0.66695899  0.83571057  1
  I  I81  1  0.17016943  0.17005882  0.00066451  1
  I  I82  1  0.16909202  0.17016012  0.33335029  1
  I  I83  1  0.17101611  0.17124845  0.66588749  1
  I  I84  1  0.16749906  0.49419780  0.00230557  1
  I  I85  1  0.16793586  0.48955565  0.33327762  1
  I  I86  1  0.16996942  0.49240645  0.66406291  1
  I  I87  1  0.16937595  0.83330097  0.00002648  1
  I  I88  1  0.17036442  0.83750349  0.33331228  1
  I  I89  1  0.16421121  0.83245932  0.66662220  1
  I  I90  1  0.49710988  0.16635694  -0.00034177  1
  I  I91  1  0.49744958  0.16133004  0.33382085  1
  I  I92  1  0.49733542  0.16609875  0.66673907  1
  I  I93  1  0.49764720  0.50033955  -0.00322334  1
  I  I94  1  0.50120165  0.50087829  0.33323497  1
  I  I95  1  0.49632342  0.49395414  0.66944956  1
  I  I96  1  0.50107935  0.83546013  -0.00252029  1
  I  I97  1  0.49976164  0.84058511  0.33599868  1
  I  I98  1  0.49903807  0.84032901  0.66685100  1
  I  I99  1  0.83277016  0.16353277  0.00326882  1
  I  I100  1  0.83311422  0.16279246  0.33270296  1
  I  I101  1  0.83281654  0.16768251  0.66351850  1
  I  I102  1  0.83545691  0.49735641  0.00029080  1
  I  I103  1  0.82800342  0.50218350  0.33334657  1
  I  I104  1  0.83590972  0.49763254  0.66638607  1
  I  I105  1  0.83210829  0.84280479  0.00352857  1
  I  I106  1  0.83206952  0.83829632  0.33030432  1
  I  I107  1  0.83458961  0.83412937  0.66649488  1
  I  I108  1  0.00058992  0.16657435  0.16919585  1
  I  I109  1  0.00081451  0.17163562  0.49652733  1
  I  I110  1  0.00316474  0.16903843  0.83399223  1
  I  I111  1  0.00414472  0.49175008  0.16938157  1
  I  I112  1  0.00485084  0.49278401  0.49514820  1
  I  I113  1  0.00055511  0.49728635  0.83471297  1
  I  I114  1  -0.00324353  0.84195424  0.16829210  1
  I  I115  1  -0.00034358  0.83414987  0.49869839  1
  I  I116  1  -0.00026400  0.83384490  0.83400101  1
  I  I117  1  0.33325086  0.17047469  0.16776829  1
  I  I118  1  0.33353198  0.16670823  0.49856797  1
  I  I119  1  0.33458173  0.16669231  0.83381733  1
  I  I120  1  0.32968593  0.49353796  0.17039647  1
  I  I121  1  0.33021965  0.49171514  0.49684249  1
  I  I122  1  0.33636378  0.50008656  0.83343899  1
  I  I123  1  0.33360615  0.83416759  0.16582916  1
  I  I124  1  0.33693643  0.84107975  0.50287022  1
  I  I125  1  0.33738590  0.83229664  0.83145815  1
  I  I126  1  0.66637246  0.16142435  0.16779140  1
  I  I127  1  0.66563827  0.16145235  0.49827469  1
  I  I128  1  0.66288543  0.16591551  0.83365676  1
  I  I129  1  0.66654945  0.49924396  0.16421114  1
  I  I130  1  0.66651743  0.49951599  0.50205112  1
  I  I131  1  0.66174720  0.49465000  0.83364086  1
  I  I132  1  0.66937108  0.84209619  0.16532052  1
  I  I133  1  0.66239192  0.84028883  0.50531700  1
  I  I134  1  0.66189142  0.83935110  0.82912887  1
