# generated using pymatgen
data_Cs27Sn13Pb14I81
_symmetry_space_group_name_H-M   'P 1'
_cell_length_a   18.97503683
_cell_length_b   18.98390207
_cell_length_c   18.97411876
_cell_angle_alpha   90.00065344
_cell_angle_beta   89.99919469
_cell_angle_gamma   90.00021864
_symmetry_Int_Tables_number   1
_chemical_formula_structural   Cs27Sn13Pb14I81
_chemical_formula_sum   'Cs27 Sn13 Pb14 I81'
_cell_volume   6834.86162921
_cell_formula_units_Z   1
loop_
 _symmetry_equiv_pos_site_id
 _symmetry_equiv_pos_as_xyz
  1  'x, y, z'
loop_
 _atom_site_type_symbol
 _atom_site_label
 _atom_site_symmetry_multiplicity
 _atom_site_fract_x
 _atom_site_fract_y
 _atom_site_fract_z
 _atom_site_occupancy
  Cs  Cs0  1  0.00379729  -0.00685828  -0.00153048  1
  Cs  Cs1  1  -0.00063387  -0.00035758  0.33226850  1
  Cs  Cs2  1  0.00172647  0.00021846  0.66921747  1
  Cs  Cs3  1  -0.00115166  0.33329169  -0.00022466  1
  Cs  Cs4  1  -0.00312001  0.33400792  0.33461237  1
  Cs  Cs5  1  -0.00224489  0.33557665  0.66499358  1
  Cs  Cs6  1  -0.00058227  0.67266246  0.00054967  1
  Cs  Cs7  1  0.00096578  0.66589998  0.33124217  1
  Cs  Cs8  1  0.00120461  0.66376160  0.66851511  1
  Cs  Cs9  1  0.32727954  0.00837964  -0.00120398  1
  Cs  Cs10  1  0.33529680  0.00116057  0.33586261  1
  Cs  Cs11  1  0.33268865  0.00054923  0.66556453  1
  Cs  Cs12  1  0.34014905  0.32759700  0.00611770  1
  Cs  Cs13  1  0.33282998  0.33344357  0.32865101  1
  Cs  Cs14  1  0.33302230  0.33385831  0.66857649  1
  Cs  Cs15  1  0.33431894  0.66300258  0.00401598  1
  Cs  Cs16  1  0.33309136  0.66566474  0.33462535  1
  Cs  Cs17  1  0.33436110  0.66640621  0.66417124  1
  Cs  Cs18  1  0.66866056  -0.00094262  0.00095115  1
  Cs  Cs19  1  0.66534355  -0.00183548  0.33406637  1
  Cs  Cs20  1  0.66541076  -0.00220036  0.66522684  1
  Cs  Cs21  1  0.66314385  0.33317772  -0.00073846  1
  Cs  Cs22  1  0.67173664  0.33179280  0.33279676  1
  Cs  Cs23  1  0.67010021  0.33388968  0.66827092  1
  Cs  Cs24  1  0.66723647  0.66707191  -0.00082241  1
  Cs  Cs25  1  0.66571356  0.66995651  0.33464583  1
  Cs  Cs26  1  0.66376942  0.66748160  0.66695500  1
  Sn  Sn27  1  0.49935518  0.83348978  0.83513900  1
  Sn  Sn28  1  0.16742053  0.16731599  0.50013212  1
  Sn  Sn29  1  0.49946200  0.16857405  0.50027724  1
  Sn  Sn30  1  0.16661148  0.49963339  0.83332093  1
  Sn  Sn31  1  0.16762039  0.49961987  0.50063026  1
  Sn  Sn32  1  0.83350155  0.16694969  0.83439376  1
  Sn  Sn33  1  0.49939371  0.49828677  0.50007955  1
  Sn  Sn34  1  0.83354716  0.16697868  0.16521893  1
  Sn  Sn35  1  0.83464421  0.83313919  0.50037239  1
  Sn  Sn36  1  0.16523235  0.83306925  0.50017559  1
  Sn  Sn37  1  0.49943429  0.83354009  0.16475851  1
  Sn  Sn38  1  0.83331965  0.49963075  0.16542419  1
  Sn  Sn39  1  0.83405896  0.49946897  0.83444255  1
  Pb  Pb40  1  0.83216243  0.83332054  0.16852416  1
  Pb  Pb41  1  0.83358532  0.50188766  0.50030113  1
  Pb  Pb42  1  0.16443814  0.49985007  0.16632372  1
  Pb  Pb43  1  0.50210389  0.16471305  0.83117379  1
  Pb  Pb44  1  0.16447379  0.16936254  0.83131934  1
  Pb  Pb45  1  0.83219382  0.83293830  0.83138935  1
  Pb  Pb46  1  0.16938998  0.83082881  0.83141555  1
  Pb  Pb47  1  0.16383800  0.16678664  0.16893432  1
  Pb  Pb48  1  0.16969679  0.83336119  0.16888331  1
  Pb  Pb49  1  0.49919610  0.83330438  0.50005446  1
  Pb  Pb50  1  0.49982606  0.50112049  0.83173930  1
  Pb  Pb51  1  0.50223754  0.16474555  0.16891340  1
  Pb  Pb52  1  0.83363289  0.16469046  0.50030551  1
  Pb  Pb53  1  0.50260666  0.50145243  0.16932404  1
  I  I54  1  0.16360971  0.00001985  0.16937015  1
  I  I55  1  0.16733111  0.00003428  0.49855064  1
  I  I56  1  0.16552370  0.00007631  0.83068692  1
  I  I57  1  0.16833662  0.33341156  0.17077996  1
  I  I58  1  0.17097346  0.33400214  0.50385785  1
  I  I59  1  0.16428059  0.33718383  0.82474079  1
  I  I60  1  0.16397050  0.66657647  0.17061032  1
  I  I61  1  0.16747975  0.66594588  0.50357010  1
  I  I62  1  0.15882794  0.66309675  0.82518209  1
  I  I63  1  0.50430218  -0.00297672  0.16828774  1
  I  I64  1  0.49843404  0.00179663  0.49978819  1
  I  I65  1  0.50339266  -0.00317104  0.83199845  1
  I  I66  1  0.49980906  0.33323851  0.16759943  1
  I  I67  1  0.49388625  0.33355451  0.50067785  1
  I  I68  1  0.49960977  0.33330192  0.83157697  1
  I  I69  1  0.50342661  0.66931737  0.16760049  1
  I  I70  1  0.49815964  0.66478977  0.50021410  1
  I  I71  1  0.50330190  0.66906620  0.83149196  1
  I  I72  1  0.83097397  0.00248768  0.16573342  1
  I  I73  1  0.83447038  -0.00286419  0.49957018  1
  I  I74  1  0.83025805  0.00231374  0.83458289  1
  I  I75  1  0.83282935  0.33357734  0.16583993  1
  I  I76  1  0.83417647  0.33338256  0.49939375  1
  I  I77  1  0.83589913  0.33420614  0.83471045  1
  I  I78  1  0.83198829  0.66412031  0.16462684  1
  I  I79  1  0.83435628  0.66945151  0.49958167  1
  I  I80  1  0.83573083  0.66357560  0.83529471  1
  I  I81  1  0.16772423  0.16794009  -0.00030936  1
  I  I82  1  0.16819423  0.16845372  0.33792853  1
  I  I83  1  0.16761684  0.16398486  0.66271502  1
  I  I84  1  0.16296207  0.50201877  -0.00327847  1
  I  I85  1  0.16895435  0.50110152  0.33694449  1
  I  I86  1  0.16339531  0.50053380  0.66511199  1
  I  I87  1  0.16520615  0.83134434  -0.00032400  1
  I  I88  1  0.16491146  0.83010181  0.33794170  1
  I  I89  1  0.16578686  0.83495319  0.66274936  1
  I  I90  1  0.49984109  0.16651544  0.00000411  1
  I  I91  1  0.49905053  0.16630099  0.33717411  1
  I  I92  1  0.49940407  0.16621341  0.66288870  1
  I  I93  1  0.49782592  0.50152323  0.00007509  1
  I  I94  1  0.49558677  0.50074964  0.33755218  1
  I  I95  1  0.50153972  0.50113164  0.66334032  1
  I  I96  1  0.50515955  0.83080439  -0.00012383  1
  I  I97  1  0.50167513  0.83329196  0.33201659  1
  I  I98  1  0.50145311  0.83275429  0.66802412  1
  I  I99  1  0.83141180  0.17103786  -0.00022352  1
  I  I100  1  0.83313818  0.16983063  0.33159812  1
  I  I101  1  0.83313809  0.17056143  0.66875895  1
  I  I102  1  0.83799342  0.49704571  -0.00094930  1
  I  I103  1  0.83236157  0.49718299  0.33163709  1
  I  I104  1  0.83410167  0.49680472  0.66906513  1
  I  I105  1  0.83187403  0.83337357  -0.00012114  1
  I  I106  1  0.83300000  0.83326068  0.33653105  1
  I  I107  1  0.83266565  0.83360464  0.66347564  1
  I  I108  1  -0.00433863  0.16988800  0.16700930  1
  I  I109  1  0.00259271  0.16884063  0.49980518  1
  I  I110  1  -0.00372418  0.16708145  0.83336677  1
  I  I111  1  -0.00378313  0.49733650  0.16995878  1
  I  I112  1  0.00268861  0.49825439  0.50080197  1
  I  I113  1  -0.00080891  0.49682549  0.82841443  1
  I  I114  1  0.00003052  0.83327199  0.16831867  1
  I  I115  1  0.00071490  0.83337351  0.49990924  1
  I  I116  1  0.00026587  0.83474202  0.83204394  1
  I  I117  1  0.33348445  0.16514655  0.16681644  1
  I  I118  1  0.33305013  0.16333834  0.50042113  1
  I  I119  1  0.33321818  0.16643920  0.83273812  1
  I  I120  1  0.33354900  0.50233040  0.16576460  1
  I  I121  1  0.33230341  0.50323744  0.50544314  1
  I  I122  1  0.33071993  0.50453038  0.82668563  1
  I  I123  1  0.33752988  0.83181064  0.16682908  1
  I  I124  1  0.33069511  0.83278150  0.50003581  1
  I  I125  1  0.33697396  0.83141419  0.83239744  1
  I  I126  1  0.67014915  0.17003987  0.16721650  1
  I  I127  1  0.66468545  0.16794754  0.49977941  1
  I  I128  1  0.67019401  0.17302592  0.83288975  1
  I  I129  1  0.67051524  0.49706653  0.16308636  1
  I  I130  1  0.66464868  0.49899388  0.49982785  1
  I  I131  1  0.66963439  0.49827747  0.83421642  1
  I  I132  1  0.66436895  0.83289119  0.16914253  1
  I  I133  1  0.66785354  0.83334285  0.49977011  1
  I  I134  1  0.66438170  0.83112281  0.83084784  1
