# generated using pymatgen
data_Cs27Sn14Pb13I81
_symmetry_space_group_name_H-M   'P 1'
_cell_length_a   18.97642931
_cell_length_b   18.97087296
_cell_length_c   18.98131742
_cell_angle_alpha   89.99901714
_cell_angle_beta   89.99950829
_cell_angle_gamma   90.00238702
_symmetry_Int_Tables_number   1
_chemical_formula_structural   Cs27Sn14Pb13I81
_chemical_formula_sum   'Cs27 Sn14 Pb13 I81'
_cell_volume   6833.26343965
_cell_formula_units_Z   1
loop_
 _symmetry_equiv_pos_site_id
 _symmetry_equiv_pos_as_xyz
  1  'x, y, z'
loop_
 _atom_site_type_symbol
 _atom_site_label
 _atom_site_symmetry_multiplicity
 _atom_site_fract_x
 _atom_site_fract_y
 _atom_site_fract_z
 _atom_site_occupancy
  Cs  Cs0  1  -0.00063030  -0.00073461  0.00157855  1
  Cs  Cs1  1  0.00085532  0.00068541  0.33249008  1
  Cs  Cs2  1  0.00158777  0.00020450  0.66619390  1
  Cs  Cs3  1  -0.00201330  0.33651816  -0.00141775  1
  Cs  Cs4  1  0.00109077  0.33161953  0.33322315  1
  Cs  Cs5  1  -0.00079908  0.33372044  0.66813697  1
  Cs  Cs6  1  0.00080782  0.66470457  -0.00260720  1
  Cs  Cs7  1  0.00162676  0.66638471  0.33806588  1
  Cs  Cs8  1  -0.00122787  0.66658684  0.66770351  1
  Cs  Cs9  1  0.33469727  -0.00026686  -0.00187046  1
  Cs  Cs10  1  0.33024625  0.00189445  0.33302493  1
  Cs  Cs11  1  0.33304111  0.00191558  0.66903449  1
  Cs  Cs12  1  0.33394222  0.33449479  -0.00027754  1
  Cs  Cs13  1  0.33531162  0.33256881  0.33246773  1
  Cs  Cs14  1  0.33180336  0.33121592  0.66812464  1
  Cs  Cs15  1  0.33439492  0.66583928  0.00239510  1
  Cs  Cs16  1  0.33344793  0.66490454  0.33440455  1
  Cs  Cs17  1  0.33531197  0.66628812  0.66159652  1
  Cs  Cs18  1  0.66584326  -0.00349196  0.00159809  1
  Cs  Cs19  1  0.66873866  -0.00309753  0.32996388  1
  Cs  Cs20  1  0.66400213  0.00024823  0.66838603  1
  Cs  Cs21  1  0.66762609  0.33568358  0.00145501  1
  Cs  Cs22  1  0.66452382  0.33223664  0.33142554  1
  Cs  Cs23  1  0.66815813  0.33352428  0.66717337  1
  Cs  Cs24  1  0.66584166  0.66298177  -0.00021193  1
  Cs  Cs25  1  0.66620084  0.67264116  0.34069564  1
  Cs  Cs26  1  0.66673689  0.66591983  0.66110773  1
  Sn  Sn27  1  0.83332155  0.16660516  0.50059853  1
  Sn  Sn28  1  0.83251596  0.50036318  0.16683137  1
  Sn  Sn29  1  0.50059847  0.49984287  0.83376127  1
  Sn  Sn30  1  0.16634625  0.83335807  0.83337149  1
  Sn  Sn31  1  0.16658701  0.83424464  0.50010406  1
  Sn  Sn32  1  0.50135309  0.49947522  0.16619118  1
  Sn  Sn33  1  0.83360584  0.83337188  0.83356787  1
  Sn  Sn34  1  0.16670177  0.16611980  0.49946362  1
  Sn  Sn35  1  0.49996555  0.16665565  0.49928529  1
  Sn  Sn36  1  0.83230485  0.50025813  0.83399807  1
  Sn  Sn37  1  0.16662000  0.83403160  0.16654415  1
  Sn  Sn38  1  0.16735265  0.16618240  0.16673723  1
  Sn  Sn39  1  0.83335075  0.16635673  0.83301142  1
  Sn  Sn40  1  0.49933020  0.16700582  0.16704962  1
  Pb  Pb41  1  0.83575033  0.83017784  0.16467573  1
  Pb  Pb42  1  0.16462788  0.16492905  0.83386290  1
  Pb  Pb43  1  0.50027140  0.83039057  0.83335801  1
  Pb  Pb44  1  0.16664049  0.49916213  0.50002518  1
  Pb  Pb45  1  0.50234419  0.16852324  0.83406788  1
  Pb  Pb46  1  0.49739344  0.83677505  0.49992462  1
  Pb  Pb47  1  0.83337213  0.16796190  0.16657153  1
  Pb  Pb48  1  0.16682894  0.49945840  0.16668095  1
  Pb  Pb49  1  0.83331599  0.49773877  0.49997944  1
  Pb  Pb50  1  0.49789124  0.83323002  0.16667259  1
  Pb  Pb51  1  0.50011295  0.49759181  0.49958754  1
  Pb  Pb52  1  0.16675586  0.50264208  0.83321844  1
  Pb  Pb53  1  0.83536590  0.83617395  0.50235678  1
  I  I54  1  0.17130736  0.00094628  0.16764376  1
  I  I55  1  0.16643875  0.00109397  0.49928725  1
  I  I56  1  0.16112553  -0.00319826  0.83326707  1
  I  I57  1  0.16745798  0.33004790  0.17275304  1
  I  I58  1  0.16674232  0.32888233  0.49446077  1
  I  I59  1  0.16500586  0.33323261  0.83294866  1
  I  I60  1  0.16575563  0.66947968  0.16651583  1
  I  I61  1  0.16583231  0.67008460  0.49927500  1
  I  I62  1  0.16075516  0.67091188  0.83390867  1
  I  I63  1  0.49790342  0.00339715  0.17122821  1
  I  I64  1  0.50284589  0.00498010  0.49448222  1
  I  I65  1  0.50122756  0.00016978  0.83316267  1
  I  I66  1  0.49726938  0.33277502  0.16687508  1
  I  I67  1  0.49647508  0.32934172  0.49892724  1
  I  I68  1  0.50563028  0.33636761  0.83448245  1
  I  I69  1  0.50161968  0.66335883  0.16034799  1
  I  I70  1  0.49774518  0.66672383  0.50020893  1
  I  I71  1  0.50411961  0.66246744  0.84079784  1
  I  I72  1  0.83116550  -0.00007733  0.16531355  1
  I  I73  1  0.83172858  0.00440424  0.50436234  1
  I  I74  1  0.83911316  0.00008024  0.82813176  1
  I  I75  1  0.83477853  0.33579858  0.16059497  1
  I  I76  1  0.83705478  0.32936378  0.50606149  1
  I  I77  1  0.82938220  0.33368378  0.83278004  1
  I  I78  1  0.82902619  0.66222484  0.16020012  1
  I  I79  1  0.83593099  0.66697289  0.50041076  1
  I  I80  1  0.83520912  0.66624848  0.83939047  1
  I  I81  1  0.17016839  0.16273489  0.00291899  1
  I  I82  1  0.16488245  0.15955672  0.33347889  1
  I  I83  1  0.16920824  0.16286024  0.66398381  1
  I  I84  1  0.16620161  0.49966696  0.00000563  1
  I  I85  1  0.16565149  0.50537241  0.33305859  1
  I  I86  1  0.16677886  0.49928097  0.66687102  1
  I  I87  1  0.16253281  0.83694304  0.00008192  1
  I  I88  1  0.16805237  0.83824479  0.33335999  1
  I  I89  1  0.16222492  0.83725237  0.66654381  1
  I  I90  1  0.49551516  0.16896078  0.00306574  1
  I  I91  1  0.49989841  0.17313715  0.33278826  1
  I  I92  1  0.49677712  0.16765242  0.66425446  1
  I  I93  1  0.50379004  0.49406841  0.00080037  1
  I  I94  1  0.50298041  0.49712761  0.32986496  1
  I  I95  1  0.50473333  0.50012918  0.66941367  1
  I  I96  1  0.49602025  0.83903318  -0.00004663  1
  I  I97  1  0.49963831  0.82710040  0.33329010  1
  I  I98  1  0.49681834  0.83295093  0.66673892  1
  I  I99  1  0.83430792  0.16597532  -0.00259904  1
  I  I100  1  0.83448827  0.16958592  0.33566652  1
  I  I101  1  0.83430507  0.16888661  0.66681979  1
  I  I102  1  0.83020927  0.49700445  -0.00117660  1
  I  I103  1  0.83021675  0.49688075  0.33036745  1
  I  I104  1  0.82964312  0.50168399  0.67017064  1
  I  I105  1  0.83986498  0.83911934  -0.00357650  1
  I  I106  1  0.83456156  0.83271006  0.33339803  1
  I  I107  1  0.83960018  0.82787362  0.67048973  1
  I  I108  1  0.00253950  0.16413358  0.16984012  1
  I  I109  1  0.00075107  0.16310050  0.49978355  1
  I  I110  1  -0.00353640  0.17174492  0.82994720  1
  I  I111  1  -0.00256190  0.49935965  0.16068014  1
  I  I112  1  -0.00018698  0.49688097  0.49981731  1
  I  I113  1  -0.00345555  0.49819271  0.83770894  1
  I  I114  1  0.00382604  0.83974272  0.16863412  1
  I  I115  1  0.00354506  0.83956486  0.49737491  1
  I  I116  1  -0.00010670  0.83143586  0.83329152  1
  I  I117  1  0.33318315  0.16872280  0.17418404  1
  I  I118  1  0.33276159  0.16322615  0.49496964  1
  I  I119  1  0.33340020  0.16715627  0.83057989  1
  I  I120  1  0.33632387  0.49874178  0.16203672  1
  I  I121  1  0.33352878  0.49899330  0.50095682  1
  I  I122  1  0.33626494  0.50021623  0.83825045  1
  I  I123  1  0.32929733  0.83263360  0.16406932  1
  I  I124  1  0.32890853  0.83788598  0.50316824  1
  I  I125  1  0.33014638  0.83287374  0.83303287  1
  I  I126  1  0.66421278  0.17050791  0.16962757  1
  I  I127  1  0.66665833  0.17020549  0.50069812  1
  I  I128  1  0.67050997  0.16240915  0.82903594  1
  I  I129  1  0.66605272  0.49173208  0.16023655  1
  I  I130  1  0.66671156  0.49818421  0.50049078  1
  I  I131  1  0.66795189  0.50077290  0.83845495  1
  I  I132  1  0.66687981  0.83648802  0.16379935  1
  I  I133  1  0.66684385  0.83388344  0.50226822  1
  I  I134  1  0.67004383  0.83584050  0.83385483  1
