# generated using pymatgen
data_Cs27Sn14Pb13I81
_symmetry_space_group_name_H-M   'P 1'
_cell_length_a   19.04251616
_cell_length_b   19.02265711
_cell_length_c   19.03648979
_cell_angle_alpha   89.99690447
_cell_angle_beta   89.99814319
_cell_angle_gamma   89.99834257
_symmetry_Int_Tables_number   1
_chemical_formula_structural   Cs27Sn14Pb13I81
_chemical_formula_sum   'Cs27 Sn14 Pb13 I81'
_cell_volume   6895.76386666
_cell_formula_units_Z   1
loop_
 _symmetry_equiv_pos_site_id
 _symmetry_equiv_pos_as_xyz
  1  'x, y, z'
loop_
 _atom_site_type_symbol
 _atom_site_label
 _atom_site_symmetry_multiplicity
 _atom_site_fract_x
 _atom_site_fract_y
 _atom_site_fract_z
 _atom_site_occupancy
  Cs  Cs0  1  -0.00076247  -0.00252515  -0.00478758  1
  Cs  Cs1  1  -0.00025813  -0.00348977  0.33430168  1
  Cs  Cs2  1  0.00107060  -0.00162434  0.66900148  1
  Cs  Cs3  1  0.01307419  0.34204313  0.01221270  1
  Cs  Cs4  1  -0.01250054  0.33401443  0.32684798  1
  Cs  Cs5  1  0.00024494  0.33544129  0.66469830  1
  Cs  Cs6  1  -0.00159823  0.66780430  0.00468665  1
  Cs  Cs7  1  0.00089715  0.66810816  0.33423215  1
  Cs  Cs8  1  -0.00156275  0.66933483  0.66335432  1
  Cs  Cs9  1  0.33413641  0.00140561  -0.00151009  1
  Cs  Cs10  1  0.33749326  0.00318771  0.33603740  1
  Cs  Cs11  1  0.33345014  0.00043043  0.66598130  1
  Cs  Cs12  1  0.32145696  0.33237040  0.00004225  1
  Cs  Cs13  1  0.33482824  0.33372714  0.33173600  1
  Cs  Cs14  1  0.32814827  0.33992968  0.66979485  1
  Cs  Cs15  1  0.33884024  0.66614311  0.00255053  1
  Cs  Cs16  1  0.33505780  0.66639432  0.33600810  1
  Cs  Cs17  1  0.33484897  0.66507516  0.66221502  1
  Cs  Cs18  1  0.66621593  -0.00153736  -0.00384584  1
  Cs  Cs19  1  0.66239782  0.01014434  0.33522680  1
  Cs  Cs20  1  0.66546666  0.00023700  0.66997798  1
  Cs  Cs21  1  0.66773019  0.33376758  -0.00170495  1
  Cs  Cs22  1  0.67505751  0.32029031  0.33310046  1
  Cs  Cs23  1  0.67315514  0.33642631  0.66838577  1
  Cs  Cs24  1  0.66268252  0.66676103  -0.00098188  1
  Cs  Cs25  1  0.66100525  0.66709769  0.33207944  1
  Cs  Cs26  1  0.66611690  0.66443861  0.66857151  1
  Sn  Sn27  1  0.50004422  0.49953001  0.49851386  1
  Sn  Sn28  1  0.83316678  0.83345830  0.49986491  1
  Sn  Sn29  1  0.50038320  0.16626701  0.83288274  1
  Sn  Sn30  1  0.16744282  0.83352794  0.16686736  1
  Sn  Sn31  1  0.83242114  0.83349057  0.16698833  1
  Sn  Sn32  1  0.16625114  0.83369065  0.49989809  1
  Sn  Sn33  1  0.16713650  0.83293268  0.83327274  1
  Sn  Sn34  1  0.83368926  0.16623380  0.83381412  1
  Sn  Sn35  1  0.50002967  0.83330101  0.16617012  1
  Sn  Sn36  1  0.49965923  0.83398745  0.83386842  1
  Sn  Sn37  1  0.16657676  0.16688673  0.49971123  1
  Sn  Sn38  1  0.50037243  0.50000138  0.16809162  1
  Sn  Sn39  1  0.83318671  0.83325942  0.83327423  1
  Sn  Sn40  1  0.16701355  0.49982583  0.49928232  1
  Pb  Pb41  1  0.83309127  0.50249541  0.49979007  1
  Pb  Pb42  1  0.16659185  0.16360937  0.16967541  1
  Pb  Pb43  1  0.83579378  0.16343603  0.50272947  1
  Pb  Pb44  1  0.49779752  0.17011837  0.50327183  1
  Pb  Pb45  1  0.83000466  0.50284352  0.16674066  1
  Pb  Pb46  1  0.49987124  0.16682133  0.16397532  1
  Pb  Pb47  1  0.16606509  0.16463290  0.83163665  1
  Pb  Pb48  1  0.83375149  0.49977147  0.83377431  1
  Pb  Pb49  1  0.83354835  0.16342921  0.16307645  1
  Pb  Pb50  1  0.50020801  0.83251686  0.50008532  1
  Pb  Pb51  1  0.49992420  0.49953042  0.83375754  1
  Pb  Pb52  1  0.16648999  0.50342808  0.83109768  1
  Pb  Pb53  1  0.16903484  0.50306631  0.16974237  1
  I  I54  1  0.17025073  -0.00527143  0.16893980  1
  I  I55  1  0.16001639  -0.00227866  0.50078761  1
  I  I56  1  0.16666837  -0.00421308  0.83019561  1
  I  I57  1  0.16936626  0.33363616  0.16530438  1
  I  I58  1  0.17679324  0.33364017  0.50467860  1
  I  I59  1  0.16769916  0.33329243  0.83077565  1
  I  I60  1  0.16233360  0.67126963  0.16769873  1
  I  I61  1  0.16669997  0.66832500  0.50075675  1
  I  I62  1  0.16714112  0.67226537  0.83094951  1
  I  I63  1  0.50010563  -0.00361862  0.16463193  1
  I  I64  1  0.49951636  0.00022766  0.49608211  1
  I  I65  1  0.50049365  -0.00256918  0.83980048  1
  I  I66  1  0.49864387  0.33628757  0.17116606  1
  I  I67  1  0.49201758  0.33771848  0.49380307  1
  I  I68  1  0.50839527  0.33039479  0.83045916  1
  I  I69  1  0.49963625  0.66903253  0.16335754  1
  I  I70  1  0.49330792  0.66507830  0.50210573  1
  I  I71  1  0.50061672  0.66983216  0.83418878  1
  I  I72  1  0.82979990  -0.00514932  0.17095531  1
  I  I73  1  0.84017076  -0.00453857  0.49668379  1
  I  I74  1  0.83230301  -0.00319991  0.83323257  1
  I  I75  1  0.83207184  0.33309556  0.16581802  1
  I  I76  1  0.83436097  0.33314103  0.50330858  1
  I  I77  1  0.82231179  0.32978500  0.82904945  1
  I  I78  1  0.83874131  0.67164481  0.16227263  1
  I  I79  1  0.84129839  0.67081146  0.50424097  1
  I  I80  1  0.83225704  0.67148961  0.83276443  1
  I  I81  1  0.16744048  0.16652854  -0.00005730  1
  I  I82  1  0.16874082  0.16211359  0.33753470  1
  I  I83  1  0.16750659  0.16222964  0.66395126  1
  I  I84  1  0.16760792  0.49845120  0.00056395  1
  I  I85  1  0.16957256  0.50544239  0.33713503  1
  I  I86  1  0.17601834  0.50323828  0.66290260  1
  I  I87  1  0.16337517  0.83441535  -0.00015793  1
  I  I88  1  0.16223925  0.83224989  0.33402386  1
  I  I89  1  0.16333422  0.83310562  0.66611283  1
  I  I90  1  0.50430808  0.16515439  -0.00361491  1
  I  I91  1  0.49819755  0.16324332  0.33342457  1
  I  I92  1  0.50374577  0.15593652  0.67014852  1
  I  I93  1  0.50299961  0.50502906  0.00248094  1
  I  I94  1  0.49306356  0.51260630  0.33322436  1
  I  I95  1  0.49391992  0.50155853  0.66439996  1
  I  I96  1  0.49961067  0.82988213  -0.00011903  1
  I  I97  1  0.49957254  0.82889001  0.33073216  1
  I  I98  1  0.49992412  0.83564006  0.66949745  1
  I  I99  1  0.82715087  0.15662735  -0.00441025  1
  I  I100  1  0.83442278  0.16685799  0.33320352  1
  I  I101  1  0.82786799  0.15723369  0.66994267  1
  I  I102  1  0.82982609  0.50347288  0.00024365  1
  I  I103  1  0.83730644  0.50219237  0.33339749  1
  I  I104  1  0.82940083  0.50476796  0.66646433  1
  I  I105  1  0.83686046  0.83762292  -0.00044560  1
  I  I106  1  0.83968782  0.82926359  0.33326778  1
  I  I107  1  0.83781248  0.83670259  0.66716258  1
  I  I108  1  0.00006285  0.16668275  0.16374888  1
  I  I109  1  0.00330680  0.17181061  0.50404101  1
  I  I110  1  -0.00269566  0.15682115  0.82933717  1
  I  I111  1  0.00006081  0.49899031  0.16648562  1
  I  I112  1  0.00307665  0.49985286  0.50385507  1
  I  I113  1  0.00015945  0.49919752  0.82949566  1
  I  I114  1  0.00013041  0.83576543  0.16390366  1
  I  I115  1  0.00150219  0.83053864  0.50099242  1
  I  I116  1  -0.00025087  0.83755917  0.83459815  1
  I  I117  1  0.33334232  0.16280077  0.16235426  1
  I  I118  1  0.33050967  0.15585384  0.50277778  1
  I  I119  1  0.33549337  0.16076908  0.83221408  1
  I  I120  1  0.33632490  0.50929772  0.16703767  1
  I  I121  1  0.33282430  0.50581370  0.49725762  1
  I  I122  1  0.33344179  0.49883315  0.83480529  1
  I  I123  1  0.33363724  0.82825460  0.16322891  1
  I  I124  1  0.33027764  0.83443570  0.50093666  1
  I  I125  1  0.33362540  0.83760778  0.83551974  1
  I  I126  1  0.66664450  0.16520704  0.17300868  1
  I  I127  1  0.66674384  0.16719112  0.49719270  1
  I  I128  1  0.66651737  0.15439360  0.83266902  1
  I  I129  1  0.66247875  0.50958349  0.17369861  1
  I  I130  1  0.66366142  0.50507028  0.49771881  1
  I  I131  1  0.66634832  0.50668382  0.82887586  1
  I  I132  1  0.66629943  0.82678703  0.16199234  1
  I  I133  1  0.66921109  0.82933681  0.50145217  1
  I  I134  1  0.66649730  0.83678892  0.83572022  1
