# generated using pymatgen
data_Cs27Sn13Pb14I81
_symmetry_space_group_name_H-M   'P 1'
_cell_length_a   18.97207423
_cell_length_b   18.97699260
_cell_length_c   18.98113355
_cell_angle_alpha   90.00025071
_cell_angle_beta   89.99927818
_cell_angle_gamma   89.99822155
_symmetry_Int_Tables_number   1
_chemical_formula_structural   Cs27Sn13Pb14I81
_chemical_formula_sum   'Cs27 Sn13 Pb14 I81'
_cell_volume   6833.83279124
_cell_formula_units_Z   1
loop_
 _symmetry_equiv_pos_site_id
 _symmetry_equiv_pos_as_xyz
  1  'x, y, z'
loop_
 _atom_site_type_symbol
 _atom_site_label
 _atom_site_symmetry_multiplicity
 _atom_site_fract_x
 _atom_site_fract_y
 _atom_site_fract_z
 _atom_site_occupancy
  Cs  Cs0  1  -0.00194268  0.00840568  0.00203966  1
  Cs  Cs1  1  0.00263482  -0.00122125  0.33058541  1
  Cs  Cs2  1  0.00541621  -0.00122561  0.66865157  1
  Cs  Cs3  1  0.00060248  0.32679458  0.00019561  1
  Cs  Cs4  1  0.00060693  0.33825683  0.32945212  1
  Cs  Cs5  1  -0.00131760  0.33582247  0.67265239  1
  Cs  Cs6  1  -0.00089712  0.66604681  0.00318683  1
  Cs  Cs7  1  -0.00060600  0.66564780  0.33333484  1
  Cs  Cs8  1  -0.00050485  0.66694659  0.66623200  1
  Cs  Cs9  1  0.33600706  -0.00234429  -0.00220887  1
  Cs  Cs10  1  0.33172314  0.00378369  0.33764348  1
  Cs  Cs11  1  0.32559304  -0.00078497  0.66285208  1
  Cs  Cs12  1  0.33403243  0.33671152  -0.00300004  1
  Cs  Cs13  1  0.33407855  0.33131872  0.33442124  1
  Cs  Cs14  1  0.33273771  0.33218589  0.66705564  1
  Cs  Cs15  1  0.33986542  0.66576811  -0.00485644  1
  Cs  Cs16  1  0.33196782  0.66593734  0.33109519  1
  Cs  Cs17  1  0.33047813  0.66769674  0.67354482  1
  Cs  Cs18  1  0.66698550  0.00065787  -0.00073027  1
  Cs  Cs19  1  0.66582734  -0.00066208  0.33467674  1
  Cs  Cs20  1  0.66660831  0.00129007  0.66486565  1
  Cs  Cs21  1  0.66535004  0.33073925  -0.00051978  1
  Cs  Cs22  1  0.66546547  0.33386614  0.33645375  1
  Cs  Cs23  1  0.66724462  0.33150329  0.66281840  1
  Cs  Cs24  1  0.66256867  0.66772208  0.00087047  1
  Cs  Cs25  1  0.66757354  0.66679679  0.33314833  1
  Cs  Cs26  1  0.66932088  0.66677256  0.66539381  1
  Sn  Sn27  1  0.16622376  0.83238514  0.16655935  1
  Sn  Sn28  1  0.83294771  0.50073377  0.83503032  1
  Sn  Sn29  1  0.16789661  0.50030129  0.49951341  1
  Sn  Sn30  1  0.50016703  0.83211523  0.49985613  1
  Sn  Sn31  1  0.83295123  0.83463428  0.49995946  1
  Sn  Sn32  1  0.50008207  0.16635678  0.83382996  1
  Sn  Sn33  1  0.16620800  0.50121741  0.16720360  1
  Sn  Sn34  1  0.83351164  0.50059141  0.16544618  1
  Sn  Sn35  1  0.83325927  0.83272775  0.83367151  1
  Sn  Sn36  1  0.83403096  0.16546589  0.49958215  1
  Sn  Sn37  1  0.49854970  0.50145781  0.49996049  1
  Sn  Sn38  1  0.83383979  0.83264807  0.16642553  1
  Sn  Sn39  1  0.50009401  0.16664661  0.16579019  1
  Pb  Pb40  1  0.83364682  0.50068218  0.49959999  1
  Pb  Pb41  1  0.50097387  0.16632520  0.50026311  1
  Pb  Pb42  1  0.16416414  0.50018803  0.83424707  1
  Pb  Pb43  1  0.50278559  0.49854182  0.83041283  1
  Pb  Pb44  1  0.16363808  0.83316901  0.83695773  1
  Pb  Pb45  1  0.83212170  0.16632736  0.83120874  1
  Pb  Pb46  1  0.50224796  0.83525764  0.83036800  1
  Pb  Pb47  1  0.16946200  0.16694566  0.16660912  1
  Pb  Pb48  1  0.50007501  0.83502826  0.16866964  1
  Pb  Pb49  1  0.16620912  0.83116326  0.49819095  1
  Pb  Pb50  1  0.16987236  0.16658589  0.83340494  1
  Pb  Pb51  1  0.50011025  0.49853147  0.16832198  1
  Pb  Pb52  1  0.83174295  0.16668986  0.16865036  1
  Pb  Pb53  1  0.16306447  0.16987353  0.49976575  1
  I  I54  1  0.16149412  -0.00303967  0.16678615  1
  I  I55  1  0.16972243  -0.00028455  0.49834075  1
  I  I56  1  0.16384282  -0.00037287  0.83392608  1
  I  I57  1  0.16203240  0.33695704  0.17093951  1
  I  I58  1  0.17158063  0.33777771  0.49318961  1
  I  I59  1  0.16271871  0.33369408  0.83425807  1
  I  I60  1  0.16098111  0.66589737  0.17242789  1
  I  I61  1  0.16491191  0.66329573  0.49684757  1
  I  I62  1  0.16959576  0.66667335  0.83020845  1
  I  I63  1  0.50176043  0.00271277  0.16622906  1
  I  I64  1  0.50482781  -0.00247678  0.49909017  1
  I  I65  1  0.50439994  0.00287090  0.83621091  1
  I  I66  1  0.50153918  0.33073711  0.16674342  1
  I  I67  1  0.49976578  0.33549986  0.49939296  1
  I  I68  1  0.50355061  0.33075444  0.83509822  1
  I  I69  1  0.50063846  0.66674674  0.16774853  1
  I  I70  1  0.50505816  0.66686905  0.49796936  1
  I  I71  1  0.49965591  0.66681676  0.83341670  1
  I  I72  1  0.83621667  -0.00326045  0.16514957  1
  I  I73  1  0.82537620  -0.00207779  0.49968383  1
  I  I74  1  0.83126152  -0.00310404  0.83538350  1
  I  I75  1  0.83648993  0.33641767  0.16501575  1
  I  I76  1  0.83137187  0.33219296  0.50009838  1
  I  I77  1  0.83243212  0.33588536  0.83474821  1
  I  I78  1  0.83628938  0.66701015  0.16903160  1
  I  I79  1  0.83177212  0.66947391  0.49978076  1
  I  I80  1  0.83268689  0.66709001  0.83069508  1
  I  I81  1  0.16261857  0.16865627  0.00034991  1
  I  I82  1  0.17056641  0.16526180  0.33325095  1
  I  I83  1  0.16887902  0.16780092  0.66625526  1
  I  I84  1  0.16405308  0.50316082  0.00379559  1
  I  I85  1  0.16305847  0.50306616  0.33251542  1
  I  I86  1  0.16850231  0.49869979  0.66408654  1
  I  I87  1  0.16348349  0.82670156  0.00497960  1
  I  I88  1  0.16050018  0.83107042  0.33037792  1
  I  I89  1  0.16644044  0.83299236  0.66661913  1
  I  I90  1  0.50280307  0.16710800  0.00027922  1
  I  I91  1  0.50193980  0.16697537  0.33188013  1
  I  I92  1  0.50442097  0.16792239  0.66835822  1
  I  I93  1  0.49827934  0.49917146  -0.00008884  1
  I  I94  1  0.50290109  0.49983836  0.33634132  1
  I  I95  1  0.49732268  0.50057738  0.66239448  1
  I  I96  1  0.50049721  0.83408449  0.00000497  1
  I  I97  1  0.50714197  0.83260378  0.33646635  1
  I  I98  1  0.50648193  0.83172424  0.66242203  1
  I  I99  1  0.83263577  0.16514809  0.00006854  1
  I  I100  1  0.82842291  0.16394778  0.33628864  1
  I  I101  1  0.82850752  0.16529620  0.66348631  1
  I  I102  1  0.83777110  0.50651187  0.00125685  1
  I  I103  1  0.83409808  0.50234845  0.33086261  1
  I  I104  1  0.83233881  0.50173696  0.66816922  1
  I  I105  1  0.83745259  0.82854730  0.00083822  1
  I  I106  1  0.83270731  0.83268914  0.33318006  1
  I  I107  1  0.82712669  0.83261959  0.66602132  1
  I  I108  1  -0.00007897  0.16691397  0.16879331  1
  I  I109  1  -0.00464039  0.16049490  0.49968953  1
  I  I110  1  -0.00039448  0.16736912  0.83131660  1
  I  I111  1  -0.00079389  0.50331647  0.17070660  1
  I  I112  1  0.00191113  0.49917524  0.49828131  1
  I  I113  1  -0.00407615  0.50290498  0.82996804  1
  I  I114  1  -0.00183921  0.82944900  0.16982061  1
  I  I115  1  -0.00343269  0.83535578  0.50139300  1
  I  I116  1  -0.00485553  0.82969683  0.82560092  1
  I  I117  1  0.33713791  0.16663092  0.16504641  1
  I  I118  1  0.33319948  0.16469164  0.50033799  1
  I  I119  1  0.33791131  0.16782586  0.83617042  1
  I  I120  1  0.33050754  0.50248617  0.17057991  1
  I  I121  1  0.33363149  0.50344839  0.49340865  1
  I  I122  1  0.33358698  0.49742928  0.83475417  1
  I  I123  1  0.33077493  0.83041153  0.16998785  1
  I  I124  1  0.33565797  0.83255331  0.49720471  1
  I  I125  1  0.33344400  0.83566039  0.83296430  1
  I  I126  1  0.66410976  0.16693749  0.16519860  1
  I  I127  1  0.66892686  0.16803211  0.49970332  1
  I  I128  1  0.66448446  0.16721747  0.83587987  1
  I  I129  1  0.66979943  0.50340617  0.16577085  1
  I  I130  1  0.66515737  0.49970327  0.49999984  1
  I  I131  1  0.67073866  0.50363186  0.83729525  1
  I  I132  1  0.67016105  0.83009250  0.16635308  1
  I  I133  1  0.66810086  0.83128509  0.49761831  1
  I  I134  1  0.67065044  0.82983931  0.83793337  1
