# generated using pymatgen
data_Cs27Sn14Pb13I81
_symmetry_space_group_name_H-M   'P 1'
_cell_length_a   18.98067843
_cell_length_b   18.97538238
_cell_length_c   18.97018420
_cell_angle_alpha   90.00341178
_cell_angle_beta   90.00027836
_cell_angle_gamma   90.00040836
_symmetry_Int_Tables_number   1
_chemical_formula_structural   Cs27Sn14Pb13I81
_chemical_formula_sum   'Cs27 Sn14 Pb13 I81'
_cell_volume   6832.40835198
_cell_formula_units_Z   1
loop_
 _symmetry_equiv_pos_site_id
 _symmetry_equiv_pos_as_xyz
  1  'x, y, z'
loop_
 _atom_site_type_symbol
 _atom_site_label
 _atom_site_symmetry_multiplicity
 _atom_site_fract_x
 _atom_site_fract_y
 _atom_site_fract_z
 _atom_site_occupancy
  Cs  Cs0  1  -0.00013916  0.00112274  0.00508930  1
  Cs  Cs1  1  -0.00143880  -0.00658339  0.32540422  1
  Cs  Cs2  1  -0.00053945  0.00209128  0.66735442  1
  Cs  Cs3  1  0.00017118  0.33316643  -0.00024884  1
  Cs  Cs4  1  0.00109855  0.33101744  0.32935056  1
  Cs  Cs5  1  -0.00055834  0.33345872  0.66845636  1
  Cs  Cs6  1  -0.00009724  0.66328166  -0.00013415  1
  Cs  Cs7  1  -0.00009471  0.67516657  0.34168647  1
  Cs  Cs8  1  -0.00212371  0.66524050  0.66015078  1
  Cs  Cs9  1  0.33358660  -0.00092987  -0.00137789  1
  Cs  Cs10  1  0.33314474  -0.00132628  0.33269856  1
  Cs  Cs11  1  0.33558199  0.00221815  0.66900647  1
  Cs  Cs12  1  0.33183998  0.33473713  0.00028688  1
  Cs  Cs13  1  0.33891328  0.33656060  0.33609666  1
  Cs  Cs14  1  0.33156033  0.33001994  0.66503864  1
  Cs  Cs15  1  0.33544285  0.66462708  -0.00121707  1
  Cs  Cs16  1  0.33231480  0.66360149  0.33608986  1
  Cs  Cs17  1  0.32980358  0.66975664  0.66903369  1
  Cs  Cs18  1  0.66594674  -0.00091073  -0.00018655  1
  Cs  Cs19  1  0.66783035  -0.00115590  0.33340618  1
  Cs  Cs20  1  0.66455241  0.00179096  0.66771669  1
  Cs  Cs21  1  0.66776489  0.33513150  0.00067749  1
  Cs  Cs22  1  0.65889483  0.33488543  0.33364995  1
  Cs  Cs23  1  0.66996748  0.33140904  0.66445612  1
  Cs  Cs24  1  0.66382617  0.66423253  -0.00064716  1
  Cs  Cs25  1  0.66686267  0.66548002  0.33446577  1
  Cs  Cs26  1  0.67414580  0.66868440  0.66799204  1
  Sn  Sn27  1  0.50002528  0.16794854  0.83429785  1
  Sn  Sn28  1  0.83480777  0.16662659  0.50005152  1
  Sn  Sn29  1  0.16739986  0.49992450  0.83377290  1
  Sn  Sn30  1  0.83478096  0.83429191  0.83387370  1
  Sn  Sn31  1  0.83362220  0.16576701  0.83312765  1
  Sn  Sn32  1  0.16529426  0.50015227  0.16638422  1
  Sn  Sn33  1  0.16524376  0.16640223  0.50012666  1
  Sn  Sn34  1  0.49979774  0.16572431  0.16564115  1
  Sn  Sn35  1  0.16639046  0.16658673  0.83306591  1
  Sn  Sn36  1  0.49973924  0.83397744  0.16784200  1
  Sn  Sn37  1  0.49983790  0.83335432  0.49912426  1
  Sn  Sn38  1  0.83477162  0.50010225  0.16700365  1
  Sn  Sn39  1  0.16501671  0.83345727  0.83365836  1
  Sn  Sn40  1  0.49942469  0.49864532  0.83288966  1
  Pb  Pb41  1  0.16896879  0.16837019  0.16658818  1
  Pb  Pb42  1  0.83113021  0.16813846  0.16650773  1
  Pb  Pb43  1  0.83352337  0.49698676  0.49663498  1
  Pb  Pb44  1  0.49994285  0.16538731  0.50032214  1
  Pb  Pb45  1  0.49946354  0.50004360  0.16507292  1
  Pb  Pb46  1  0.50003561  0.83344812  0.83347893  1
  Pb  Pb47  1  0.83156194  0.83606003  0.50230345  1
  Pb  Pb48  1  0.16838011  0.83628641  0.50247107  1
  Pb  Pb49  1  0.16655987  0.49757129  0.50044244  1
  Pb  Pb50  1  0.49996097  0.50301793  0.50412851  1
  Pb  Pb51  1  0.83391125  0.49954497  0.83417981  1
  Pb  Pb52  1  0.16883848  0.83068382  0.16430829  1
  Pb  Pb53  1  0.83125731  0.83100125  0.16419186  1
  I  I54  1  0.16720976  -0.00001996  0.16573682  1
  I  I55  1  0.16477537  0.00411868  0.50686102  1
  I  I56  1  0.16859846  0.00105845  0.82815657  1
  I  I57  1  0.16580158  0.33615976  0.15946022  1
  I  I58  1  0.16541795  0.32958676  0.50717746  1
  I  I59  1  0.16798583  0.33264063  0.83352002  1
  I  I60  1  0.16636110  0.66279669  0.15894931  1
  I  I61  1  0.16891619  0.66695742  0.50111946  1
  I  I62  1  0.16981166  0.66620310  0.83921379  1
  I  I63  1  0.50043579  0.00068414  0.16278997  1
  I  I64  1  0.49981450  -0.00215369  0.50217897  1
  I  I65  1  0.49782706  0.00273631  0.83380220  1
  I  I66  1  0.50041709  0.33109359  0.16373235  1
  I  I67  1  0.50004117  0.33310496  0.49682793  1
  I  I68  1  0.49742372  0.33177668  0.83966381  1
  I  I69  1  0.50032482  0.66875229  0.16702287  1
  I  I70  1  0.49969592  0.67061442  0.49403908  1
  I  I71  1  0.49688467  0.66472744  0.83440611  1
  I  I72  1  0.83266445  0.00003710  0.16762637  1
  I  I73  1  0.83603455  0.00391950  0.50223269  1
  I  I74  1  0.83396244  0.00141855  0.83019190  1
  I  I75  1  0.83416247  0.33580034  0.16263920  1
  I  I76  1  0.83486365  0.32911210  0.50963682  1
  I  I77  1  0.83413768  0.33015407  0.83135207  1
  I  I78  1  0.83394846  0.66334796  0.16190269  1
  I  I79  1  0.83104873  0.66700984  0.50168755  1
  I  I80  1  0.83315148  0.66871642  0.83627497  1
  I  I81  1  0.16493797  0.16562683  -0.00361939  1
  I  I82  1  0.16464410  0.16939584  0.33570570  1
  I  I83  1  0.16927764  0.16854472  0.66922912  1
  I  I84  1  0.16762092  0.49729627  -0.00190156  1
  I  I85  1  0.16435977  0.49702418  0.33047779  1
  I  I86  1  0.17177054  0.50145442  0.67054337  1
  I  I87  1  0.16677328  0.83955340  -0.00414968  1
  I  I88  1  0.16721083  0.83320758  0.33331535  1
  I  I89  1  0.16687083  0.82809089  0.67101382  1
  I  I90  1  0.49997900  0.16433521  -0.00181653  1
  I  I91  1  0.50024320  0.16509839  0.33106227  1
  I  I92  1  0.49958295  0.16782975  0.67000198  1
  I  I93  1  0.49864027  0.50095530  -0.00300695  1
  I  I94  1  0.49987671  0.49715064  0.33334919  1
  I  I95  1  0.49390323  0.49385518  0.67199176  1
  I  I96  1  0.50008898  0.83419252  0.00157783  1
  I  I97  1  0.50043422  0.84049165  0.33240354  1
  I  I98  1  0.49966565  0.83414752  0.66545744  1
  I  I99  1  0.83531092  0.16467416  -0.00341411  1
  I  I100  1  0.83572272  0.16991066  0.33575895  1
  I  I101  1  0.83067876  0.16379655  0.66881526  1
  I  I102  1  0.83323925  0.49767145  0.00179539  1
  I  I103  1  0.83724968  0.49854686  0.32880453  1
  I  I104  1  0.83202492  0.50228890  0.66672007  1
  I  I105  1  0.83385992  0.84085285  -0.00385350  1
  I  I106  1  0.83269191  0.83368790  0.33329368  1
  I  I107  1  0.83313543  0.83281566  0.67054397  1
  I  I108  1  0.00010438  0.16773294  0.16480158  1
  I  I109  1  0.00015146  0.16841873  0.51089273  1
  I  I110  1  0.00037067  0.16701592  0.82812245  1
  I  I111  1  0.00095210  0.49691049  0.15720372  1
  I  I112  1  0.00005173  0.50228683  0.50513944  1
  I  I113  1  0.00303594  0.49729999  0.83649404  1
  I  I114  1  0.00013238  0.83408657  0.16677392  1
  I  I115  1  0.00001960  0.83213194  0.49981006  1
  I  I116  1  0.00048700  0.83625983  0.83350639  1
  I  I117  1  0.33686380  0.16558596  0.16179959  1
  I  I118  1  0.33122327  0.16542211  0.50473301  1
  I  I119  1  0.33309107  0.16673862  0.83284319  1
  I  I120  1  0.33107501  0.49957449  0.16236898  1
  I  I121  1  0.33338274  0.49643902  0.49471199  1
  I  I122  1  0.33242450  0.49815343  0.83980223  1
  I  I123  1  0.33680777  0.83587529  0.16635866  1
  I  I124  1  0.33615286  0.83638402  0.49940037  1
  I  I125  1  0.33122118  0.83513298  0.83317155  1
  I  I126  1  0.66320526  0.16642298  0.16206415  1
  I  I127  1  0.66870470  0.16493738  0.50436361  1
  I  I128  1  0.66651142  0.16588611  0.83300323  1
  I  I129  1  0.66792114  0.49938165  0.16350858  1
  I  I130  1  0.66657862  0.49675324  0.49943215  1
  I  I131  1  0.66458823  0.49829191  0.83650035  1
  I  I132  1  0.66326076  0.83508311  0.16620580  1
  I  I133  1  0.66377200  0.83644782  0.49984551  1
  I  I134  1  0.66845570  0.83622294  0.83305598  1
