# generated using pymatgen
data_Cs27Sn14Pb13I81
_symmetry_space_group_name_H-M   'P 1'
_cell_length_a   18.95959427
_cell_length_b   18.96630977
_cell_length_c   18.95942356
_cell_angle_alpha   90.00017654
_cell_angle_beta   90.00165166
_cell_angle_gamma   90.00014210
_symmetry_Int_Tables_number   1
_chemical_formula_structural   Cs27Sn14Pb13I81
_chemical_formula_sum   'Cs27 Sn14 Pb13 I81'
_cell_volume   6817.68619277
_cell_formula_units_Z   1
loop_
 _symmetry_equiv_pos_site_id
 _symmetry_equiv_pos_as_xyz
  1  'x, y, z'
loop_
 _atom_site_type_symbol
 _atom_site_label
 _atom_site_symmetry_multiplicity
 _atom_site_fract_x
 _atom_site_fract_y
 _atom_site_fract_z
 _atom_site_occupancy
  Cs  Cs0  1  -0.00010043  -0.00180009  0.00264477  1
  Cs  Cs1  1  -0.00109964  0.00055295  0.33200588  1
  Cs  Cs2  1  -0.00218399  -0.00227497  0.66760895  1
  Cs  Cs3  1  -0.00056296  0.33740559  0.00088987  1
  Cs  Cs4  1  -0.00094737  0.33205450  0.33236204  1
  Cs  Cs5  1  -0.00040305  0.33482394  0.66683276  1
  Cs  Cs6  1  0.00056935  0.66506520  -0.00386188  1
  Cs  Cs7  1  -0.00084435  0.66759885  0.33301889  1
  Cs  Cs8  1  0.00905397  0.66740068  0.67217661  1
  Cs  Cs9  1  0.33466525  0.00218001  0.00104668  1
  Cs  Cs10  1  0.33265626  -0.00016614  0.33181052  1
  Cs  Cs11  1  0.33390489  -0.00001195  0.66719571  1
  Cs  Cs12  1  0.33307719  0.33023216  -0.00087544  1
  Cs  Cs13  1  0.33124445  0.33233444  0.33372717  1
  Cs  Cs14  1  0.33419642  0.33373788  0.66748579  1
  Cs  Cs15  1  0.33415110  0.66692113  0.00042953  1
  Cs  Cs16  1  0.33833659  0.66674964  0.33846796  1
  Cs  Cs17  1  0.32584892  0.66564445  0.66163918  1
  Cs  Cs18  1  0.66573329  -0.00027637  -0.00192287  1
  Cs  Cs19  1  0.66879029  -0.00051518  0.33376638  1
  Cs  Cs20  1  0.66764118  0.00258506  0.66771431  1
  Cs  Cs21  1  0.66746166  0.33600114  -0.00096789  1
  Cs  Cs22  1  0.66851518  0.33490733  0.33415385  1
  Cs  Cs23  1  0.66621889  0.33011243  0.66673712  1
  Cs  Cs24  1  0.66638418  0.66269125  0.00300398  1
  Cs  Cs25  1  0.66353391  0.66603904  0.33121749  1
  Cs  Cs26  1  0.66602035  0.66781055  0.66581751  1
  Sn  Sn27  1  0.16682085  0.16638226  0.83250269  1
  Sn  Sn28  1  0.16624655  0.16644329  0.50115982  1
  Sn  Sn29  1  0.83396311  0.83398076  0.16727043  1
  Sn  Sn30  1  0.83228931  0.16607906  0.16710469  1
  Sn  Sn31  1  0.49936143  0.16665394  0.83340691  1
  Sn  Sn32  1  0.16637732  0.83180115  0.16694928  1
  Sn  Sn33  1  0.83355980  0.50042520  0.50032028  1
  Sn  Sn34  1  0.49990917  0.83307709  0.83308965  1
  Sn  Sn35  1  0.83345312  0.83306713  0.49955247  1
  Sn  Sn36  1  0.49990284  0.50014590  0.83298928  1
  Sn  Sn37  1  0.83360042  0.16647890  0.49924223  1
  Sn  Sn38  1  0.50137063  0.16666562  0.16674155  1
  Sn  Sn39  1  0.16698834  0.50155726  0.16710380  1
  Sn  Sn40  1  0.49984679  0.16652525  0.49968805  1
  Pb  Pb41  1  0.16615102  0.16630551  0.16660228  1
  Pb  Pb42  1  0.83141219  0.83322227  0.83376554  1
  Pb  Pb43  1  0.16449481  0.83570779  0.49781921  1
  Pb  Pb44  1  0.83476565  0.50022165  0.16830977  1
  Pb  Pb45  1  0.16462313  0.49780429  0.49804949  1
  Pb  Pb46  1  0.50049636  0.83515878  0.16525985  1
  Pb  Pb47  1  0.83352865  0.16670530  0.83370372  1
  Pb  Pb48  1  0.16883399  0.49765250  0.83518701  1
  Pb  Pb49  1  0.50180122  0.49783888  0.50199292  1
  Pb  Pb50  1  0.49777130  0.49727625  0.16523233  1
  Pb  Pb51  1  0.16892363  0.83571761  0.83561375  1
  Pb  Pb52  1  0.83129336  0.50019068  0.83045619  1
  Pb  Pb53  1  0.50214113  0.83549750  0.50207952  1
  I  I54  1  0.16514798  -0.00168343  0.16644720  1
  I  I55  1  0.16555703  0.00424735  0.50089473  1
  I  I56  1  0.17282395  0.00378490  0.83212706  1
  I  I57  1  0.16719195  0.33435167  0.16643538  1
  I  I58  1  0.16507408  0.32916780  0.50025511  1
  I  I59  1  0.17256319  0.32952539  0.83270937  1
  I  I60  1  0.15997764  0.66757476  0.16518331  1
  I  I61  1  0.16475930  0.66683730  0.50068684  1
  I  I62  1  0.16870649  0.66675673  0.83323132  1
  I  I63  1  0.49869664  0.00384952  0.16421121  1
  I  I64  1  0.50217280  0.00435624  0.50214586  1
  I  I65  1  0.49702176  0.00199306  0.83370081  1
  I  I66  1  0.50362915  0.32863610  0.16470021  1
  I  I67  1  0.50248747  0.32889353  0.50194055  1
  I  I68  1  0.49646082  0.33132289  0.83320394  1
  I  I69  1  0.50205151  0.66664114  0.16298877  1
  I  I70  1  0.50244660  0.66673913  0.50225574  1
  I  I71  1  0.50379759  0.66673407  0.83564733  1
  I  I72  1  0.83540606  0.00075560  0.17385731  1
  I  I73  1  0.83285111  0.00143717  0.49568891  1
  I  I74  1  0.83043140  0.00026407  0.82978322  1
  I  I75  1  0.83176343  0.33032566  0.17050550  1
  I  I76  1  0.83274533  0.33117959  0.49643953  1
  I  I77  1  0.83112694  0.33301952  0.83409115  1
  I  I78  1  0.83524831  0.66967932  0.17072176  1
  I  I79  1  0.83148419  0.66749458  0.49518157  1
  I  I80  1  0.82992402  0.66677410  0.83366317  1
  I  I81  1  0.17161767  0.16651243  -0.00185740  1
  I  I82  1  0.16853375  0.16687399  0.33564661  1
  I  I83  1  0.16989241  0.16726639  0.66612590  1
  I  I84  1  0.16526602  0.49955343  0.00305527  1
  I  I85  1  0.16660216  0.49950773  0.33021567  1
  I  I86  1  0.16613198  0.49979372  0.66657801  1
  I  I87  1  0.15987879  0.83363689  0.00355775  1
  I  I88  1  0.16592022  0.83392705  0.32971304  1
  I  I89  1  0.16559805  0.83326235  0.66659151  1
  I  I90  1  0.49848505  0.16619020  -0.00065165  1
  I  I91  1  0.50023205  0.16628683  0.33357275  1
  I  I92  1  0.50035155  0.16675767  0.66688392  1
  I  I93  1  0.50029405  0.49606107  -0.00297459  1
  I  I94  1  0.49987014  0.49795342  0.33347684  1
  I  I95  1  0.50120412  0.49594535  0.67006946  1
  I  I96  1  0.50143508  0.83830148  -0.00276210  1
  I  I97  1  0.49840219  0.83564619  0.33336324  1
  I  I98  1  0.50256388  0.83755147  0.67004878  1
  I  I99  1  0.83092647  0.16177153  0.00337997  1
  I  I100  1  0.83094763  0.16609877  0.33402033  1
  I  I101  1  0.83087102  0.16581284  0.66326078  1
  I  I102  1  0.83359214  0.49902095  0.00019039  1
  I  I103  1  0.83335421  0.49689131  0.33628284  1
  I  I104  1  0.83259356  0.49615611  0.66225531  1
  I  I105  1  0.83563513  0.83981317  0.00362555  1
  I  I106  1  0.83654563  0.83663410  0.33301338  1
  I  I107  1  0.82977133  0.83695148  0.66351404  1
  I  I108  1  -0.00261139  0.16583082  0.17022455  1
  I  I109  1  -0.00117078  0.16684943  0.49858415  1
  I  I110  1  0.00276858  0.16667252  0.83094362  1
  I  I111  1  0.00257910  0.49631728  0.16695949  1
  I  I112  1  -0.00345491  0.49572254  0.49885023  1
  I  I113  1  0.00041285  0.49764589  0.83372054  1
  I  I114  1  -0.00109142  0.83788145  0.17007008  1
  I  I115  1  -0.00385604  0.83735494  0.49878187  1
  I  I116  1  0.00024998  0.83552688  0.83200401  1
  I  I117  1  0.33544513  0.16673188  0.16780263  1
  I  I118  1  0.33386119  0.16720193  0.50012032  1
  I  I119  1  0.33494926  0.16672970  0.83176840  1
  I  I120  1  0.32997904  0.50280222  0.16610617  1
  I  I121  1  0.33323531  0.49765253  0.49992598  1
  I  I122  1  0.33685325  0.49906214  0.83375981  1
  I  I123  1  0.33117126  0.83347078  0.16306660  1
  I  I124  1  0.33325220  0.83548692  0.49922025  1
  I  I125  1  0.33693677  0.83446600  0.83562634  1
  I  I126  1  0.66716087  0.16187763  0.16882732  1
  I  I127  1  0.66714173  0.16654962  0.50032452  1
  I  I128  1  0.66329094  0.16644215  0.83136562  1
  I  I129  1  0.66655859  0.50113714  0.16599883  1
  I  I130  1  0.66996104  0.49658730  0.49916108  1
  I  I131  1  0.66302081  0.49461601  0.83481737  1
  I  I132  1  0.66973982  0.83695438  0.16926405  1
  I  I133  1  0.67048218  0.83616151  0.49402937  1
  I  I134  1  0.66328389  0.83904739  0.83446679  1
