# generated using pymatgen
data_Cs27Sn14Pb13I81
_symmetry_space_group_name_H-M   'P 1'
_cell_length_a   18.98663376
_cell_length_b   18.97333906
_cell_length_c   18.96753808
_cell_angle_alpha   89.99860985
_cell_angle_beta   90.00161949
_cell_angle_gamma   89.99955961
_symmetry_Int_Tables_number   1
_chemical_formula_structural   Cs27Sn14Pb13I81
_chemical_formula_sum   'Cs27 Sn14 Pb13 I81'
_cell_volume   6832.86287737
_cell_formula_units_Z   1
loop_
 _symmetry_equiv_pos_site_id
 _symmetry_equiv_pos_as_xyz
  1  'x, y, z'
loop_
 _atom_site_type_symbol
 _atom_site_label
 _atom_site_symmetry_multiplicity
 _atom_site_fract_x
 _atom_site_fract_y
 _atom_site_fract_z
 _atom_site_occupancy
  Cs  Cs0  1  -0.00087190  -0.00145620  -0.00051854  1
  Cs  Cs1  1  0.00420520  0.00158009  0.33276475  1
  Cs  Cs2  1  -0.00003708  -0.00112998  0.66707938  1
  Cs  Cs3  1  -0.00265132  0.33635770  -0.00111236  1
  Cs  Cs4  1  -0.00036632  0.32992785  0.34037491  1
  Cs  Cs5  1  0.00182050  0.33248673  0.66033316  1
  Cs  Cs6  1  -0.00108819  0.66578364  -0.00021877  1
  Cs  Cs7  1  -0.00149334  0.66871027  0.32965304  1
  Cs  Cs8  1  0.00202677  0.66922239  0.66905818  1
  Cs  Cs9  1  0.33420073  0.00521415  0.00423557  1
  Cs  Cs10  1  0.33415710  0.00194234  0.32528631  1
  Cs  Cs11  1  0.33451342  -0.00194888  0.66872611  1
  Cs  Cs12  1  0.33576594  0.33386557  0.00061316  1
  Cs  Cs13  1  0.32903271  0.33037954  0.33457327  1
  Cs  Cs14  1  0.32992359  0.33413077  0.66462719  1
  Cs  Cs15  1  0.33136478  0.66289275  -0.00163514  1
  Cs  Cs16  1  0.34067358  0.66844455  0.33475783  1
  Cs  Cs17  1  0.33192765  0.66730036  0.66530141  1
  Cs  Cs18  1  0.66675561  0.00329735  -0.00090756  1
  Cs  Cs19  1  0.66271145  -0.00412036  0.33288770  1
  Cs  Cs20  1  0.66669822  0.00041195  0.66824869  1
  Cs  Cs21  1  0.66641960  0.33389314  -0.00062697  1
  Cs  Cs22  1  0.67033896  0.33634907  0.33692815  1
  Cs  Cs23  1  0.66779607  0.33075092  0.66472540  1
  Cs  Cs24  1  0.66922679  0.66400761  -0.00028180  1
  Cs  Cs25  1  0.66159534  0.66746153  0.33456294  1
  Cs  Cs26  1  0.66593649  0.66831100  0.66612971  1
  Sn  Sn27  1  0.83445071  0.16699463  0.83376600  1
  Sn  Sn28  1  0.50029640  0.49974787  0.16593566  1
  Sn  Sn29  1  0.50004307  0.16654563  0.50011333  1
  Sn  Sn30  1  0.16574276  0.16620931  0.83355645  1
  Sn  Sn31  1  0.16677511  0.83435804  0.83317078  1
  Sn  Sn32  1  0.50089784  0.50067618  0.83360965  1
  Sn  Sn33  1  0.16603054  0.83332709  0.50029723  1
  Sn  Sn34  1  0.83338377  0.49889615  0.16608944  1
  Sn  Sn35  1  0.83265043  0.49976573  0.83329063  1
  Sn  Sn36  1  0.83418056  0.83325728  0.50062635  1
  Sn  Sn37  1  0.16624822  0.50008241  0.16698088  1
  Sn  Sn38  1  0.83322895  0.83328228  0.83273131  1
  Sn  Sn39  1  0.50000673  0.83268247  0.83370073  1
  Sn  Sn40  1  0.83335763  0.16736395  0.16617632  1
  Pb  Pb41  1  0.16640428  0.49997553  0.83427496  1
  Pb  Pb42  1  0.16675800  0.83142295  0.16608446  1
  Pb  Pb43  1  0.50004972  0.49795770  0.50081217  1
  Pb  Pb44  1  0.16401384  0.16906849  0.16407486  1
  Pb  Pb45  1  0.83219226  0.16397222  0.50006050  1
  Pb  Pb46  1  0.50008212  0.83107425  0.16314623  1
  Pb  Pb47  1  0.50016135  0.16731430  0.83242418  1
  Pb  Pb48  1  0.83347054  0.50278075  0.50037683  1
  Pb  Pb49  1  0.50278595  0.16958111  0.16902376  1
  Pb  Pb50  1  0.16653556  0.50306671  0.49682900  1
  Pb  Pb51  1  0.49971009  0.83507114  0.50225210  1
  Pb  Pb52  1  0.83329383  0.83330652  0.16632413  1
  Pb  Pb53  1  0.16873073  0.16386224  0.50235625  1
  I  I54  1  0.16500701  0.00024324  0.16842811  1
  I  I55  1  0.16166257  -0.00386841  0.50245783  1
  I  I56  1  0.16346866  -0.00106414  0.82955845  1
  I  I57  1  0.16971246  0.33693700  0.16317253  1
  I  I58  1  0.16855752  0.33301439  0.50115202  1
  I  I59  1  0.16438816  0.33105648  0.83638030  1
  I  I60  1  0.16279473  0.66332663  0.16326557  1
  I  I61  1  0.16408487  0.67076721  0.50925332  1
  I  I62  1  0.16468308  0.66948513  0.83148539  1
  I  I63  1  0.50106668  0.00040752  0.16715704  1
  I  I64  1  0.50186038  0.00235924  0.50372703  1
  I  I65  1  0.50256019  -0.00231719  0.82900414  1
  I  I66  1  0.49830098  0.33743003  0.15791072  1
  I  I67  1  0.50159813  0.33048628  0.50300655  1
  I  I68  1  0.50297002  0.33638580  0.83637239  1
  I  I69  1  0.50405301  0.66264110  0.16739665  1
  I  I70  1  0.50002130  0.66688918  0.49761365  1
  I  I71  1  0.50299672  0.66653155  0.83620216  1
  I  I72  1  0.83374414  0.00264861  0.16249221  1
  I  I73  1  0.83578535  -0.00364057  0.50540269  1
  I  I74  1  0.83331071  -0.00027429  0.83343995  1
  I  I75  1  0.83249078  0.33448158  0.15771047  1
  I  I76  1  0.83139445  0.33313990  0.50205864  1
  I  I77  1  0.83228805  0.33353365  0.83918780  1
  I  I78  1  0.83339728  0.66324569  0.16303947  1
  I  I79  1  0.83551042  0.67063591  0.50466528  1
  I  I80  1  0.83300066  0.66674397  0.83392649  1
  I  I81  1  0.16698905  0.15849397  -0.00388671  1
  I  I82  1  0.16671942  0.16619708  0.33317898  1
  I  I83  1  0.15990249  0.16728201  0.67049431  1
  I  I84  1  0.16619050  0.50251596  0.00219638  1
  I  I85  1  0.16612133  0.50062493  0.32869062  1
  I  I86  1  0.16734386  0.49794157  0.66680653  1
  I  I87  1  0.16463850  0.83537600  -0.00390939  1
  I  I88  1  0.16059724  0.83047758  0.33606455  1
  I  I89  1  0.16534020  0.83591777  0.66865618  1
  I  I90  1  0.49824193  0.16438364  -0.00000932  1
  I  I91  1  0.50140141  0.16605740  0.33631991  1
  I  I92  1  0.50264238  0.16770754  0.66508514  1
  I  I93  1  0.50127670  0.50404231  -0.00083473  1
  I  I94  1  0.50150296  0.49826143  0.33033917  1
  I  I95  1  0.50523516  0.50317312  0.67044479  1
  I  I96  1  0.50133241  0.83376727  -0.00514337  1
  I  I97  1  0.50024639  0.83277105  0.33342609  1
  I  I98  1  0.50062491  0.82727433  0.67052343  1
  I  I99  1  0.83569606  0.16528295  -0.00183459  1
  I  I100  1  0.83041947  0.17171759  0.33082383  1
  I  I101  1  0.83501552  0.16906777  0.67018882  1
  I  I102  1  0.83257928  0.50181667  -0.00092049  1
  I  I103  1  0.83265191  0.49652899  0.32993986  1
  I  I104  1  0.82790612  0.49743676  0.67053621  1
  I  I105  1  0.83441892  0.83265413  -0.00378373  1
  I  I106  1  0.83833954  0.83345700  0.33599670  1
  I  I107  1  0.83360674  0.83328896  0.66910145  1
  I  I108  1  -0.00379274  0.17225725  0.16572261  1
  I  I109  1  0.00004826  0.16739402  0.49820904  1
  I  I110  1  -0.00138015  0.16342952  0.83672729  1
  I  I111  1  -0.00158106  0.49833898  0.16101724  1
  I  I112  1  -0.00012059  0.49686445  0.50033355  1
  I  I113  1  -0.00306038  0.50287521  0.83850816  1
  I  I114  1  -0.00016801  0.82923550  0.16314110  1
  I  I115  1  -0.00034518  0.83303627  0.50922939  1
  I  I116  1  -0.00065949  0.83339230  0.82949562  1
  I  I117  1  0.33328458  0.16796832  0.16665554  1
  I  I118  1  0.33605056  0.16605624  0.50279633  1
  I  I119  1  0.33122685  0.16322645  0.83000092  1
  I  I120  1  0.33410165  0.50275057  0.16114900  1
  I  I121  1  0.33336762  0.50183113  0.50087450  1
  I  I122  1  0.33572657  0.50290328  0.83790958  1
  I  I123  1  0.33343977  0.83094516  0.16789644  1
  I  I124  1  0.33077302  0.83349132  0.50569441  1
  I  I125  1  0.33291343  0.83235143  0.82889178  1
  I  I126  1  0.67046110  0.17096703  0.15868007  1
  I  I127  1  0.66483610  0.16452322  0.50315414  1
  I  I128  1  0.66975437  0.16414979  0.83537295  1
  I  I129  1  0.66743777  0.49647700  0.16138164  1
  I  I130  1  0.66682360  0.50275480  0.49558227  1
  I  I131  1  0.66749653  0.50331308  0.84095203  1
  I  I132  1  0.66683405  0.83175964  0.16921245  1
  I  I133  1  0.66904043  0.83462284  0.50426276  1
  I  I134  1  0.66773930  0.83263517  0.82954182  1
