# generated using pymatgen
data_Cs27Sn13Pb14I81
_symmetry_space_group_name_H-M   'P 1'
_cell_length_a   18.98019253
_cell_length_b   18.98545363
_cell_length_c   18.96442632
_cell_angle_alpha   90.00069230
_cell_angle_beta   90.00043487
_cell_angle_gamma   90.00045082
_symmetry_Int_Tables_number   1
_chemical_formula_structural   Cs27Sn13Pb14I81
_chemical_formula_sum   'Cs27 Sn13 Pb14 I81'
_cell_volume   6833.78484784
_cell_formula_units_Z   1
loop_
 _symmetry_equiv_pos_site_id
 _symmetry_equiv_pos_as_xyz
  1  'x, y, z'
loop_
 _atom_site_type_symbol
 _atom_site_label
 _atom_site_symmetry_multiplicity
 _atom_site_fract_x
 _atom_site_fract_y
 _atom_site_fract_z
 _atom_site_occupancy
  Cs  Cs0  1  -0.00155466  -0.00138126  -0.00396680  1
  Cs  Cs1  1  -0.00048216  -0.00001968  0.33283159  1
  Cs  Cs2  1  0.00499973  0.00662089  0.67508153  1
  Cs  Cs3  1  -0.00031334  0.33391205  0.00057299  1
  Cs  Cs4  1  -0.00186625  0.33333727  0.33620317  1
  Cs  Cs5  1  0.00473361  0.32516676  0.65792498  1
  Cs  Cs6  1  -0.00220515  0.66812448  0.00144034  1
  Cs  Cs7  1  -0.00270078  0.66572755  0.33084349  1
  Cs  Cs8  1  0.00864101  0.66800320  0.66842989  1
  Cs  Cs9  1  0.33731882  0.00145796  0.00126111  1
  Cs  Cs10  1  0.33540912  -0.00095047  0.33435686  1
  Cs  Cs11  1  0.33004489  -0.00114805  0.66292228  1
  Cs  Cs12  1  0.33522402  0.33445301  -0.00035103  1
  Cs  Cs13  1  0.33255728  0.33013172  0.33065455  1
  Cs  Cs14  1  0.32853943  0.34001703  0.66916183  1
  Cs  Cs15  1  0.33408600  0.66456513  -0.00020987  1
  Cs  Cs16  1  0.33404353  0.66987784  0.33623350  1
  Cs  Cs17  1  0.32964412  0.66097477  0.66031690  1
  Cs  Cs18  1  0.66521583  0.00021580  -0.00119057  1
  Cs  Cs19  1  0.66462493  -0.00108881  0.33235985  1
  Cs  Cs20  1  0.66747119  0.00139039  0.66979280  1
  Cs  Cs21  1  0.66479683  0.33460421  0.00137125  1
  Cs  Cs22  1  0.66848292  0.33198268  0.33376883  1
  Cs  Cs23  1  0.66747228  0.33450181  0.66298044  1
  Cs  Cs24  1  0.66810192  0.66693728  0.00003818  1
  Cs  Cs25  1  0.66789941  0.66824584  0.33443393  1
  Cs  Cs26  1  0.66303833  0.66438492  0.66358788  1
  Sn  Sn27  1  0.16524030  0.16634442  0.16634130  1
  Sn  Sn28  1  0.50010608  0.83220267  0.16584386  1
  Sn  Sn29  1  0.50007749  0.16630165  0.83166130  1
  Sn  Sn30  1  0.49978340  0.83342492  0.83354227  1
  Sn  Sn31  1  0.83423389  0.16640003  0.16638241  1
  Sn  Sn32  1  0.83375221  0.49981366  0.83336316  1
  Sn  Sn33  1  0.50025690  0.50137431  0.16671903  1
  Sn  Sn34  1  0.83319471  0.49993501  0.16591146  1
  Sn  Sn35  1  0.83324494  0.83364390  0.16724435  1
  Sn  Sn36  1  0.16666324  0.83349714  0.16639538  1
  Sn  Sn37  1  0.16654429  0.50016979  0.16647538  1
  Sn  Sn38  1  0.83374038  0.83369270  0.50034072  1
  Sn  Sn39  1  0.50006594  0.16674959  0.50174739  1
  Pb  Pb40  1  0.83154115  0.83150530  0.83316645  1
  Pb  Pb41  1  0.50153937  0.83477079  0.50023879  1
  Pb  Pb42  1  0.16346182  0.49982371  0.83555493  1
  Pb  Pb43  1  0.16991773  0.83317523  0.83576987  1
  Pb  Pb44  1  0.16347148  0.83365787  0.49776428  1
  Pb  Pb45  1  0.16920887  0.16642893  0.49746658  1
  Pb  Pb46  1  0.50151046  0.50036365  0.83505142  1
  Pb  Pb47  1  0.16942737  0.16670294  0.83599419  1
  Pb  Pb48  1  0.83174919  0.16405457  0.49793682  1
  Pb  Pb49  1  0.83351357  0.50226682  0.50020545  1
  Pb  Pb50  1  0.83142118  0.16910262  0.83545796  1
  Pb  Pb51  1  0.50018052  0.16648775  0.16637676  1
  Pb  Pb52  1  0.50013208  0.49739438  0.49695362  1
  Pb  Pb53  1  0.16640400  0.50009765  0.49707963  1
  I  I54  1  0.16544271  -0.00039990  0.16717578  1
  I  I55  1  0.16769420  0.00001524  0.49457123  1
  I  I56  1  0.16365299  -0.00009044  0.83768712  1
  I  I57  1  0.16565501  0.33354046  0.16662405  1
  I  I58  1  0.16643560  0.33312189  0.49611223  1
  I  I59  1  0.17035672  0.33328089  0.83847463  1
  I  I60  1  0.16453179  0.66681975  0.16634006  1
  I  I61  1  0.16823938  0.66701248  0.49781448  1
  I  I62  1  0.16849061  0.66656927  0.83640775  1
  I  I63  1  0.50052070  -0.00250417  0.16626295  1
  I  I64  1  0.50170972  0.00249193  0.49591636  1
  I  I65  1  0.50202812  -0.00047001  0.83888275  1
  I  I66  1  0.50041309  0.33536555  0.16672031  1
  I  I67  1  0.50180793  0.32959912  0.50252876  1
  I  I68  1  0.50184252  0.33099870  0.83361787  1
  I  I69  1  0.50060772  0.66767152  0.16167800  1
  I  I70  1  0.50124522  0.66674591  0.50094565  1
  I  I71  1  0.50286675  0.66939058  0.83929140  1
  I  I72  1  0.83402296  -0.00070665  0.17122194  1
  I  I73  1  0.83066731  -0.00339650  0.49073459  1
  I  I74  1  0.83237784  -0.00000945  0.83551698  1
  I  I75  1  0.83392653  0.33383638  0.16234134  1
  I  I76  1  0.83148248  0.33311007  0.49753413  1
  I  I77  1  0.82941968  0.33662112  0.84303614  1
  I  I78  1  0.83449631  0.66684279  0.16677888  1
  I  I79  1  0.83003011  0.66982708  0.49031032  1
  I  I80  1  0.82981933  0.66400749  0.84284081  1
  I  I81  1  0.16563725  0.16665580  0.00478623  1
  I  I82  1  0.16614594  0.16735741  0.32854050  1
  I  I83  1  0.16527320  0.16660231  0.66673152  1
  I  I84  1  0.16930989  0.50011868  0.00493707  1
  I  I85  1  0.16374574  0.50003846  0.32764721  1
  I  I86  1  0.16607738  0.50022984  0.66689392  1
  I  I87  1  0.16092676  0.83286004  0.00507941  1
  I  I88  1  0.17254603  0.83298227  0.32817941  1
  I  I89  1  0.16620010  0.83336603  0.66672781  1
  I  I90  1  0.50004323  0.16532315  -0.00152671  1
  I  I91  1  0.50004182  0.16689239  0.33440561  1
  I  I92  1  0.50293396  0.15937245  0.66750070  1
  I  I93  1  0.49882928  0.49846768  0.00406162  1
  I  I94  1  0.50289848  0.50438298  0.32807135  1
  I  I95  1  0.50312708  0.50227996  0.66677343  1
  I  I96  1  0.50216539  0.83641587  0.00230251  1
  I  I97  1  0.49874482  0.83197243  0.32969015  1
  I  I98  1  0.50507819  0.83690122  0.66948421  1
  I  I99  1  0.83366137  0.16187857  0.00442053  1
  I  I100  1  0.83337560  0.17137064  0.32888032  1
  I  I101  1  0.83247781  0.16696589  0.66674132  1
  I  I102  1  0.83262433  0.50221163  0.00349060  1
  I  I103  1  0.83364094  0.49856823  0.32907657  1
  I  I104  1  0.82844941  0.50272420  0.66954478  1
  I  I105  1  0.83454348  0.83420686  0.00391478  1
  I  I106  1  0.83079820  0.83152176  0.32968926  1
  I  I107  1  0.82745970  0.83039851  0.66433749  1
  I  I108  1  -0.00054931  0.16693515  0.16727531  1
  I  I109  1  0.00000242  0.16668703  0.49938093  1
  I  I110  1  -0.00008527  0.16722438  0.83347944  1
  I  I111  1  -0.00069588  0.50238844  0.16317378  1
  I  I112  1  -0.00028189  0.49971094  0.49715397  1
  I  I113  1  -0.00425208  0.50244377  0.84251061  1
  I  I114  1  -0.00068138  0.83109068  0.17164615  1
  I  I115  1  -0.00427799  0.83180520  0.49134798  1
  I  I116  1  -0.00008555  0.83182512  0.83426391  1
  I  I117  1  0.33139508  0.16719656  0.16684186  1
  I  I118  1  0.33707225  0.16425163  0.49907251  1
  I  I119  1  0.33763777  0.16324007  0.83410645  1
  I  I120  1  0.33355938  0.50102516  0.16734183  1
  I  I121  1  0.33348910  0.50085778  0.49833427  1
  I  I122  1  0.33335457  0.49917418  0.83635843  1
  I  I123  1  0.33398700  0.83171598  0.16201926  1
  I  I124  1  0.33329932  0.83498279  0.49785084  1
  I  I125  1  0.33807026  0.83728795  0.84070536  1
  I  I126  1  0.66893503  0.16692871  0.16671961  1
  I  I127  1  0.66385967  0.16596886  0.49872107  1
  I  I128  1  0.66343982  0.16274178  0.83504265  1
  I  I129  1  0.66725275  0.50146625  0.16319991  1
  I  I130  1  0.66675316  0.49986579  0.49560518  1
  I  I131  1  0.66914125  0.50026055  0.84302901  1
  I  I132  1  0.66676006  0.83167770  0.16690822  1
  I  I133  1  0.66911958  0.83379443  0.49062185  1
  I  I134  1  0.66363681  0.83667047  0.84170677  1
