# generated using pymatgen
data_Cs27Sn13Pb14I81
_symmetry_space_group_name_H-M   'P 1'
_cell_length_a   18.98510506
_cell_length_b   18.97645031
_cell_length_c   18.97132764
_cell_angle_alpha   89.99739806
_cell_angle_beta   89.99838192
_cell_angle_gamma   89.99916039
_symmetry_Int_Tables_number   1
_chemical_formula_structural   Cs27Sn13Pb14I81
_chemical_formula_sum   'Cs27 Sn13 Pb14 I81'
_cell_volume   6834.79835336
_cell_formula_units_Z   1
loop_
 _symmetry_equiv_pos_site_id
 _symmetry_equiv_pos_as_xyz
  1  'x, y, z'
loop_
 _atom_site_type_symbol
 _atom_site_label
 _atom_site_symmetry_multiplicity
 _atom_site_fract_x
 _atom_site_fract_y
 _atom_site_fract_z
 _atom_site_occupancy
  Cs  Cs0  1  -0.00130606  0.00143139  -0.00143640  1
  Cs  Cs1  1  0.00063816  0.00046033  0.33265970  1
  Cs  Cs2  1  -0.00153654  -0.00195582  0.66923750  1
  Cs  Cs3  1  0.00050864  0.33313734  0.00100785  1
  Cs  Cs4  1  0.00602054  0.34045228  0.33788414  1
  Cs  Cs5  1  -0.00039309  0.33428815  0.66495895  1
  Cs  Cs6  1  -0.00082583  0.66538059  -0.00225463  1
  Cs  Cs7  1  -0.00027814  0.66292542  0.33333413  1
  Cs  Cs8  1  0.00116576  0.66820208  0.66860195  1
  Cs  Cs9  1  0.33484572  -0.00235309  0.00155076  1
  Cs  Cs10  1  0.33161503  -0.00075957  0.33267141  1
  Cs  Cs11  1  0.33451238  0.00300257  0.66674143  1
  Cs  Cs12  1  0.33192780  0.33321271  -0.00121481  1
  Cs  Cs13  1  0.32641671  0.33261095  0.33265858  1
  Cs  Cs14  1  0.33597541  0.33096624  0.66829944  1
  Cs  Cs15  1  0.33843803  0.66945832  -0.00226791  1
  Cs  Cs16  1  0.33531444  0.66812305  0.33440059  1
  Cs  Cs17  1  0.33315860  0.66613503  0.66670110  1
  Cs  Cs18  1  0.66799585  -0.00020107  0.00279989  1
  Cs  Cs19  1  0.66693663  -0.00091113  0.33193581  1
  Cs  Cs20  1  0.66756209  0.00456754  0.66597239  1
  Cs  Cs21  1  0.66730502  0.33307405  -0.00053200  1
  Cs  Cs22  1  0.66896009  0.33466962  0.33345313  1
  Cs  Cs23  1  0.66514190  0.32920784  0.66694709  1
  Cs  Cs24  1  0.66368927  0.66733685  0.00029671  1
  Cs  Cs25  1  0.66554676  0.66665846  0.33288212  1
  Cs  Cs26  1  0.66572235  0.66667074  0.66724922  1
  Sn  Sn27  1  0.50018071  0.83285607  0.49980910  1
  Sn  Sn28  1  0.50014309  0.50015178  0.49902954  1
  Sn  Sn29  1  0.16592286  0.49921791  0.83349582  1
  Sn  Sn30  1  0.83327702  0.16676013  0.16674736  1
  Sn  Sn31  1  0.16531949  0.83308968  0.16713722  1
  Sn  Sn32  1  0.83434066  0.16782652  0.83425885  1
  Sn  Sn33  1  0.50004882  0.49859335  0.16765410  1
  Sn  Sn34  1  0.83389230  0.49913642  0.83347504  1
  Sn  Sn35  1  0.50059141  0.16799517  0.16695970  1
  Sn  Sn36  1  0.83339126  0.83333604  0.49898556  1
  Sn  Sn37  1  0.16642824  0.83329807  0.49912963  1
  Sn  Sn38  1  0.16572859  0.16740854  0.83358508  1
  Sn  Sn39  1  0.83449461  0.83370345  0.16752337  1
  Pb  Pb40  1  0.50021709  0.49985331  0.83311620  1
  Pb  Pb41  1  0.83186382  0.49994109  0.16506695  1
  Pb  Pb42  1  0.50003113  0.16701329  0.49685162  1
  Pb  Pb43  1  0.50021181  0.83364259  0.82981289  1
  Pb  Pb44  1  0.83313518  0.83369133  0.83383599  1
  Pb  Pb45  1  0.16646118  0.16430480  0.50278543  1
  Pb  Pb46  1  0.16587831  0.16494161  0.16497690  1
  Pb  Pb47  1  0.50044566  0.16661671  0.83604621  1
  Pb  Pb48  1  0.83128330  0.50240347  0.50254043  1
  Pb  Pb49  1  0.16665475  0.83357206  0.83356164  1
  Pb  Pb50  1  0.16890686  0.50218587  0.50236573  1
  Pb  Pb51  1  0.16916144  0.50278020  0.16442903  1
  Pb  Pb52  1  0.50039812  0.83343153  0.16836585  1
  Pb  Pb53  1  0.83358554  0.16492596  0.49933979  1
  I  I54  1  0.16856710  -0.00318814  0.16786082  1
  I  I55  1  0.17035190  -0.00443884  0.49844382  1
  I  I56  1  0.16175455  0.00262216  0.83291065  1
  I  I57  1  0.16582791  0.33349562  0.16658160  1
  I  I58  1  0.16867134  0.33366974  0.49914840  1
  I  I59  1  0.16304163  0.33323852  0.83459028  1
  I  I60  1  0.16226879  0.67074443  0.16851762  1
  I  I61  1  0.16504627  0.67049937  0.49903903  1
  I  I62  1  0.16284697  0.66425507  0.83274355  1
  I  I63  1  0.50117365  0.00197182  0.16633417  1
  I  I64  1  0.49982304  -0.00313564  0.49969572  1
  I  I65  1  0.49896429  0.00034584  0.83400986  1
  I  I66  1  0.50612499  0.33330883  0.17104987  1
  I  I67  1  0.50050697  0.33634939  0.49974895  1
  I  I68  1  0.49953232  0.33332288  0.82845089  1
  I  I69  1  0.49972077  0.66476587  0.16777975  1
  I  I70  1  0.50011217  0.66732080  0.49401588  1
  I  I71  1  0.49992604  0.66638722  0.83919152  1
  I  I72  1  0.83022296  -0.00008776  0.16390675  1
  I  I73  1  0.83000457  -0.00395119  0.50174752  1
  I  I74  1  0.83773057  0.00303338  0.83401259  1
  I  I75  1  0.82885290  0.33051481  0.16191664  1
  I  I76  1  0.83066197  0.33362724  0.49873357  1
  I  I77  1  0.83677840  0.33245654  0.83927029  1
  I  I78  1  0.83466249  0.66962267  0.16871003  1
  I  I79  1  0.83479910  0.67075687  0.49552805  1
  I  I80  1  0.83723666  0.66425532  0.83255534  1
  I  I81  1  0.16570667  0.16730884  -0.00304975  1
  I  I82  1  0.16713572  0.16616140  0.33306125  1
  I  I83  1  0.16154915  0.16804458  0.67104026  1
  I  I84  1  0.16513648  0.49902202  -0.00342654  1
  I  I85  1  0.16632372  0.49945068  0.33329780  1
  I  I86  1  0.16501465  0.49921212  0.67027072  1
  I  I87  1  0.16180306  0.83366016  0.00276747  1
  I  I88  1  0.16689059  0.83413391  0.33350947  1
  I  I89  1  0.16690058  0.83297786  0.66379176  1
  I  I90  1  0.50139505  0.17175781  0.00388723  1
  I  I91  1  0.50675486  0.16623432  0.32904906  1
  I  I92  1  0.50015851  0.16565418  0.66660594  1
  I  I93  1  0.50001704  0.49678700  0.00261986  1
  I  I94  1  0.50136823  0.50196260  0.33314963  1
  I  I95  1  0.49964082  0.50735014  0.66402762  1
  I  I96  1  0.49916593  0.83195417  0.00063393  1
  I  I97  1  0.49994256  0.83189226  0.33627912  1
  I  I98  1  0.49950280  0.82624483  0.66123621  1
  I  I99  1  0.83243396  0.16323446  0.00019912  1
  I  I100  1  0.82716711  0.16195911  0.32967763  1
  I  I101  1  0.83661905  0.16801802  0.66980238  1
  I  I102  1  0.83403985  0.50164108  -0.00304179  1
  I  I103  1  0.83288880  0.49823209  0.33334759  1
  I  I104  1  0.83474841  0.49611049  0.67056429  1
  I  I105  1  0.83817714  0.83469617  0.00327416  1
  I  I106  1  0.83311043  0.83896151  0.33267354  1
  I  I107  1  0.83337889  0.83260903  0.66389414  1
  I  I108  1  -0.00316314  0.16139305  0.16245920  1
  I  I109  1  -0.00004350  0.16403916  0.49642879  1
  I  I110  1  -0.00108094  0.16971857  0.83931322  1
  I  I111  1  0.00012547  0.49883917  0.16641621  1
  I  I112  1  0.00005040  0.50179423  0.49989005  1
  I  I113  1  -0.00025165  0.49701566  0.83393838  1
  I  I114  1  -0.00102873  0.83887530  0.17382687  1
  I  I115  1  -0.00015066  0.83544058  0.49677981  1
  I  I116  1  -0.00010802  0.83248326  0.82847927  1
  I  I117  1  0.33547434  0.16772902  0.16538538  1
  I  I118  1  0.33339392  0.16305894  0.50114313  1
  I  I119  1  0.33060932  0.17008121  0.83333126  1
  I  I120  1  0.33708828  0.49620405  0.16820843  1
  I  I121  1  0.33673828  0.50701505  0.49840466  1
  I  I122  1  0.33083050  0.49693998  0.83315657  1
  I  I123  1  0.33152996  0.83343200  0.16937959  1
  I  I124  1  0.33333265  0.82927731  0.49648985  1
  I  I125  1  0.33303925  0.83280179  0.83557402  1
  I  I126  1  0.66775014  0.16319148  0.16070043  1
  I  I127  1  0.66674488  0.16319338  0.50574128  1
  I  I128  1  0.67012538  0.17028798  0.83453756  1
  I  I129  1  0.66379963  0.50208453  0.16712270  1
  I  I130  1  0.66341755  0.50702156  0.49855113  1
  I  I131  1  0.66934476  0.49658248  0.83323097  1
  I  I132  1  0.66932424  0.83463424  0.16965193  1
  I  I133  1  0.66681602  0.82942459  0.49625248  1
  I  I134  1  0.66706061  0.83193996  0.83454836  1
