# generated using pymatgen
data_Cs27Sn14Pb13I81
_symmetry_space_group_name_H-M   'P 1'
_cell_length_a   18.97086082
_cell_length_b   18.98137315
_cell_length_c   18.97549625
_cell_angle_alpha   90.00029846
_cell_angle_beta   89.99977021
_cell_angle_gamma   90.00295200
_symmetry_Int_Tables_number   1
_chemical_formula_structural   Cs27Sn14Pb13I81
_chemical_formula_sum   'Cs27 Sn14 Pb13 I81'
_cell_volume   6832.94313544
_cell_formula_units_Z   1
loop_
 _symmetry_equiv_pos_site_id
 _symmetry_equiv_pos_as_xyz
  1  'x, y, z'
loop_
 _atom_site_type_symbol
 _atom_site_label
 _atom_site_symmetry_multiplicity
 _atom_site_fract_x
 _atom_site_fract_y
 _atom_site_fract_z
 _atom_site_occupancy
  Cs  Cs0  1  0.00272549  0.00127621  -0.00233389  1
  Cs  Cs1  1  -0.00239810  0.00039587  0.33260068  1
  Cs  Cs2  1  0.00043269  0.00437992  0.66980434  1
  Cs  Cs3  1  0.00144762  0.33326066  -0.00193816  1
  Cs  Cs4  1  -0.00014103  0.33373204  0.33290561  1
  Cs  Cs5  1  0.00006851  0.33041674  0.66907676  1
  Cs  Cs6  1  0.00015650  0.66521065  0.00273995  1
  Cs  Cs7  1  -0.00051798  0.66649559  0.33281061  1
  Cs  Cs8  1  -0.00049261  0.66555997  0.66039286  1
  Cs  Cs9  1  0.33023767  -0.00087064  -0.00384403  1
  Cs  Cs10  1  0.33554797  0.00225280  0.33532961  1
  Cs  Cs11  1  0.33613139  -0.00846127  0.67168514  1
  Cs  Cs12  1  0.33059373  0.33209639  0.00178015  1
  Cs  Cs13  1  0.33450133  0.33206566  0.33406311  1
  Cs  Cs14  1  0.33489365  0.33684119  0.66321690  1
  Cs  Cs15  1  0.33338674  0.66797832  -0.00058799  1
  Cs  Cs16  1  0.32834229  0.66635354  0.33880990  1
  Cs  Cs17  1  0.34097001  0.67109762  0.66001405  1
  Cs  Cs18  1  0.66676746  0.00009127  0.00179480  1
  Cs  Cs19  1  0.66754646  0.00226500  0.33265054  1
  Cs  Cs20  1  0.66589492  -0.00191223  0.66532687  1
  Cs  Cs21  1  0.66579290  0.33454251  -0.00087932  1
  Cs  Cs22  1  0.66634240  0.33019689  0.33181526  1
  Cs  Cs23  1  0.66420684  0.33644029  0.67171294  1
  Cs  Cs24  1  0.66658706  0.66578282  0.00019242  1
  Cs  Cs25  1  0.67134878  0.66740030  0.32932120  1
  Cs  Cs26  1  0.66073268  0.66652366  0.67170212  1
  Sn  Sn27  1  0.49970315  0.50091563  0.16679245  1
  Sn  Sn28  1  0.83286003  0.83350631  0.16645010  1
  Sn  Sn29  1  0.83425473  0.16689545  0.16684990  1
  Sn  Sn30  1  0.50029872  0.83259449  0.16687785  1
  Sn  Sn31  1  0.16574444  0.16729905  0.16757530  1
  Sn  Sn32  1  0.83395823  0.16712198  0.49935181  1
  Sn  Sn33  1  0.83397620  0.83316508  0.83360672  1
  Sn  Sn34  1  0.83337319  0.49953317  0.16711808  1
  Sn  Sn35  1  0.16609452  0.16641849  0.49930243  1
  Sn  Sn36  1  0.50010414  0.16688541  0.83357388  1
  Sn  Sn37  1  0.83313129  0.49939074  0.49945782  1
  Sn  Sn38  1  0.83343899  0.83345515  0.50016080  1
  Sn  Sn39  1  0.16673632  0.49921053  0.16587612  1
  Sn  Sn40  1  0.16671584  0.50070890  0.83328703  1
  Pb  Pb41  1  0.83192591  0.16503816  0.83342104  1
  Pb  Pb42  1  0.83491422  0.50211126  0.83350080  1
  Pb  Pb43  1  0.49720676  0.49869520  0.83585561  1
  Pb  Pb44  1  0.16434855  0.82991261  0.83322542  1
  Pb  Pb45  1  0.50220286  0.83485437  0.83605613  1
  Pb  Pb46  1  0.49974178  0.16652495  0.16551565  1
  Pb  Pb47  1  0.16462453  0.49815092  0.49944568  1
  Pb  Pb48  1  0.50316420  0.49994600  0.49689632  1
  Pb  Pb49  1  0.50029857  0.16660345  0.50258670  1
  Pb  Pb50  1  0.16414663  0.83656209  0.49987176  1
  Pb  Pb51  1  0.50278508  0.83331145  0.49674008  1
  Pb  Pb52  1  0.16651214  0.83353540  0.16677157  1
  Pb  Pb53  1  0.16866825  0.16827565  0.83301789  1
  I  I54  1  0.16312043  0.00332475  0.17029919  1
  I  I55  1  0.16080484  0.00464684  0.49307139  1
  I  I56  1  0.16763356  0.00008042  0.83388801  1
  I  I57  1  0.16349020  0.33349480  0.16608002  1
  I  I58  1  0.15950396  0.33029749  0.49858488  1
  I  I59  1  0.16465869  0.33587729  0.83721209  1
  I  I60  1  0.16360054  0.66346061  0.16228249  1
  I  I61  1  0.16453634  0.66650018  0.49965268  1
  I  I62  1  0.16531064  0.66230967  0.84354553  1
  I  I63  1  0.50553045  -0.00210661  0.16513379  1
  I  I64  1  0.50221957  0.00004018  0.49716491  1
  I  I65  1  0.49924985  0.00246243  0.83619087  1
  I  I66  1  0.50314560  0.33579543  0.16472926  1
  I  I67  1  0.50335055  0.33325804  0.49820078  1
  I  I68  1  0.50287737  0.33109877  0.83608617  1
  I  I69  1  0.50583484  0.66613738  0.16513386  1
  I  I70  1  0.49965353  0.66658775  0.50413634  1
  I  I71  1  0.50011112  0.66670601  0.83288115  1
  I  I72  1  0.83212843  0.00006121  0.16916448  1
  I  I73  1  0.83656442  0.00034330  0.49631467  1
  I  I74  1  0.83216604  -0.00288701  0.83488820  1
  I  I75  1  0.83315515  0.33351767  0.17291065  1
  I  I76  1  0.83715196  0.33281145  0.49187429  1
  I  I77  1  0.83271270  0.33345686  0.83325784  1
  I  I78  1  0.83296159  0.66634441  0.16881528  1
  I  I79  1  0.83327666  0.66663668  0.49552208  1
  I  I80  1  0.83375581  0.66994273  0.83482612  1
  I  I81  1  0.16299917  0.16878773  0.00310481  1
  I  I82  1  0.16250824  0.17248084  0.33190487  1
  I  I83  1  0.16064375  0.16858200  0.66390923  1
  I  I84  1  0.16362095  0.49372087  0.00285894  1
  I  I85  1  0.16771852  0.49826397  0.32974982  1
  I  I86  1  0.16203968  0.49689768  0.66840423  1
  I  I87  1  0.16321183  0.83873783  0.00026616  1
  I  I88  1  0.16543194  0.82813391  0.33310395  1
  I  I89  1  0.16375692  0.83382663  0.66658126  1
  I  I90  1  0.50101653  0.16656947  -0.00169007  1
  I  I91  1  0.50008949  0.16642691  0.33315710  1
  I  I92  1  0.50118053  0.16689961  0.66994729  1
  I  I93  1  0.50682884  0.50260840  0.00412118  1
  I  I94  1  0.49501207  0.50166189  0.32853443  1
  I  I95  1  0.49994957  0.49786059  0.66669615  1
  I  I96  1  0.50778908  0.83015814  0.00375864  1
  I  I97  1  0.50647050  0.83148316  0.32886698  1
  I  I98  1  0.50163243  0.83538153  0.66671638  1
  I  I99  1  0.83593529  0.16677713  0.00350400  1
  I  I100  1  0.83594762  0.16320947  0.33221678  1
  I  I101  1  0.83671473  0.16620936  0.66351419  1
  I  I102  1  0.83177912  0.49991336  0.00373405  1
  I  I103  1  0.83524318  0.50386639  0.33156801  1
  I  I104  1  0.83705631  0.49934766  0.66388048  1
  I  I105  1  0.82927171  0.83318726  0.00181912  1
  I  I106  1  0.82948173  0.83354235  0.33243414  1
  I  I107  1  0.83607226  0.83435879  0.66577570  1
  I  I108  1  -0.00110647  0.16906923  0.16922713  1
  I  I109  1  -0.00167376  0.16623017  0.49611766  1
  I  I110  1  0.00001929  0.16584032  0.83358903  1
  I  I111  1  -0.00092625  0.49993187  0.16659336  1
  I  I112  1  -0.00376529  0.50312702  0.49371823  1
  I  I113  1  0.00243723  0.49865450  0.84097348  1
  I  I114  1  -0.00384452  0.83107748  0.16787835  1
  I  I115  1  -0.00473548  0.83005846  0.49460259  1
  I  I116  1  -0.00402079  0.83625135  0.83779001  1
  I  I117  1  0.33048880  0.17021522  0.16917923  1
  I  I118  1  0.33029646  0.16923162  0.49433000  1
  I  I119  1  0.33589882  0.16734039  0.83654162  1
  I  I120  1  0.33266020  0.49877974  0.16050449  1
  I  I121  1  0.33320320  0.49706323  0.49956298  1
  I  I122  1  0.32957242  0.49700409  0.84042457  1
  I  I123  1  0.33605156  0.83098130  0.16450149  1
  I  I124  1  0.33346283  0.83490023  0.49963087  1
  I  I125  1  0.33358577  0.83524841  0.83580260  1
  I  I126  1  0.66985126  0.16813168  0.16958041  1
  I  I127  1  0.67064900  0.16547286  0.49468976  1
  I  I128  1  0.66449445  0.16656850  0.83538304  1
  I  I129  1  0.66812208  0.50027412  0.17122088  1
  I  I130  1  0.67175748  0.49710385  0.49544948  1
  I  I131  1  0.66664765  0.49993685  0.83324597  1
  I  I132  1  0.66903053  0.83074005  0.16695630  1
  I  I133  1  0.67157222  0.83696352  0.50156561  1
  I  I134  1  0.67032983  0.83267863  0.83130866  1
