# generated using pymatgen
data_Cs27Sn13Pb14I81
_symmetry_space_group_name_H-M   'P 1'
_cell_length_a   18.97865653
_cell_length_b   18.98138408
_cell_length_c   18.97157843
_cell_angle_alpha   89.99754944
_cell_angle_beta   89.99971380
_cell_angle_gamma   90.00085800
_symmetry_Int_Tables_number   1
_chemical_formula_structural   Cs27Sn13Pb14I81
_chemical_formula_sum   'Cs27 Sn13 Pb14 I81'
_cell_volume   6834.34358351
_cell_formula_units_Z   1
loop_
 _symmetry_equiv_pos_site_id
 _symmetry_equiv_pos_as_xyz
  1  'x, y, z'
loop_
 _atom_site_type_symbol
 _atom_site_label
 _atom_site_symmetry_multiplicity
 _atom_site_fract_x
 _atom_site_fract_y
 _atom_site_fract_z
 _atom_site_occupancy
  Cs  Cs0  1  0.00213476  -0.00009324  -0.00095212  1
  Cs  Cs1  1  -0.00203458  -0.00051344  0.33224924  1
  Cs  Cs2  1  0.00292468  0.00050120  0.66646055  1
  Cs  Cs3  1  -0.00057056  0.33065896  -0.00002771  1
  Cs  Cs4  1  0.00240517  0.33406138  0.33342381  1
  Cs  Cs5  1  -0.00835553  0.33168863  0.66373940  1
  Cs  Cs6  1  -0.00125299  0.66789884  0.00197330  1
  Cs  Cs7  1  0.00075576  0.66617624  0.33475400  1
  Cs  Cs8  1  0.00229126  0.66699935  0.65673908  1
  Cs  Cs9  1  0.33087828  0.00307926  -0.00044450  1
  Cs  Cs10  1  0.34262646  0.00521409  0.33412067  1
  Cs  Cs11  1  0.32972627  -0.00237359  0.66744776  1
  Cs  Cs12  1  0.33295167  0.33407578  0.00035698  1
  Cs  Cs13  1  0.33183951  0.33186646  0.33404041  1
  Cs  Cs14  1  0.33472194  0.33530902  0.66658694  1
  Cs  Cs15  1  0.33430737  0.66535960  -0.00067203  1
  Cs  Cs16  1  0.33244467  0.66632131  0.33477600  1
  Cs  Cs17  1  0.33048351  0.66646580  0.66741595  1
  Cs  Cs18  1  0.66604443  -0.00476957  0.00148691  1
  Cs  Cs19  1  0.66039547  0.00085991  0.33981700  1
  Cs  Cs20  1  0.66717876  0.00205598  0.66007955  1
  Cs  Cs21  1  0.66773321  0.33573993  -0.00216417  1
  Cs  Cs22  1  0.66586892  0.33068913  0.33437140  1
  Cs  Cs23  1  0.67133960  0.33134893  0.66780093  1
  Cs  Cs24  1  0.66689342  0.66681484  0.00032730  1
  Cs  Cs25  1  0.66654439  0.67029603  0.33128477  1
  Cs  Cs26  1  0.66830796  0.66578163  0.66913583  1
  Sn  Sn27  1  0.50068886  0.83340983  0.83368547  1
  Sn  Sn28  1  0.16635795  0.49987379  0.83380803  1
  Sn  Sn29  1  0.49987454  0.50001096  0.16691121  1
  Sn  Sn30  1  0.83391967  0.83363091  0.16596819  1
  Sn  Sn31  1  0.50030574  0.50030626  0.50025365  1
  Sn  Sn32  1  0.83349539  0.49986807  0.16632067  1
  Sn  Sn33  1  0.83295567  0.16620130  0.16632634  1
  Sn  Sn34  1  0.83307457  0.83291464  0.83374557  1
  Sn  Sn35  1  0.16666356  0.83295212  0.16667424  1
  Sn  Sn36  1  0.49996087  0.16658585  0.83375530  1
  Sn  Sn37  1  0.16666208  0.16679543  0.50008776  1
  Sn  Sn38  1  0.49946795  0.49999525  0.83317038  1
  Sn  Sn39  1  0.16664891  0.50077588  0.16564127  1
  Pb  Pb40  1  0.83383017  0.50197775  0.83495678  1
  Pb  Pb41  1  0.16702059  0.83589976  0.49629072  1
  Pb  Pb42  1  0.83042070  0.50009154  0.49682541  1
  Pb  Pb43  1  0.83336225  0.83328783  0.49973017  1
  Pb  Pb44  1  0.49986144  0.83072621  0.50338285  1
  Pb  Pb45  1  0.83544445  0.16662628  0.49748950  1
  Pb  Pb46  1  0.49836483  0.16898194  0.50278975  1
  Pb  Pb47  1  0.16818377  0.16962814  0.83153162  1
  Pb  Pb48  1  0.16508538  0.16671700  0.16780684  1
  Pb  Pb49  1  0.83118992  0.16380699  0.83540213  1
  Pb  Pb50  1  0.16637068  0.83106800  0.83515857  1
  Pb  Pb51  1  0.50225048  0.16925181  0.16463625  1
  Pb  Pb52  1  0.49976719  0.83152244  0.16498720  1
  Pb  Pb53  1  0.16830639  0.49868900  0.49983256  1
  I  I54  1  0.16070512  -0.00266789  0.16752580  1
  I  I55  1  0.16685146  0.00328838  0.50017579  1
  I  I56  1  0.16864174  -0.00015280  0.83398276  1
  I  I57  1  0.16642653  0.33674759  0.16482065  1
  I  I58  1  0.16880987  0.33132240  0.49703006  1
  I  I59  1  0.17343111  0.33769463  0.84074052  1
  I  I60  1  0.16256159  0.66511634  0.16342681  1
  I  I61  1  0.16756190  0.66654616  0.50137884  1
  I  I62  1  0.17364603  0.66309913  0.83533188  1
  I  I63  1  0.49958703  0.00001106  0.16476108  1
  I  I64  1  0.49914485  0.00018554  0.50026963  1
  I  I65  1  0.50483580  -0.00063938  0.83486687  1
  I  I66  1  0.49894297  0.33786801  0.16418254  1
  I  I67  1  0.49858764  0.33683712  0.50033203  1
  I  I68  1  0.49500399  0.33516399  0.83412762  1
  I  I69  1  0.50368313  0.66285335  0.16393340  1
  I  I70  1  0.49834959  0.66260405  0.49984390  1
  I  I71  1  0.50036162  0.66546185  0.83414772  1
  I  I72  1  0.84005694  -0.00126314  0.16174053  1
  I  I73  1  0.83271664  0.00001881  0.49728407  1
  I  I74  1  0.82881041  -0.00404857  0.84043404  1
  I  I75  1  0.83280186  0.33455055  0.16736524  1
  I  I76  1  0.83324829  0.33347857  0.49888821  1
  I  I77  1  0.83216250  0.33352969  0.83551661  1
  I  I78  1  0.83340657  0.66653203  0.16268909  1
  I  I79  1  0.83415627  0.66650125  0.49830330  1
  I  I80  1  0.82646235  0.66963919  0.84114798  1
  I  I81  1  0.16686255  0.16601842  -0.00002110  1
  I  I82  1  0.16637120  0.16961623  0.33534994  1
  I  I83  1  0.16837617  0.16864773  0.66402722  1
  I  I84  1  0.17240021  0.50245474  0.00128485  1
  I  I85  1  0.16719406  0.50197580  0.32975201  1
  I  I86  1  0.17335771  0.49925148  0.66935300  1
  I  I87  1  0.16488461  0.83156315  0.00329590  1
  I  I88  1  0.15917243  0.82467731  0.32824470  1
  I  I89  1  0.16614374  0.83196193  0.66680548  1
  I  I90  1  0.49907463  0.16957473  -0.00322886  1
  I  I91  1  0.50043416  0.16829502  0.33327492  1
  I  I92  1  0.50003026  0.16927695  0.67059778  1
  I  I93  1  0.49937826  0.50019693  -0.00030029  1
  I  I94  1  0.50017071  0.49972612  0.33199650  1
  I  I95  1  0.49372364  0.50057885  0.66848958  1
  I  I96  1  0.50174890  0.82972464  -0.00318092  1
  I  I97  1  0.50054479  0.83169118  0.33316822  1
  I  I98  1  0.50557021  0.83115671  0.67175691  1
  I  I99  1  0.83452290  0.17023524  0.00348760  1
  I  I100  1  0.83262779  0.16571082  0.32906232  1
  I  I101  1  0.83313015  0.16590388  0.66691707  1
  I  I102  1  0.82892736  0.49911096  0.00366230  1
  I  I103  1  0.83500067  0.50285370  0.32796606  1
  I  I104  1  0.83377522  0.50144589  0.66678501  1
  I  I105  1  0.83214907  0.83233009  0.00137607  1
  I  I106  1  0.83795769  0.83167599  0.32907422  1
  I  I107  1  0.82776650  0.83240752  0.67002633  1
  I  I108  1  -0.00291803  0.17122216  0.16712869  1
  I  I109  1  0.00297583  0.16950906  0.50043227  1
  I  I110  1  -0.00014559  0.16716372  0.83266186  1
  I  I111  1  0.00033549  0.50058097  0.16180326  1
  I  I112  1  0.00006324  0.49861536  0.50069646  1
  I  I113  1  0.00268360  0.50116903  0.83935432  1
  I  I114  1  -0.00103865  0.82846304  0.16116942  1
  I  I115  1  0.00025575  0.83244449  0.50459565  1
  I  I116  1  -0.00257583  0.83190216  0.83776805  1
  I  I117  1  0.33351965  0.16637842  0.16740850  1
  I  I118  1  0.33097427  0.16808379  0.49695624  1
  I  I119  1  0.33652673  0.16313292  0.83436075  1
  I  I120  1  0.33329628  0.50446023  0.16532840  1
  I  I121  1  0.33625426  0.49859222  0.49659703  1
  I  I122  1  0.33500138  0.50176616  0.83813197  1
  I  I123  1  0.33084416  0.82762008  0.16517640  1
  I  I124  1  0.33343004  0.83326014  0.49972107  1
  I  I125  1  0.33606083  0.83331927  0.83461074  1
  I  I126  1  0.67014764  0.16609730  0.16588543  1
  I  I127  1  0.66645919  0.16749794  0.49962518  1
  I  I128  1  0.66317774  0.17429625  0.83385138  1
  I  I129  1  0.66647012  0.50001188  0.16607215  1
  I  I130  1  0.66237426  0.49882291  0.50276202  1
  I  I131  1  0.66344105  0.49887870  0.83447522  1
  I  I132  1  0.66941470  0.83110743  0.16368300  1
  I  I133  1  0.66647119  0.83390905  0.49480840  1
  I  I134  1  0.66613347  0.83024798  0.84037063  1
