# generated using pymatgen
data_Cs27Sn13Pb14I81
_symmetry_space_group_name_H-M   'P 1'
_cell_length_a   18.97679989
_cell_length_b   18.97676407
_cell_length_c   18.97643379
_cell_angle_alpha   90.00157048
_cell_angle_beta   90.00104209
_cell_angle_gamma   90.00093426
_symmetry_Int_Tables_number   1
_chemical_formula_structural   Cs27Sn13Pb14I81
_chemical_formula_sum   'Cs27 Sn13 Pb14 I81'
_cell_volume   6833.76020591
_cell_formula_units_Z   1
loop_
 _symmetry_equiv_pos_site_id
 _symmetry_equiv_pos_as_xyz
  1  'x, y, z'
loop_
 _atom_site_type_symbol
 _atom_site_label
 _atom_site_symmetry_multiplicity
 _atom_site_fract_x
 _atom_site_fract_y
 _atom_site_fract_z
 _atom_site_occupancy
  Cs  Cs0  1  0.00254045  0.00307981  -0.00092940  1
  Cs  Cs1  1  0.00113077  -0.00166546  0.33408032  1
  Cs  Cs2  1  -0.00135111  0.00030949  0.66612372  1
  Cs  Cs3  1  0.00238023  0.33487867  0.00026553  1
  Cs  Cs4  1  -0.00406294  0.33065059  0.33044040  1
  Cs  Cs5  1  0.00239374  0.33142523  0.66992098  1
  Cs  Cs6  1  -0.00263536  0.66271409  -0.00205626  1
  Cs  Cs7  1  0.00181493  0.66902372  0.33487153  1
  Cs  Cs8  1  0.00128052  0.66628775  0.66643133  1
  Cs  Cs9  1  0.33260283  -0.00115988  0.00607522  1
  Cs  Cs10  1  0.33223626  0.00009770  0.32499937  1
  Cs  Cs11  1  0.33304346  0.00053994  0.66879127  1
  Cs  Cs12  1  0.32938994  0.33378006  -0.00120863  1
  Cs  Cs13  1  0.34008572  0.33588699  0.33509274  1
  Cs  Cs14  1  0.33248642  0.33476854  0.66551335  1
  Cs  Cs15  1  0.33836763  0.66797219  0.00330262  1
  Cs  Cs16  1  0.32737160  0.66501587  0.33302378  1
  Cs  Cs17  1  0.33131987  0.66502673  0.66387587  1
  Cs  Cs18  1  0.66393492  -0.00230043  -0.00191710  1
  Cs  Cs19  1  0.66649876  0.00285327  0.33427577  1
  Cs  Cs20  1  0.66815037  -0.00104344  0.66719101  1
  Cs  Cs21  1  0.66871983  0.33642312  0.00148623  1
  Cs  Cs22  1  0.66437070  0.33069636  0.33282438  1
  Cs  Cs23  1  0.66497128  0.33143301  0.66532678  1
  Cs  Cs24  1  0.66476756  0.66574173  -0.00062000  1
  Cs  Cs25  1  0.66924041  0.66614525  0.33577638  1
  Cs  Cs26  1  0.66783116  0.66939298  0.66725085  1
  Sn  Sn27  1  0.16691409  0.49985734  0.16669166  1
  Sn  Sn28  1  0.16636370  0.16656311  0.49977135  1
  Sn  Sn29  1  0.83441373  0.83405993  0.83359821  1
  Sn  Sn30  1  0.49997173  0.83354979  0.49979836  1
  Sn  Sn31  1  0.49955621  0.50004390  0.16620850  1
  Sn  Sn32  1  0.50066249  0.16746104  0.83332832  1
  Sn  Sn33  1  0.50034821  0.49912336  0.83347968  1
  Sn  Sn34  1  0.83337848  0.49967465  0.50043887  1
  Sn  Sn35  1  0.16599140  0.83325432  0.83335248  1
  Sn  Sn36  1  0.83314713  0.83362798  0.16637225  1
  Sn  Sn37  1  0.83248973  0.16616699  0.83282314  1
  Sn  Sn38  1  0.83256407  0.83344129  0.49996594  1
  Sn  Sn39  1  0.83429124  0.16673388  0.50097781  1
  Pb  Pb40  1  0.16638939  0.83512845  0.50136783  1
  Pb  Pb41  1  0.83297752  0.50189026  0.16879356  1
  Pb  Pb42  1  0.50022210  0.83339199  0.83200152  1
  Pb  Pb43  1  0.50025050  0.16905597  0.16348753  1
  Pb  Pb44  1  0.16655575  0.16501538  0.83200221  1
  Pb  Pb45  1  0.83325189  0.16415801  0.16615965  1
  Pb  Pb46  1  0.50022078  0.16440116  0.50175569  1
  Pb  Pb47  1  0.50216025  0.83121024  0.16951014  1
  Pb  Pb48  1  0.16398918  0.49749597  0.49816066  1
  Pb  Pb49  1  0.83167921  0.49974874  0.83137181  1
  Pb  Pb50  1  0.50179615  0.50193329  0.50016185  1
  Pb  Pb51  1  0.16658033  0.16909631  0.16952809  1
  Pb  Pb52  1  0.16927669  0.50235507  0.83490844  1
  Pb  Pb53  1  0.16413291  0.83152507  0.16410563  1
  I  I54  1  0.16587244  -0.00018473  0.16650366  1
  I  I55  1  0.16021968  0.00275355  0.50208274  1
  I  I56  1  0.16618843  -0.00287807  0.83200123  1
  I  I57  1  0.16891658  0.33696898  0.16535998  1
  I  I58  1  0.16144636  0.32979950  0.50157202  1
  I  I59  1  0.16451739  0.33336058  0.83368950  1
  I  I60  1  0.17083354  0.66386308  0.16780856  1
  I  I61  1  0.16587789  0.66664323  0.50022578  1
  I  I62  1  0.16005244  0.67009243  0.83143899  1
  I  I63  1  0.50067213  -0.00028136  0.16616404  1
  I  I64  1  0.50700819  -0.00317704  0.50364030  1
  I  I65  1  0.50236271  0.00211475  0.82887654  1
  I  I66  1  0.49820665  0.33724917  0.16798402  1
  I  I67  1  0.50161003  0.33325628  0.49860896  1
  I  I68  1  0.50607828  0.33305325  0.83571416  1
  I  I69  1  0.49778068  0.66347190  0.15920672  1
  I  I70  1  0.50725590  0.66964948  0.50305189  1
  I  I71  1  0.50053310  0.66460240  0.83591543  1
  I  I72  1  0.83350993  -0.00389726  0.17120447  1
  I  I73  1  0.83312349  -0.00043048  0.50138445  1
  I  I74  1  0.83105385  -0.00046506  0.82838283  1
  I  I75  1  0.83332092  0.33353006  0.16785701  1
  I  I76  1  0.83734881  0.33214693  0.50413509  1
  I  I77  1  0.83063562  0.33044039  0.82787146  1
  I  I78  1  0.83288289  0.66985924  0.16659997  1
  I  I79  1  0.82809470  0.66815745  0.49992463  1
  I  I80  1  0.83490657  0.66967415  0.83163442  1
  I  I81  1  0.16613405  0.16622246  -0.00010790  1
  I  I82  1  0.15881331  0.16437223  0.33746134  1
  I  I83  1  0.16359382  0.16625859  0.66409879  1
  I  I84  1  0.16604823  0.50040706  0.00276587  1
  I  I85  1  0.17357415  0.50117586  0.33047793  1
  I  I86  1  0.16765819  0.50048915  0.66661470  1
  I  I87  1  0.16247925  0.83440641  -0.00373497  1
  I  I88  1  0.16607694  0.83329778  0.33321385  1
  I  I89  1  0.16127397  0.83338952  0.66925796  1
  I  I90  1  0.50626151  0.16536997  -0.00473013  1
  I  I91  1  0.50055406  0.16729099  0.33351774  1
  I  I92  1  0.50210783  0.17220228  0.66967586  1
  I  I93  1  0.49796743  0.49763911  -0.00042070  1
  I  I94  1  0.49768173  0.50313596  0.33111299  1
  I  I95  1  0.50294691  0.49800482  0.66911936  1
  I  I96  1  0.50121532  0.83410563  0.00002351  1
  I  I97  1  0.50635526  0.83264396  0.33724205  1
  I  I98  1  0.50675594  0.83149324  0.66434999  1
  I  I99  1  0.82922720  0.16204223  -0.00375839  1
  I  I100  1  0.83702095  0.16593146  0.33675081  1
  I  I101  1  0.83289975  0.16175142  0.66629663  1
  I  I102  1  0.83408888  0.50095206  -0.00007599  1
  I  I103  1  0.83139688  0.50033812  0.33683986  1
  I  I104  1  0.83094185  0.50483854  0.66345906  1
  I  I105  1  0.83752315  0.83678531  -0.00143200  1
  I  I106  1  0.82847166  0.83220777  0.33494042  1
  I  I107  1  0.83255749  0.83425327  0.66641530  1
  I  I108  1  -0.00021443  0.17041337  0.16260190  1
  I  I109  1  -0.00260898  0.16472384  0.50552057  1
  I  I110  1  -0.00322705  0.16322602  0.83019068  1
  I  I111  1  0.00180016  0.50209084  0.16934315  1
  I  I112  1  -0.00397336  0.50643978  0.49857059  1
  I  I113  1  -0.00012636  0.49843767  0.83474393  1
  I  I114  1  -0.00371864  0.83043661  0.17279507  1
  I  I115  1  -0.00373078  0.83201177  0.49884013  1
  I  I116  1  -0.00258610  0.83821845  0.83081624  1
  I  I117  1  0.33343479  0.16320334  0.16730234  1
  I  I118  1  0.33137423  0.16497217  0.50254681  1
  I  I119  1  0.33585179  0.16896265  0.83041491  1
  I  I120  1  0.33417824  0.50100805  0.16290238  1
  I  I121  1  0.33338434  0.50065718  0.50125218  1
  I  I122  1  0.33727139  0.49591127  0.83307495  1
  I  I123  1  0.33334081  0.83373361  0.16652801  1
  I  I124  1  0.33542359  0.83390170  0.50452803  1
  I  I125  1  0.33166762  0.83283148  0.82960950  1
  I  I126  1  0.66683370  0.16953295  0.17180357  1
  I  I127  1  0.67007850  0.16718920  0.50225857  1
  I  I128  1  0.66803671  0.16407061  0.82699984  1
  I  I129  1  0.66416507  0.50202382  0.16348303  1
  I  I130  1  0.66985990  0.49702651  0.49813649  1
  I  I131  1  0.66379962  0.50142569  0.83904299  1
  I  I132  1  0.67010854  0.83057087  0.16209805  1
  I  I133  1  0.66930561  0.83447252  0.50271141  1
  I  I134  1  0.66988141  0.83419269  0.83334275  1
