# generated using pymatgen
data_Cs27Sn14Pb13I81
_symmetry_space_group_name_H-M   'P 1'
_cell_length_a   18.97746944
_cell_length_b   18.96525343
_cell_length_c   18.98165587
_cell_angle_alpha   89.99999611
_cell_angle_beta   90.00006560
_cell_angle_gamma   90.00223729
_symmetry_Int_Tables_number   1
_chemical_formula_structural   Cs27Sn14Pb13I81
_chemical_formula_sum   'Cs27 Sn14 Pb13 I81'
_cell_volume   6831.73554165
_cell_formula_units_Z   1
loop_
 _symmetry_equiv_pos_site_id
 _symmetry_equiv_pos_as_xyz
  1  'x, y, z'
loop_
 _atom_site_type_symbol
 _atom_site_label
 _atom_site_symmetry_multiplicity
 _atom_site_fract_x
 _atom_site_fract_y
 _atom_site_fract_z
 _atom_site_occupancy
  Cs  Cs0  1  0.00087265  -0.00180675  -0.00104599  1
  Cs  Cs1  1  0.00219131  0.00086465  0.33274059  1
  Cs  Cs2  1  -0.00034482  -0.00050494  0.66663265  1
  Cs  Cs3  1  -0.00045503  0.34302177  -0.00465558  1
  Cs  Cs4  1  -0.00825313  0.33526220  0.33452300  1
  Cs  Cs5  1  -0.00065580  0.34411809  0.66780408  1
  Cs  Cs6  1  0.00203850  0.66293119  0.00101916  1
  Cs  Cs7  1  0.00597874  0.66276900  0.33184567  1
  Cs  Cs8  1  -0.00080991  0.66269290  0.66697006  1
  Cs  Cs9  1  0.33134509  0.00309526  -0.00116090  1
  Cs  Cs10  1  0.33000102  -0.00076212  0.33557370  1
  Cs  Cs11  1  0.33307226  0.00052804  0.66583896  1
  Cs  Cs12  1  0.33424140  0.32824105  -0.00068630  1
  Cs  Cs13  1  0.33431586  0.33396100  0.33263638  1
  Cs  Cs14  1  0.33123430  0.33092916  0.66862252  1
  Cs  Cs15  1  0.33329475  0.66732124  0.00512609  1
  Cs  Cs16  1  0.33281502  0.66595922  0.33223592  1
  Cs  Cs17  1  0.33775575  0.66843239  0.66491057  1
  Cs  Cs18  1  0.66723493  0.00020308  -0.00106790  1
  Cs  Cs19  1  0.66858125  0.00025837  0.33422435  1
  Cs  Cs20  1  0.66714773  -0.00180900  0.66652293  1
  Cs  Cs21  1  0.66591247  0.33213792  0.01099647  1
  Cs  Cs22  1  0.67354234  0.33093694  0.32482862  1
  Cs  Cs23  1  0.66814868  0.33561801  0.66464943  1
  Cs  Cs24  1  0.66665932  0.66771248  -0.00241863  1
  Cs  Cs25  1  0.66344322  0.66905574  0.33315065  1
  Cs  Cs26  1  0.66400893  0.66933471  0.66739810  1
  Sn  Sn27  1  0.50059790  0.83399115  0.16663676  1
  Sn  Sn28  1  0.50004436  0.49943612  0.50068103  1
  Sn  Sn29  1  0.83287921  0.83368141  0.16671334  1
  Sn  Sn30  1  0.49984104  0.83373239  0.49987445  1
  Sn  Sn31  1  0.50015359  0.50028531  0.83282727  1
  Sn  Sn32  1  0.49981400  0.16683727  0.50005395  1
  Sn  Sn33  1  0.83381483  0.83355153  0.49975770  1
  Sn  Sn34  1  0.16686193  0.83347122  0.83232321  1
  Sn  Sn35  1  0.16609636  0.16667866  0.16742399  1
  Sn  Sn36  1  0.83329392  0.16631031  0.83297448  1
  Sn  Sn37  1  0.83362622  0.83411231  0.83329861  1
  Sn  Sn38  1  0.49963019  0.83297155  0.83360994  1
  Sn  Sn39  1  0.16686510  0.16619620  0.49921545  1
  Sn  Sn40  1  0.16662744  0.83392359  0.50112086  1
  Pb  Pb41  1  0.17017942  0.50337992  0.83313441  1
  Pb  Pb42  1  0.83606539  0.16419560  0.16406754  1
  Pb  Pb43  1  0.50197498  0.16659890  0.83124613  1
  Pb  Pb44  1  0.16703754  0.49585770  0.16695384  1
  Pb  Pb45  1  0.83019191  0.50063681  0.83335991  1
  Pb  Pb46  1  0.16661725  0.83426313  0.16684375  1
  Pb  Pb47  1  0.49987730  0.50218879  0.16672313  1
  Pb  Pb48  1  0.83014237  0.50334121  0.49993706  1
  Pb  Pb49  1  0.49841425  0.16376370  0.16950655  1
  Pb  Pb50  1  0.83389460  0.16493401  0.50186643  1
  Pb  Pb51  1  0.16914830  0.49976565  0.49996098  1
  Pb  Pb52  1  0.16431245  0.16498687  0.83228354  1
  Pb  Pb53  1  0.83322516  0.50343915  0.16665977  1
  I  I54  1  0.16745718  0.00167223  0.16902022  1
  I  I55  1  0.17222210  -0.00155981  0.50017218  1
  I  I56  1  0.17192725  -0.00376841  0.83181032  1
  I  I57  1  0.16836048  0.32802692  0.17333498  1
  I  I58  1  0.17218562  0.32987410  0.49584111  1
  I  I59  1  0.16537394  0.33336483  0.83413430  1
  I  I60  1  0.16620707  0.66694119  0.16632341  1
  I  I61  1  0.16667504  0.67038463  0.50387572  1
  I  I62  1  0.16066808  0.67198519  0.82813867  1
  I  I63  1  0.50396807  -0.00446790  0.16492511  1
  I  I64  1  0.49914564  -0.00187736  0.50031328  1
  I  I65  1  0.49897362  -0.00381276  0.83225901  1
  I  I66  1  0.49785965  0.33290456  0.16579133  1
  I  I67  1  0.49319653  0.33301318  0.50705818  1
  I  I68  1  0.50183807  0.33570610  0.82702274  1
  I  I69  1  0.50249774  0.67106543  0.17064551  1
  I  I70  1  0.50081917  0.66893777  0.50088215  1
  I  I71  1  0.50169885  0.66955873  0.82825035  1
  I  I72  1  0.82872590  -0.00409864  0.16859413  1
  I  I73  1  0.82797807  -0.00405228  0.49924888  1
  I  I74  1  0.83051641  -0.00330174  0.83293770  1
  I  I75  1  0.83444197  0.33288158  0.16483594  1
  I  I76  1  0.83348882  0.33333168  0.50260801  1
  I  I77  1  0.83349262  0.33093948  0.83178379  1
  I  I78  1  0.82959562  0.67216277  0.16352214  1
  I  I79  1  0.83403259  0.67226397  0.50372163  1
  I  I80  1  0.83458105  0.67098757  0.83316356  1
  I  I81  1  0.16548453  0.16249030  0.00144257  1
  I  I82  1  0.17162556  0.15758607  0.33519271  1
  I  I83  1  0.17120148  0.16251627  0.66334758  1
  I  I84  1  0.16859092  0.50124337  -0.00018645  1
  I  I85  1  0.17055962  0.50784321  0.33369341  1
  I  I86  1  0.16452303  0.49541951  0.66665490  1
  I  I87  1  0.16730928  0.83544635  -0.00247880  1
  I  I88  1  0.16745003  0.83525746  0.33644808  1
  I  I89  1  0.16779475  0.83896496  0.66571947  1
  I  I90  1  0.49885014  0.16670586  0.00003668  1
  I  I91  1  0.49957708  0.16569044  0.33773306  1
  I  I92  1  0.49387515  0.16069848  0.66318981  1
  I  I93  1  0.50065574  0.50686113  -0.00301103  1
  I  I94  1  0.49883393  0.50318426  0.33661534  1
  I  I95  1  0.50023945  0.50763360  0.66606089  1
  I  I96  1  0.50234833  0.82821196  -0.00098960  1
  I  I97  1  0.50250594  0.83317809  0.33483664  1
  I  I98  1  0.50158720  0.83264086  0.66605954  1
  I  I99  1  0.83300797  0.15840560  -0.00340210  1
  I  I100  1  0.83135046  0.16512588  0.33339915  1
  I  I101  1  0.83346070  0.15752374  0.66935749  1
  I  I102  1  0.83092328  0.50121408  -0.00030000  1
  I  I103  1  0.83069198  0.49986194  0.33350262  1
  I  I104  1  0.83529668  0.50138161  0.66669764  1
  I  I105  1  0.82986371  0.83737902  -0.00087764  1
  I  I106  1  0.82864025  0.83306291  0.33403067  1
  I  I107  1  0.83044690  0.83705799  0.66686627  1
  I  I108  1  0.00334513  0.16093987  0.17527118  1
  I  I109  1  0.00301051  0.15887068  0.49692855  1
  I  I110  1  -0.00316201  0.15712003  0.83246493  1
  I  I111  1  0.00006485  0.50404189  0.16619175  1
  I  I112  1  -0.00007653  0.50019520  0.49925742  1
  I  I113  1  -0.00011208  0.50032576  0.83440063  1
  I  I114  1  -0.00248799  0.83595453  0.16613424  1
  I  I115  1  0.00044878  0.83948749  0.50256072  1
  I  I116  1  -0.00043046  0.83956575  0.83124140  1
  I  I117  1  0.33067353  0.16219532  0.16658896  1
  I  I118  1  0.33364468  0.16038715  0.49785217  1
  I  I119  1  0.33329335  0.16607012  0.83528716  1
  I  I120  1  0.33374552  0.50553954  0.16659578  1
  I  I121  1  0.33722116  0.50655063  0.50379901  1
  I  I122  1  0.33788367  0.50514310  0.82813977  1
  I  I123  1  0.33593534  0.83410542  0.16667964  1
  I  I124  1  0.33426994  0.83366648  0.50228891  1
  I  I125  1  0.33409009  0.82937497  0.83056772  1
  I  I126  1  0.66690445  0.16798510  0.16715630  1
  I  I127  1  0.66402195  0.16401547  0.50334503  1
  I  I128  1  0.66940687  0.15820711  0.83092492  1
  I  I129  1  0.66632863  0.49649320  0.16703500  1
  I  I130  1  0.66198963  0.50109280  0.50522665  1
  I  I131  1  0.66274741  0.50863726  0.82757773  1
  I  I132  1  0.66620026  0.83333812  0.16723869  1
  I  I133  1  0.66563046  0.83311581  0.50194717  1
  I  I134  1  0.66624775  0.83290118  0.83117666  1
