# generated using pymatgen
data_Cs27Sn13Pb14I81
_symmetry_space_group_name_H-M   'P 1'
_cell_length_a   18.97603560
_cell_length_b   18.97603562
_cell_length_c   18.98029076
_cell_angle_alpha   90.00082775
_cell_angle_beta   90.00082767
_cell_angle_gamma   89.99724400
_symmetry_Int_Tables_number   1
_chemical_formula_structural   Cs27Sn13Pb14I81
_chemical_formula_sum   'Cs27 Sn13 Pb14 I81'
_cell_volume   6834.61151430
_cell_formula_units_Z   1
loop_
 _symmetry_equiv_pos_site_id
 _symmetry_equiv_pos_as_xyz
  1  'x, y, z'
loop_
 _atom_site_type_symbol
 _atom_site_label
 _atom_site_symmetry_multiplicity
 _atom_site_fract_x
 _atom_site_fract_y
 _atom_site_fract_z
 _atom_site_occupancy
  Cs  Cs0  1  0.00188131  -0.00319444  0.00172956  1
  Cs  Cs1  1  0.00012857  0.00038932  0.33118457  1
  Cs  Cs2  1  -0.00427502  0.00038359  0.66887922  1
  Cs  Cs3  1  0.00384311  0.33717640  0.00037594  1
  Cs  Cs4  1  -0.00136549  0.33196798  0.33221833  1
  Cs  Cs5  1  -0.00050537  0.33282800  0.66724024  1
  Cs  Cs6  1  -0.00010917  0.66375520  -0.00189337  1
  Cs  Cs7  1  -0.00154735  0.66766391  0.33573152  1
  Cs  Cs8  1  0.00185045  0.66644582  0.66648929  1
  Cs  Cs9  1  0.33256770  -0.00121439  0.00257661  1
  Cs  Cs10  1  0.33538602  0.00113844  0.33137139  1
  Cs  Cs11  1  0.33455601  -0.00088574  0.66666885  1
  Cs  Cs12  1  0.33042196  0.33322407  -0.00189326  1
  Cs  Cs13  1  0.33433040  0.33178592  0.33573146  1
  Cs  Cs14  1  0.33311256  0.33518374  0.66648919  1
  Cs  Cs15  1  0.33333513  0.66666849  -0.00485383  1
  Cs  Cs16  1  0.33404078  0.66737409  0.34061169  1
  Cs  Cs17  1  0.33223170  0.66556505  0.66353271  1
  Cs  Cs18  1  0.66605999  -0.00060667  -0.00296939  1
  Cs  Cs19  1  0.66570951  -0.00095710  0.33437137  1
  Cs  Cs20  1  0.66870700  0.00204034  0.66949822  1
  Cs  Cs21  1  0.66347227  0.33521464  0.00172963  1
  Cs  Cs22  1  0.66705613  0.33346184  0.33118455  1
  Cs  Cs23  1  0.66705010  0.32905821  0.66887922  1
  Cs  Cs24  1  0.66545234  0.66590097  0.00257669  1
  Cs  Cs25  1  0.66780507  0.66871941  0.33137135  1
  Cs  Cs26  1  0.66578100  0.66788941  0.66666880  1
  Sn  Sn27  1  0.50114600  0.83447935  0.49925313  1
  Sn  Sn28  1  0.16654210  0.16682500  0.83231300  1
  Sn  Sn29  1  0.83274620  0.83434080  0.16731413  1
  Sn  Sn30  1  0.16577962  0.49911295  0.83379482  1
  Sn  Sn31  1  0.83255146  0.83269971  0.49937319  1
  Sn  Sn32  1  0.83266103  0.16599438  0.16646470  1
  Sn  Sn33  1  0.16711546  0.50044880  0.16698738  1
  Sn  Sn34  1  0.50075154  0.83408488  0.16747184  1
  Sn  Sn35  1  0.83349161  0.49987540  0.83231301  1
  Sn  Sn36  1  0.16714728  0.16636924  0.50086011  1
  Sn  Sn37  1  0.49936638  0.16588478  0.49937317  1
  Sn  Sn38  1  0.83303592  0.50048059  0.50086011  1
  Sn  Sn39  1  0.50100743  0.16607945  0.16731416  1
  Pb  Pb40  1  0.83459957  0.50043831  0.16669668  1
  Pb  Pb41  1  0.16710496  0.16793291  0.16669667  1
  Pb  Pb42  1  0.50019311  0.83352644  0.83309244  1
  Pb  Pb43  1  0.49983203  0.49993170  0.83316655  1
  Pb  Pb44  1  0.49707696  0.50039238  0.16687065  1
  Pb  Pb45  1  0.49769453  0.16658548  0.83353830  1
  Pb  Pb46  1  0.50298269  0.49978501  0.49994303  1
  Pb  Pb47  1  0.16659835  0.83316542  0.83316653  1
  Pb  Pb48  1  0.83325214  0.83102790  0.83353831  1
  Pb  Pb49  1  0.16451503  0.49784835  0.50032800  1
  Pb  Pb50  1  0.16705909  0.83041031  0.16687069  1
  Pb  Pb51  1  0.83288349  0.16621683  0.49856640  1
  Pb  Pb52  1  0.83556088  0.16889427  0.83683596  1
  Pb  Pb53  1  0.16645172  0.83631597  0.49994301  1
  I  I54  1  0.16551719  -0.00001797  0.16570135  1
  I  I55  1  0.16584124  0.00434685  0.50425472  1
  I  I56  1  0.16799764  0.00340080  0.82987928  1
  I  I57  1  0.16472805  0.33564598  0.16492991  1
  I  I58  1  0.17086169  0.32996627  0.50031329  1
  I  I59  1  0.16278176  0.33392531  0.83411827  1
  I  I60  1  0.16486322  0.66273176  0.15942781  1
  I  I61  1  0.16915265  0.66661930  0.50072766  1
  I  I62  1  0.16272059  0.66285852  0.83839203  1
  I  I63  1  0.50283234  0.00035916  0.17112898  1
  I  I64  1  0.50093885  0.00010710  0.49546368  1
  I  I65  1  0.49734216  0.00024122  0.83345223  1
  I  I66  1  0.50383880  0.33004318  0.17071060  1
  I  I67  1  0.49687966  0.32989792  0.49593562  1
  I  I68  1  0.50207228  0.33305778  0.83367454  1
  I  I69  1  0.50468600  0.67026735  0.17097077  1
  I  I70  1  0.50167877  0.66999033  0.49506403  1
  I  I71  1  0.49693161  0.66673500  0.83417400  1
  I  I72  1  0.83164845  -0.00050862  0.17289653  1
  I  I73  1  0.83303589  -0.00273581  0.49670234  1
  I  I74  1  0.83530913  0.00021640  0.83114527  1
  I  I75  1  0.83098191  0.33120090  0.16755089  1
  I  I76  1  0.83485977  0.33515355  0.50153144  1
  I  I77  1  0.83586001  0.33676284  0.82774038  1
  I  I78  1  0.82997750  0.66952877  0.16779266  1
  I  I79  1  0.82936766  0.66762941  0.49728904  1
  I  I80  1  0.84120064  0.66300097  0.83395572  1
  I  I81  1  0.16577882  0.17085238  -0.00197862  1
  I  I82  1  0.16763715  0.16888522  0.33540943  1
  I  I83  1  0.17156218  0.17287035  0.66627708  1
  I  I84  1  0.16038339  0.49371700  -0.00116643  1
  I  I85  1  0.16481870  0.49815180  0.33157048  1
  I  I86  1  0.16379164  0.49712501  0.66942269  1
  I  I87  1  0.16690133  0.83729552  0.00027855  1
  I  I88  1  0.16516647  0.83173783  0.33339323  1
  I  I89  1  0.16753481  0.82923445  0.66629699  1
  I  I90  1  0.50256198  0.16270795  0.00354961  1
  I  I91  1  0.49696895  0.16319855  0.33340696  1
  I  I92  1  0.49809331  0.16286983  0.66332368  1
  I  I93  1  0.50396252  0.50023492  0.00027857  1
  I  I94  1  0.49840404  0.49850016  0.33339323  1
  I  I95  1  0.49590117  0.50086769  0.66629693  1
  I  I96  1  0.50381357  0.83714690  0.00384262  1
  I  I97  1  0.50443243  0.83776567  0.33340855  1
  I  I98  1  0.50411282  0.83744619  0.66257558  1
  I  I99  1  0.82888353  0.16221702  0.00469926  1
  I  I100  1  0.83559166  0.16892502  0.33068568  1
  I  I101  1  0.83186195  0.16519527  0.66675583  1
  I  I102  1  0.83751902  0.49911192  -0.00197860  1
  I  I103  1  0.83555196  0.50097038  0.33540944  1
  I  I104  1  0.83953706  0.50489582  0.66627705  1
  I  I105  1  0.82937477  0.83589551  0.00354962  1
  I  I106  1  0.82986545  0.83030228  0.33340695  1
  I  I107  1  0.82953621  0.83142637  0.66332367  1
  I  I108  1  -0.00213242  0.16431535  0.16755076  1
  I  I109  1  0.00182025  0.16819301  0.50153131  1
  I  I110  1  0.00342948  0.16919312  0.82774055  1
  I  I111  1  0.00231264  0.49806089  0.16492997  1
  I  I112  1  -0.00336705  0.50419484  0.50031332  1
  I  I113  1  0.00059191  0.49611565  0.83411820  1
  I  I114  1  -0.00329015  0.83717228  0.17071056  1
  I  I115  1  -0.00343545  0.83021334  0.49593588  1
  I  I116  1  -0.00027554  0.83540517  0.83367408  1
  I  I117  1  0.33619539  0.16331088  0.16779279  1
  I  I118  1  0.33429614  0.16270070  0.49728920  1
  I  I119  1  0.32966769  0.17453452  0.83395527  1
  I  I120  1  0.32939838  0.49819718  0.15942733  1
  I  I121  1  0.33328594  0.50248619  0.50072796  1
  I  I122  1  0.32952514  0.49605340  0.83839217  1
  I  I123  1  0.33693403  0.83801883  0.17097091  1
  I  I124  1  0.33665702  0.83501230  0.49506375  1
  I  I125  1  0.33340162  0.83026502  0.83417428  1
  I  I126  1  0.66615808  0.16498177  0.17289649  1
  I  I127  1  0.66393087  0.16636975  0.49670220  1
  I  I128  1  0.66688307  0.16864204  0.83114528  1
  I  I129  1  0.66664876  0.49885039  0.16570162  1
  I  I130  1  0.67101356  0.49917456  0.50425465  1
  I  I131  1  0.67006749  0.50133082  0.82987907  1
  I  I132  1  0.66702586  0.83616584  0.17112899  1
  I  I133  1  0.66677378  0.83427172  0.49546353  1
  I  I134  1  0.66690786  0.83067605  0.83345229  1
