# generated using pymatgen
data_Cs27Sn14Pb13I81
_symmetry_space_group_name_H-M   'P 1'
_cell_length_a   18.98710637
_cell_length_b   18.97310428
_cell_length_c   18.96845047
_cell_angle_alpha   89.99881954
_cell_angle_beta   89.99959502
_cell_angle_gamma   90.00056381
_symmetry_Int_Tables_number   1
_chemical_formula_structural   Cs27Sn14Pb13I81
_chemical_formula_sum   'Cs27 Sn14 Pb13 I81'
_cell_volume   6833.27709350
_cell_formula_units_Z   1
loop_
 _symmetry_equiv_pos_site_id
 _symmetry_equiv_pos_as_xyz
  1  'x, y, z'
loop_
 _atom_site_type_symbol
 _atom_site_label
 _atom_site_symmetry_multiplicity
 _atom_site_fract_x
 _atom_site_fract_y
 _atom_site_fract_z
 _atom_site_occupancy
  Cs  Cs0  1  0.00102884  0.00158778  -0.00078940  1
  Cs  Cs1  1  0.00050785  -0.00212376  0.33279170  1
  Cs  Cs2  1  0.00000759  -0.00254723  0.66858592  1
  Cs  Cs3  1  -0.00318826  0.33035511  0.00201462  1
  Cs  Cs4  1  -0.00742705  0.33716552  0.33745906  1
  Cs  Cs5  1  0.00062985  0.33668329  0.66087571  1
  Cs  Cs6  1  0.00128403  0.66798165  -0.00078637  1
  Cs  Cs7  1  -0.00114797  0.66729711  0.33356136  1
  Cs  Cs8  1  0.00285861  0.66680260  0.66816109  1
  Cs  Cs9  1  0.33293132  0.00201717  0.00233870  1
  Cs  Cs10  1  0.33301646  -0.00113410  0.33259484  1
  Cs  Cs11  1  0.33150521  0.00358911  0.66344342  1
  Cs  Cs12  1  0.33399980  0.33259256  0.00016106  1
  Cs  Cs13  1  0.33342919  0.33425143  0.33256764  1
  Cs  Cs14  1  0.33182975  0.33468271  0.66499823  1
  Cs  Cs15  1  0.33634179  0.66473721  -0.00260731  1
  Cs  Cs16  1  0.33496392  0.66825265  0.33162533  1
  Cs  Cs17  1  0.33297553  0.66207480  0.67259076  1
  Cs  Cs18  1  0.66515538  -0.00000973  -0.00092286  1
  Cs  Cs19  1  0.66683691  -0.00163444  0.33548843  1
  Cs  Cs20  1  0.66801844  0.00084896  0.66594164  1
  Cs  Cs21  1  0.66857955  0.33272782  -0.00051124  1
  Cs  Cs22  1  0.67223834  0.33481140  0.33383171  1
  Cs  Cs23  1  0.66618039  0.33172595  0.66805238  1
  Cs  Cs24  1  0.66265937  0.66831158  -0.00300721  1
  Cs  Cs25  1  0.66574328  0.66757706  0.33346918  1
  Cs  Cs26  1  0.66519491  0.66750656  0.66864925  1
  Sn  Sn27  1  0.16697259  0.83314670  0.49940194  1
  Sn  Sn28  1  0.49959467  0.16765196  0.16636687  1
  Sn  Sn29  1  0.49962589  0.16673543  0.83415714  1
  Sn  Sn30  1  0.49952500  0.83229758  0.50001737  1
  Sn  Sn31  1  0.83366079  0.16766731  0.83337394  1
  Sn  Sn32  1  0.49944748  0.49894925  0.16742658  1
  Sn  Sn33  1  0.16597755  0.83309960  0.16710869  1
  Sn  Sn34  1  0.83393370  0.83341978  0.16687013  1
  Sn  Sn35  1  0.49993261  0.50065402  0.49918150  1
  Sn  Sn36  1  0.16668084  0.16687819  0.83380425  1
  Sn  Sn37  1  0.16697579  0.49965852  0.16674643  1
  Sn  Sn38  1  0.16695449  0.16742476  0.16657075  1
  Sn  Sn39  1  0.83360243  0.49944603  0.83356408  1
  Sn  Sn40  1  0.83346593  0.83317845  0.49923087  1
  Pb  Pb41  1  0.83337911  0.83342173  0.83364106  1
  Pb  Pb42  1  0.83352786  0.16436194  0.50273414  1
  Pb  Pb43  1  0.16455391  0.49710884  0.83606128  1
  Pb  Pb44  1  0.16705305  0.83537020  0.83404008  1
  Pb  Pb45  1  0.49959081  0.83632255  0.83010044  1
  Pb  Pb46  1  0.83285138  0.50250410  0.16506029  1
  Pb  Pb47  1  0.49991905  0.16718623  0.49896134  1
  Pb  Pb48  1  0.16886504  0.50260674  0.49743493  1
  Pb  Pb49  1  0.49959762  0.83352269  0.16792412  1
  Pb  Pb50  1  0.16652204  0.16497947  0.49878313  1
  Pb  Pb51  1  0.83092629  0.50267370  0.50229765  1
  Pb  Pb52  1  0.83323378  0.16450513  0.16527162  1
  Pb  Pb53  1  0.50133165  0.49759276  0.83372176  1
  I  I54  1  0.16706609  0.00018177  0.16624069  1
  I  I55  1  0.16966194  -0.00361101  0.49517829  1
  I  I56  1  0.16381472  0.00364622  0.83834113  1
  I  I57  1  0.17311266  0.33267306  0.15985362  1
  I  I58  1  0.16928366  0.33373530  0.50071763  1
  I  I59  1  0.16985428  0.32898803  0.83858104  1
  I  I60  1  0.16639740  0.66712496  0.17246414  1
  I  I61  1  0.16363285  0.67086653  0.49453460  1
  I  I62  1  0.16353710  0.66629799  0.83349443  1
  I  I63  1  0.49742732  0.00258452  0.16359263  1
  I  I64  1  0.50057174  -0.00285373  0.50067567  1
  I  I65  1  0.50344534  0.00449194  0.83944774  1
  I  I66  1  0.49209640  0.33321617  0.16801255  1
  I  I67  1  0.49982387  0.33614513  0.49959612  1
  I  I68  1  0.49828983  0.32958379  0.83240737  1
  I  I69  1  0.49784098  0.66430608  0.16927894  1
  I  I70  1  0.50080507  0.66707151  0.49288169  1
  I  I71  1  0.50355280  0.66633114  0.83553009  1
  I  I72  1  0.83677572  -0.00343743  0.16831037  1
  I  I73  1  0.82972434  -0.00414295  0.49799633  1
  I  I74  1  0.83318038  0.00295047  0.83280659  1
  I  I75  1  0.83555157  0.33335622  0.16638026  1
  I  I76  1  0.83138352  0.33377969  0.49931483  1
  I  I77  1  0.83221335  0.33204137  0.83569961  1
  I  I78  1  0.83718724  0.67032133  0.16814267  1
  I  I79  1  0.83558034  0.67069013  0.49821360  1
  I  I80  1  0.83180427  0.66452052  0.83335450  1
  I  I81  1  0.16739668  0.16343397  0.00109134  1
  I  I82  1  0.17403576  0.16624115  0.32919057  1
  I  I83  1  0.16743836  0.16335105  0.66945017  1
  I  I84  1  0.17374539  0.50668190  0.00420595  1
  I  I85  1  0.16703619  0.49432961  0.32912253  1
  I  I86  1  0.16720328  0.50050876  0.66666164  1
  I  I87  1  0.16057521  0.83266191  0.00389631  1
  I  I88  1  0.16590999  0.83641607  0.33223120  1
  I  I89  1  0.16524392  0.83614826  0.66371722  1
  I  I90  1  0.49937220  0.17155371  0.00085198  1
  I  I91  1  0.49319630  0.16619182  0.32984163  1
  I  I92  1  0.50049673  0.16482031  0.66931614  1
  I  I93  1  0.49733976  0.49844248  0.00314872  1
  I  I94  1  0.49651847  0.49846712  0.33218682  1
  I  I95  1  0.50306764  0.50411080  0.66440740  1
  I  I96  1  0.50140859  0.83074202  0.00015855  1
  I  I97  1  0.50046443  0.83499724  0.33604826  1
  I  I98  1  0.50152060  0.82815017  0.66174270  1
  I  I99  1  0.83308150  0.16676823  -0.00293588  1
  I  I100  1  0.83277874  0.16672558  0.33314090  1
  I  I101  1  0.83188937  0.16785024  0.67125886  1
  I  I102  1  0.83126040  0.49785172  -0.00256308  1
  I  I103  1  0.83457070  0.49953424  0.33326516  1
  I  I104  1  0.83140299  0.49654856  0.67000271  1
  I  I105  1  0.83918765  0.83387704  0.00271957  1
  I  I106  1  0.83418871  0.83342295  0.33339401  1
  I  I107  1  0.83311246  0.83456169  0.66382606  1
  I  I108  1  0.00300677  0.16705785  0.16185293  1
  I  I109  1  0.00006390  0.16466958  0.50036529  1
  I  I110  1  0.00037450  0.16839006  0.83852460  1
  I  I111  1  0.00268134  0.49798333  0.16349282  1
  I  I112  1  0.00001685  0.50060552  0.50014680  1
  I  I113  1  -0.00304018  0.49552421  0.83459605  1
  I  I114  1  0.00127427  0.83376908  0.17404765  1
  I  I115  1  0.00023433  0.83627742  0.49565103  1
  I  I116  1  0.00005335  0.83595417  0.82892488  1
  I  I117  1  0.33299662  0.16426631  0.15862954  1
  I  I118  1  0.33339635  0.16252657  0.50637568  1
  I  I119  1  0.33329178  0.16380033  0.83800009  1
  I  I120  1  0.33355766  0.50149596  0.16992669  1
  I  I121  1  0.33673499  0.50542355  0.50007626  1
  I  I122  1  0.33327026  0.49967223  0.83102612  1
  I  I123  1  0.33047967  0.83474503  0.17109069  1
  I  I124  1  0.33312101  0.83172521  0.49470947  1
  I  I125  1  0.33335191  0.83386094  0.83357921  1
  I  I126  1  0.66380101  0.16926507  0.16257433  1
  I  I127  1  0.66650874  0.16255694  0.50045012  1
  I  I128  1  0.66640905  0.16979253  0.83675283  1
  I  I129  1  0.66356507  0.49652660  0.16906326  1
  I  I130  1  0.66318543  0.50538373  0.49334863  1
  I  I131  1  0.66900145  0.49444544  0.83511892  1
  I  I132  1  0.66847301  0.83375689  0.17042280  1
  I  I133  1  0.66662508  0.83047488  0.49605548  1
  I  I134  1  0.66665467  0.83630877  0.83434327  1
