# generated using pymatgen
data_Cs27Sn13Pb14I81
_symmetry_space_group_name_H-M   'P 1'
_cell_length_a   18.98088275
_cell_length_b   18.99656142
_cell_length_c   18.99730223
_cell_angle_alpha   89.99998158
_cell_angle_beta   89.99991409
_cell_angle_gamma   89.99766012
_symmetry_Int_Tables_number   1
_chemical_formula_structural   Cs27Sn13Pb14I81
_chemical_formula_sum   'Cs27 Sn13 Pb14 I81'
_cell_volume   6849.88585113
_cell_formula_units_Z   1
loop_
 _symmetry_equiv_pos_site_id
 _symmetry_equiv_pos_as_xyz
  1  'x, y, z'
loop_
 _atom_site_type_symbol
 _atom_site_label
 _atom_site_symmetry_multiplicity
 _atom_site_fract_x
 _atom_site_fract_y
 _atom_site_fract_z
 _atom_site_occupancy
  Cs  Cs0  1  0.00108529  0.00563725  -0.00242596  1
  Cs  Cs1  1  -0.00002151  0.00187940  0.33418004  1
  Cs  Cs2  1  0.00089161  0.00816429  0.66798208  1
  Cs  Cs3  1  -0.00432304  0.32531177  0.00093834  1
  Cs  Cs4  1  -0.01207731  0.32794574  0.33984011  1
  Cs  Cs5  1  -0.00777502  0.32587531  0.65774271  1
  Cs  Cs6  1  0.00441434  0.66731089  0.00116309  1
  Cs  Cs7  1  0.00024002  0.66660743  0.33482111  1
  Cs  Cs8  1  0.00413621  0.66397770  0.66393991  1
  Cs  Cs9  1  0.33268367  0.00012445  0.00130396  1
  Cs  Cs10  1  0.33532101  -0.00106533  0.33273941  1
  Cs  Cs11  1  0.33298785  0.00133821  0.66525908  1
  Cs  Cs12  1  0.33209087  0.33540502  0.00037776  1
  Cs  Cs13  1  0.33525616  0.33477232  0.33204826  1
  Cs  Cs14  1  0.33356519  0.33348607  0.66745105  1
  Cs  Cs15  1  0.33151018  0.66528195  -0.00020884  1
  Cs  Cs16  1  0.33282046  0.66682635  0.33229105  1
  Cs  Cs17  1  0.33058121  0.66504554  0.66899565  1
  Cs  Cs18  1  0.66700616  -0.00359335  -0.00223069  1
  Cs  Cs19  1  0.66322246  -0.00270341  0.33326012  1
  Cs  Cs20  1  0.66664567  -0.00276935  0.66819444  1
  Cs  Cs21  1  0.67194395  0.33747922  -0.00047588  1
  Cs  Cs22  1  0.66745897  0.33385645  0.33287927  1
  Cs  Cs23  1  0.67017658  0.33616085  0.66762453  1
  Cs  Cs24  1  0.66883499  0.66703004  -0.00636494  1
  Cs  Cs25  1  0.66607824  0.66924489  0.33197324  1
  Cs  Cs26  1  0.66732007  0.66755889  0.67622370  1
  Sn  Sn27  1  0.49969599  0.16692000  0.16612386  1
  Sn  Sn28  1  0.49984493  0.50082920  0.49947406  1
  Sn  Sn29  1  0.16667969  0.50001296  0.16637169  1
  Sn  Sn30  1  0.16639785  0.49973210  0.83409058  1
  Sn  Sn31  1  0.50067300  0.83253829  0.49969669  1
  Sn  Sn32  1  0.16695016  0.83287683  0.83397267  1
  Sn  Sn33  1  0.50000898  0.83267563  0.16685967  1
  Sn  Sn34  1  0.49978652  0.16673190  0.83372874  1
  Sn  Sn35  1  0.49982607  0.16667305  0.50012808  1
  Sn  Sn36  1  0.16664345  0.83272212  0.16593619  1
  Sn  Sn37  1  0.49948286  0.50058324  0.16712299  1
  Sn  Sn38  1  0.83247393  0.83294852  0.49960466  1
  Sn  Sn39  1  0.83347383  0.83300720  0.16717164  1
  Pb  Pb40  1  0.16850688  0.16745325  0.83344164  1
  Pb  Pb41  1  0.49855875  0.49792142  0.83384094  1
  Pb  Pb42  1  0.16831947  0.49982828  0.49894938  1
  Pb  Pb43  1  0.83373340  0.50245732  0.16657054  1
  Pb  Pb44  1  0.82994743  0.16346779  0.16669314  1
  Pb  Pb45  1  0.82990917  0.50324636  0.49980956  1
  Pb  Pb46  1  0.16686537  0.83345349  0.49949025  1
  Pb  Pb47  1  0.82969531  0.16339873  0.49976484  1
  Pb  Pb48  1  0.83687260  0.83309942  0.83314362  1
  Pb  Pb49  1  0.83785004  0.50023556  0.83353391  1
  Pb  Pb50  1  0.83005569  0.16646115  0.83344999  1
  Pb  Pb51  1  0.16914272  0.16690716  0.49951034  1
  Pb  Pb52  1  0.49779785  0.83471524  0.83337112  1
  Pb  Pb53  1  0.16838988  0.16732007  0.16704060  1
  I  I54  1  0.16821684  -0.00342812  0.16281181  1
  I  I55  1  0.16952817  -0.00042845  0.50099870  1
  I  I56  1  0.16804638  -0.00264341  0.83788220  1
  I  I57  1  0.17566595  0.33705161  0.16065152  1
  I  I58  1  0.17008096  0.33363908  0.50157588  1
  I  I59  1  0.17174310  0.33666748  0.83950758  1
  I  I60  1  0.17284328  0.66771407  0.16239698  1
  I  I61  1  0.16997386  0.66684533  0.50175947  1
  I  I62  1  0.16950754  0.66714088  0.83775474  1
  I  I63  1  0.49976598  -0.00106714  0.16947420  1
  I  I64  1  0.50317614  -0.00067486  0.49692851  1
  I  I65  1  0.49672940  0.00254983  0.83352730  1
  I  I66  1  0.49361524  0.33389434  0.16991674  1
  I  I67  1  0.49582448  0.33341666  0.49659445  1
  I  I68  1  0.49618580  0.33021518  0.83276596  1
  I  I69  1  0.49859272  0.66739878  0.17434492  1
  I  I70  1  0.50273619  0.66741049  0.49168967  1
  I  I71  1  0.50079896  0.66655560  0.83204875  1
  I  I72  1  0.83425350  -0.00470216  0.17078436  1
  I  I73  1  0.82757717  -0.00413587  0.49521835  1
  I  I74  1  0.83591257  -0.00046979  0.83338594  1
  I  I75  1  0.83360926  0.33324073  0.16539644  1
  I  I76  1  0.83398655  0.33321546  0.50155586  1
  I  I77  1  0.83435566  0.33324096  0.83342128  1
  I  I78  1  0.82794128  0.67064248  0.17087084  1
  I  I79  1  0.82773202  0.67086968  0.49467337  1
  I  I80  1  0.82662285  0.66709037  0.83283313  1
  I  I81  1  0.17154063  0.16481236  0.00021413  1
  I  I82  1  0.17039742  0.16439467  0.33295402  1
  I  I83  1  0.17120061  0.16447271  0.66684850  1
  I  I84  1  0.17578730  0.50683638  0.00135982  1
  I  I85  1  0.17188264  0.50758356  0.32940391  1
  I  I86  1  0.17046945  0.50670203  0.66925337  1
  I  I87  1  0.16848828  0.82952292  0.00175008  1
  I  I88  1  0.16831435  0.82903535  0.32973576  1
  I  I89  1  0.16878929  0.82903652  0.66914027  1
  I  I90  1  0.49823964  0.16479054  0.00115983  1
  I  I91  1  0.49917837  0.16535895  0.33307388  1
  I  I92  1  0.49844019  0.16530050  0.66581455  1
  I  I93  1  0.49795384  0.50056026  0.00344486  1
  I  I94  1  0.49430778  0.49700468  0.33223955  1
  I  I95  1  0.49846780  0.49994343  0.66406089  1
  I  I96  1  0.50237394  0.83395000  0.00343520  1
  I  I97  1  0.49839512  0.83728667  0.33227819  1
  I  I98  1  0.50321709  0.83439884  0.66370093  1
  I  I99  1  0.83068412  0.16388735  0.00028517  1
  I  I100  1  0.83305007  0.16895715  0.33325963  1
  I  I101  1  0.83201476  0.16378922  0.66639489  1
  I  I102  1  0.82522362  0.50313492  0.00025722  1
  I  I103  1  0.83860632  0.49824417  0.33326084  1
  I  I104  1  0.83160696  0.50291566  0.66652433  1
  I  I105  1  0.82805876  0.83319304  0.00317974  1
  I  I106  1  0.83256488  0.83308336  0.33247011  1
  I  I107  1  0.82617756  0.83338355  0.66368459  1
  I  I108  1  -0.00031991  0.16670767  0.16530879  1
  I  I109  1  -0.00094784  0.16570159  0.50155480  1
  I  I110  1  0.00019452  0.16590346  0.83313212  1
  I  I111  1  0.00366971  0.50728376  0.16070702  1
  I  I112  1  -0.00026827  0.50188751  0.50087725  1
  I  I113  1  0.00578322  0.50707799  0.84122423  1
  I  I114  1  0.00082982  0.82701806  0.16740803  1
  I  I115  1  -0.00259604  0.83243947  0.49599432  1
  I  I116  1  0.00460390  0.82924109  0.83771441  1
  I  I117  1  0.33758319  0.16089301  0.16781770  1
  I  I118  1  0.33857992  0.16153985  0.49955681  1
  I  I119  1  0.33672253  0.16544055  0.83266770  1
  I  I120  1  0.33470035  0.50492904  0.16669372  1
  I  I121  1  0.33739214  0.50327839  0.49841163  1
  I  I122  1  0.33084555  0.50441292  0.83485853  1
  I  I123  1  0.33446581  0.83372848  0.16702370  1
  I  I124  1  0.33701611  0.83467172  0.49655811  1
  I  I125  1  0.33029463  0.83053887  0.83765573  1
  I  I126  1  0.66117872  0.16797275  0.16802940  1
  I  I127  1  0.66148598  0.16916323  0.49869955  1
  I  I128  1  0.66158086  0.16502710  0.83325223  1
  I  I129  1  0.66300104  0.49900747  0.17180567  1
  I  I130  1  0.66140199  0.49550544  0.49286397  1
  I  I131  1  0.66653357  0.49779465  0.83297996  1
  I  I132  1  0.66501135  0.83500787  0.17229783  1
  I  I133  1  0.66457703  0.83466230  0.49118087  1
  I  I134  1  0.66657133  0.83593291  0.83535872  1
