# generated using pymatgen
data_Cs27Sn13Pb14I81
_symmetry_space_group_name_H-M   'P 1'
_cell_length_a   18.97444129
_cell_length_b   18.97272365
_cell_length_c   18.98390272
_cell_angle_alpha   89.99939868
_cell_angle_beta   89.99950239
_cell_angle_gamma   89.99995781
_symmetry_Int_Tables_number   1
_chemical_formula_structural   Cs27Sn13Pb14I81
_chemical_formula_sum   'Cs27 Sn13 Pb14 I81'
_cell_volume   6834.14481639
_cell_formula_units_Z   1
loop_
 _symmetry_equiv_pos_site_id
 _symmetry_equiv_pos_as_xyz
  1  'x, y, z'
loop_
 _atom_site_type_symbol
 _atom_site_label
 _atom_site_symmetry_multiplicity
 _atom_site_fract_x
 _atom_site_fract_y
 _atom_site_fract_z
 _atom_site_occupancy
  Cs  Cs0  1  -0.00052187  0.00023640  0.00016470  1
  Cs  Cs1  1  0.00125456  0.00236041  0.33060254  1
  Cs  Cs2  1  -0.00061831  -0.00284992  0.66909502  1
  Cs  Cs3  1  0.00088990  0.33031929  -0.00122512  1
  Cs  Cs4  1  0.00104546  0.33100042  0.33379529  1
  Cs  Cs5  1  -0.00032968  0.33449044  0.66775925  1
  Cs  Cs6  1  0.00139169  0.66749422  -0.00130356  1
  Cs  Cs7  1  -0.00160881  0.66773584  0.33343684  1
  Cs  Cs8  1  0.00071071  0.66757696  0.66770592  1
  Cs  Cs9  1  0.33684980  0.00059821  -0.00066252  1
  Cs  Cs10  1  0.33774878  0.00838938  0.34145605  1
  Cs  Cs11  1  0.34065686  -0.00108805  0.66152831  1
  Cs  Cs12  1  0.33120655  0.33437838  0.00151716  1
  Cs  Cs13  1  0.33173237  0.32712134  0.33341297  1
  Cs  Cs14  1  0.32952178  0.33426396  0.66474550  1
  Cs  Cs15  1  0.33139124  0.66604046  -0.00108787  1
  Cs  Cs16  1  0.33236442  0.66818032  0.33421574  1
  Cs  Cs17  1  0.32970692  0.66843501  0.66585549  1
  Cs  Cs18  1  0.65991127  0.00556587  0.00416511  1
  Cs  Cs19  1  0.66163265  -0.00116828  0.32620625  1
  Cs  Cs20  1  0.66221303  0.00246293  0.66898410  1
  Cs  Cs21  1  0.66756285  0.33213533  -0.00237344  1
  Cs  Cs22  1  0.66678151  0.33804325  0.33544708  1
  Cs  Cs23  1  0.66863299  0.33290615  0.66680405  1
  Cs  Cs24  1  0.66622455  0.66631676  0.00135968  1
  Cs  Cs25  1  0.66813960  0.66424174  0.33173252  1
  Cs  Cs26  1  0.66877140  0.66584233  0.66660060  1
  Sn  Sn27  1  0.83333784  0.83297288  0.83325762  1
  Sn  Sn28  1  0.49971174  0.50043169  0.16669616  1
  Sn  Sn29  1  0.83337535  0.16598353  0.49993724  1
  Sn  Sn30  1  0.16703959  0.83296348  0.16638402  1
  Sn  Sn31  1  0.16615446  0.83459657  0.83413963  1
  Sn  Sn32  1  0.83299828  0.50027313  0.50028512  1
  Sn  Sn33  1  0.50065241  0.50041589  0.83306885  1
  Sn  Sn34  1  0.83278100  0.50082222  0.83345707  1
  Sn  Sn35  1  0.83388636  0.50018120  0.16625099  1
  Sn  Sn36  1  0.83341187  0.83380146  0.50046024  1
  Sn  Sn37  1  0.16640607  0.50092747  0.16680150  1
  Sn  Sn38  1  0.50040634  0.50043035  0.50027000  1
  Sn  Sn39  1  0.16663724  0.16495326  0.83298976  1
  Pb  Pb40  1  0.49660835  0.83116828  0.16676436  1
  Pb  Pb41  1  0.49713009  0.16977577  0.83313163  1
  Pb  Pb42  1  0.16425130  0.16645534  0.50288051  1
  Pb  Pb43  1  0.83336109  0.16922365  0.16907833  1
  Pb  Pb44  1  0.16632100  0.50004359  0.49697775  1
  Pb  Pb45  1  0.50333042  0.83073303  0.50000092  1
  Pb  Pb46  1  0.83444723  0.16620236  0.83179967  1
  Pb  Pb47  1  0.50038534  0.83112537  0.83341504  1
  Pb  Pb48  1  0.16632043  0.50069188  0.83496403  1
  Pb  Pb49  1  0.16473059  0.83337758  0.49988884  1
  Pb  Pb50  1  0.83474329  0.83173646  0.16606782  1
  Pb  Pb51  1  0.50001795  0.16950687  0.16658421  1
  Pb  Pb52  1  0.50301788  0.16941891  0.50023144  1
  Pb  Pb53  1  0.16661945  0.16586019  0.16477050  1
  I  I54  1  0.16257790  -0.00342465  0.16351820  1
  I  I55  1  0.16365901  -0.00014915  0.49464052  1
  I  I56  1  0.15805159  -0.00179641  0.83938637  1
  I  I57  1  0.16717025  0.33655058  0.16520912  1
  I  I58  1  0.16408227  0.33359163  0.50102817  1
  I  I59  1  0.16657832  0.33214835  0.83465192  1
  I  I60  1  0.16615198  0.66549350  0.16033601  1
  I  I61  1  0.16449703  0.66647001  0.50444861  1
  I  I62  1  0.16500367  0.66916904  0.83569478  1
  I  I63  1  0.49941521  -0.00018724  0.16643891  1
  I  I64  1  0.50031720  0.00007323  0.49986489  1
  I  I65  1  0.50258057  -0.00002891  0.83361200  1
  I  I66  1  0.49758410  0.33895460  0.16697669  1
  I  I67  1  0.50602588  0.33802232  0.49929083  1
  I  I68  1  0.50550505  0.33839853  0.83406486  1
  I  I69  1  0.50332783  0.66200648  0.16660057  1
  I  I70  1  0.50568063  0.66211245  0.49962481  1
  I  I71  1  0.49956739  0.66235716  0.83379561  1
  I  I72  1  0.83688101  -0.00022715  0.16748024  1
  I  I73  1  0.83790191  -0.00087528  0.50678196  1
  I  I74  1  0.83810339  -0.00334647  0.82736216  1
  I  I75  1  0.83543200  0.33875065  0.16554770  1
  I  I76  1  0.82958092  0.33544581  0.49966701  1
  I  I77  1  0.83183808  0.33675007  0.83268585  1
  I  I78  1  0.83152893  0.66263547  0.17086459  1
  I  I79  1  0.83016870  0.66526428  0.50068255  1
  I  I80  1  0.83610576  0.66542582  0.82878817  1
  I  I81  1  0.16376016  0.16775952  -0.00301569  1
  I  I82  1  0.16605137  0.16786603  0.33343064  1
  I  I83  1  0.16567654  0.16345300  0.67063132  1
  I  I84  1  0.16646865  0.50072362  0.00295551  1
  I  I85  1  0.16549272  0.50548555  0.32878906  1
  I  I86  1  0.16710152  0.49992784  0.66677072  1
  I  I87  1  0.16003801  0.83131721  -0.00097559  1
  I  I88  1  0.16418229  0.82545313  0.33033202  1
  I  I89  1  0.16357915  0.83531818  0.66996807  1
  I  I90  1  0.50122180  0.16990721  -0.00029774  1
  I  I91  1  0.49890976  0.16902062  0.33357508  1
  I  I92  1  0.49887150  0.17013592  0.66666114  1
  I  I93  1  0.50285732  0.50035221  0.00009674  1
  I  I94  1  0.50468615  0.50066035  0.33328550  1
  I  I95  1  0.50824834  0.49960354  0.66670382  1
  I  I96  1  0.50442326  0.82922140  0.00000303  1
  I  I97  1  0.50054195  0.82935105  0.33336429  1
  I  I98  1  0.49463359  0.82940069  0.66679043  1
  I  I99  1  0.83525050  0.16861015  -0.00017319  1
  I  I100  1  0.83451355  0.16751871  0.33738355  1
  I  I101  1  0.83554577  0.17370063  0.66390610  1
  I  I102  1  0.83105431  0.50461483  -0.00054103  1
  I  I103  1  0.83092585  0.50010105  0.33379124  1
  I  I104  1  0.82743101  0.50007738  0.66662851  1
  I  I105  1  0.83725460  0.82597803  -0.00326185  1
  I  I106  1  0.83507894  0.83029067  0.33586880  1
  I  I107  1  0.83986740  0.82643532  0.66735340  1
  I  I108  1  0.00002493  0.17215805  0.16785135  1
  I  I109  1  -0.00375570  0.17260818  0.49962933  1
  I  I110  1  0.00242652  0.16920333  0.83248443  1
  I  I111  1  -0.00060414  0.50349480  0.16665926  1
  I  I112  1  -0.00396026  0.50015798  0.50095565  1
  I  I113  1  -0.00309493  0.50048582  0.83239673  1
  I  I114  1  0.00270528  0.82519533  0.16538445  1
  I  I115  1  -0.00389115  0.82744528  0.50174867  1
  I  I116  1  -0.00061123  0.82976564  0.83259376  1
  I  I117  1  0.33309785  0.17068009  0.16654878  1
  I  I118  1  0.33359923  0.16895939  0.49991993  1
  I  I119  1  0.32925005  0.16261484  0.83461898  1
  I  I120  1  0.33340044  0.50405716  0.16486525  1
  I  I121  1  0.33633536  0.49982637  0.50138580  1
  I  I122  1  0.33564256  0.49912766  0.83380491  1
  I  I123  1  0.32855854  0.82505214  0.15856909  1
  I  I124  1  0.33353073  0.83090722  0.50064698  1
  I  I125  1  0.33015464  0.83426889  0.83833904  1
  I  I126  1  0.66685777  0.16692196  0.16516547  1
  I  I127  1  0.67090826  0.16685680  0.50286963  1
  I  I128  1  0.66662329  0.16578304  0.83208215  1
  I  I129  1  0.66717648  0.49903824  0.16767845  1
  I  I130  1  0.66826556  0.50007760  0.49608643  1
  I  I131  1  0.66822043  0.50432861  0.83664698  1
  I  I132  1  0.66668700  0.83164761  0.16696353  1
  I  I133  1  0.67178320  0.83351265  0.50667017  1
  I  I134  1  0.67034146  0.82885523  0.82787687  1
