# generated using pymatgen
data_Cs27Sn13Pb14I81
_symmetry_space_group_name_H-M   'P 1'
_cell_length_a   18.96798954
_cell_length_b   18.98242677
_cell_length_c   18.97814648
_cell_angle_alpha   90.00238068
_cell_angle_beta   89.99895398
_cell_angle_gamma   89.99662831
_symmetry_Int_Tables_number   1
_chemical_formula_structural   Cs27Sn13Pb14I81
_chemical_formula_sum   'Cs27 Sn13 Pb14 I81'
_cell_volume   6833.24241126
_cell_formula_units_Z   1
loop_
 _symmetry_equiv_pos_site_id
 _symmetry_equiv_pos_as_xyz
  1  'x, y, z'
loop_
 _atom_site_type_symbol
 _atom_site_label
 _atom_site_symmetry_multiplicity
 _atom_site_fract_x
 _atom_site_fract_y
 _atom_site_fract_z
 _atom_site_occupancy
  Cs  Cs0  1  -0.00109783  0.00219294  0.00133110  1
  Cs  Cs1  1  0.00096672  0.00030181  0.33310113  1
  Cs  Cs2  1  0.00096628  0.00231097  0.66550244  1
  Cs  Cs3  1  -0.00061883  0.33435315  -0.00085699  1
  Cs  Cs4  1  0.00161978  0.33067908  0.33381258  1
  Cs  Cs5  1  -0.00034381  0.33088528  0.66747045  1
  Cs  Cs6  1  0.00182167  0.66168366  -0.00391025  1
  Cs  Cs7  1  -0.00153365  0.66928856  0.33644334  1
  Cs  Cs8  1  -0.00136332  0.66681137  0.66709677  1
  Cs  Cs9  1  0.33938615  -0.00360825  -0.00230751  1
  Cs  Cs10  1  0.32962990  -0.00069754  0.33665116  1
  Cs  Cs11  1  0.33469359  -0.00106319  0.66669819  1
  Cs  Cs12  1  0.33393805  0.33799749  0.00306163  1
  Cs  Cs13  1  0.33735821  0.33631758  0.33347723  1
  Cs  Cs14  1  0.33502024  0.33047143  0.66450650  1
  Cs  Cs15  1  0.33392584  0.66582539  0.00005444  1
  Cs  Cs16  1  0.33370816  0.66598024  0.33179212  1
  Cs  Cs17  1  0.33036491  0.67126278  0.66894091  1
  Cs  Cs18  1  0.66149357  -0.00172457  0.00607983  1
  Cs  Cs19  1  0.66722952  -0.00205831  0.32223192  1
  Cs  Cs20  1  0.66489724  0.00127817  0.66867780  1
  Cs  Cs21  1  0.66884126  0.33258026  -0.00074647  1
  Cs  Cs22  1  0.65713928  0.33514895  0.33237882  1
  Cs  Cs23  1  0.66532491  0.33518632  0.66678333  1
  Cs  Cs24  1  0.66593100  0.66705494  0.00026840  1
  Cs  Cs25  1  0.66669444  0.66730725  0.33451518  1
  Cs  Cs26  1  0.67117026  0.66293951  0.66483592  1
  Sn  Sn27  1  0.16626859  0.49990289  0.50022328  1
  Sn  Sn28  1  0.83386647  0.16600038  0.83267588  1
  Sn  Sn29  1  0.50010897  0.83362792  0.50008694  1
  Sn  Sn30  1  0.16643235  0.16653612  0.83358582  1
  Sn  Sn31  1  0.50034128  0.49997420  0.83301764  1
  Sn  Sn32  1  0.16719852  0.83330924  0.49944696  1
  Sn  Sn33  1  0.16652196  0.16596541  0.16650253  1
  Sn  Sn34  1  0.83367610  0.49978272  0.16685317  1
  Sn  Sn35  1  0.83326753  0.16668004  0.50013044  1
  Sn  Sn36  1  0.83356075  0.83406418  0.83338864  1
  Sn  Sn37  1  0.16610643  0.83378339  0.16673150  1
  Sn  Sn38  1  0.83260159  0.49977461  0.83401070  1
  Sn  Sn39  1  0.16600500  0.16688151  0.50003243  1
  Pb  Pb40  1  0.83605026  0.83112603  0.16417151  1
  Pb  Pb41  1  0.50035421  0.16440818  0.49996893  1
  Pb  Pb42  1  0.83497243  0.16841521  0.16667717  1
  Pb  Pb43  1  0.50038433  0.16849499  0.83330778  1
  Pb  Pb44  1  0.83484815  0.49748560  0.50011709  1
  Pb  Pb45  1  0.16499831  0.83571070  0.83331815  1
  Pb  Pb46  1  0.50283355  0.50024442  0.16438188  1
  Pb  Pb47  1  0.49631696  0.16664878  0.16664252  1
  Pb  Pb48  1  0.16488805  0.50010101  0.16890904  1
  Pb  Pb49  1  0.16627153  0.49764097  0.83130458  1
  Pb  Pb50  1  0.83361716  0.83604128  0.50146144  1
  Pb  Pb51  1  0.49739583  0.50234752  0.50216947  1
  Pb  Pb52  1  0.50274791  0.83116230  0.83124874  1
  Pb  Pb53  1  0.49712800  0.83311597  0.16910377  1
  I  I54  1  0.16470526  0.00057930  0.17246042  1
  I  I55  1  0.16675080  0.00051523  0.49924001  1
  I  I56  1  0.16092300  0.00376144  0.82897885  1
  I  I57  1  0.16422516  0.33052063  0.16726001  1
  I  I58  1  0.16130589  0.33187009  0.50071381  1
  I  I59  1  0.16108240  0.32960599  0.83322303  1
  I  I60  1  0.16490575  0.66921993  0.17215171  1
  I  I61  1  0.17047040  0.66762436  0.49586263  1
  I  I62  1  0.16502375  0.66662582  0.83227455  1
  I  I63  1  0.50430821  -0.00028944  0.16519627  1
  I  I64  1  0.49253270  -0.00310689  0.50218420  1
  I  I65  1  0.50034605  -0.00023459  0.83234640  1
  I  I66  1  0.49727591  0.33364672  0.16773030  1
  I  I67  1  0.49854501  0.33345362  0.50083445  1
  I  I68  1  0.50530174  0.33629738  0.83195073  1
  I  I69  1  0.49693967  0.66666860  0.16636613  1
  I  I70  1  0.49435398  0.67000378  0.50130353  1
  I  I71  1  0.50462238  0.66338341  0.83198865  1
  I  I72  1  0.83292080  0.00005981  0.16590111  1
  I  I73  1  0.84027240  0.00379980  0.50617100  1
  I  I74  1  0.83997597  0.00128748  0.82723410  1
  I  I75  1  0.83741959  0.33597503  0.16032387  1
  I  I76  1  0.84127058  0.32973309  0.50594514  1
  I  I77  1  0.83415884  0.33298826  0.83335885  1
  I  I78  1  0.83639620  0.66343042  0.16134391  1
  I  I79  1  0.83558991  0.66670142  0.50195572  1
  I  I80  1  0.82966896  0.66587656  0.83687363  1
  I  I81  1  0.16129660  0.16326436  -0.00033595  1
  I  I82  1  0.16201351  0.16522564  0.33452405  1
  I  I83  1  0.16215782  0.16719184  0.66595672  1
  I  I84  1  0.16811598  0.49987521  -0.00022570  1
  I  I85  1  0.16428694  0.49596956  0.33674935  1
  I  I86  1  0.16457789  0.50093185  0.66345298  1
  I  I87  1  0.16319394  0.83761621  0.00230222  1
  I  I88  1  0.16921967  0.83776605  0.33469816  1
  I  I89  1  0.16894192  0.83406912  0.66369576  1
  I  I90  1  0.49998874  0.16631271  -0.00021072  1
  I  I91  1  0.50212832  0.16795949  0.33353439  1
  I  I92  1  0.49516881  0.16659626  0.66663913  1
  I  I93  1  0.49959310  0.50029098  -0.00369492  1
  I  I94  1  0.50093893  0.50028658  0.33357827  1
  I  I95  1  0.50822262  0.49955029  0.66966297  1
  I  I96  1  0.49891991  0.83242330  -0.00013701  1
  I  I97  1  0.49898440  0.83294555  0.33707338  1
  I  I98  1  0.49071729  0.83375114  0.66375902  1
  I  I99  1  0.83873236  0.16711319  -0.00328374  1
  I  I100  1  0.83951480  0.16762283  0.33594143  1
  I  I101  1  0.84237303  0.16861979  0.66775984  1
  I  I102  1  0.83154554  0.49788054  -0.00201932  1
  I  I103  1  0.83813139  0.49869476  0.33143174  1
  I  I104  1  0.83130997  0.50091393  0.66975307  1
  I  I105  1  0.83518691  0.83800652  -0.00384385  1
  I  I106  1  0.83169716  0.83253136  0.33335285  1
  I  I107  1  0.83600000  0.82837394  0.66948840  1
  I  I108  1  0.00339144  0.16392446  0.16756403  1
  I  I109  1  0.00176209  0.16493534  0.50173053  1
  I  I110  1  -0.00044345  0.16913333  0.83163895  1
  I  I111  1  -0.00259341  0.49951309  0.15799729  1
  I  I112  1  0.00303119  0.50413546  0.50218877  1
  I  I113  1  -0.00308460  0.50076334  0.83579119  1
  I  I114  1  0.00375649  0.83763243  0.17475200  1
  I  I115  1  0.00333854  0.83263491  0.49751150  1
  I  I116  1  -0.00292638  0.82791768  0.83096879  1
  I  I117  1  0.32757318  0.16446515  0.16766655  1
  I  I118  1  0.32941740  0.16816582  0.50083362  1
  I  I119  1  0.33001038  0.16806935  0.83146143  1
  I  I120  1  0.33304459  0.49952991  0.16555443  1
  I  I121  1  0.32925819  0.49397256  0.50083856  1
  I  I122  1  0.33504310  0.49822372  0.83016160  1
  I  I123  1  0.32883314  0.83675962  0.16698048  1
  I  I124  1  0.33076107  0.83507645  0.49757264  1
  I  I125  1  0.33311890  0.83263059  0.83479581  1
  I  I126  1  0.66696863  0.16802534  0.16711058  1
  I  I127  1  0.66991069  0.16664910  0.50769188  1
  I  I128  1  0.67060541  0.16653137  0.82721220  1
  I  I129  1  0.67088086  0.49906285  0.16594254  1
  I  I130  1  0.66680786  0.50032168  0.49851526  1
  I  I131  1  0.66880218  0.49822250  0.83594555  1
  I  I132  1  0.66696860  0.83218961  0.16794657  1
  I  I133  1  0.66478974  0.83377933  0.50453307  1
  I  I134  1  0.67079961  0.83802393  0.83096067  1
