# generated using pymatgen
data_Cs27Sn13Pb14I81
_symmetry_space_group_name_H-M   'P 1'
_cell_length_a   18.98015199
_cell_length_b   18.97435721
_cell_length_c   18.97539990
_cell_angle_alpha   90.00173127
_cell_angle_beta   90.00070981
_cell_angle_gamma   90.00154634
_symmetry_Int_Tables_number   1
_chemical_formula_structural   Cs27Sn13Pb14I81
_chemical_formula_sum   'Cs27 Sn13 Pb14 I81'
_cell_volume   6833.72810023
_cell_formula_units_Z   1
loop_
 _symmetry_equiv_pos_site_id
 _symmetry_equiv_pos_as_xyz
  1  'x, y, z'
loop_
 _atom_site_type_symbol
 _atom_site_label
 _atom_site_symmetry_multiplicity
 _atom_site_fract_x
 _atom_site_fract_y
 _atom_site_fract_z
 _atom_site_occupancy
  Cs  Cs0  1  0.00200295  -0.00111578  -0.00001361  1
  Cs  Cs1  1  -0.00223695  0.00139456  0.33444461  1
  Cs  Cs2  1  -0.00044096  0.00001645  0.66604566  1
  Cs  Cs3  1  -0.00340199  0.32808806  -0.00358439  1
  Cs  Cs4  1  0.00179675  0.33473738  0.33792857  1
  Cs  Cs5  1  0.00084413  0.33166158  0.66637373  1
  Cs  Cs6  1  -0.00008973  0.66886007  0.00255678  1
  Cs  Cs7  1  -0.00052270  0.66457306  0.33037307  1
  Cs  Cs8  1  0.00020804  0.66706789  0.66703654  1
  Cs  Cs9  1  0.33088055  -0.00149607  -0.00205642  1
  Cs  Cs10  1  0.33674879  0.00246389  0.33511825  1
  Cs  Cs11  1  0.33396340  -0.00058512  0.66869279  1
  Cs  Cs12  1  0.33668797  0.33276269  0.00094704  1
  Cs  Cs13  1  0.33407785  0.33410765  0.33426693  1
  Cs  Cs14  1  0.32954661  0.33233832  0.66542637  1
  Cs  Cs15  1  0.33399348  0.66731574  0.00181554  1
  Cs  Cs16  1  0.32993570  0.66363776  0.32952562  1
  Cs  Cs17  1  0.33363821  0.66764145  0.66776564  1
  Cs  Cs18  1  0.66617293  -0.00005084  0.00109152  1
  Cs  Cs19  1  0.66517233  0.00499405  0.33886860  1
  Cs  Cs20  1  0.66560823  -0.00199187  0.65973811  1
  Cs  Cs21  1  0.66665941  0.33367638  0.00177523  1
  Cs  Cs22  1  0.66428074  0.32890019  0.32931851  1
  Cs  Cs23  1  0.67095297  0.33938411  0.67050809  1
  Cs  Cs24  1  0.66660611  0.66538045  -0.00050017  1
  Cs  Cs25  1  0.66921352  0.66757249  0.33669156  1
  Cs  Cs26  1  0.66653188  0.66558506  0.66408260  1
  Sn  Sn27  1  0.83257087  0.50027817  0.49900746  1
  Sn  Sn28  1  0.16759538  0.16650652  0.83439884  1
  Sn  Sn29  1  0.50109864  0.83325173  0.16625454  1
  Sn  Sn30  1  0.16670179  0.50019976  0.83388236  1
  Sn  Sn31  1  0.16663249  0.16671923  0.16609622  1
  Sn  Sn32  1  0.49969976  0.16606452  0.83311673  1
  Sn  Sn33  1  0.83336901  0.50036022  0.16713100  1
  Sn  Sn34  1  0.16663911  0.83315170  0.83254831  1
  Sn  Sn35  1  0.16675144  0.83322464  0.50029781  1
  Sn  Sn36  1  0.83298259  0.83333785  0.83385140  1
  Sn  Sn37  1  0.83198608  0.83300355  0.16602623  1
  Sn  Sn38  1  0.50034113  0.83397460  0.83399253  1
  Sn  Sn39  1  0.50036234  0.50007656  0.49996270  1
  Pb  Pb40  1  0.49996952  0.16970319  0.50337734  1
  Pb  Pb41  1  0.16653351  0.83477204  0.16653240  1
  Pb  Pb42  1  0.50213618  0.50222176  0.16862784  1
  Pb  Pb43  1  0.49797601  0.16414029  0.16443469  1
  Pb  Pb44  1  0.49805507  0.50027912  0.83208021  1
  Pb  Pb45  1  0.49799895  0.83174327  0.49992372  1
  Pb  Pb46  1  0.83317641  0.17014730  0.50008981  1
  Pb  Pb47  1  0.16430176  0.49734189  0.16401118  1
  Pb  Pb48  1  0.16678575  0.16412066  0.50057356  1
  Pb  Pb49  1  0.83523546  0.83190722  0.49955065  1
  Pb  Pb50  1  0.83536359  0.50232232  0.83369747  1
  Pb  Pb51  1  0.16644666  0.50191358  0.50176579  1
  Pb  Pb52  1  0.83292286  0.16345496  0.83324512  1
  Pb  Pb53  1  0.83526023  0.16609460  0.16656360  1
  I  I54  1  0.16516071  0.00227075  0.16007566  1
  I  I55  1  0.16674736  -0.00373348  0.50606001  1
  I  I56  1  0.16722693  -0.00091276  0.83365617  1
  I  I57  1  0.16531906  0.32979558  0.16096337  1
  I  I58  1  0.16555489  0.33345317  0.50184448  1
  I  I59  1  0.17075244  0.33246913  0.83714567  1
  I  I60  1  0.16785629  0.66675900  0.16592774  1
  I  I61  1  0.16680712  0.66966410  0.50663828  1
  I  I62  1  0.16649308  0.66827350  0.82800616  1
  I  I63  1  0.50568180  -0.00405515  0.16578898  1
  I  I64  1  0.49788058  -0.00017887  0.49838990  1
  I  I65  1  0.49415958  -0.00162721  0.83697411  1
  I  I66  1  0.50067715  0.33325060  0.16596916  1
  I  I67  1  0.50304599  0.33737726  0.50103388  1
  I  I68  1  0.49368567  0.33086844  0.83026354  1
  I  I69  1  0.49888688  0.67036102  0.15918398  1
  I  I70  1  0.50321514  0.66422134  0.50342508  1
  I  I71  1  0.49820433  0.67011388  0.83518774  1
  I  I72  1  0.83227598  -0.00364662  0.16071132  1
  I  I73  1  0.83557898  -0.00042787  0.49997354  1
  I  I74  1  0.83887279  -0.00481950  0.83975310  1
  I  I75  1  0.83626105  0.33620913  0.17134662  1
  I  I76  1  0.83159074  0.33849164  0.49521181  1
  I  I77  1  0.83459178  0.33349841  0.83257327  1
  I  I78  1  0.83164809  0.66781969  0.16620973  1
  I  I79  1  0.83098141  0.66405972  0.49966630  1
  I  I80  1  0.83381069  0.67055432  0.83419762  1
  I  I81  1  0.16893883  0.16355731  -0.00223352  1
  I  I82  1  0.16468411  0.16386938  0.33085392  1
  I  I83  1  0.17015926  0.16795732  0.67055696  1
  I  I84  1  0.16612777  0.50700539  -0.00391577  1
  I  I85  1  0.16784240  0.50057029  0.33321230  1
  I  I86  1  0.16458733  0.49684219  0.66991040  1
  I  I87  1  0.16636286  0.83257351  -0.00328700  1
  I  I88  1  0.16649287  0.83424760  0.33518471  1
  I  I89  1  0.16642708  0.83462428  0.66951620  1
  I  I90  1  0.49704858  0.16586609  -0.00370479  1
  I  I91  1  0.49796991  0.16552865  0.33325737  1
  I  I92  1  0.49142450  0.15793456  0.67123848  1
  I  I93  1  0.50033011  0.49873640  -0.00005890  1
  I  I94  1  0.49951477  0.50301239  0.33649307  1
  I  I95  1  0.50635708  0.50242736  0.66431925  1
  I  I96  1  0.49799915  0.83558608  -0.00152280  1
  I  I97  1  0.50240508  0.83070214  0.33069657  1
  I  I98  1  0.50105795  0.83573012  0.67006090  1
  I  I99  1  0.83285420  0.17234899  -0.00023627  1
  I  I100  1  0.83648396  0.16107596  0.33311454  1
  I  I101  1  0.83665039  0.16669786  0.66705474  1
  I  I102  1  0.83641490  0.50308720  0.00247284  1
  I  I103  1  0.83140051  0.50747245  0.33301653  1
  I  I104  1  0.83102831  0.50168726  0.66466791  1
  I  I105  1  0.83552286  0.82763073  -0.00027424  1
  I  I106  1  0.83185855  0.83080109  0.33028382  1
  I  I107  1  0.83251251  0.83218224  0.66948069  1
  I  I108  1  0.00313285  0.16376313  0.15856202  1
  I  I109  1  0.00035903  0.16806100  0.50224118  1
  I  I110  1  0.00330727  0.16610923  0.83651673  1
  I  I111  1  -0.00336751  0.50863605  0.17317219  1
  I  I112  1  -0.00251608  0.50230628  0.49711732  1
  I  I113  1  0.00331068  0.49995316  0.83122031  1
  I  I114  1  -0.00256546  0.83088344  0.16340993  1
  I  I115  1  0.00296372  0.83124353  0.50536374  1
  I  I116  1  0.00077977  0.83254707  0.83339056  1
  I  I117  1  0.33011484  0.16435856  0.16341681  1
  I  I118  1  0.33326886  0.16973215  0.49764202  1
  I  I119  1  0.33207541  0.16145547  0.83672383  1
  I  I120  1  0.33324102  0.50133582  0.16832600  1
  I  I121  1  0.33517942  0.50203478  0.50356828  1
  I  I122  1  0.33010640  0.50447929  0.83031709  1
  I  I123  1  0.33542469  0.83532172  0.16326520  1
  I  I124  1  0.33034373  0.83066025  0.50511818  1
  I  I125  1  0.33293918  0.83403099  0.83307516  1
  I  I126  1  0.66649052  0.16857929  0.16493897  1
  I  I127  1  0.66633789  0.16172836  0.50099647  1
  I  I128  1  0.66338703  0.16280599  0.83253698  1
  I  I129  1  0.67025882  0.50154001  0.16602231  1
  I  I130  1  0.66741369  0.50302597  0.49891696  1
  I  I131  1  0.66682594  0.49951783  0.83345621  1
  I  I132  1  0.66717638  0.82914020  0.15760760  1
  I  I133  1  0.66669386  0.83267020  0.50317768  1
  I  I134  1  0.66617291  0.83698532  0.83828891  1
