# generated using pymatgen
data_Cs27Sn13Pb14I81
_symmetry_space_group_name_H-M   'P 1'
_cell_length_a   18.97563140
_cell_length_b   18.98118587
_cell_length_c   18.97340375
_cell_angle_alpha   89.99956761
_cell_angle_beta   89.99691761
_cell_angle_gamma   89.99914044
_symmetry_Int_Tables_number   1
_chemical_formula_structural   Cs27Sn13Pb14I81
_chemical_formula_sum   'Cs27 Sn13 Pb14 I81'
_cell_volume   6833.84029778
_cell_formula_units_Z   1
loop_
 _symmetry_equiv_pos_site_id
 _symmetry_equiv_pos_as_xyz
  1  'x, y, z'
loop_
 _atom_site_type_symbol
 _atom_site_label
 _atom_site_symmetry_multiplicity
 _atom_site_fract_x
 _atom_site_fract_y
 _atom_site_fract_z
 _atom_site_occupancy
  Cs  Cs0  1  -0.00155288  0.00579470  -0.00101915  1
  Cs  Cs1  1  -0.00168610  -0.00267882  0.33270268  1
  Cs  Cs2  1  0.00045526  -0.00157530  0.66731380  1
  Cs  Cs3  1  0.00051136  0.32888935  -0.00117479  1
  Cs  Cs4  1  0.00141835  0.33578052  0.33352696  1
  Cs  Cs5  1  -0.00081884  0.33346031  0.66705601  1
  Cs  Cs6  1  0.00339660  0.66672523  -0.00211168  1
  Cs  Cs7  1  -0.00594800  0.66732558  0.33586707  1
  Cs  Cs8  1  0.00030694  0.66886314  0.66520187  1
  Cs  Cs9  1  0.33176691  -0.00167143  0.00144660  1
  Cs  Cs10  1  0.33680508  0.00498017  0.33205056  1
  Cs  Cs11  1  0.33421301  -0.00148389  0.66656114  1
  Cs  Cs12  1  0.33221951  0.33714972  0.00038757  1
  Cs  Cs13  1  0.33191915  0.32861658  0.33636572  1
  Cs  Cs14  1  0.33408804  0.33412822  0.66572308  1
  Cs  Cs15  1  0.33402138  0.66533776  -0.00029663  1
  Cs  Cs16  1  0.33203985  0.66682351  0.33339337  1
  Cs  Cs17  1  0.33272714  0.66752737  0.66777981  1
  Cs  Cs18  1  0.67179057  -0.00112573  0.00174823  1
  Cs  Cs19  1  0.66114143  -0.00227390  0.32604118  1
  Cs  Cs20  1  0.66411234  0.00232720  0.66834476  1
  Cs  Cs21  1  0.66989568  0.33682932  0.00323733  1
  Cs  Cs22  1  0.66609870  0.33420717  0.32972113  1
  Cs  Cs23  1  0.66606173  0.33123904  0.66707899  1
  Cs  Cs24  1  0.66288855  0.66595421  0.00415935  1
  Cs  Cs25  1  0.67582895  0.66821647  0.32769756  1
  Cs  Cs26  1  0.66623485  0.66651782  0.66700573  1
  Sn  Sn27  1  0.49981117  0.50131884  0.50012102  1
  Sn  Sn28  1  0.49915892  0.16615664  0.83342647  1
  Sn  Sn29  1  0.16669735  0.83270653  0.16683419  1
  Sn  Sn30  1  0.16585898  0.49934026  0.83292683  1
  Sn  Sn31  1  0.16730432  0.49978176  0.50014786  1
  Sn  Sn32  1  0.83385881  0.16643824  0.49994651  1
  Sn  Sn33  1  0.16795753  0.16744616  0.83204126  1
  Sn  Sn34  1  0.16674872  0.50107401  0.16701232  1
  Sn  Sn35  1  0.16536704  0.16707651  0.50127304  1
  Sn  Sn36  1  0.49995863  0.83192559  0.50046231  1
  Sn  Sn37  1  0.50084927  0.83407477  0.83267418  1
  Sn  Sn38  1  0.83398666  0.50096229  0.83286879  1
  Sn  Sn39  1  0.83244172  0.83218090  0.83274983  1
  Pb  Pb40  1  0.49748305  0.50005866  0.17034164  1
  Pb  Pb41  1  0.49978910  0.16673727  0.50136477  1
  Pb  Pb42  1  0.83339744  0.49858549  0.50198444  1
  Pb  Pb43  1  0.49984955  0.50011739  0.83193234  1
  Pb  Pb44  1  0.49984612  0.16687020  0.16249436  1
  Pb  Pb45  1  0.83638394  0.49995104  0.16358458  1
  Pb  Pb46  1  0.83622164  0.83324144  0.16354424  1
  Pb  Pb47  1  0.16841000  0.83363150  0.49800299  1
  Pb  Pb48  1  0.83356255  0.16677268  0.17044301  1
  Pb  Pb49  1  0.16668028  0.16709577  0.16686951  1
  Pb  Pb50  1  0.49797992  0.83314515  0.16627897  1
  Pb  Pb51  1  0.16697857  0.83353495  0.83454333  1
  Pb  Pb52  1  0.83339137  0.16681076  0.83218413  1
  Pb  Pb53  1  0.83040236  0.83583929  0.50206005  1
  I  I54  1  0.16743708  -0.00213832  0.16523653  1
  I  I55  1  0.16495936  0.00298716  0.50403909  1
  I  I56  1  0.16713910  0.00269344  0.83070504  1
  I  I57  1  0.16677721  0.33654536  0.16611007  1
  I  I58  1  0.16926910  0.33414204  0.49921968  1
  I  I59  1  0.16647796  0.33394274  0.83457926  1
  I  I60  1  0.16800874  0.66528113  0.16463643  1
  I  I61  1  0.16972609  0.66356313  0.50331074  1
  I  I62  1  0.16597587  0.66382345  0.83128083  1
  I  I63  1  0.49539473  -0.00017903  0.17260250  1
  I  I64  1  0.49935027  -0.00208653  0.50342053  1
  I  I65  1  0.49916213  -0.00057639  0.82634467  1
  I  I66  1  0.49732471  0.33355896  0.16724550  1
  I  I67  1  0.49740148  0.33554748  0.50250033  1
  I  I68  1  0.49830291  0.33125258  0.83010893  1
  I  I69  1  0.49851339  0.66656209  0.16129141  1
  I  I70  1  0.49259417  0.66646019  0.50763866  1
  I  I71  1  0.50016868  0.66914765  0.83067885  1
  I  I72  1  0.83707100  -0.00020858  0.16329205  1
  I  I73  1  0.84042516  0.00336103  0.50436749  1
  I  I74  1  0.83265003  -0.00204618  0.83170346  1
  I  I75  1  0.83530007  0.33354592  0.16249591  1
  I  I76  1  0.83357043  0.33080588  0.50493228  1
  I  I77  1  0.83519239  0.33560744  0.83139543  1
  I  I78  1  0.83303205  0.66658902  0.16969644  1
  I  I79  1  0.83539129  0.66680839  0.50035760  1
  I  I80  1  0.83475476  0.66634754  0.83179225  1
  I  I81  1  0.17029913  0.16938816  -0.00331627  1
  I  I82  1  0.16347640  0.16995837  0.33670102  1
  I  I83  1  0.16699116  0.17407515  0.66706459  1
  I  I84  1  0.16218057  0.49974919  -0.00128226  1
  I  I85  1  0.17274197  0.49880783  0.33455968  1
  I  I86  1  0.16702378  0.49480159  0.66680754  1
  I  I87  1  0.16832723  0.82891273  0.00212755  1
  I  I88  1  0.16912607  0.82959997  0.33045757  1
  I  I89  1  0.16579027  0.83165242  0.66670581  1
  I  I90  1  0.49332315  0.16084636  -0.00583767  1
  I  I91  1  0.49946373  0.16573396  0.33368048  1
  I  I92  1  0.49779993  0.16504567  0.66938498  1
  I  I93  1  0.49930799  0.49966630  -0.00014221  1
  I  I94  1  0.49515734  0.50396532  0.33866668  1
  I  I95  1  0.49320904  0.50081623  0.66410167  1
  I  I96  1  0.50257707  0.83791281  -0.00362001  1
  I  I97  1  0.49683408  0.83070062  0.33627650  1
  I  I98  1  0.50132254  0.83372580  0.66758610  1
  I  I99  1  0.83370718  0.16614695  -0.00039420  1
  I  I100  1  0.84074292  0.16794270  0.33850739  1
  I  I101  1  0.83566381  0.16736661  0.66457723  1
  I  I102  1  0.83662866  0.50178128  -0.00481403  1
  I  I103  1  0.83328295  0.49799382  0.33351317  1
  I  I104  1  0.83995326  0.50267787  0.66996708  1
  I  I105  1  0.82638205  0.83097269  -0.00462709  1
  I  I106  1  0.83239675  0.83514777  0.33344504  1
  I  I107  1  0.83431742  0.82995989  0.67014874  1
  I  I108  1  0.00056154  0.16580331  0.16018995  1
  I  I109  1  0.00224331  0.17235725  0.50660710  1
  I  I110  1  0.00294843  0.16755006  0.83192765  1
  I  I111  1  0.00471267  0.50375802  0.17233919  1
  I  I112  1  0.00349490  0.49699574  0.49872620  1
  I  I113  1  0.00179765  0.49983714  0.83183002  1
  I  I114  1  0.00393240  0.82901209  0.16636902  1
  I  I115  1  -0.00004947  0.83190639  0.50035100  1
  I  I116  1  -0.00178868  0.83264205  0.83592110  1
  I  I117  1  0.33285845  0.16596403  0.17167823  1
  I  I118  1  0.33047127  0.16849386  0.50200646  1
  I  I119  1  0.33201421  0.16657637  0.82705406  1
  I  I120  1  0.32897570  0.50346369  0.15944704  1
  I  I121  1  0.33163742  0.49759754  0.50272059  1
  I  I122  1  0.33015171  0.49907339  0.83453322  1
  I  I123  1  0.33024075  0.82930390  0.16337013  1
  I  I124  1  0.33620559  0.83371801  0.50731436  1
  I  I125  1  0.33585991  0.83450161  0.83103882  1
  I  I126  1  0.66667443  0.16582152  0.16743184  1
  I  I127  1  0.66822916  0.16705831  0.50447161  1
  I  I128  1  0.66450831  0.16563071  0.82953268  1
  I  I129  1  0.66683269  0.49926979  0.16611211  1
  I  I130  1  0.66416164  0.50085549  0.50495464  1
  I  I131  1  0.66864582  0.49973184  0.82940208  1
  I  I132  1  0.66671633  0.83445764  0.16839726  1
  I  I133  1  0.66244264  0.82880876  0.50262477  1
  I  I134  1  0.66581407  0.83436742  0.82850059  1
