# generated using pymatgen
data_Cs27Sn14Pb13I81
_symmetry_space_group_name_H-M   'P 1'
_cell_length_a   18.95895741
_cell_length_b   18.96757060
_cell_length_c   18.95519756
_cell_angle_alpha   89.99946970
_cell_angle_beta   89.99912655
_cell_angle_gamma   90.00113568
_symmetry_Int_Tables_number   1
_chemical_formula_structural   Cs27Sn14Pb13I81
_chemical_formula_sum   'Cs27 Sn14 Pb13 I81'
_cell_volume   6816.39070327
_cell_formula_units_Z   1
loop_
 _symmetry_equiv_pos_site_id
 _symmetry_equiv_pos_as_xyz
  1  'x, y, z'
loop_
 _atom_site_type_symbol
 _atom_site_label
 _atom_site_symmetry_multiplicity
 _atom_site_fract_x
 _atom_site_fract_y
 _atom_site_fract_z
 _atom_site_occupancy
  Cs  Cs0  1  0.00045807  0.00081178  -0.00055397  1
  Cs  Cs1  1  -0.00062183  0.00164648  0.33198554  1
  Cs  Cs2  1  0.00117724  0.00028069  0.66788212  1
  Cs  Cs3  1  0.00133651  0.33453175  -0.00101905  1
  Cs  Cs4  1  0.00215850  0.33353658  0.34014110  1
  Cs  Cs5  1  -0.00090987  0.33192247  0.66501980  1
  Cs  Cs6  1  -0.00020515  0.66522823  -0.00108431  1
  Cs  Cs7  1  0.00198259  0.66440597  0.33226523  1
  Cs  Cs8  1  -0.00276960  0.66781037  0.66815835  1
  Cs  Cs9  1  0.33528324  0.00011050  -0.00031233  1
  Cs  Cs10  1  0.33317857  -0.00026424  0.33473596  1
  Cs  Cs11  1  0.33279447  -0.00245959  0.66606440  1
  Cs  Cs12  1  0.33304005  0.33286902  -0.00029564  1
  Cs  Cs13  1  0.32979931  0.33616344  0.33404495  1
  Cs  Cs14  1  0.33530440  0.33111742  0.66697866  1
  Cs  Cs15  1  0.33288088  0.66771847  -0.00260011  1
  Cs  Cs16  1  0.33230899  0.66478118  0.33324299  1
  Cs  Cs17  1  0.33617026  0.67112773  0.66864618  1
  Cs  Cs18  1  0.66282009  0.00245672  0.01061832  1
  Cs  Cs19  1  0.66706510  0.00052852  0.32614157  1
  Cs  Cs20  1  0.66665369  -0.00060802  0.66594252  1
  Cs  Cs21  1  0.66496874  0.33342019  -0.00117893  1
  Cs  Cs22  1  0.66811196  0.33269998  0.33358000  1
  Cs  Cs23  1  0.66710208  0.33473191  0.66780126  1
  Cs  Cs24  1  0.66722771  0.66522845  0.00221036  1
  Cs  Cs25  1  0.66574486  0.66714471  0.33354109  1
  Cs  Cs26  1  0.66756425  0.66525719  0.66577500  1
  Sn  Sn27  1  0.83298662  0.83384304  0.83341876  1
  Sn  Sn28  1  0.83329195  0.83336377  0.50020317  1
  Sn  Sn29  1  0.16607862  0.49925012  0.83297788  1
  Sn  Sn30  1  0.16625575  0.83325733  0.49909746  1
  Sn  Sn31  1  0.50070709  0.50001117  0.16728294  1
  Sn  Sn32  1  0.16645863  0.83408693  0.16715422  1
  Sn  Sn33  1  0.83421295  0.49984654  0.83402930  1
  Sn  Sn34  1  0.83359085  0.16642072  0.83355796  1
  Sn  Sn35  1  0.83296953  0.49978946  0.16635441  1
  Sn  Sn36  1  0.50024217  0.16658945  0.49996771  1
  Sn  Sn37  1  0.50042677  0.83359702  0.49981391  1
  Sn  Sn38  1  0.16607234  0.16745751  0.83403474  1
  Sn  Sn39  1  0.50011022  0.49980416  0.49922478  1
  Sn  Sn40  1  0.16641118  0.16603012  0.16618791  1
  Pb  Pb41  1  0.16658738  0.49990853  0.16497681  1
  Pb  Pb42  1  0.50361011  0.83360814  0.83167932  1
  Pb  Pb43  1  0.49747879  0.83119918  0.16893342  1
  Pb  Pb44  1  0.49746629  0.16919319  0.16905317  1
  Pb  Pb45  1  0.16811852  0.16468780  0.50052279  1
  Pb  Pb46  1  0.16893309  0.50245588  0.50333132  1
  Pb  Pb47  1  0.50024945  0.50005477  0.83345095  1
  Pb  Pb48  1  0.49995654  0.16640825  0.83177448  1
  Pb  Pb49  1  0.83168466  0.50173575  0.50024463  1
  Pb  Pb50  1  0.83121711  0.16404006  0.50206067  1
  Pb  Pb51  1  0.83530582  0.83158428  0.16664660  1
  Pb  Pb52  1  0.83566745  0.16951929  0.16448824  1
  Pb  Pb53  1  0.16501034  0.83369446  0.83338321  1
  I  I54  1  0.16619867  -0.00008270  0.16491281  1
  I  I55  1  0.16917959  -0.00355283  0.50147553  1
  I  I56  1  0.16254072  0.00251859  0.83353322  1
  I  I57  1  0.16769480  0.33123138  0.16297532  1
  I  I58  1  0.16924773  0.33342815  0.49778708  1
  I  I59  1  0.15985346  0.33286502  0.83870715  1
  I  I60  1  0.16683328  0.66866321  0.16964250  1
  I  I61  1  0.16837536  0.67055310  0.49541990  1
  I  I62  1  0.16304667  0.66471459  0.83337654  1
  I  I63  1  0.50079912  0.00007621  0.16793225  1
  I  I64  1  0.49878598  -0.00111951  0.50354686  1
  I  I65  1  0.49829051  -0.00001541  0.82980263  1
  I  I66  1  0.50164713  0.33700898  0.17205526  1
  I  I67  1  0.49942538  0.33409101  0.49734607  1
  I  I68  1  0.50300044  0.33345626  0.82903167  1
  I  I69  1  0.50138071  0.66329439  0.17163943  1
  I  I70  1  0.49993097  0.66708373  0.49682971  1
  I  I71  1  0.49772133  0.66659116  0.83056135  1
  I  I72  1  0.83287402  0.00013495  0.16594543  1
  I  I73  1  0.83218645  -0.00425525  0.50542646  1
  I  I74  1  0.83857293  -0.00000494  0.82595107  1
  I  I75  1  0.83087121  0.33744415  0.16156577  1
  I  I76  1  0.83101780  0.33331715  0.50082184  1
  I  I77  1  0.83721270  0.33390037  0.83762830  1
  I  I78  1  0.83226304  0.66363804  0.16140800  1
  I  I79  1  0.83160470  0.66994579  0.50562022  1
  I  I80  1  0.83731530  0.66610974  0.83239505  1
  I  I81  1  0.16334515  0.16478322  -0.00083918  1
  I  I82  1  0.16953599  0.16460671  0.33120994  1
  I  I83  1  0.16425453  0.16908635  0.66971860  1
  I  I84  1  0.16698826  0.50147482  -0.00298011  1
  I  I85  1  0.16477946  0.49820567  0.33350077  1
  I  I86  1  0.16107312  0.49536732  0.67102989  1
  I  I87  1  0.16408941  0.83306332  0.00208151  1
  I  I88  1  0.16563660  0.83777206  0.33386791  1
  I  I89  1  0.16912848  0.83268377  0.66417042  1
  I  I90  1  0.50117357  0.16881118  0.00040414  1
  I  I91  1  0.49864113  0.16338751  0.33705277  1
  I  I92  1  0.49796972  0.16874688  0.66336440  1
  I  I93  1  0.50085472  0.49972717  0.00252575  1
  I  I94  1  0.50469812  0.50116695  0.33376277  1
  I  I95  1  0.49960455  0.50139967  0.66373495  1
  I  I96  1  0.49890420  0.83109907  0.00051584  1
  I  I97  1  0.50496986  0.83492813  0.33750640  1
  I  I98  1  0.49408930  0.82997534  0.66255127  1
  I  I99  1  0.83440397  0.16156784  -0.00402343  1
  I  I100  1  0.83410123  0.16699124  0.33322918  1
  I  I101  1  0.83948932  0.17165608  0.67045481  1
  I  I102  1  0.83137625  0.50287470  -0.00127355  1
  I  I103  1  0.83101055  0.50290045  0.33109010  1
  I  I104  1  0.83537718  0.49939064  0.66974799  1
  I  I105  1  0.83750270  0.83311894  -0.00273334  1
  I  I106  1  0.83138055  0.83070567  0.33610687  1
  I  I107  1  0.83507640  0.83068136  0.66668441  1
  I  I108  1  0.00366430  0.16447003  0.16596319  1
  I  I109  1  -0.00001489  0.16508354  0.49875268  1
  I  I110  1  0.00020264  0.16759563  0.83580033  1
  I  I111  1  -0.00220644  0.50149105  0.16243822  1
  I  I112  1  0.00006923  0.50209745  0.49750391  1
  I  I113  1  -0.00117252  0.50033061  0.83900162  1
  I  I114  1  0.00323446  0.83376869  0.17208906  1
  I  I115  1  -0.00010661  0.83302845  0.50139018  1
  I  I116  1  -0.00300399  0.83214233  0.82736843  1
  I  I117  1  0.32960695  0.16447495  0.15998065  1
  I  I118  1  0.33619661  0.16485004  0.50191286  1
  I  I119  1  0.32991177  0.17197694  0.83550579  1
  I  I120  1  0.33538185  0.50029269  0.17017043  1
  I  I121  1  0.33702042  0.50204419  0.49493879  1
  I  I122  1  0.33068636  0.49563712  0.83328290  1
  I  I123  1  0.32948350  0.83424238  0.17073937  1
  I  I124  1  0.33354256  0.83298586  0.49570666  1
  I  I125  1  0.33309815  0.83232175  0.83195767  1
  I  I126  1  0.66669718  0.16594253  0.16591625  1
  I  I127  1  0.66319017  0.16570131  0.50242759  1
  I  I128  1  0.66993046  0.16849142  0.82948514  1
  I  I129  1  0.66695656  0.50140821  0.16438744  1
  I  I130  1  0.66342031  0.50280760  0.50125948  1
  I  I131  1  0.67000436  0.49993261  0.83344438  1
  I  I132  1  0.66672511  0.83319957  0.16680176  1
  I  I133  1  0.66651410  0.83186004  0.50699720  1
  I  I134  1  0.67191769  0.83098080  0.82739770  1
