# generated using pymatgen
data_Cs27Sn13Pb14I81
_symmetry_space_group_name_H-M   'P 1'
_cell_length_a   18.98407428
_cell_length_b   18.96683315
_cell_length_c   18.98069029
_cell_angle_alpha   89.99957056
_cell_angle_beta   90.00013320
_cell_angle_gamma   89.99907644
_symmetry_Int_Tables_number   1
_chemical_formula_structural   Cs27Sn13Pb14I81
_chemical_formula_sum   'Cs27 Sn13 Pb14 I81'
_cell_volume   6834.33481072
_cell_formula_units_Z   1
loop_
 _symmetry_equiv_pos_site_id
 _symmetry_equiv_pos_as_xyz
  1  'x, y, z'
loop_
 _atom_site_type_symbol
 _atom_site_label
 _atom_site_symmetry_multiplicity
 _atom_site_fract_x
 _atom_site_fract_y
 _atom_site_fract_z
 _atom_site_occupancy
  Cs  Cs0  1  -0.00216939  0.00294981  0.00192658  1
  Cs  Cs1  1  -0.00063839  -0.00263727  0.33457216  1
  Cs  Cs2  1  -0.00017481  -0.00434788  0.66335572  1
  Cs  Cs3  1  -0.00032632  0.33308982  -0.00079991  1
  Cs  Cs4  1  0.00038492  0.33423224  0.33310188  1
  Cs  Cs5  1  -0.00066377  0.33427330  0.66766888  1
  Cs  Cs6  1  0.00078693  0.66733777  0.00009522  1
  Cs  Cs7  1  0.00084907  0.66614311  0.33255276  1
  Cs  Cs8  1  0.00465112  0.66932218  0.66747276  1
  Cs  Cs9  1  0.33607130  0.00456584  0.00225561  1
  Cs  Cs10  1  0.33828810  0.00301719  0.33367058  1
  Cs  Cs11  1  0.33365470  -0.00691793  0.66524911  1
  Cs  Cs12  1  0.33369457  0.33143281  0.00011143  1
  Cs  Cs13  1  0.33306804  0.33240340  0.33089699  1
  Cs  Cs14  1  0.33290721  0.33493872  0.66841302  1
  Cs  Cs15  1  0.33331816  0.66830699  -0.00103748  1
  Cs  Cs16  1  0.33269830  0.66583167  0.33305529  1
  Cs  Cs17  1  0.32999296  0.67071489  0.66779385  1
  Cs  Cs18  1  0.66847509  -0.00902238  -0.00082762  1
  Cs  Cs19  1  0.66128368  -0.00606764  0.34193319  1
  Cs  Cs20  1  0.66528634  -0.00350651  0.66013021  1
  Cs  Cs21  1  0.66883659  0.33461330  -0.00294296  1
  Cs  Cs22  1  0.66558894  0.33407581  0.33567277  1
  Cs  Cs23  1  0.66722572  0.33297830  0.66719375  1
  Cs  Cs24  1  0.66599823  0.67203083  0.00256551  1
  Cs  Cs25  1  0.66553546  0.66722030  0.32741852  1
  Cs  Cs26  1  0.66564627  0.66650864  0.66838489  1
  Sn  Sn27  1  0.49969815  0.49943344  0.50093959  1
  Sn  Sn28  1  0.83287648  0.16735215  0.16676338  1
  Sn  Sn29  1  0.50071503  0.16739661  0.83334373  1
  Sn  Sn30  1  0.16599063  0.50058398  0.16707069  1
  Sn  Sn31  1  0.16674572  0.49897677  0.49935987  1
  Sn  Sn32  1  0.83267100  0.49968353  0.83342317  1
  Sn  Sn33  1  0.83287748  0.16718991  0.83376247  1
  Sn  Sn34  1  0.16668348  0.83279429  0.16652273  1
  Sn  Sn35  1  0.83424926  0.49879227  0.16636778  1
  Sn  Sn36  1  0.83339062  0.49954781  0.50019868  1
  Sn  Sn37  1  0.16644601  0.16776153  0.50098060  1
  Sn  Sn38  1  0.50072188  0.49918443  0.83268923  1
  Sn  Sn39  1  0.16638577  0.16704022  0.83208805  1
  Pb  Pb40  1  0.16668329  0.83319722  0.49771412  1
  Pb  Pb41  1  0.16650280  0.83730778  0.83613873  1
  Pb  Pb42  1  0.49975501  0.82961257  0.50011245  1
  Pb  Pb43  1  0.16505866  0.16723773  0.16694972  1
  Pb  Pb44  1  0.16662388  0.49874327  0.83362165  1
  Pb  Pb45  1  0.83353399  0.82955816  0.49991022  1
  Pb  Pb46  1  0.83495225  0.83339482  0.16675840  1
  Pb  Pb47  1  0.50018327  0.49968104  0.16603272  1
  Pb  Pb48  1  0.49748355  0.16903149  0.50242942  1
  Pb  Pb49  1  0.50417084  0.16703220  0.16426676  1
  Pb  Pb50  1  0.49698084  0.83345281  0.16665894  1
  Pb  Pb51  1  0.83502615  0.16835584  0.50024707  1
  Pb  Pb52  1  0.49997669  0.83313894  0.83327172  1
  Pb  Pb53  1  0.83358467  0.83339019  0.83319663  1
  I  I54  1  0.16439866  -0.00148265  0.16486162  1
  I  I55  1  0.16559193  0.00315548  0.50338273  1
  I  I56  1  0.16620309  0.00563286  0.82867645  1
  I  I57  1  0.16412272  0.33626468  0.16845871  1
  I  I58  1  0.16615934  0.33502074  0.49763617  1
  I  I59  1  0.16614043  0.33057332  0.83471297  1
  I  I60  1  0.16117151  0.66405872  0.17196596  1
  I  I61  1  0.16622648  0.66273512  0.49814355  1
  I  I62  1  0.16680033  0.66653968  0.83116184  1
  I  I63  1  0.49828319  0.00043172  0.16397537  1
  I  I64  1  0.49813826  0.00031884  0.50092289  1
  I  I65  1  0.49965035  0.00365119  0.83575219  1
  I  I66  1  0.49313978  0.33352446  0.16850952  1
  I  I67  1  0.50206098  0.33735715  0.50173279  1
  I  I68  1  0.50109585  0.33405148  0.82983203  1
  I  I69  1  0.50427580  0.66608175  0.16485667  1
  I  I70  1  0.49724115  0.66100104  0.50678191  1
  I  I71  1  0.50447065  0.66264539  0.82986675  1
  I  I72  1  0.83677045  0.00328115  0.15862254  1
  I  I73  1  0.83602920  0.00032186  0.49975245  1
  I  I74  1  0.83365290  0.00408582  0.84013515  1
  I  I75  1  0.84034987  0.33504315  0.16478306  1
  I  I76  1  0.83261590  0.33721785  0.50002461  1
  I  I77  1  0.83290818  0.33403220  0.83449356  1
  I  I78  1  0.83492018  0.66274907  0.16664478  1
  I  I79  1  0.83672199  0.66045267  0.49990094  1
  I  I80  1  0.82863751  0.66228354  0.83406903  1
  I  I81  1  0.16791512  0.16702791  -0.00256490  1
  I  I82  1  0.16409625  0.16857229  0.33568367  1
  I  I83  1  0.16453352  0.17427009  0.66695818  1
  I  I84  1  0.16355406  0.50155469  0.00253875  1
  I  I85  1  0.16388148  0.49831197  0.33382750  1
  I  I86  1  0.16435028  0.49690238  0.66411079  1
  I  I87  1  0.16555028  0.82517879  0.00353590  1
  I  I88  1  0.16463535  0.83220340  0.33014973  1
  I  I89  1  0.16728871  0.83101288  0.66660718  1
  I  I90  1  0.49214337  0.17479447  -0.00428743  1
  I  I91  1  0.49821888  0.16735789  0.33367259  1
  I  I92  1  0.50542512  0.17016599  0.67066061  1
  I  I93  1  0.50228607  0.49609640  -0.00348346  1
  I  I94  1  0.50172626  0.50116079  0.33612588  1
  I  I95  1  0.50326599  0.49549376  0.66703724  1
  I  I96  1  0.49963802  0.83043492  -0.00018577  1
  I  I97  1  0.50053943  0.83245746  0.33347215  1
  I  I98  1  0.49842572  0.83475077  0.66675676  1
  I  I99  1  0.83696608  0.17536624  -0.00102948  1
  I  I100  1  0.83870232  0.17234583  0.33092066  1
  I  I101  1  0.83257666  0.17198757  0.66996642  1
  I  I102  1  0.83422699  0.49570404  -0.00012533  1
  I  I103  1  0.83486010  0.49633601  0.33301640  1
  I  I104  1  0.83279921  0.49557635  0.66710925  1
  I  I105  1  0.83449104  0.82929341  0.00003358  1
  I  I106  1  0.83475466  0.83480433  0.33315681  1
  I  I107  1  0.83452055  0.83424641  0.66664182  1
  I  I108  1  -0.00266758  0.16932351  0.16022402  1
  I  I109  1  0.00302114  0.17330626  0.50457537  1
  I  I110  1  -0.00070350  0.17180763  0.83468449  1
  I  I111  1  -0.00034053  0.49999378  0.16922019  1
  I  I112  1  0.00023444  0.49608535  0.49889312  1
  I  I113  1  -0.00279212  0.49554775  0.83205652  1
  I  I114  1  0.00273504  0.83056765  0.16699900  1
  I  I115  1  0.00037045  0.83177132  0.50002141  1
  I  I116  1  0.00016060  0.83136365  0.83317273  1
  I  I117  1  0.33328544  0.16603199  0.16528370  1
  I  I118  1  0.32943526  0.17273022  0.50286649  1
  I  I119  1  0.33332121  0.17159593  0.82979549  1
  I  I120  1  0.33025522  0.50391113  0.16983236  1
  I  I121  1  0.33253800  0.49622288  0.49968677  1
  I  I122  1  0.33558625  0.49542448  0.83070173  1
  I  I123  1  0.32885964  0.82600054  0.16640383  1
  I  I124  1  0.33302333  0.83153374  0.49896826  1
  I  I125  1  0.33317115  0.83146129  0.83455875  1
  I  I126  1  0.67202478  0.17583330  0.16232680  1
  I  I127  1  0.66664126  0.16795928  0.49958897  1
  I  I128  1  0.66744126  0.17329146  0.83938796  1
  I  I129  1  0.67016831  0.49569710  0.16925874  1
  I  I130  1  0.66721433  0.50017105  0.50066692  1
  I  I131  1  0.66746993  0.49267888  0.83006360  1
  I  I132  1  0.66683728  0.83230424  0.16581589  1
  I  I133  1  0.66657832  0.83495169  0.49937648  1
  I  I134  1  0.66674653  0.83564024  0.83490749  1
