# generated using pymatgen
data_Cs27Sn14Pb13I81
_symmetry_space_group_name_H-M   'P 1'
_cell_length_a   18.96035181
_cell_length_b   18.96467373
_cell_length_c   18.95694555
_cell_angle_alpha   90.00115306
_cell_angle_beta   90.00164300
_cell_angle_gamma   90.00093294
_symmetry_Int_Tables_number   1
_chemical_formula_structural   Cs27Sn14Pb13I81
_chemical_formula_sum   'Cs27 Sn14 Pb13 I81'
_cell_volume   6816.47944063
_cell_formula_units_Z   1
loop_
 _symmetry_equiv_pos_site_id
 _symmetry_equiv_pos_as_xyz
  1  'x, y, z'
loop_
 _atom_site_type_symbol
 _atom_site_label
 _atom_site_symmetry_multiplicity
 _atom_site_fract_x
 _atom_site_fract_y
 _atom_site_fract_z
 _atom_site_occupancy
  Cs  Cs0  1  -0.00158261  0.00094161  -0.00088727  1
  Cs  Cs1  1  0.00026810  -0.00045272  0.33895068  1
  Cs  Cs2  1  -0.00178902  -0.00075418  0.66395731  1
  Cs  Cs3  1  -0.00156404  0.33266524  -0.00044292  1
  Cs  Cs4  1  0.00198546  0.33132924  0.33349006  1
  Cs  Cs5  1  0.00206538  0.33341398  0.66713390  1
  Cs  Cs6  1  -0.00081359  0.66621468  -0.00160834  1
  Cs  Cs7  1  0.00811419  0.66991962  0.33111989  1
  Cs  Cs8  1  0.00073785  0.66774958  0.66815210  1
  Cs  Cs9  1  0.33427662  -0.00016447  -0.00082451  1
  Cs  Cs10  1  0.33091671  -0.00038774  0.33202929  1
  Cs  Cs11  1  0.33617737  0.00041448  0.66930091  1
  Cs  Cs12  1  0.32984048  0.33071837  -0.00055570  1
  Cs  Cs13  1  0.33515777  0.33247258  0.33550869  1
  Cs  Cs14  1  0.33440500  0.33596414  0.66566202  1
  Cs  Cs15  1  0.33089052  0.66964979  0.00832363  1
  Cs  Cs16  1  0.32867867  0.67024871  0.32615931  1
  Cs  Cs17  1  0.33405306  0.66171386  0.66614057  1
  Cs  Cs18  1  0.66716045  0.00058018  -0.00228596  1
  Cs  Cs19  1  0.66847318  0.00134903  0.33530280  1
  Cs  Cs20  1  0.66651616  -0.00148342  0.66748744  1
  Cs  Cs21  1  0.66879935  0.33246501  0.00057709  1
  Cs  Cs22  1  0.66549841  0.33450822  0.33346526  1
  Cs  Cs23  1  0.66548631  0.33548201  0.66648828  1
  Cs  Cs24  1  0.66749338  0.66757802  0.00209158  1
  Cs  Cs25  1  0.66529058  0.66284038  0.33398695  1
  Cs  Cs26  1  0.66714081  0.66465079  0.66579742  1
  Sn  Sn27  1  0.16568275  0.16567457  0.83373663  1
  Sn  Sn28  1  0.50044297  0.16634477  0.49940245  1
  Sn  Sn29  1  0.50032275  0.16667446  0.16733762  1
  Sn  Sn30  1  0.16631039  0.83416964  0.83307619  1
  Sn  Sn31  1  0.83376023  0.83350874  0.83378098  1
  Sn  Sn32  1  0.83333360  0.50007255  0.50047823  1
  Sn  Sn33  1  0.83289074  0.83414574  0.16640742  1
  Sn  Sn34  1  0.83395924  0.16664861  0.83353784  1
  Sn  Sn35  1  0.50060971  0.50019174  0.83371692  1
  Sn  Sn36  1  0.49999304  0.83288436  0.50002277  1
  Sn  Sn37  1  0.83230412  0.49990911  0.83244886  1
  Sn  Sn38  1  0.83346956  0.16567432  0.16624677  1
  Sn  Sn39  1  0.50078698  0.50064847  0.50051605  1
  Sn  Sn40  1  0.16609850  0.16644501  0.16589418  1
  Pb  Pb41  1  0.16929184  0.16655117  0.50074794  1
  Pb  Pb42  1  0.16948870  0.83345622  0.50302618  1
  Pb  Pb43  1  0.50009526  0.83054367  0.83205721  1
  Pb  Pb44  1  0.83148067  0.16860274  0.50024701  1
  Pb  Pb45  1  0.50012785  0.16837593  0.83341216  1
  Pb  Pb46  1  0.16676445  0.50010555  0.49994058  1
  Pb  Pb47  1  0.16651567  0.49709422  0.16652873  1
  Pb  Pb48  1  0.83186370  0.83084531  0.49996700  1
  Pb  Pb49  1  0.50247150  0.83596807  0.16889988  1
  Pb  Pb50  1  0.83350284  0.49992917  0.16674282  1
  Pb  Pb51  1  0.16645555  0.49995525  0.83348139  1
  Pb  Pb52  1  0.16393243  0.83612911  0.16423207  1
  Pb  Pb53  1  0.49993681  0.49786979  0.16662194  1
  I  I54  1  0.17007393  0.00414485  0.16438581  1
  I  I55  1  0.16822470  0.00014645  0.49894337  1
  I  I56  1  0.16038617  0.00106646  0.83646808  1
  I  I57  1  0.16362250  0.32828882  0.15970037  1
  I  I58  1  0.16897282  0.33307408  0.50137611  1
  I  I59  1  0.16389071  0.33008856  0.83756919  1
  I  I60  1  0.16610738  0.66747278  0.16600429  1
  I  I61  1  0.16824423  0.66683582  0.50195840  1
  I  I62  1  0.16315060  0.66936003  0.83128900  1
  I  I63  1  0.49845012  0.00430285  0.17057542  1
  I  I64  1  0.49971430  0.00068135  0.49608976  1
  I  I65  1  0.50175207  0.00006050  0.83120659  1
  I  I66  1  0.50308234  0.32926174  0.17127590  1
  I  I67  1  0.50331773  0.33368887  0.49969786  1
  I  I68  1  0.50398577  0.33612295  0.82829393  1
  I  I69  1  0.50151435  0.66700533  0.16735864  1
  I  I70  1  0.50500573  0.66546605  0.50696674  1
  I  I71  1  0.50416759  0.66276159  0.82647093  1
  I  I72  1  0.83211096  0.00141047  0.15892007  1
  I  I73  1  0.83015960  -0.00001329  0.50210786  1
  I  I74  1  0.83718249  0.00040876  0.83797617  1
  I  I75  1  0.83315731  0.32974223  0.16335987  1
  I  I76  1  0.82681438  0.33646623  0.50389236  1
  I  I77  1  0.83306959  0.33274851  0.83404014  1
  I  I78  1  0.83209894  0.66942133  0.16296017  1
  I  I79  1  0.82582852  0.66303770  0.50477533  1
  I  I80  1  0.83340418  0.66683803  0.83341483  1
  I  I81  1  0.16857417  0.16404679  -0.00056653  1
  I  I82  1  0.16399830  0.16794140  0.33031440  1
  I  I83  1  0.16286387  0.16423029  0.67034597  1
  I  I84  1  0.16791635  0.50140120  -0.00052080  1
  I  I85  1  0.16633276  0.49861324  0.33331996  1
  I  I86  1  0.16760618  0.49667700  0.66702449  1
  I  I87  1  0.16681622  0.83447966  -0.00379058  1
  I  I88  1  0.16589792  0.83381383  0.33298551  1
  I  I89  1  0.15908654  0.83977804  0.67100954  1
  I  I90  1  0.50034196  0.16885418  0.00236082  1
  I  I91  1  0.50056932  0.16907686  0.33322908  1
  I  I92  1  0.50015929  0.16668977  0.66432794  1
  I  I93  1  0.50522714  0.49769844  -0.00296695  1
  I  I94  1  0.50551254  0.49968672  0.33677859  1
  I  I95  1  0.50392295  0.49694018  0.66602662  1
  I  I96  1  0.49859228  0.83310639  0.00002614  1
  I  I97  1  0.50242727  0.82834034  0.33693314  1
  I  I98  1  0.50199664  0.83857317  0.66394801  1
  I  I99  1  0.83158866  0.16832220  -0.00055947  1
  I  I100  1  0.83507100  0.16386217  0.33045274  1
  I  I101  1  0.83599809  0.16453851  0.66997651  1
  I  I102  1  0.82942743  0.49931646  -0.00352325  1
  I  I103  1  0.82665447  0.49871943  0.33617265  1
  I  I104  1  0.82847289  0.49945891  0.66828939  1
  I  I105  1  0.83568505  0.83232979  -0.00149836  1
  I  I106  1  0.83030807  0.83805640  0.33087636  1
  I  I107  1  0.83540568  0.83594745  0.66998251  1
  I  I108  1  -0.00093116  0.16438147  0.16082830  1
  I  I109  1  -0.00026218  0.16906499  0.49760996  1
  I  I110  1  -0.00116101  0.16869120  0.84033479  1
  I  I111  1  -0.00050546  0.49810815  0.16703523  1
  I  I112  1  -0.00338157  0.49889717  0.50536711  1
  I  I113  1  -0.00364685  0.49951457  0.82969372  1
  I  I114  1  -0.00403406  0.83739045  0.16634438  1
  I  I115  1  -0.00021426  0.83159679  0.49816380  1
  I  I116  1  -0.00165767  0.83189650  0.83658163  1
  I  I117  1  0.33332257  0.16915881  0.16648379  1
  I  I118  1  0.33772364  0.16994269  0.49700888  1
  I  I119  1  0.33105691  0.16413065  0.83600962  1
  I  I120  1  0.33355918  0.49863231  0.16621867  1
  I  I121  1  0.33740373  0.49798443  0.50579418  1
  I  I122  1  0.33611767  0.49798796  0.82737587  1
  I  I123  1  0.33320248  0.83396879  0.16628840  1
  I  I124  1  0.33767677  0.83157712  0.50126342  1
  I  I125  1  0.33103588  0.83786639  0.83033307  1
  I  I126  1  0.66763425  0.16411676  0.16614034  1
  I  I127  1  0.66320931  0.16622595  0.49675113  1
  I  I128  1  0.66960870  0.16472664  0.83615100  1
  I  I129  1  0.66683872  0.49677733  0.16625522  1
  I  I130  1  0.66571602  0.49917876  0.50497437  1
  I  I131  1  0.66804240  0.49884788  0.82878365  1
  I  I132  1  0.67035169  0.83891664  0.15936304  1
  I  I133  1  0.66381737  0.83545715  0.50237775  1
  I  I134  1  0.66996648  0.83652926  0.83540876  1
