# generated using pymatgen
data_Cs27Sn13Pb14I81
_symmetry_space_group_name_H-M   'P 1'
_cell_length_a   19.01748729
_cell_length_b   19.02722534
_cell_length_c   19.01624387
_cell_angle_alpha   90.00086986
_cell_angle_beta   89.99726670
_cell_angle_gamma   90.00082110
_symmetry_Int_Tables_number   1
_chemical_formula_structural   Cs27Sn13Pb14I81
_chemical_formula_sum   'Cs27 Sn13 Pb14 I81'
_cell_volume   6881.02813646
_cell_formula_units_Z   1
loop_
 _symmetry_equiv_pos_site_id
 _symmetry_equiv_pos_as_xyz
  1  'x, y, z'
loop_
 _atom_site_type_symbol
 _atom_site_label
 _atom_site_symmetry_multiplicity
 _atom_site_fract_x
 _atom_site_fract_y
 _atom_site_fract_z
 _atom_site_occupancy
  Cs  Cs0  1  0.00183285  -0.00192858  -0.00193247  1
  Cs  Cs1  1  0.00174458  -0.00254997  0.33614854  1
  Cs  Cs2  1  0.00254388  -0.00153982  0.66763918  1
  Cs  Cs3  1  0.00091561  0.33812645  -0.00498537  1
  Cs  Cs4  1  -0.00590427  0.34617610  0.33666681  1
  Cs  Cs5  1  -0.00171659  0.33365847  0.66953994  1
  Cs  Cs6  1  -0.00161839  0.66732966  0.00008753  1
  Cs  Cs7  1  -0.00039180  0.66085744  0.33219603  1
  Cs  Cs8  1  0.00049507  0.66994764  0.66810313  1
  Cs  Cs9  1  0.33083010  0.00127534  0.00177130  1
  Cs  Cs10  1  0.33355980  -0.00028172  0.33206714  1
  Cs  Cs11  1  0.32940004  -0.00255966  0.66434859  1
  Cs  Cs12  1  0.33360830  0.33088298  0.00065724  1
  Cs  Cs13  1  0.33326341  0.33598363  0.33307910  1
  Cs  Cs14  1  0.33468600  0.33770505  0.66673804  1
  Cs  Cs15  1  0.33652414  0.66603523  0.00191404  1
  Cs  Cs16  1  0.33150850  0.66493665  0.33116540  1
  Cs  Cs17  1  0.34375151  0.66632889  0.66569962  1
  Cs  Cs18  1  0.66760988  0.00308984  0.00293213  1
  Cs  Cs19  1  0.66635601  0.01299019  0.33132845  1
  Cs  Cs20  1  0.66505402  -0.00216928  0.66434164  1
  Cs  Cs21  1  0.66366579  0.32874324  0.00018106  1
  Cs  Cs22  1  0.67503685  0.31930473  0.34158126  1
  Cs  Cs23  1  0.66651008  0.33509663  0.66023242  1
  Cs  Cs24  1  0.66451903  0.66674972  -0.00088991  1
  Cs  Cs25  1  0.66945005  0.66424874  0.33027791  1
  Cs  Cs26  1  0.65548133  0.66713115  0.66835410  1
  Sn  Sn27  1  0.50071261  0.16599700  0.83288801  1
  Sn  Sn28  1  0.83368142  0.83321431  0.83235746  1
  Sn  Sn29  1  0.50067367  0.49989474  0.16706100  1
  Sn  Sn30  1  0.16565052  0.16649755  0.16837466  1
  Sn  Sn31  1  0.16712218  0.83395446  0.16665428  1
  Sn  Sn32  1  0.83346827  0.50081463  0.83335299  1
  Sn  Sn33  1  0.16596399  0.83364154  0.49996961  1
  Sn  Sn34  1  0.83212700  0.16603785  0.83336015  1
  Sn  Sn35  1  0.16658002  0.83188376  0.83329647  1
  Sn  Sn36  1  0.16652520  0.50196686  0.83337939  1
  Sn  Sn37  1  0.16630450  0.16642194  0.49837425  1
  Sn  Sn38  1  0.83369810  0.83323291  0.50082759  1
  Sn  Sn39  1  0.49966596  0.83285295  0.16677525  1
  Pb  Pb40  1  0.83654021  0.16400648  0.50286663  1
  Pb  Pb41  1  0.83751337  0.16655414  0.16445525  1
  Pb  Pb42  1  0.16773255  0.50025202  0.16425967  1
  Pb  Pb43  1  0.50005734  0.83542467  0.83543012  1
  Pb  Pb44  1  0.83374275  0.83353493  0.16682332  1
  Pb  Pb45  1  0.49677798  0.16631678  0.50284101  1
  Pb  Pb46  1  0.50026051  0.49992778  0.49604417  1
  Pb  Pb47  1  0.16673072  0.50091592  0.50296553  1
  Pb  Pb48  1  0.83333509  0.50351753  0.50323804  1
  Pb  Pb49  1  0.50034763  0.49782452  0.83485193  1
  Pb  Pb50  1  0.49772187  0.16658357  0.16539494  1
  Pb  Pb51  1  0.50029421  0.83336825  0.49658290  1
  Pb  Pb52  1  0.16624685  0.16630646  0.83305361  1
  Pb  Pb53  1  0.83017303  0.49983880  0.16412183  1
  I  I54  1  0.17348432  -0.00171492  0.16306731  1
  I  I55  1  0.16319327  -0.00164672  0.50316581  1
  I  I56  1  0.16386898  -0.00307896  0.83404510  1
  I  I57  1  0.16989379  0.33078149  0.16724545  1
  I  I58  1  0.16930615  0.33084309  0.49701331  1
  I  I59  1  0.16396990  0.33509388  0.83454082  1
  I  I60  1  0.16875615  0.67008326  0.16877759  1
  I  I61  1  0.16149819  0.67059067  0.49596748  1
  I  I62  1  0.15759477  0.66836486  0.83481160  1
  I  I63  1  0.49690523  -0.00249447  0.16464567  1
  I  I64  1  0.50272916  -0.00024290  0.49772579  1
  I  I65  1  0.50295133  0.00275046  0.83732618  1
  I  I66  1  0.49627911  0.33523313  0.16045554  1
  I  I67  1  0.49738584  0.33295594  0.49887476  1
  I  I68  1  0.50111478  0.33039543  0.83802296  1
  I  I69  1  0.49208769  0.66788832  0.16367663  1
  I  I70  1  0.49719941  0.66706846  0.50608526  1
  I  I71  1  0.50175066  0.66685869  0.83280413  1
  I  I72  1  0.82624598  -0.00016367  0.16241069  1
  I  I73  1  0.83569189  -0.00338069  0.50727920  1
  I  I74  1  0.83528085  -0.00099887  0.83005663  1
  I  I75  1  0.83318196  0.33316627  0.16376762  1
  I  I76  1  0.83354216  0.33324153  0.50022417  1
  I  I77  1  0.83609132  0.33338624  0.83744815  1
  I  I78  1  0.83797933  0.66690817  0.16470163  1
  I  I79  1  0.84331041  0.67111727  0.50426661  1
  I  I80  1  0.84058565  0.66762296  0.83014480  1
  I  I81  1  0.16761567  0.16261072  0.00167588  1
  I  I82  1  0.16969944  0.15457824  0.33293953  1
  I  I83  1  0.16645158  0.16217254  0.66479941  1
  I  I84  1  0.16243155  0.50283120  -0.00347460  1
  I  I85  1  0.16967520  0.50117839  0.33340639  1
  I  I86  1  0.16263615  0.50134750  0.67101366  1
  I  I87  1  0.16642348  0.83469569  -0.00045559  1
  I  I88  1  0.16729071  0.84031958  0.33329043  1
  I  I89  1  0.16061585  0.83567617  0.66715897  1
  I  I90  1  0.50111895  0.16662734  -0.00241149  1
  I  I91  1  0.50151270  0.16708712  0.33340847  1
  I  I92  1  0.50254817  0.16735628  0.67066133  1
  I  I93  1  0.49888658  0.50501629  0.00201907  1
  I  I94  1  0.49428580  0.50727149  0.32830321  1
  I  I95  1  0.49945443  0.49800466  0.66694133  1
  I  I96  1  0.49427061  0.83052782  0.00269605  1
  I  I97  1  0.49363995  0.82905656  0.32910644  1
  I  I98  1  0.49697945  0.83482078  0.66658034  1
  I  I99  1  0.83174483  0.16229089  -0.00410705  1
  I  I100  1  0.82937529  0.16467272  0.33378115  1
  I  I101  1  0.83236969  0.16981723  0.67079262  1
  I  I102  1  0.83941254  0.50438314  -0.00427296  1
  I  I103  1  0.83220680  0.50164226  0.33367752  1
  I  I104  1  0.83874636  0.49484613  0.67129294  1
  I  I105  1  0.83745161  0.83302869  -0.00338295  1
  I  I106  1  0.83782796  0.83321017  0.33616788  1
  I  I107  1  0.84403293  0.83467786  0.66839086  1
  I  I108  1  0.00505875  0.15609443  0.16647070  1
  I  I109  1  0.00385433  0.16278543  0.49896531  1
  I  I110  1  -0.00232654  0.16673792  0.83360258  1
  I  I111  1  -0.00015854  0.49967110  0.16748919  1
  I  I112  1  0.00017341  0.49632006  0.49518473  1
  I  I113  1  0.00013751  0.49705768  0.83507360  1
  I  I114  1  0.00345335  0.83900439  0.16463123  1
  I  I115  1  0.00158525  0.83897735  0.50050143  1
  I  I116  1  0.00078645  0.83555344  0.83562563  1
  I  I117  1  0.33007477  0.16413895  0.16494347  1
  I  I118  1  0.32913451  0.15743110  0.49977179  1
  I  I119  1  0.33455105  0.16719464  0.83477455  1
  I  I120  1  0.33517154  0.50182958  0.16095987  1
  I  I121  1  0.33308924  0.50162181  0.50654977  1
  I  I122  1  0.33079735  0.50262291  0.83430762  1
  I  I123  1  0.33139644  0.83358111  0.16502412  1
  I  I124  1  0.32982669  0.83765265  0.50443217  1
  I  I125  1  0.32995585  0.83090449  0.83057895  1
  I  I126  1  0.66683339  0.16596059  0.16624011  1
  I  I127  1  0.66696454  0.16588861  0.49809587  1
  I  I128  1  0.66772046  0.16654052  0.83631889  1
  I  I129  1  0.66260075  0.51095138  0.16196657  1
  I  I130  1  0.66691656  0.50284532  0.50442602  1
  I  I131  1  0.66973525  0.50381209  0.83535408  1
  I  I132  1  0.66417397  0.82713133  0.16392519  1
  I  I133  1  0.66969648  0.83055986  0.50799910  1
  I  I134  1  0.66985130  0.83040377  0.82939484  1
