# generated using pymatgen
data_Cs27Sn14Pb13I81
_symmetry_space_group_name_H-M   'P 1'
_cell_length_a   18.97268744
_cell_length_b   18.98141601
_cell_length_c   18.97296175
_cell_angle_alpha   90.00174645
_cell_angle_beta   90.00166019
_cell_angle_gamma   90.00085543
_symmetry_Int_Tables_number   1
_chemical_formula_structural   Cs27Sn14Pb13I81
_chemical_formula_sum   'Cs27 Sn14 Pb13 I81'
_cell_volume   6832.70373945
_cell_formula_units_Z   1
loop_
 _symmetry_equiv_pos_site_id
 _symmetry_equiv_pos_as_xyz
  1  'x, y, z'
loop_
 _atom_site_type_symbol
 _atom_site_label
 _atom_site_symmetry_multiplicity
 _atom_site_fract_x
 _atom_site_fract_y
 _atom_site_fract_z
 _atom_site_occupancy
  Cs  Cs0  1  0.00387388  -0.00081908  -0.00371009  1
  Cs  Cs1  1  -0.00173345  0.00062603  0.33539611  1
  Cs  Cs2  1  0.00034318  0.00288023  0.66387329  1
  Cs  Cs3  1  -0.00078370  0.33380187  -0.00041331  1
  Cs  Cs4  1  0.00008646  0.33219532  0.33450969  1
  Cs  Cs5  1  -0.00004884  0.33319406  0.66591994  1
  Cs  Cs6  1  0.00079624  0.66848435  -0.00006748  1
  Cs  Cs7  1  0.00123923  0.66730228  0.33333255  1
  Cs  Cs8  1  -0.00345911  0.66512566  0.66549664  1
  Cs  Cs9  1  0.33124810  0.00060469  -0.01164953  1
  Cs  Cs10  1  0.33325608  0.00076113  0.33478442  1
  Cs  Cs11  1  0.33963639  0.00035676  0.67593884  1
  Cs  Cs12  1  0.33341863  0.33448578  -0.00243464  1
  Cs  Cs13  1  0.33244551  0.33384654  0.33505342  1
  Cs  Cs14  1  0.33348883  0.33380533  0.66753708  1
  Cs  Cs15  1  0.33094465  0.66568358  0.00501731  1
  Cs  Cs16  1  0.33351219  0.66623816  0.33064722  1
  Cs  Cs17  1  0.33852941  0.66441813  0.66482053  1
  Cs  Cs18  1  0.66355976  0.00165496  0.00450790  1
  Cs  Cs19  1  0.66796503  0.00078225  0.33008782  1
  Cs  Cs20  1  0.66051685  -0.00319514  0.66870229  1
  Cs  Cs21  1  0.66720749  0.33379520  0.00368547  1
  Cs  Cs22  1  0.66598675  0.33160067  0.33112241  1
  Cs  Cs23  1  0.66835610  0.33575920  0.66475964  1
  Cs  Cs24  1  0.66788634  0.66495329  -0.00029795  1
  Cs  Cs25  1  0.66640450  0.66684045  0.33302695  1
  Cs  Cs26  1  0.66631529  0.66784814  0.66952461  1
  Sn  Sn27  1  0.50080062  0.50062252  0.16611761  1
  Sn  Sn28  1  0.49936466  0.49997174  0.83425641  1
  Sn  Sn29  1  0.16704677  0.50039263  0.83228384  1
  Sn  Sn30  1  0.83313456  0.16649102  0.83232030  1
  Sn  Sn31  1  0.83350153  0.16655286  0.50116081  1
  Sn  Sn32  1  0.16635713  0.16631960  0.49931082  1
  Sn  Sn33  1  0.83298267  0.83247417  0.16729457  1
  Sn  Sn34  1  0.83400243  0.50012161  0.49890364  1
  Sn  Sn35  1  0.83298938  0.50080641  0.16766181  1
  Sn  Sn36  1  0.83400114  0.83323767  0.49928192  1
  Sn  Sn37  1  0.16643183  0.83347185  0.50015506  1
  Sn  Sn38  1  0.16677253  0.16653395  0.16715938  1
  Sn  Sn39  1  0.50027844  0.83285404  0.16701521  1
  Sn  Sn40  1  0.16590611  0.50022735  0.50081196  1
  Pb  Pb41  1  0.16506467  0.16874132  0.83226741  1
  Pb  Pb42  1  0.83337786  0.83602607  0.83340593  1
  Pb  Pb43  1  0.49674085  0.16663216  0.16672558  1
  Pb  Pb44  1  0.50031062  0.49993738  0.49934239  1
  Pb  Pb45  1  0.16644461  0.83588160  0.16857452  1
  Pb  Pb46  1  0.50033441  0.83333102  0.49773017  1
  Pb  Pb47  1  0.16632059  0.83012331  0.82961664  1
  Pb  Pb48  1  0.50002985  0.16654035  0.49996425  1
  Pb  Pb49  1  0.50319689  0.16960444  0.83334990  1
  Pb  Pb50  1  0.16629263  0.49862498  0.16723797  1
  Pb  Pb51  1  0.50017349  0.83035331  0.83668267  1
  Pb  Pb52  1  0.83500968  0.16637111  0.16711706  1
  Pb  Pb53  1  0.83341296  0.49874606  0.83344262  1
  I  I54  1  0.16465673  0.00334439  0.17310574  1
  I  I55  1  0.15848047  0.00041595  0.49213077  1
  I  I56  1  0.16585146  0.00008871  0.83449167  1
  I  I57  1  0.16514120  0.33107830  0.17262167  1
  I  I58  1  0.16064673  0.33361356  0.49965384  1
  I  I59  1  0.16948645  0.33655897  0.82811157  1
  I  I60  1  0.16718703  0.66675658  0.16675027  1
  I  I61  1  0.16019943  0.66600784  0.50431388  1
  I  I62  1  0.16865663  0.66200376  0.83078221  1
  I  I63  1  0.50614546  -0.00290761  0.17023472  1
  I  I64  1  0.50003364  -0.00017402  0.49698051  1
  I  I65  1  0.49981872  -0.00004264  0.83419455  1
  I  I66  1  0.50462395  0.33669441  0.16319114  1
  I  I67  1  0.50057008  0.33360384  0.49744169  1
  I  I68  1  0.49555268  0.33733472  0.84024439  1
  I  I69  1  0.50359551  0.66556833  0.16315112  1
  I  I70  1  0.49871101  0.66644912  0.50248315  1
  I  I71  1  0.49803381  0.66248167  0.83318390  1
  I  I72  1  0.82980439  -0.00268466  0.17003871  1
  I  I73  1  0.84014580  -0.00019440  0.49894007  1
  I  I74  1  0.83595475  0.00382089  0.82954132  1
  I  I75  1  0.83043012  0.33599528  0.16925573  1
  I  I76  1  0.83890388  0.33384915  0.50014350  1
  I  I77  1  0.83415794  0.33104961  0.82906159  1
  I  I78  1  0.83006227  0.66597672  0.17384075  1
  I  I79  1  0.83979652  0.66622480  0.49498315  1
  I  I80  1  0.83275373  0.66652042  0.83098018  1
  I  I81  1  0.16422117  0.16899814  0.00161389  1
  I  I82  1  0.16076191  0.17006702  0.33548465  1
  I  I83  1  0.16301534  0.16607085  0.66299159  1
  I  I84  1  0.16724421  0.49581255  -0.00160272  1
  I  I85  1  0.16553633  0.50069056  0.33654495  1
  I  I86  1  0.16625448  0.49754079  0.66496241  1
  I  I87  1  0.16674030  0.83475496  0.00006049  1
  I  I88  1  0.16488828  0.82765329  0.33680812  1
  I  I89  1  0.15896490  0.83907069  0.66139009  1
  I  I90  1  0.50026869  0.16502438  0.00015304  1
  I  I91  1  0.50374309  0.17039255  0.33301612  1
  I  I92  1  0.49583516  0.16823957  0.66684412  1
  I  I93  1  0.50009759  0.50344708  0.00103325  1
  I  I94  1  0.50089801  0.50386258  0.33013846  1
  I  I95  1  0.49868102  0.49784812  0.66877995  1
  I  I96  1  0.50710671  0.83214530  0.00461308  1
  I  I97  1  0.50141191  0.82481856  0.32994142  1
  I  I98  1  0.50000679  0.83297153  0.66679277  1
  I  I99  1  0.83568108  0.16903634  -0.00141058  1
  I  I100  1  0.83630461  0.16733308  0.33646534  1
  I  I101  1  0.84015965  0.16891078  0.66418848  1
  I  I102  1  0.83288019  0.50168361  0.00279404  1
  I  I103  1  0.83363875  0.49808825  0.33398704  1
  I  I104  1  0.83431804  0.50151192  0.66357918  1
  I  I105  1  0.82883622  0.82930796  0.00352890  1
  I  I106  1  0.83323924  0.83430633  0.33402489  1
  I  I107  1  0.83846626  0.82988790  0.66285021  1
  I  I108  1  0.00252499  0.16848152  0.16908979  1
  I  I109  1  -0.00030206  0.16760089  0.49969734  1
  I  I110  1  -0.00262363  0.17055981  0.83193414  1
  I  I111  1  -0.00289175  0.50273885  0.16753937  1
  I  I112  1  -0.00031383  0.49940820  0.50017752  1
  I  I113  1  0.00219929  0.49733449  0.83166642  1
  I  I114  1  -0.00311593  0.82895902  0.16910400  1
  I  I115  1  -0.00101912  0.83287437  0.49376036  1
  I  I116  1  -0.00009167  0.83018966  0.84067795  1
  I  I117  1  0.32907864  0.16846344  0.17442319  1
  I  I118  1  0.32940594  0.16847554  0.49452837  1
  I  I119  1  0.33329935  0.16612050  0.83373786  1
  I  I120  1  0.33553783  0.50272840  0.16573564  1
  I  I121  1  0.33014316  0.49904099  0.50069185  1
  I  I122  1  0.33301356  0.49880552  0.83326986  1
  I  I123  1  0.33560787  0.82809936  0.16893148  1
  I  I124  1  0.33019713  0.83247820  0.49789176  1
  I  I125  1  0.33321219  0.83693079  0.83311972  1
  I  I126  1  0.66679659  0.16723674  0.16655861  1
  I  I127  1  0.67085163  0.16790993  0.50344996  1
  I  I128  1  0.67092558  0.16870970  0.82713932  1
  I  I129  1  0.66748789  0.50226232  0.16615180  1
  I  I130  1  0.67028482  0.49975374  0.49977526  1
  I  I131  1  0.66462339  0.49773084  0.83485390  1
  I  I132  1  0.66799519  0.82999510  0.17275203  1
  I  I133  1  0.67050460  0.83276878  0.49846886  1
  I  I134  1  0.66679735  0.83141454  0.82708711  1
