# generated using pymatgen
data_Cs27Sn13Pb14I81
_symmetry_space_group_name_H-M   'P 1'
_cell_length_a   18.97708238
_cell_length_b   18.97747800
_cell_length_c   18.97815318
_cell_angle_alpha   89.99979003
_cell_angle_beta   90.00003373
_cell_angle_gamma   89.99996884
_symmetry_Int_Tables_number   1
_chemical_formula_structural   Cs27Sn13Pb14I81
_chemical_formula_sum   'Cs27 Sn13 Pb14 I81'
_cell_volume   6834.73824904
_cell_formula_units_Z   1
loop_
 _symmetry_equiv_pos_site_id
 _symmetry_equiv_pos_as_xyz
  1  'x, y, z'
loop_
 _atom_site_type_symbol
 _atom_site_label
 _atom_site_symmetry_multiplicity
 _atom_site_fract_x
 _atom_site_fract_y
 _atom_site_fract_z
 _atom_site_occupancy
  Cs  Cs0  1  0.00071284  0.00027988  0.00040876  1
  Cs  Cs1  1  0.00008244  -0.00182685  0.33059916  1
  Cs  Cs2  1  -0.00108770  0.00018482  0.66801369  1
  Cs  Cs3  1  0.00097491  0.33437392  0.00223604  1
  Cs  Cs4  1  -0.00224847  0.34007230  0.33675164  1
  Cs  Cs5  1  -0.00160292  0.33267112  0.66111437  1
  Cs  Cs6  1  0.00032883  0.66528008  0.00093587  1
  Cs  Cs7  1  -0.00158333  0.66421532  0.33218327  1
  Cs  Cs8  1  -0.00012625  0.66807021  0.66731237  1
  Cs  Cs9  1  0.33287881  0.00017265  0.00404352  1
  Cs  Cs10  1  0.33521647  0.00044765  0.33162799  1
  Cs  Cs11  1  0.33015705  0.00186960  0.66311098  1
  Cs  Cs12  1  0.33353354  0.33368043  -0.00166410  1
  Cs  Cs13  1  0.33345629  0.33333559  0.33670613  1
  Cs  Cs14  1  0.33417282  0.33148658  0.66561065  1
  Cs  Cs15  1  0.33471147  0.66623312  -0.00111439  1
  Cs  Cs16  1  0.33447098  0.66663875  0.33413880  1
  Cs  Cs17  1  0.33450515  0.66656836  0.66651589  1
  Cs  Cs18  1  0.66375001  0.00121532  -0.00221448  1
  Cs  Cs19  1  0.66443099  0.00002094  0.33082340  1
  Cs  Cs20  1  0.67148300  0.00685449  0.67303723  1
  Cs  Cs21  1  0.66356411  0.33315315  -0.00255940  1
  Cs  Cs22  1  0.66827354  0.33386311  0.33507819  1
  Cs  Cs23  1  0.66765276  0.32492144  0.66836597  1
  Cs  Cs24  1  0.66294831  0.66721439  -0.00376742  1
  Cs  Cs25  1  0.66677001  0.66610469  0.33364072  1
  Cs  Cs26  1  0.66396996  0.66732827  0.66845756  1
  Sn  Sn27  1  0.16600431  0.83357681  0.16674428  1
  Sn  Sn28  1  0.16554421  0.49988048  0.83316075  1
  Sn  Sn29  1  0.83305739  0.83324065  0.49953808  1
  Sn  Sn30  1  0.83412629  0.50018578  0.83326182  1
  Sn  Sn31  1  0.83378368  0.83393277  0.16699083  1
  Sn  Sn32  1  0.16659366  0.83339194  0.83368872  1
  Sn  Sn33  1  0.49985694  0.50014340  0.16753294  1
  Sn  Sn34  1  0.83430111  0.16616938  0.16666735  1
  Sn  Sn35  1  0.16549231  0.16641445  0.16633909  1
  Sn  Sn36  1  0.16622454  0.16664237  0.83407887  1
  Sn  Sn37  1  0.16648338  0.83296727  0.49949321  1
  Sn  Sn38  1  0.50020284  0.50060876  0.49921897  1
  Sn  Sn39  1  0.50048757  0.83301509  0.50015481  1
  Pb  Pb40  1  0.16832928  0.50240929  0.50258155  1
  Pb  Pb41  1  0.83525913  0.83211268  0.83396491  1
  Pb  Pb42  1  0.50019611  0.16615732  0.49982298  1
  Pb  Pb43  1  0.83125623  0.50045210  0.16505455  1
  Pb  Pb44  1  0.50009317  0.83179239  0.16827910  1
  Pb  Pb45  1  0.49983008  0.49995309  0.83247259  1
  Pb  Pb46  1  0.83088156  0.50241145  0.50246334  1
  Pb  Pb47  1  0.83362271  0.16375069  0.49700522  1
  Pb  Pb48  1  0.16635761  0.16438379  0.49905105  1
  Pb  Pb49  1  0.49722418  0.83373292  0.83036771  1
  Pb  Pb50  1  0.16831530  0.50005394  0.16514001  1
  Pb  Pb51  1  0.83613073  0.16894008  0.83601185  1
  Pb  Pb52  1  0.49689750  0.16627839  0.83358191  1
  Pb  Pb53  1  0.49973485  0.16918306  0.16678933  1
  I  I54  1  0.16431065  -0.00125784  0.16218475  1
  I  I55  1  0.16955386  -0.00452458  0.50472154  1
  I  I56  1  0.16827270  -0.00068103  0.83335277  1
  I  I57  1  0.16449198  0.33050806  0.16048217  1
  I  I58  1  0.16992842  0.33354161  0.50057247  1
  I  I59  1  0.16427584  0.33324068  0.83994100  1
  I  I60  1  0.16382626  0.67002026  0.16615699  1
  I  I61  1  0.16521251  0.67100320  0.49906663  1
  I  I62  1  0.16356847  0.66731503  0.83300836  1
  I  I63  1  0.49928292  -0.00010906  0.16817875  1
  I  I64  1  0.49733200  -0.00390674  0.49962887  1
  I  I65  1  0.50076125  -0.00021966  0.83228050  1
  I  I66  1  0.49953014  0.33695642  0.17200641  1
  I  I67  1  0.49858826  0.33647597  0.49677704  1
  I  I68  1  0.49800036  0.33358476  0.83159871  1
  I  I69  1  0.49931560  0.66404498  0.16804097  1
  I  I70  1  0.49854323  0.66760415  0.49607439  1
  I  I71  1  0.49696355  0.66667023  0.83557584  1
  I  I72  1  0.83766198  -0.00126063  0.17059345  1
  I  I73  1  0.83185064  -0.00478930  0.50093636  1
  I  I74  1  0.83384208  0.00010510  0.83049478  1
  I  I75  1  0.83691037  0.33090804  0.16323127  1
  I  I76  1  0.83114697  0.33349805  0.49978381  1
  I  I77  1  0.83766771  0.33666472  0.83495145  1
  I  I78  1  0.83768051  0.66995214  0.16958036  1
  I  I79  1  0.83687845  0.67058115  0.49343540  1
  I  I80  1  0.83963367  0.66435153  0.83540502  1
  I  I81  1  0.16370272  0.16158251  0.00029164  1
  I  I82  1  0.16483452  0.16120468  0.32954084  1
  I  I83  1  0.16886096  0.16590854  0.66948538  1
  I  I84  1  0.16664879  0.50497594  -0.00300398  1
  I  I85  1  0.16708226  0.49992776  0.33345336  1
  I  I86  1  0.16563888  0.49995034  0.67080588  1
  I  I87  1  0.16180557  0.83364870  0.00052436  1
  I  I88  1  0.16693302  0.83812682  0.33279348  1
  I  I89  1  0.16782700  0.83223700  0.66668925  1
  I  I90  1  0.50165980  0.16983542  0.00041350  1
  I  I91  1  0.49622685  0.16582241  0.33309972  1
  I  I92  1  0.49854712  0.16917915  0.66665366  1
  I  I93  1  0.49953823  0.49944929  0.00181350  1
  I  I94  1  0.49955878  0.50465132  0.33382445  1
  I  I95  1  0.49841787  0.50645325  0.66372588  1
  I  I96  1  0.49977806  0.83035334  0.00013074  1
  I  I97  1  0.49486079  0.83073403  0.33638790  1
  I  I98  1  0.49995964  0.82473670  0.66198930  1
  I  I99  1  0.83507389  0.15948461  0.00367463  1
  I  I100  1  0.84040584  0.16700076  0.32907877  1
  I  I101  1  0.83296375  0.16667027  0.66691616  1
  I  I102  1  0.83558604  0.50249703  -0.00258590  1
  I  I103  1  0.83313679  0.49842690  0.33336518  1
  I  I104  1  0.83732839  0.50258637  0.67009376  1
  I  I105  1  0.83871032  0.83497540  0.00327247  1
  I  I106  1  0.83830468  0.83578235  0.33293954  1
  I  I107  1  0.83419916  0.82936732  0.66416026  1
  I  I108  1  0.00110426  0.16153042  0.16178669  1
  I  I109  1  0.00010333  0.16623893  0.50315937  1
  I  I110  1  0.00415657  0.16302058  0.83529264  1
  I  I111  1  0.00001069  0.50030141  0.16600416  1
  I  I112  1  -0.00011938  0.50126181  0.49971710  1
  I  I113  1  0.00151821  0.50166210  0.83535763  1
  I  I114  1  0.00099718  0.83591821  0.17067171  1
  I  I115  1  0.00052850  0.83461656  0.49986641  1
  I  I116  1  0.00388200  0.83458520  0.82888518  1
  I  I117  1  0.32968463  0.16205038  0.16217547  1
  I  I118  1  0.33305080  0.16438206  0.49937738  1
  I  I119  1  0.32817619  0.16929935  0.83953780  1
  I  I120  1  0.33599373  0.50117989  0.16799526  1
  I  I121  1  0.33623428  0.50636388  0.49804254  1
  I  I122  1  0.33011120  0.50057830  0.83365258  1
  I  I123  1  0.32999623  0.83621150  0.16652090  1
  I  I124  1  0.33256207  0.82929313  0.50115701  1
  I  I125  1  0.32823669  0.82965759  0.83525942  1
  I  I126  1  0.66971181  0.16228752  0.16811183  1
  I  I127  1  0.66695119  0.16495614  0.49852835  1
  I  I128  1  0.66732561  0.16957886  0.83404652  1
  I  I129  1  0.66369495  0.50085507  0.16779773  1
  I  I130  1  0.66314747  0.50726758  0.49767229  1
  I  I131  1  0.66902020  0.50205724  0.83456045  1
  I  I132  1  0.66969603  0.83576697  0.17152588  1
  I  I133  1  0.66699692  0.82778632  0.49325169  1
  I  I134  1  0.66692624  0.82923788  0.83360400  1
