# generated using pymatgen
data_Cs27Sn13Pb14I81
_symmetry_space_group_name_H-M   'P 1'
_cell_length_a   18.98390411
_cell_length_b   18.97659298
_cell_length_c   18.97659290
_cell_angle_alpha   90.00466899
_cell_angle_beta   89.99940228
_cell_angle_gamma   89.99940234
_symmetry_Int_Tables_number   1
_chemical_formula_structural   Cs27Sn13Pb14I81
_chemical_formula_sum   'Cs27 Sn13 Pb14 I81'
_cell_volume   6836.31418263
_cell_formula_units_Z   1
loop_
 _symmetry_equiv_pos_site_id
 _symmetry_equiv_pos_as_xyz
  1  'x, y, z'
loop_
 _atom_site_type_symbol
 _atom_site_label
 _atom_site_symmetry_multiplicity
 _atom_site_fract_x
 _atom_site_fract_y
 _atom_site_fract_z
 _atom_site_occupancy
  Cs  Cs0  1  0.00078257  0.00322053  0.00226367  1
  Cs  Cs1  1  0.00111944  0.00286506  0.33184375  1
  Cs  Cs2  1  0.00875679  -0.00028882  0.66637778  1
  Cs  Cs3  1  -0.00037546  0.33363677  0.00030392  1
  Cs  Cs4  1  0.00226852  0.32928594  0.32997088  1
  Cs  Cs5  1  0.00078255  0.33559707  0.66988730  1
  Cs  Cs6  1  0.00226832  0.66330438  -0.00404743  1
  Cs  Cs7  1  -0.00293365  0.66715858  0.33382525  1
  Cs  Cs8  1  0.00111954  0.66517693  0.66953170  1
  Cs  Cs9  1  0.33537814  0.00049292  -0.00255912  1
  Cs  Cs10  1  0.33299936  -0.00084042  0.33515309  1
  Cs  Cs11  1  0.32612353  0.00033684  0.66700335  1
  Cs  Cs12  1  0.32845864  0.33382646  0.00049319  1
  Cs  Cs13  1  0.33288395  0.33431489  0.33170631  1
  Cs  Cs14  1  0.33537793  0.33077427  0.66715951  1
  Cs  Cs15  1  0.33288405  0.66503962  0.00098174  1
  Cs  Cs16  1  0.33545130  0.66683722  0.33350387  1
  Cs  Cs17  1  0.33299926  0.66848626  0.66582634  1
  Cs  Cs18  1  0.66563514  -0.00034271  -0.00104590  1
  Cs  Cs19  1  0.66607304  -0.00141966  0.33371389  1
  Cs  Cs20  1  0.66537785  0.00048594  0.66715261  1
  Cs  Cs21  1  0.67276649  0.33144512  -0.00188828  1
  Cs  Cs22  1  0.66582333  0.33391069  0.33440723  1
  Cs  Cs23  1  0.66563517  0.33228739  0.66632398  1
  Cs  Cs24  1  0.66582347  0.66774049  0.00057722  1
  Cs  Cs25  1  0.66561265  0.66702003  0.33368672  1
  Cs  Cs26  1  0.66607304  0.66704711  0.66524705  1
  Sn  Sn27  1  0.83351308  0.49966570  0.49975500  1
  Sn  Sn28  1  0.83254502  0.83350758  0.83313714  1
  Sn  Sn29  1  0.49992411  0.83410638  0.16593388  1
  Sn  Sn30  1  0.50036261  0.50066444  0.83277322  1
  Sn  Sn31  1  0.50073404  0.16713666  0.49911037  1
  Sn  Sn32  1  0.83254500  0.16647044  0.50017422  1
  Sn  Sn33  1  0.49992404  0.49926720  0.50077305  1
  Sn  Sn34  1  0.16679310  0.83304721  0.16684190  1
  Sn  Sn35  1  0.50073404  0.83244371  0.83380329  1
  Sn  Sn36  1  0.83351306  0.83308837  0.16633241  1
  Sn  Sn37  1  0.83321575  0.83379339  0.50046007  1
  Sn  Sn38  1  0.50036262  0.16610657  0.16733117  1
  Sn  Sn39  1  0.16679309  0.50017522  0.49971383  1
  Pb  Pb40  1  0.16677871  0.16925584  0.49992821  1
  Pb  Pb41  1  0.50002193  0.16659492  0.83326161  1
  Pb  Pb42  1  0.16642236  0.16693933  0.83360600  1
  Pb  Pb43  1  0.83110026  0.16454147  0.16861046  1
  Pb  Pb44  1  0.16677876  0.83326155  0.83592251  1
  Pb  Pb45  1  0.83110028  0.50194374  0.83120816  1
  Pb  Pb46  1  0.83324399  0.50189548  0.16856214  1
  Pb  Pb47  1  0.16946790  0.16450535  0.16683069  1
  Pb  Pb48  1  0.50119734  0.83365865  0.50032533  1
  Pb  Pb49  1  0.50021071  0.49966138  0.16632801  1
  Pb  Pb50  1  0.16657698  0.50207442  0.16874105  1
  Pb  Pb51  1  0.83331213  0.16397344  0.83064013  1
  Pb  Pb52  1  0.16946786  0.50016399  0.83117208  1
  Pb  Pb53  1  0.16338112  0.83124842  0.49791509  1
  I  I54  1  0.16338777  -0.00396225  0.16879877  1
  I  I55  1  0.16718452  -0.00009802  0.49962960  1
  I  I56  1  0.16993202  -0.00071887  0.83061717  1
  I  I57  1  0.16919721  0.33321216  0.16789826  1
  I  I58  1  0.16339434  0.33709137  0.49965728  1
  I  I59  1  0.16928964  0.33392389  0.83265664  1
  I  I60  1  0.16992427  0.67056558  0.16779608  1
  I  I61  1  0.16921228  0.66354660  0.49879442  1
  I  I62  1  0.16558678  0.66689242  0.83273143  1
  I  I63  1  0.50069518  -0.00170495  0.16772060  1
  I  I64  1  0.50562837  0.00236022  0.49850196  1
  I  I65  1  0.50435793  -0.00332396  0.83499189  1
  I  I66  1  0.49974088  0.33052921  0.16980174  1
  I  I67  1  0.50456819  0.33397181  0.49990642  1
  I  I68  1  0.49875364  0.33610062  0.83010348  1
  I  I69  1  0.50074096  0.67006026  0.16696948  1
  I  I70  1  0.50131793  0.66422727  0.50014185  1
  I  I71  1  0.50373064  0.66775549  0.83246963  1
  I  I72  1  0.83441552  -0.00438171  0.16990149  1
  I  I73  1  0.82647873  -0.00050199  0.49894519  1
  I  I74  1  0.82490584  -0.00479356  0.83216292  1
  I  I75  1  0.83113871  0.33292121  0.16876404  1
  I  I76  1  0.83105357  0.33371918  0.49979180  1
  I  I77  1  0.83145639  0.33347636  0.83149337  1
  I  I78  1  0.82881319  0.67134891  0.17049718  1
  I  I79  1  0.83240194  0.66694765  0.49888763  1
  I  I80  1  0.83084244  0.67053013  0.83134061  1
  I  I81  1  0.16929007  0.16599010  0.00059057  1
  I  I82  1  0.16558681  0.16606507  0.33355908  1
  I  I83  1  0.16993175  0.16395027  0.66594782  1
  I  I84  1  0.16919743  0.50123182  -0.00012112  1
  I  I85  1  0.16992398  0.50112894  0.33723221  1
  I  I86  1  0.16338812  0.50213230  0.66270448  1
  I  I87  1  0.16339392  0.83299023  0.00375803  1
  I  I88  1  0.16921256  0.83212804  0.33021329  1
  I  I89  1  0.16718437  0.83296304  0.66656868  1
  I  I90  1  0.49875361  0.16343679  0.00276730  1
  I  I91  1  0.50373053  0.16580328  0.33442221  1
  I  I92  1  0.50435808  0.16832487  0.66334272  1
  I  I93  1  0.49974064  0.50313535  -0.00280408  1
  I  I94  1  0.50074115  0.50030251  0.33672690  1
  I  I95  1  0.50069536  0.50105401  0.66496172  1
  I  I96  1  0.50456830  0.83323949  0.00063850  1
  I  I97  1  0.50131776  0.83347532  0.33089396  1
  I  I98  1  0.50562848  0.83183557  0.66902692  1
  I  I99  1  0.83145630  0.16482690  0.00014302  1
  I  I100  1  0.83084263  0.16467381  0.33719680  1
  I  I101  1  0.82490587  0.16549618  0.66187310  1
  I  I102  1  0.83113888  0.50209723  -0.00041209  1
  I  I103  1  0.82881326  0.50383076  0.33801559  1
  I  I104  1  0.83441522  0.50323498  0.66228495  1
  I  I105  1  0.83105372  0.83312512  0.00038583  1
  I  I106  1  0.83240191  0.83222089  0.33361431  1
  I  I107  1  0.82647869  0.83227855  0.66616470  1
  I  I108  1  -0.00026005  0.16400975  0.16947092  1
  I  I109  1  -0.00333990  0.16522525  0.50045229  1
  I  I110  1  -0.00054292  0.16381718  0.83048396  1
  I  I111  1  -0.00014129  0.50302197  0.16968862  1
  I  I112  1  -0.00117742  0.50282200  0.49774478  1
  I  I113  1  -0.00026006  0.50280455  0.83067599  1
  I  I114  1  -0.00117739  0.83107780  0.16948888  1
  I  I115  1  -0.00509946  0.83391261  0.50057907  1
  I  I116  1  -0.00333990  0.83378562  0.83189197  1
  I  I117  1  0.33778997  0.16080300  0.17383788  1
  I  I118  1  0.33683429  0.17080739  0.49687975  1
  I  I119  1  0.33418614  0.16337373  0.83003998  1
  I  I120  1  0.33376241  0.50374382  0.17041067  1
  I  I121  1  0.33497565  0.49600339  0.50324975  1
  I  I122  1  0.33778996  0.50717119  0.82746953  1
  I  I123  1  0.33497562  0.83658323  0.16266971  1
  I  I124  1  0.33324409  0.83286067  0.49952749  1
  I  I125  1  0.33683430  0.83021292  0.83747418  1
  I  I126  1  0.66307375  0.16025087  0.16946909  1
  I  I127  1  0.66611509  0.17085114  0.49626444  1
  I  I128  1  0.66645991  0.16772203  0.83438857  1
  I  I129  1  0.66641180  0.50382547  0.17049205  1
  I  I130  1  0.66637590  0.49999856  0.50318258  1
  I  I131  1  0.66307375  0.50280237  0.82691785  1
  I  I132  1  0.66637589  0.83651605  0.16666531  1
  I  I133  1  0.66946162  0.82914331  0.49580987  1
  I  I134  1  0.66611507  0.82959789  0.83751788  1
