# generated using pymatgen
data_Cs27Sn13Pb14I81
_symmetry_space_group_name_H-M   'P 1'
_cell_length_a   18.97086789
_cell_length_b   18.98336055
_cell_length_c   18.98167973
_cell_angle_alpha   90.00018525
_cell_angle_beta   90.00113340
_cell_angle_gamma   90.00106935
_symmetry_Int_Tables_number   1
_chemical_formula_structural   Cs27Sn13Pb14I81
_chemical_formula_sum   'Cs27 Sn13 Pb14 I81'
_cell_volume   6835.88798208
_cell_formula_units_Z   1
loop_
 _symmetry_equiv_pos_site_id
 _symmetry_equiv_pos_as_xyz
  1  'x, y, z'
loop_
 _atom_site_type_symbol
 _atom_site_label
 _atom_site_symmetry_multiplicity
 _atom_site_fract_x
 _atom_site_fract_y
 _atom_site_fract_z
 _atom_site_occupancy
  Cs  Cs0  1  0.00171231  0.00026827  0.00021007  1
  Cs  Cs1  1  -0.00244139  -0.00100182  0.33390619  1
  Cs  Cs2  1  0.00056533  0.00040599  0.66667177  1
  Cs  Cs3  1  -0.00066369  0.33491699  -0.00119024  1
  Cs  Cs4  1  -0.00099457  0.33424562  0.33261537  1
  Cs  Cs5  1  -0.00050936  0.33698300  0.66826413  1
  Cs  Cs6  1  -0.00030145  0.66448912  -0.00027375  1
  Cs  Cs7  1  -0.00092455  0.66674831  0.33264078  1
  Cs  Cs8  1  -0.00016003  0.66230993  0.66745480  1
  Cs  Cs9  1  0.33121603  -0.00066610  -0.00225011  1
  Cs  Cs10  1  0.33161485  0.00239676  0.33451362  1
  Cs  Cs11  1  0.33234281  -0.00068437  0.66917840  1
  Cs  Cs12  1  0.33389677  0.33198990  -0.00024826  1
  Cs  Cs13  1  0.33952439  0.33602372  0.33464666  1
  Cs  Cs14  1  0.33280092  0.33484568  0.66545154  1
  Cs  Cs15  1  0.33498370  0.66935212  0.00071190  1
  Cs  Cs16  1  0.33769209  0.66158942  0.33436808  1
  Cs  Cs17  1  0.33438983  0.66574809  0.66357942  1
  Cs  Cs18  1  0.66644384  -0.00186273  0.00369104  1
  Cs  Cs19  1  0.67033972  0.00121026  0.33626598  1
  Cs  Cs20  1  0.66633567  -0.00184495  0.66246233  1
  Cs  Cs21  1  0.66541727  0.33354062  -0.00042666  1
  Cs  Cs22  1  0.66050083  0.32807174  0.33406426  1
  Cs  Cs23  1  0.66752099  0.33209664  0.66806133  1
  Cs  Cs24  1  0.66291243  0.66821138  0.00111177  1
  Cs  Cs25  1  0.66309155  0.67104617  0.33401246  1
  Cs  Cs26  1  0.66564540  0.67060733  0.66623774  1
  Sn  Sn27  1  0.16603544  0.49987421  0.16651111  1
  Sn  Sn28  1  0.49996827  0.16735202  0.83343474  1
  Sn  Sn29  1  0.16630531  0.83317958  0.16691609  1
  Sn  Sn30  1  0.49975012  0.49951628  0.83329030  1
  Sn  Sn31  1  0.16629157  0.16641984  0.83311072  1
  Sn  Sn32  1  0.83348818  0.49979082  0.16807481  1
  Sn  Sn33  1  0.83348179  0.16563207  0.83355207  1
  Sn  Sn34  1  0.16625815  0.83370159  0.50014549  1
  Sn  Sn35  1  0.16625897  0.16642547  0.50018734  1
  Sn  Sn36  1  0.16552004  0.83370194  0.83303770  1
  Sn  Sn37  1  0.16630972  0.16699170  0.16689564  1
  Sn  Sn38  1  0.83450510  0.83422316  0.83360618  1
  Sn  Sn39  1  0.83322940  0.49980644  0.49854107  1
  Pb  Pb40  1  0.83575492  0.83158124  0.50207675  1
  Pb  Pb41  1  0.16544239  0.49986943  0.49736784  1
  Pb  Pb42  1  0.83524166  0.16847392  0.16470117  1
  Pb  Pb43  1  0.49979579  0.83422536  0.83333690  1
  Pb  Pb44  1  0.50040140  0.49995548  0.16481732  1
  Pb  Pb45  1  0.49732752  0.83370084  0.49987368  1
  Pb  Pb46  1  0.49760818  0.83380432  0.16692839  1
  Pb  Pb47  1  0.49755407  0.16645803  0.50246637  1
  Pb  Pb48  1  0.16837862  0.50029169  0.83524036  1
  Pb  Pb49  1  0.83533431  0.83147273  0.16466622  1
  Pb  Pb50  1  0.50340292  0.49990970  0.50248844  1
  Pb  Pb51  1  0.83564302  0.16837091  0.50208372  1
  Pb  Pb52  1  0.83144412  0.50035143  0.83393220  1
  Pb  Pb53  1  0.49786732  0.16630401  0.16462565  1
  I  I54  1  0.16863547  0.00015440  0.16454859  1
  I  I55  1  0.16664508  0.00020105  0.49768704  1
  I  I56  1  0.16813790  0.00081274  0.83687804  1
  I  I57  1  0.16254385  0.33289240  0.16431796  1
  I  I58  1  0.16487875  0.33049998  0.50255261  1
  I  I59  1  0.16428872  0.33012250  0.83338363  1
  I  I60  1  0.16240036  0.66690332  0.16480261  1
  I  I61  1  0.16471189  0.66936497  0.50209694  1
  I  I62  1  0.16340623  0.66977156  0.83338030  1
  I  I63  1  0.49772695  0.00017231  0.16162020  1
  I  I64  1  0.50199100  0.00022826  0.50371320  1
  I  I65  1  0.49719316  0.00323332  0.83349665  1
  I  I66  1  0.49569284  0.33327983  0.16550117  1
  I  I67  1  0.49596434  0.33330115  0.50034349  1
  I  I68  1  0.49943697  0.33212528  0.83415014  1
  I  I69  1  0.49620767  0.66647844  0.16169834  1
  I  I70  1  0.49645716  0.66646506  0.50414037  1
  I  I71  1  0.50025266  0.66472842  0.83424054  1
  I  I72  1  0.83466030  0.00000539  0.16602646  1
  I  I73  1  0.83281083  0.00000646  0.50033763  1
  I  I74  1  0.83435910  0.00052144  0.83315852  1
  I  I75  1  0.84155297  0.33654778  0.16593455  1
  I  I76  1  0.83779231  0.33616347  0.50016440  1
  I  I77  1  0.83688772  0.33077214  0.83328026  1
  I  I78  1  0.84110024  0.66337021  0.16592997  1
  I  I79  1  0.83741013  0.66375061  0.50029756  1
  I  I80  1  0.83808639  0.66905879  0.83319629  1
  I  I81  1  0.16707496  0.16450242  -0.00098021  1
  I  I82  1  0.16576494  0.16331069  0.33300500  1
  I  I83  1  0.16726042  0.15995898  0.66805222  1
  I  I84  1  0.16076240  0.49959279  0.00319698  1
  I  I85  1  0.16530996  0.50012607  0.32937232  1
  I  I86  1  0.16578712  0.50003548  0.66662194  1
  I  I87  1  0.16360784  0.83595389  -0.00064543  1
  I  I88  1  0.16778243  0.83664374  0.33302237  1
  I  I89  1  0.16367959  0.84068323  0.66766039  1
  I  I90  1  0.49687353  0.17091684  -0.00428747  1
  I  I91  1  0.49730780  0.16802254  0.33349364  1
  I  I92  1  0.49691075  0.17088331  0.67116672  1
  I  I93  1  0.50131528  0.49589680  -0.00305132  1
  I  I94  1  0.49718042  0.50055503  0.33332354  1
  I  I95  1  0.49956240  0.49589009  0.67036848  1
  I  I96  1  0.49702033  0.83181544  -0.00050380  1
  I  I97  1  0.49848182  0.83060248  0.33341653  1
  I  I98  1  0.49703408  0.83159371  0.66718893  1
  I  I99  1  0.83679983  0.16644518  -0.00403223  1
  I  I100  1  0.83619316  0.16733402  0.33334919  1
  I  I101  1  0.83653909  0.16677515  0.67072685  1
  I  I102  1  0.83770047  0.49962668  0.00211520  1
  I  I103  1  0.84155802  0.50043569  0.33256962  1
  I  I104  1  0.83257421  0.49972599  0.66541968  1
  I  I105  1  0.83986430  0.83454924  -0.00367334  1
  I  I106  1  0.83562885  0.83223500  0.33333990  1
  I  I107  1  0.83942018  0.83387053  0.67036120  1
  I  I108  1  0.00439986  0.16475304  0.16282503  1
  I  I109  1  0.00423892  0.16329546  0.50285636  1
  I  I110  1  0.00147264  0.16250231  0.83377092  1
  I  I111  1  0.00130578  0.49996900  0.16766286  1
  I  I112  1  -0.00216899  0.49985398  0.50161825  1
  I  I113  1  -0.00000824  0.49800057  0.83249028  1
  I  I114  1  0.00440588  0.83557351  0.16705006  1
  I  I115  1  0.00423575  0.83721104  0.49858187  1
  I  I116  1  0.00173824  0.84022720  0.83384454  1
  I  I117  1  0.32817709  0.16904350  0.16401470  1
  I  I118  1  0.32851691  0.16406184  0.50170238  1
  I  I119  1  0.33140540  0.16671696  0.83399656  1
  I  I120  1  0.33003526  0.50040716  0.16436463  1
  I  I121  1  0.33327461  0.50054320  0.49967831  1
  I  I122  1  0.33587548  0.49575507  0.83548545  1
  I  I123  1  0.32757991  0.83064197  0.16145751  1
  I  I124  1  0.32792253  0.83578067  0.50448987  1
  I  I125  1  0.32959747  0.83631318  0.83414339  1
  I  I126  1  0.66695646  0.17050641  0.16333691  1
  I  I127  1  0.66695104  0.16914031  0.50263218  1
  I  I128  1  0.66707205  0.16865319  0.83334343  1
  I  I129  1  0.66986281  0.49999109  0.16719814  1
  I  I130  1  0.67110585  0.49984350  0.49445444  1
  I  I131  1  0.66402498  0.49533391  0.83471645  1
  I  I132  1  0.66732103  0.82921294  0.16218528  1
  I  I133  1  0.66733836  0.83064733  0.50375198  1
  I  I134  1  0.66958778  0.83468809  0.83323497  1
