# generated using pymatgen
data_Cs27Sn14Pb13I81
_symmetry_space_group_name_H-M   'P 1'
_cell_length_a   18.97315212
_cell_length_b   18.98196462
_cell_length_c   18.97315217
_cell_angle_alpha   90.00010786
_cell_angle_beta   90.00244346
_cell_angle_gamma   89.99989211
_symmetry_Int_Tables_number   1
_chemical_formula_structural   Cs27Sn14Pb13I81
_chemical_formula_sum   'Cs27 Sn14 Pb13 I81'
_cell_volume   6833.13715453
_cell_formula_units_Z   1
loop_
 _symmetry_equiv_pos_site_id
 _symmetry_equiv_pos_as_xyz
  1  'x, y, z'
loop_
 _atom_site_type_symbol
 _atom_site_label
 _atom_site_symmetry_multiplicity
 _atom_site_fract_x
 _atom_site_fract_y
 _atom_site_fract_z
 _atom_site_occupancy
  Cs  Cs0  1  -0.00043490  0.00034455  -0.00167544  1
  Cs  Cs1  1  -0.00144142  -0.00076608  0.33316667  1
  Cs  Cs2  1  -0.00074665  0.00285288  0.66741331  1
  Cs  Cs3  1  0.00069009  0.33402432  0.00225459  1
  Cs  Cs4  1  -0.00145711  0.33361134  0.33769707  1
  Cs  Cs5  1  0.00315629  0.33126588  0.66351040  1
  Cs  Cs6  1  -0.00245802  0.66327735  0.00085433  1
  Cs  Cs7  1  0.00185223  0.66612425  0.33329665  1
  Cs  Cs8  1  0.00006836  0.66466937  0.66659832  1
  Cs  Cs9  1  0.33416504  0.00005736  -0.00068580  1
  Cs  Cs10  1  0.33673319  -0.00412405  0.32993342  1
  Cs  Cs11  1  0.33350017  -0.00076613  0.66810810  1
  Cs  Cs12  1  0.33407463  0.33350488  0.00489326  1
  Cs  Cs13  1  0.34184792  0.33179526  0.32481874  1
  Cs  Cs14  1  0.32896967  0.33361140  0.66812379  1
  Cs  Cs15  1  0.33316287  0.66742981  0.00108491  1
  Cs  Cs16  1  0.33229677  0.67223882  0.33436976  1
  Cs  Cs17  1  0.33337029  0.66612434  0.66481457  1
  Cs  Cs18  1  0.66688873  -0.00209479  -0.00022206  1
  Cs  Cs19  1  0.66735251  0.00005726  0.33250164  1
  Cs  Cs20  1  0.66834210  0.00034452  0.66710154  1
  Cs  Cs21  1  0.66580031  0.34165018  0.00086650  1
  Cs  Cs22  1  0.66177365  0.33350487  0.33259195  1
  Cs  Cs23  1  0.66441187  0.33402433  0.66597660  1
  Cs  Cs24  1  0.66857189  0.66410622  -0.00190526  1
  Cs  Cs25  1  0.66558186  0.66742960  0.33350358  1
  Cs  Cs26  1  0.66581216  0.66327716  0.66912471  1
  Sn  Sn27  1  0.83379126  0.49969468  0.50020471  1
  Sn  Sn28  1  0.49941670  0.83413716  0.83398394  1
  Sn  Sn29  1  0.83360734  0.16619089  0.16666729  1
  Sn  Sn30  1  0.16630431  0.49871630  0.50036239  1
  Sn  Sn31  1  0.83268277  0.83413718  0.16724997  1
  Sn  Sn32  1  0.16668134  0.16709729  0.49998539  1
  Sn  Sn33  1  0.16646198  0.49969463  0.83287542  1
  Sn  Sn34  1  0.16707265  0.83338221  0.83325466  1
  Sn  Sn35  1  0.83341206  0.83338213  0.49959403  1
  Sn  Sn36  1  0.83378804  0.16675505  0.49981066  1
  Sn  Sn37  1  0.16685607  0.16675502  0.83287864  1
  Sn  Sn38  1  0.50108124  0.83358219  0.16558544  1
  Sn  Sn39  1  0.49999936  0.16619092  0.83305931  1
  Sn  Sn40  1  0.83307545  0.16684159  0.83359117  1
  Pb  Pb41  1  0.16587294  0.83352088  0.16396205  1
  Pb  Pb42  1  0.49881062  0.49981611  0.50010815  1
  Pb  Pb43  1  0.83353039  0.50006849  0.16957056  1
  Pb  Pb44  1  0.50270461  0.83352088  0.50079368  1
  Pb  Pb45  1  0.83325392  0.83462501  0.83341274  1
  Pb  Pb46  1  0.49939601  0.16657189  0.50219080  1
  Pb  Pb47  1  0.50008720  0.50374525  0.16657945  1
  Pb  Pb48  1  0.16446403  0.83394960  0.50220262  1
  Pb  Pb49  1  0.16655853  0.49981610  0.16785600  1
  Pb  Pb50  1  0.49709609  0.50006847  0.83313624  1
  Pb  Pb51  1  0.16447588  0.16657188  0.16727065  1
  Pb  Pb52  1  0.83574785  0.49654570  0.83091880  1
  Pb  Pb53  1  0.50296458  0.16466365  0.16370202  1
  I  I54  1  0.16748629  -0.00002987  0.16713817  1
  I  I55  1  0.16113864  0.00310149  0.50552796  1
  I  I56  1  0.16695710  0.00116297  0.82990913  1
  I  I57  1  0.16479736  0.33303956  0.16093164  1
  I  I58  1  0.15593969  0.33255307  0.51072701  1
  I  I59  1  0.16534801  0.33214027  0.82840119  1
  I  I60  1  0.16511984  0.66691874  0.16592782  1
  I  I61  1  0.16169732  0.66437180  0.50496915  1
  I  I62  1  0.17145115  0.66677969  0.82951113  1
  I  I63  1  0.50184832  -0.00318643  0.16481819  1
  I  I64  1  0.49952817  -0.00002985  0.49918046  1
  I  I65  1  0.49506153  0.00001484  0.83617369  1
  I  I66  1  0.50071667  0.33299080  0.16595032  1
  I  I67  1  0.50573485  0.33303959  0.50186932  1
  I  I68  1  0.50118113  0.33010813  0.83130363  1
  I  I69  1  0.50752734  0.67178185  0.15913914  1
  I  I70  1  0.50073941  0.66691873  0.50154693  1
  I  I71  1  0.49653562  0.67004260  0.83720111  1
  I  I72  1  0.83049305  0.00001480  0.17160494  1
  I  I73  1  0.83675778  0.00116297  0.49970929  1
  I  I74  1  0.83774237  0.00294568  0.82892476  1
  I  I75  1  0.83536263  0.33010817  0.16548547  1
  I  I76  1  0.83826555  0.33214026  0.50131895  1
  I  I77  1  0.83156931  0.32818618  0.83509701  1
  I  I78  1  0.82946570  0.67004260  0.17013126  1
  I  I79  1  0.83715525  0.66677966  0.49521534  1
  I  I80  1  0.83346950  0.66636464  0.83319706  1
  I  I81  1  0.16557197  0.16672271  -0.00366645  1
  I  I82  1  0.16023974  0.17182413  0.33707845  1
  I  I83  1  0.16161758  0.16687578  0.66777445  1
  I  I84  1  0.16775742  0.49909899  -0.00331732  1
  I  I85  1  0.16064977  0.49582241  0.33770248  1
  I  I86  1  0.16231315  0.49893356  0.66684306  1
  I  I87  1  0.16551679  0.83487086  -0.00451791  1
  I  I88  1  0.16960829  0.83242949  0.33352498  1
  I  I89  1  0.17087673  0.83419340  0.67043968  1
  I  I90  1  0.49729616  0.16411280  -0.00440151  1
  I  I91  1  0.49925934  0.16563495  0.33294421  1
  I  I92  1  0.50458992  0.15967306  0.67055915  1
  I  I93  1  0.49874924  0.49709708  -0.00043459  1
  I  I94  1  0.49822709  0.50061757  0.33330957  1
  I  I95  1  0.50399436  0.50383900  0.66691704  1
  I  I96  1  0.50191835  0.83823989  -0.00100451  1
  I  I97  1  0.50255003  0.83238885  0.33067029  1
  I  I98  1  0.49689929  0.83696720  0.67024269  1
  I  I99  1  0.83430417  0.15953249  -0.00055326  1
  I  I100  1  0.83907254  0.16540874  0.33449154  1
  I  I101  1  0.83441184  0.16537644  0.66639248  1
  I  I102  1  0.83444174  0.50037817  -0.00022828  1
  I  I103  1  0.84085494  0.49626008  0.33763006  1
  I  I104  1  0.83458462  0.50274143  0.66292132  1
  I  I105  1  0.83296240  0.83921874  0.00225177  1
  I  I106  1  0.82853584  0.83826995  0.33332846  1
  I  I107  1  0.83420326  0.83493281  0.66427580  1
  I  I108  1  -0.00389248  0.15967316  0.16207716  1
  I  I109  1  -0.00110779  0.16687582  0.50504868  1
  I  I110  1  0.00027418  0.16537692  0.83225494  1
  I  I111  1  -0.00025035  0.50383882  0.16267222  1
  I  I112  1  -0.00017637  0.49893364  0.50435290  1
  I  I113  1  0.00374535  0.50274122  0.83208275  1
  I  I114  1  -0.00357608  0.83696727  0.16976715  1
  I  I115  1  -0.00377298  0.83419316  0.49578971  1
  I  I116  1  0.00239082  0.83493250  0.83246389  1
  I  I117  1  0.33372246  0.16563508  0.16740700  1
  I  I118  1  0.32958823  0.17182407  0.50642748  1
  I  I119  1  0.33217511  0.16540850  0.82759387  1
  I  I120  1  0.33335705  0.50061734  0.16843917  1
  I  I121  1  0.32896417  0.49582266  0.50601725  1
  I  I122  1  0.32903651  0.49626037  0.82581133  1
  I  I123  1  0.33599634  0.83238885  0.16411679  1
  I  I124  1  0.33314169  0.83242917  0.49705832  1
  I  I125  1  0.33333822  0.83826985  0.83813066  1
  I  I126  1  0.67106815  0.16411251  0.16937038  1
  I  I127  1  0.67033309  0.16672268  0.50109464  1
  I  I128  1  0.66721995  0.15953220  0.83236274  1
  I  I129  1  0.66710134  0.49709747  0.16791785  1
  I  I130  1  0.66998396  0.49909872  0.49890958  1
  I  I131  1  0.66689495  0.50037813  0.83222452  1
  I  I132  1  0.66767117  0.83823988  0.16474832  1
  I  I133  1  0.67118454  0.83487141  0.50115026  1
  I  I134  1  0.66441489  0.83921906  0.83370407  1
