# generated using pymatgen
data_Cs27Sn14Pb13I81
_symmetry_space_group_name_H-M   'P 1'
_cell_length_a   18.97379309
_cell_length_b   18.98078566
_cell_length_c   18.96936126
_cell_angle_alpha   89.99918697
_cell_angle_beta   90.00178026
_cell_angle_gamma   89.99866797
_symmetry_Int_Tables_number   1
_chemical_formula_structural   Cs27Sn14Pb13I81
_chemical_formula_sum   'Cs27 Sn14 Pb13 I81'
_cell_volume   6831.57833063
_cell_formula_units_Z   1
loop_
 _symmetry_equiv_pos_site_id
 _symmetry_equiv_pos_as_xyz
  1  'x, y, z'
loop_
 _atom_site_type_symbol
 _atom_site_label
 _atom_site_symmetry_multiplicity
 _atom_site_fract_x
 _atom_site_fract_y
 _atom_site_fract_z
 _atom_site_occupancy
  Cs  Cs0  1  0.01016541  -0.00224625  0.00207084  1
  Cs  Cs1  1  -0.00312568  -0.00016812  0.33306066  1
  Cs  Cs2  1  0.00006890  0.00023386  0.66492095  1
  Cs  Cs3  1  0.00170943  0.33305948  -0.01181226  1
  Cs  Cs4  1  -0.00296641  0.33326933  0.33559315  1
  Cs  Cs5  1  -0.00142255  0.33768415  0.67172913  1
  Cs  Cs6  1  0.00790617  0.66938899  -0.00159381  1
  Cs  Cs7  1  -0.00154056  0.66643976  0.33153993  1
  Cs  Cs8  1  0.00119114  0.66347460  0.66804244  1
  Cs  Cs9  1  0.32570107  0.00775665  -0.00000242  1
  Cs  Cs10  1  0.33349083  0.00142668  0.33662573  1
  Cs  Cs11  1  0.33500724  -0.00167130  0.66549400  1
  Cs  Cs12  1  0.32985656  0.32373527  0.01262038  1
  Cs  Cs13  1  0.33194522  0.33635908  0.32765245  1
  Cs  Cs14  1  0.33260126  0.33511797  0.66587824  1
  Cs  Cs15  1  0.32957260  0.66563317  0.00135574  1
  Cs  Cs16  1  0.33505056  0.66170997  0.33334204  1
  Cs  Cs17  1  0.33596016  0.66805461  0.66602967  1
  Cs  Cs18  1  0.66567012  -0.00050037  -0.00202207  1
  Cs  Cs19  1  0.66914591  -0.00141267  0.33512128  1
  Cs  Cs20  1  0.66536353  -0.00155504  0.66505099  1
  Cs  Cs21  1  0.66624489  0.33154381  -0.00159191  1
  Cs  Cs22  1  0.66778918  0.33456700  0.33329727  1
  Cs  Cs23  1  0.66812468  0.33416268  0.66786392  1
  Cs  Cs24  1  0.66641318  0.66735285  -0.00089395  1
  Cs  Cs25  1  0.66747653  0.66702146  0.33327767  1
  Cs  Cs26  1  0.66524138  0.66755345  0.66640220  1
  Sn  Sn27  1  0.50001263  0.16718206  0.50001379  1
  Sn  Sn28  1  0.49991729  0.83364235  0.16625144  1
  Sn  Sn29  1  0.83333812  0.16687964  0.49971622  1
  Sn  Sn30  1  0.16650799  0.83362714  0.49989805  1
  Sn  Sn31  1  0.49997306  0.83314706  0.49982155  1
  Sn  Sn32  1  0.83310447  0.16765918  0.16689018  1
  Sn  Sn33  1  0.49983136  0.50022414  0.83330460  1
  Sn  Sn34  1  0.16636792  0.16626090  0.49998842  1
  Sn  Sn35  1  0.83230225  0.50020709  0.49934730  1
  Sn  Sn36  1  0.83324527  0.49909621  0.16665101  1
  Sn  Sn37  1  0.83278704  0.83354413  0.83275450  1
  Sn  Sn38  1  0.83360392  0.83296740  0.50094053  1
  Sn  Sn39  1  0.50111160  0.49994224  0.50076657  1
  Sn  Sn40  1  0.50066580  0.83265077  0.83377630  1
  Pb  Pb41  1  0.16274095  0.49985078  0.16691076  1
  Pb  Pb42  1  0.50249005  0.16417631  0.16940954  1
  Pb  Pb43  1  0.83327216  0.16354675  0.83316064  1
  Pb  Pb44  1  0.16305833  0.16681034  0.16982214  1
  Pb  Pb45  1  0.16677017  0.16665747  0.83004385  1
  Pb  Pb46  1  0.83206342  0.83339792  0.16623699  1
  Pb  Pb47  1  0.17015522  0.83327994  0.17006911  1
  Pb  Pb48  1  0.83154515  0.50250933  0.83342589  1
  Pb  Pb49  1  0.17126809  0.50001874  0.83322924  1
  Pb  Pb50  1  0.16660664  0.49989951  0.49997627  1
  Pb  Pb51  1  0.16747321  0.83325240  0.83064213  1
  Pb  Pb52  1  0.50188956  0.50166666  0.16642689  1
  Pb  Pb53  1  0.50000836  0.16667532  0.83122965  1
  I  I54  1  0.16405722  -0.00004607  0.16526648  1
  I  I55  1  0.16719709  -0.00049646  0.50008040  1
  I  I56  1  0.16811786  -0.00036719  0.83478704  1
  I  I57  1  0.17272618  0.33310933  0.17058526  1
  I  I58  1  0.16691751  0.33024599  0.49957111  1
  I  I59  1  0.16510744  0.33344353  0.82932329  1
  I  I60  1  0.16396023  0.66690896  0.16938535  1
  I  I61  1  0.16722106  0.66964375  0.50074272  1
  I  I62  1  0.16308648  0.66691849  0.83027260  1
  I  I63  1  0.50392430  -0.00370044  0.16788620  1
  I  I64  1  0.50200487  -0.00099386  0.49971114  1
  I  I65  1  0.50420015  -0.00360642  0.83074907  1
  I  I66  1  0.49893358  0.33318022  0.16636467  1
  I  I67  1  0.50318767  0.33376590  0.50521738  1
  I  I68  1  0.50166861  0.33641255  0.82586488  1
  I  I69  1  0.50400093  0.66955753  0.17310470  1
  I  I70  1  0.50216592  0.66757336  0.50034217  1
  I  I71  1  0.50487214  0.66800753  0.82616735  1
  I  I72  1  0.83087397  0.00206720  0.17255041  1
  I  I73  1  0.83109638  -0.00034240  0.49957462  1
  I  I74  1  0.82550268  -0.00433428  0.82743053  1
  I  I75  1  0.83157726  0.33336676  0.17819275  1
  I  I76  1  0.83069294  0.33333344  0.49508276  1
  I  I77  1  0.83230005  0.33349447  0.83096358  1
  I  I78  1  0.83024707  0.66457905  0.17226750  1
  I  I79  1  0.83044310  0.66706449  0.49926289  1
  I  I80  1  0.83007465  0.67030293  0.82792597  1
  I  I81  1  0.16599123  0.16690938  0.00045895  1
  I  I82  1  0.16969463  0.16143097  0.33791260  1
  I  I83  1  0.16414061  0.16132644  0.66146792  1
  I  I84  1  0.16562508  0.50140655  -0.00003900  1
  I  I85  1  0.17274559  0.50130900  0.33393527  1
  I  I86  1  0.16092764  0.49927018  0.66617484  1
  I  I87  1  0.16503514  0.83284496  -0.00000130  1
  I  I88  1  0.16421719  0.83760837  0.33828477  1
  I  I89  1  0.17055290  0.83774153  0.66237645  1
  I  I90  1  0.50189972  0.16606000  0.00038710  1
  I  I91  1  0.49835656  0.16640726  0.33818754  1
  I  I92  1  0.50343886  0.16153949  0.66195767  1
  I  I93  1  0.50319041  0.50826636  -0.00263252  1
  I  I94  1  0.50160819  0.50162733  0.33671991  1
  I  I95  1  0.50570687  0.50488120  0.66439853  1
  I  I96  1  0.50888563  0.82680179  -0.00105898  1
  I  I97  1  0.50093880  0.83352973  0.33578505  1
  I  I98  1  0.50046872  0.83310856  0.66476916  1
  I  I99  1  0.83106272  0.17069697  0.00279660  1
  I  I100  1  0.83301285  0.16471719  0.33610760  1
  I  I101  1  0.83317626  0.16871924  0.66251336  1
  I  I102  1  0.83038145  0.49645751  0.00239740  1
  I  I103  1  0.82762235  0.50162651  0.33591049  1
  I  I104  1  0.83204043  0.49730644  0.66328813  1
  I  I105  1  0.82594391  0.83297839  -0.00254760  1
  I  I106  1  0.83198310  0.83375538  0.33687487  1
  I  I107  1  0.82874005  0.83380894  0.66397904  1
  I  I108  1  -0.00468356  0.16762955  0.17443895  1
  I  I109  1  -0.00119881  0.16212055  0.49558836  1
  I  I110  1  -0.00038637  0.16516994  0.83139961  1
  I  I111  1  -0.00552440  0.49889732  0.17650181  1
  I  I112  1  -0.00357560  0.50067921  0.49567353  1
  I  I113  1  -0.00015841  0.50131392  0.83306763  1
  I  I114  1  -0.00000115  0.83334185  0.16642501  1
  I  I115  1  -0.00139011  0.83631120  0.50407273  1
  I  I116  1  -0.00277356  0.83395230  0.82863981  1
  I  I117  1  0.33336037  0.16508395  0.16721954  1
  I  I118  1  0.33418966  0.16146110  0.50270130  1
  I  I119  1  0.33365274  0.16441651  0.83124975  1
  I  I120  1  0.33368189  0.50219238  0.16719043  1
  I  I121  1  0.33685568  0.50132744  0.50451054  1
  I  I122  1  0.33910261  0.50977946  0.82258308  1
  I  I123  1  0.33826382  0.83211338  0.16663808  1
  I  I124  1  0.33496632  0.83647297  0.50009067  1
  I  I125  1  0.33721665  0.82893222  0.83074690  1
  I  I126  1  0.67009621  0.16950230  0.17453394  1
  I  I127  1  0.66704155  0.16362526  0.49679884  1
  I  I128  1  0.66672463  0.16726284  0.83042217  1
  I  I129  1  0.66976984  0.49729765  0.17110937  1
  I  I130  1  0.66668662  0.50077035  0.49974909  1
  I  I131  1  0.66360383  0.50323926  0.82947833  1
  I  I132  1  0.66420397  0.83316694  0.17284448  1
  I  I133  1  0.66630211  0.83518970  0.50040238  1
  I  I134  1  0.66567850  0.83076358  0.82709120  1
