# generated using pymatgen
data_Cs27Sn13Pb14I81
_symmetry_space_group_name_H-M   'P 1'
_cell_length_a   18.97833610
_cell_length_b   19.00090548
_cell_length_c   18.99683388
_cell_angle_alpha   89.99924381
_cell_angle_beta   90.00035951
_cell_angle_gamma   90.00052330
_symmetry_Int_Tables_number   1
_chemical_formula_structural   Cs27Sn13Pb14I81
_chemical_formula_sum   'Cs27 Sn13 Pb14 I81'
_cell_volume   6850.36411307
_cell_formula_units_Z   1
loop_
 _symmetry_equiv_pos_site_id
 _symmetry_equiv_pos_as_xyz
  1  'x, y, z'
loop_
 _atom_site_type_symbol
 _atom_site_label
 _atom_site_symmetry_multiplicity
 _atom_site_fract_x
 _atom_site_fract_y
 _atom_site_fract_z
 _atom_site_occupancy
  Cs  Cs0  1  -0.00410568  -0.00874737  0.00273746  1
  Cs  Cs1  1  0.00045992  -0.00276562  0.33176987  1
  Cs  Cs2  1  0.00563902  0.00097263  0.66662717  1
  Cs  Cs3  1  0.00003288  0.33536489  -0.00005563  1
  Cs  Cs4  1  -0.00385248  0.34325954  0.33253648  1
  Cs  Cs5  1  0.00464804  0.33402565  0.66702020  1
  Cs  Cs6  1  0.00765127  0.67533204  0.00804909  1
  Cs  Cs7  1  0.00757309  0.65856221  0.32719506  1
  Cs  Cs8  1  0.00817079  0.66441204  0.66518713  1
  Cs  Cs9  1  0.33396191  0.00169029  -0.00093844  1
  Cs  Cs10  1  0.33433770  0.00083924  0.33404998  1
  Cs  Cs11  1  0.32723793  0.00114912  0.66693702  1
  Cs  Cs12  1  0.33427025  0.33247892  -0.00069197  1
  Cs  Cs13  1  0.33647761  0.33023021  0.33242658  1
  Cs  Cs14  1  0.33042342  0.33119386  0.66860392  1
  Cs  Cs15  1  0.32969431  0.66732728  -0.00048035  1
  Cs  Cs16  1  0.33291807  0.66878803  0.33215928  1
  Cs  Cs17  1  0.32943554  0.66871303  0.66880685  1
  Cs  Cs18  1  0.66934047  -0.00076615  -0.00223475  1
  Cs  Cs19  1  0.66557730  0.00131393  0.33556879  1
  Cs  Cs20  1  0.66662275  -0.00000832  0.66524614  1
  Cs  Cs21  1  0.66567634  0.33201353  -0.00239136  1
  Cs  Cs22  1  0.66661945  0.33301895  0.33409860  1
  Cs  Cs23  1  0.66636645  0.33304950  0.66773462  1
  Cs  Cs24  1  0.66679963  0.66990944  -0.00483030  1
  Cs  Cs25  1  0.66565746  0.66505326  0.33671233  1
  Cs  Cs26  1  0.66684219  0.66708689  0.66693658  1
  Sn  Sn27  1  0.50036207  0.49981850  0.50050364  1
  Sn  Sn28  1  0.50070117  0.83362872  0.49945634  1
  Sn  Sn29  1  0.83278294  0.83351470  0.50007508  1
  Sn  Sn30  1  0.83252120  0.16742568  0.83225555  1
  Sn  Sn31  1  0.83263539  0.49971022  0.83348839  1
  Sn  Sn32  1  0.49972047  0.16651468  0.16648899  1
  Sn  Sn33  1  0.50079026  0.16724874  0.83299760  1
  Sn  Sn34  1  0.50076876  0.83360190  0.16724201  1
  Sn  Sn35  1  0.16672508  0.16693677  0.16684037  1
  Sn  Sn36  1  0.50066572  0.50010728  0.16631673  1
  Sn  Sn37  1  0.83259392  0.16602680  0.50085438  1
  Sn  Sn38  1  0.50053943  0.16659525  0.50051758  1
  Sn  Sn39  1  0.50077308  0.49915379  0.83318892  1
  Pb  Pb40  1  0.16660625  0.49969903  0.83359663  1
  Pb  Pb41  1  0.83316925  0.83321057  0.83036961  1
  Pb  Pb42  1  0.16972131  0.49718714  0.16652050  1
  Pb  Pb43  1  0.83048620  0.83312367  0.17005460  1
  Pb  Pb44  1  0.83285246  0.16674023  0.16683481  1
  Pb  Pb45  1  0.16645069  0.83368203  0.83336423  1
  Pb  Pb46  1  0.83050870  0.50012287  0.16337088  1
  Pb  Pb47  1  0.17016171  0.49956997  0.49994194  1
  Pb  Pb48  1  0.16577183  0.16688467  0.49747851  1
  Pb  Pb49  1  0.83148188  0.49993775  0.50209749  1
  Pb  Pb50  1  0.49988003  0.83360420  0.83266296  1
  Pb  Pb51  1  0.16576246  0.16659192  0.83588457  1
  Pb  Pb52  1  0.16987117  0.83612986  0.16705122  1
  Pb  Pb53  1  0.16651795  0.83352419  0.49966478  1
  I  I54  1  0.17421343  0.00350112  0.16649649  1
  I  I55  1  0.17236812  0.00028115  0.49984859  1
  I  I56  1  0.16890864  0.00070449  0.83351847  1
  I  I57  1  0.17463886  0.32987401  0.16667609  1
  I  I58  1  0.16686372  0.33305160  0.49935546  1
  I  I59  1  0.16838841  0.33307604  0.83386548  1
  I  I60  1  0.16689516  0.66668230  0.16614885  1
  I  I61  1  0.16605634  0.66663896  0.49992163  1
  I  I62  1  0.16821412  0.66630422  0.83356441  1
  I  I63  1  0.49574305  0.00090193  0.16977757  1
  I  I64  1  0.50353950  0.00084070  0.49628044  1
  I  I65  1  0.50393233  0.00365002  0.83485808  1
  I  I66  1  0.49595379  0.33276282  0.16888777  1
  I  I67  1  0.50321257  0.33249242  0.49681521  1
  I  I68  1  0.50301594  0.33255643  0.83391045  1
  I  I69  1  0.50275677  0.66639924  0.17016709  1
  I  I70  1  0.50384490  0.66683149  0.49665051  1
  I  I71  1  0.50397063  0.66338700  0.83367248  1
  I  I72  1  0.83156510  0.00016735  0.16085211  1
  I  I73  1  0.82291391  0.00132524  0.50515649  1
  I  I74  1  0.82750028  0.00343686  0.83288465  1
  I  I75  1  0.83188936  0.33322211  0.17267077  1
  I  I76  1  0.82829446  0.33020441  0.50072246  1
  I  I77  1  0.82699355  0.33207395  0.82772922  1
  I  I78  1  0.83106290  0.66663031  0.16623391  1
  I  I79  1  0.82555731  0.66905876  0.50155182  1
  I  I80  1  0.82496495  0.66348460  0.83213768  1
  I  I81  1  0.17552037  0.16755455  0.00314328  1
  I  I82  1  0.17569993  0.16556296  0.33024378  1
  I  I83  1  0.17023308  0.16619964  0.66667540  1
  I  I84  1  0.16936200  0.49916763  0.00013647  1
  I  I85  1  0.16603633  0.49956900  0.33307838  1
  I  I86  1  0.16965162  0.50009940  0.66683640  1
  I  I87  1  0.16795807  0.83363080  0.00064415  1
  I  I88  1  0.16557740  0.83443950  0.33323541  1
  I  I89  1  0.17057945  0.83374737  0.66615610  1
  I  I90  1  0.49922927  0.16934466  -0.00015282  1
  I  I91  1  0.49948283  0.16861714  0.33369457  1
  I  I92  1  0.50443562  0.16917302  0.66643735  1
  I  I93  1  0.50337183  0.49604875  -0.00025999  1
  I  I94  1  0.49862780  0.49727687  0.33350294  1
  I  I95  1  0.50431809  0.49741159  0.66685713  1
  I  I96  1  0.49796140  0.83382513  0.00271329  1
  I  I97  1  0.50309235  0.83378659  0.33393655  1
  I  I98  1  0.50434588  0.83287730  0.66304206  1
  I  I99  1  0.82891956  0.17163058  -0.00304101  1
  I  I100  1  0.82855754  0.16187355  0.33653379  1
  I  I101  1  0.82364713  0.16633336  0.66645914  1
  I  I102  1  0.82567473  0.49045283  -0.00457143  1
  I  I103  1  0.83242521  0.49888084  0.33353381  1
  I  I104  1  0.82427891  0.49846124  0.66969016  1
  I  I105  1  0.83330847  0.83447356  -0.00007760  1
  I  I106  1  0.82932355  0.84243107  0.33793418  1
  I  I107  1  0.82215083  0.83538535  0.66285966  1
  I  I108  1  0.00235660  0.16600626  0.16634728  1
  I  I109  1  -0.00384565  0.16070756  0.50438216  1
  I  I110  1  -0.00386956  0.17149441  0.82847541  1
  I  I111  1  0.00007401  0.49829412  0.16617633  1
  I  I112  1  -0.00039921  0.50003723  0.50199442  1
  I  I113  1  -0.00350281  0.49301608  0.83017002  1
  I  I114  1  0.00013863  0.83542841  0.16644258  1
  I  I115  1  -0.00354146  0.84138584  0.50388072  1
  I  I116  1  -0.00068644  0.83421505  0.83166344  1
  I  I117  1  0.33709033  0.16692298  0.16690855  1
  I  I118  1  0.33727104  0.16625316  0.50246737  1
  I  I119  1  0.33692733  0.17036111  0.83087401  1
  I  I120  1  0.33867121  0.50274404  0.16431410  1
  I  I121  1  0.33954408  0.49960664  0.50248010  1
  I  I122  1  0.33760191  0.49560967  0.83336346  1
  I  I123  1  0.33828090  0.83020322  0.17364103  1
  I  I124  1  0.33751713  0.83364758  0.49600418  1
  I  I125  1  0.33412373  0.83314641  0.83094352  1
  I  I126  1  0.66256636  0.16716007  0.16705273  1
  I  I127  1  0.66456970  0.16605277  0.49834285  1
  I  I128  1  0.66502102  0.17069719  0.83490520  1
  I  I129  1  0.66168850  0.49472531  0.17041180  1
  I  I130  1  0.66246906  0.49969524  0.49695628  1
  I  I131  1  0.66458966  0.49491978  0.83368494  1
  I  I132  1  0.66207813  0.83784603  0.16746575  1
  I  I133  1  0.66466198  0.83505063  0.49588733  1
  I  I134  1  0.66627948  0.83319130  0.83727037  1
