# generated using pymatgen
data_Cs27Sn13Pb14I81
_symmetry_space_group_name_H-M   'P 1'
_cell_length_a   18.96946179
_cell_length_b   18.98705474
_cell_length_c   18.97753102
_cell_angle_alpha   89.99965561
_cell_angle_beta   90.00184391
_cell_angle_gamma   90.00065282
_symmetry_Int_Tables_number   1
_chemical_formula_structural   Cs27Sn13Pb14I81
_chemical_formula_sum   'Cs27 Sn13 Pb14 I81'
_cell_volume   6835.21722576
_cell_formula_units_Z   1
loop_
 _symmetry_equiv_pos_site_id
 _symmetry_equiv_pos_as_xyz
  1  'x, y, z'
loop_
 _atom_site_type_symbol
 _atom_site_label
 _atom_site_symmetry_multiplicity
 _atom_site_fract_x
 _atom_site_fract_y
 _atom_site_fract_z
 _atom_site_occupancy
  Cs  Cs0  1  -0.00095278  0.00015067  -0.00208040  1
  Cs  Cs1  1  -0.00028492  0.00289908  0.33740010  1
  Cs  Cs2  1  0.00006622  0.00049644  0.66840853  1
  Cs  Cs3  1  0.00028380  0.33310706  0.00065122  1
  Cs  Cs4  1  -0.00484211  0.33883295  0.33942347  1
  Cs  Cs5  1  0.00078022  0.33323227  0.66412692  1
  Cs  Cs6  1  0.00042998  0.66641021  -0.00133232  1
  Cs  Cs7  1  0.00659209  0.65932283  0.33215030  1
  Cs  Cs8  1  -0.00169770  0.66635383  0.66926456  1
  Cs  Cs9  1  0.33311856  0.00336817  0.00216989  1
  Cs  Cs10  1  0.33270167  -0.00453439  0.33365571  1
  Cs  Cs11  1  0.33400814  -0.00029299  0.66352646  1
  Cs  Cs12  1  0.33497212  0.33106815  -0.00015207  1
  Cs  Cs13  1  0.33551571  0.33353950  0.33318720  1
  Cs  Cs14  1  0.33586320  0.33269713  0.66613537  1
  Cs  Cs15  1  0.33289525  0.66767927  0.00317964  1
  Cs  Cs16  1  0.32818058  0.67213808  0.33165444  1
  Cs  Cs17  1  0.33607016  0.66812185  0.66515155  1
  Cs  Cs18  1  0.66779418  -0.00062045  0.00008227  1
  Cs  Cs19  1  0.66695789  0.00118408  0.33218892  1
  Cs  Cs20  1  0.66653983  -0.00296630  0.66820865  1
  Cs  Cs21  1  0.66414618  0.33260106  0.00222365  1
  Cs  Cs22  1  0.66760854  0.33363859  0.33280800  1
  Cs  Cs23  1  0.66262886  0.33483273  0.66539812  1
  Cs  Cs24  1  0.66648862  0.66868485  -0.00143053  1
  Cs  Cs25  1  0.66555418  0.66555180  0.33424171  1
  Cs  Cs26  1  0.66665106  0.66821210  0.66749316  1
  Sn  Sn27  1  0.83386880  0.16710114  0.83342031  1
  Sn  Sn28  1  0.50010907  0.16701701  0.49893947  1
  Sn  Sn29  1  0.49930591  0.16725738  0.16769244  1
  Sn  Sn30  1  0.49985895  0.49967535  0.49874831  1
  Sn  Sn31  1  0.49989936  0.49967266  0.16749935  1
  Sn  Sn32  1  0.83413725  0.83341168  0.83349434  1
  Sn  Sn33  1  0.83379968  0.49952449  0.83357875  1
  Sn  Sn34  1  0.16625140  0.83360704  0.83348732  1
  Sn  Sn35  1  0.16648110  0.16713555  0.16664212  1
  Sn  Sn36  1  0.16622280  0.49966819  0.83344212  1
  Sn  Sn37  1  0.16587984  0.16678773  0.83397856  1
  Sn  Sn38  1  0.83391853  0.83317172  0.16703053  1
  Sn  Sn39  1  0.83379891  0.83310099  0.49957686  1
  Pb  Pb40  1  0.16870337  0.49748420  0.16451819  1
  Pb  Pb41  1  0.16395283  0.83590677  0.16461850  1
  Pb  Pb42  1  0.83092172  0.16516002  0.50269920  1
  Pb  Pb43  1  0.16373704  0.83330993  0.50238988  1
  Pb  Pb44  1  0.50180525  0.83331365  0.49976996  1
  Pb  Pb45  1  0.50172757  0.83372997  0.16667374  1
  Pb  Pb46  1  0.16873332  0.16681818  0.49993903  1
  Pb  Pb47  1  0.83131465  0.50200279  0.50230479  1
  Pb  Pb48  1  0.83358484  0.16548666  0.16509805  1
  Pb  Pb49  1  0.83138643  0.50198264  0.16447204  1
  Pb  Pb50  1  0.49968181  0.50005928  0.83367387  1
  Pb  Pb51  1  0.16933038  0.49994267  0.50250243  1
  Pb  Pb52  1  0.49966478  0.16651130  0.83356569  1
  Pb  Pb53  1  0.49955966  0.83342422  0.83354469  1
  I  I54  1  0.17438328  0.00358169  0.15939245  1
  I  I55  1  0.16992425  0.00010287  0.50308937  1
  I  I56  1  0.16004763  0.00043722  0.83693370  1
  I  I57  1  0.16855736  0.32964664  0.15819203  1
  I  I58  1  0.16443159  0.33326754  0.50442035  1
  I  I59  1  0.16087988  0.33270715  0.83684063  1
  I  I60  1  0.16852958  0.66666847  0.16465718  1
  I  I61  1  0.17018233  0.66667161  0.50166853  1
  I  I62  1  0.16015751  0.66681268  0.83200421  1
  I  I63  1  0.49736432  0.00347589  0.16963379  1
  I  I64  1  0.50109625  0.00289218  0.49708155  1
  I  I65  1  0.50183487  0.00028302  0.83280312  1
  I  I66  1  0.49757999  0.33238299  0.16945826  1
  I  I67  1  0.50077197  0.33305785  0.49743787  1
  I  I68  1  0.50160154  0.33326763  0.83271526  1
  I  I69  1  0.50279361  0.66388707  0.16918094  1
  I  I70  1  0.50210991  0.66376719  0.49806035  1
  I  I71  1  0.50099758  0.66642950  0.83262952  1
  I  I72  1  0.83058156  -0.00262297  0.16215176  1
  I  I73  1  0.83044036  -0.00291750  0.50380628  1
  I  I74  1  0.83789155  -0.00059880  0.83323493  1
  I  I75  1  0.83340387  0.33334044  0.16302162  1
  I  I76  1  0.83338811  0.33345324  0.50253005  1
  I  I77  1  0.83870452  0.33316920  0.83396611  1
  I  I78  1  0.83024931  0.67004580  0.16258869  1
  I  I79  1  0.82944337  0.66991319  0.50442567  1
  I  I80  1  0.83787864  0.66741876  0.83314274  1
  I  I81  1  0.16989643  0.16608899  -0.00149758  1
  I  I82  1  0.17016752  0.16507927  0.33019591  1
  I  I83  1  0.16401209  0.16568894  0.67041053  1
  I  I84  1  0.16494073  0.50236140  -0.00394432  1
  I  I85  1  0.16563745  0.49857085  0.33306979  1
  I  I86  1  0.16437823  0.49779174  0.67131445  1
  I  I87  1  0.16041329  0.83132495  -0.00382792  1
  I  I88  1  0.16533843  0.83517624  0.33305306  1
  I  I89  1  0.16167040  0.83651896  0.67125161  1
  I  I90  1  0.49924389  0.17104737  0.00280866  1
  I  I91  1  0.49575835  0.17048207  0.33237714  1
  I  I92  1  0.50108816  0.17092866  0.66439748  1
  I  I93  1  0.50056531  0.49485663  0.00255790  1
  I  I94  1  0.50225357  0.49446830  0.33311234  1
  I  I95  1  0.50028901  0.49552425  0.66443665  1
  I  I96  1  0.50439190  0.83268217  0.00014645  1
  I  I97  1  0.50365007  0.83364162  0.33322748  1
  I  I98  1  0.50269856  0.83336455  0.66660073  1
  I  I99  1  0.83184527  0.16342029  -0.00358281  1
  I  I100  1  0.83514192  0.16267521  0.33339901  1
  I  I101  1  0.83769780  0.16392937  0.67115326  1
  I  I102  1  0.83412425  0.50271987  -0.00408032  1
  I  I103  1  0.83327442  0.50234515  0.33335107  1
  I  I104  1  0.83419659  0.50236972  0.67081488  1
  I  I105  1  0.83566449  0.83366974  -0.00189269  1
  I  I106  1  0.82808000  0.83587641  0.33325519  1
  I  I107  1  0.83570897  0.83347117  0.66858083  1
  I  I108  1  0.00261130  0.16265132  0.16062088  1
  I  I109  1  -0.00021892  0.16467818  0.49823672  1
  I  I110  1  0.00037310  0.16541099  0.83870436  1
  I  I111  1  0.00008108  0.49977066  0.16687642  1
  I  I112  1  -0.00016213  0.50118322  0.49935647  1
  I  I113  1  -0.00036576  0.50116530  0.83370715  1
  I  I114  1  -0.00399078  0.83504320  0.16596675  1
  I  I115  1  -0.00436560  0.83480984  0.50016737  1
  I  I116  1  -0.00128749  0.83376225  0.83316933  1
  I  I117  1  0.33390411  0.16978193  0.16208909  1
  I  I118  1  0.33698991  0.16983091  0.50280035  1
  I  I119  1  0.33006512  0.16690056  0.83421849  1
  I  I120  1  0.33693404  0.49896765  0.16698226  1
  I  I121  1  0.33751927  0.49606783  0.49994411  1
  I  I122  1  0.33025396  0.49918984  0.83306020  1
  I  I123  1  0.33290571  0.83185524  0.16399843  1
  I  I124  1  0.33321538  0.83342650  0.50312211  1
  I  I125  1  0.32950337  0.83343210  0.83347030  1
  I  I126  1  0.66386208  0.16838659  0.16804374  1
  I  I127  1  0.66301682  0.16994167  0.49551997  1
  I  I128  1  0.66949949  0.16535735  0.83315559  1
  I  I129  1  0.66329050  0.49345689  0.16721703  1
  I  I130  1  0.66335648  0.49635314  0.49958939  1
  I  I131  1  0.66950980  0.50132571  0.83305439  1
  I  I132  1  0.66990797  0.83561818  0.16132641  1
  I  I133  1  0.66985533  0.83371113  0.50591431  1
  I  I134  1  0.67067922  0.83333565  0.83289759  1
