# generated using pymatgen
data_Cs27Sn14Pb13I81
_symmetry_space_group_name_H-M   'P 1'
_cell_length_a   18.98356588
_cell_length_b   18.96601154
_cell_length_c   18.97632973
_cell_angle_alpha   90.00006828
_cell_angle_beta   90.00064237
_cell_angle_gamma   89.99973353
_symmetry_Int_Tables_number   1
_chemical_formula_structural   Cs27Sn14Pb13I81
_chemical_formula_sum   'Cs27 Sn14 Pb13 I81'
_cell_volume   6832.28575803
_cell_formula_units_Z   1
loop_
 _symmetry_equiv_pos_site_id
 _symmetry_equiv_pos_as_xyz
  1  'x, y, z'
loop_
 _atom_site_type_symbol
 _atom_site_label
 _atom_site_symmetry_multiplicity
 _atom_site_fract_x
 _atom_site_fract_y
 _atom_site_fract_z
 _atom_site_occupancy
  Cs  Cs0  1  -0.00018869  -0.00112409  0.00035680  1
  Cs  Cs1  1  0.00088830  0.00229440  0.33168623  1
  Cs  Cs2  1  0.00056078  -0.00099280  0.66874422  1
  Cs  Cs3  1  0.00407406  0.33568014  -0.00428343  1
  Cs  Cs4  1  -0.00006311  0.33188754  0.33457781  1
  Cs  Cs5  1  0.00127223  0.33401303  0.66762706  1
  Cs  Cs6  1  -0.00128063  0.66770260  0.00135367  1
  Cs  Cs7  1  -0.00006803  0.66655443  0.33383041  1
  Cs  Cs8  1  -0.00288873  0.66649056  0.66509403  1
  Cs  Cs9  1  0.33159925  -0.00009591  -0.00224546  1
  Cs  Cs10  1  0.33132022  -0.00127795  0.33652622  1
  Cs  Cs11  1  0.33516053  0.00082952  0.66549315  1
  Cs  Cs12  1  0.33877463  0.33833841  -0.00575753  1
  Cs  Cs13  1  0.33184348  0.33710367  0.33016982  1
  Cs  Cs14  1  0.33179521  0.32992064  0.67414469  1
  Cs  Cs15  1  0.33405626  0.66428782  0.00317671  1
  Cs  Cs16  1  0.33321976  0.66564382  0.33487282  1
  Cs  Cs17  1  0.33531650  0.66994856  0.66008986  1
  Cs  Cs18  1  0.66858721  -0.00259009  0.00166326  1
  Cs  Cs19  1  0.66692135  0.00820048  0.33287647  1
  Cs  Cs20  1  0.66629710  0.00160988  0.66532229  1
  Cs  Cs21  1  0.65650887  0.33314668  0.00029350  1
  Cs  Cs22  1  0.66646620  0.32504189  0.33295895  1
  Cs  Cs23  1  0.66422943  0.33378167  0.66679983  1
  Cs  Cs24  1  0.66782198  0.66884318  -0.00116029  1
  Cs  Cs25  1  0.66911377  0.66728900  0.33381737  1
  Cs  Cs26  1  0.66938544  0.66546201  0.66674948  1
  Sn  Sn27  1  0.50008417  0.83346048  0.16646790  1
  Sn  Sn28  1  0.83343270  0.83421832  0.83326582  1
  Sn  Sn29  1  0.16640662  0.16756369  0.49938839  1
  Sn  Sn30  1  0.50050634  0.49978009  0.49973727  1
  Sn  Sn31  1  0.16676366  0.16651242  0.16671946  1
  Sn  Sn32  1  0.83347164  0.50006158  0.16732908  1
  Sn  Sn33  1  0.83321700  0.83293308  0.16728423  1
  Sn  Sn34  1  0.16652232  0.49880607  0.49998923  1
  Sn  Sn35  1  0.83330785  0.16630477  0.83372017  1
  Sn  Sn36  1  0.83337214  0.83345653  0.49948849  1
  Sn  Sn37  1  0.16673950  0.83300642  0.83408134  1
  Sn  Sn38  1  0.16673615  0.83393471  0.16596325  1
  Sn  Sn39  1  0.50004863  0.83313937  0.83393552  1
  Sn  Sn40  1  0.83300503  0.50033165  0.49871384  1
  Pb  Pb41  1  0.49650498  0.16392830  0.16663733  1
  Pb  Pb42  1  0.83322756  0.50006213  0.83371683  1
  Pb  Pb43  1  0.16671760  0.50348326  0.83060319  1
  Pb  Pb44  1  0.16466503  0.83332489  0.49961186  1
  Pb  Pb45  1  0.16477082  0.50028184  0.16817921  1
  Pb  Pb46  1  0.83514993  0.16720243  0.50180756  1
  Pb  Pb47  1  0.16519394  0.16456429  0.83374635  1
  Pb  Pb48  1  0.50307195  0.83218143  0.49946616  1
  Pb  Pb49  1  0.49669727  0.16976836  0.49986484  1
  Pb  Pb50  1  0.50287025  0.50237918  0.16877684  1
  Pb  Pb51  1  0.83529425  0.16716595  0.16430844  1
  Pb  Pb52  1  0.50276273  0.16375543  0.83345019  1
  Pb  Pb53  1  0.50000371  0.50308978  0.83100798  1
  I  I54  1  0.16391420  -0.00189856  0.16954606  1
  I  I55  1  0.16349967  0.00170075  0.49919311  1
  I  I56  1  0.16717340  -0.00389959  0.83174335  1
  I  I57  1  0.16207731  0.33111253  0.17110316  1
  I  I58  1  0.16352383  0.33373754  0.49393440  1
  I  I59  1  0.16376682  0.33326739  0.83473694  1
  I  I60  1  0.16718566  0.67020010  0.16410957  1
  I  I61  1  0.16696734  0.66439209  0.50092714  1
  I  I62  1  0.16163761  0.67172721  0.83876081  1
  I  I63  1  0.50705808  -0.00470324  0.16388762  1
  I  I64  1  0.49961289  -0.00010505  0.50085796  1
  I  I65  1  0.49764608  -0.00468174  0.83538687  1
  I  I66  1  0.50081824  0.33360223  0.16809454  1
  I  I67  1  0.50845432  0.33773134  0.49905185  1
  I  I68  1  0.50152195  0.33337482  0.83204826  1
  I  I69  1  0.49514911  0.67076893  0.16280722  1
  I  I70  1  0.49471203  0.66431488  0.50060180  1
  I  I71  1  0.50444736  0.67126956  0.83718832  1
  I  I72  1  0.83202311  -0.00357756  0.16871501  1
  I  I73  1  0.83552231  -0.00281838  0.49820488  1
  I  I74  1  0.83392054  -0.00309650  0.83290881  1
  I  I75  1  0.83642435  0.33602931  0.17198792  1
  I  I76  1  0.83235952  0.33667187  0.49689791  1
  I  I77  1  0.83651335  0.33088478  0.83167436  1
  I  I78  1  0.83584660  0.66894090  0.16580122  1
  I  I79  1  0.83625522  0.66684710  0.50184526  1
  I  I80  1  0.83329817  0.67042556  0.83262162  1
  I  I81  1  0.16319635  0.16143319  0.00264560  1
  I  I82  1  0.16440386  0.16303917  0.33322670  1
  I  I83  1  0.16444788  0.16989489  0.66437563  1
  I  I84  1  0.16407605  0.49746535  0.00014986  1
  I  I85  1  0.16722530  0.50223223  0.33660042  1
  I  I86  1  0.16233384  0.49549936  0.66210543  1
  I  I87  1  0.16192690  0.83911230  0.00098577  1
  I  I88  1  0.16626473  0.83382955  0.33057095  1
  I  I89  1  0.16554112  0.83260580  0.66875968  1
  I  I90  1  0.49799916  0.17058858  0.00003044  1
  I  I91  1  0.50408560  0.16271460  0.33331373  1
  I  I92  1  0.49783763  0.16379895  0.66661422  1
  I  I93  1  0.50147417  0.49858148  0.00028858  1
  I  I94  1  0.49722696  0.50477617  0.33660156  1
  I  I95  1  0.50362390  0.50338734  0.66293690  1
  I  I96  1  0.50467356  0.83327943  0.00010732  1
  I  I97  1  0.49838955  0.83074109  0.33044353  1
  I  I98  1  0.49960709  0.83112013  0.66912017  1
  I  I99  1  0.83672990  0.15972717  -0.00302876  1
  I  I100  1  0.83345232  0.16375423  0.33318739  1
  I  I101  1  0.83661283  0.16018747  0.66936578  1
  I  I102  1  0.83521063  0.50536949  0.00297553  1
  I  I103  1  0.83446269  0.50985947  0.33441017  1
  I  I104  1  0.83393117  0.50444439  0.66337327  1
  I  I105  1  0.83366736  0.83306928  0.00032512  1
  I  I106  1  0.83468532  0.82735379  0.33273720  1
  I  I107  1  0.83437233  0.83256900  0.66701238  1
  I  I108  1  0.00289687  0.15932166  0.17060165  1
  I  I109  1  0.00282086  0.17089204  0.49702116  1
  I  I110  1  -0.00249951  0.15894699  0.83289985  1
  I  I111  1  -0.00312342  0.50725687  0.17273934  1
  I  I112  1  -0.00083385  0.50117673  0.49670861  1
  I  I113  1  -0.00017089  0.50245514  0.83036510  1
  I  I114  1  -0.00045067  0.83319484  0.16431836  1
  I  I115  1  -0.00332793  0.82814461  0.50096477  1
  I  I116  1  -0.00086480  0.83699496  0.83522033  1
  I  I117  1  0.32847277  0.16082114  0.17142502  1
  I  I118  1  0.32862750  0.16841989  0.49734913  1
  I  I119  1  0.33321328  0.16480197  0.83188533  1
  I  I120  1  0.33331693  0.50178462  0.16978034  1
  I  I121  1  0.33267573  0.49746486  0.50081511  1
  I  I122  1  0.33326737  0.50075494  0.83183184  1
  I  I123  1  0.33258825  0.83790393  0.15992045  1
  I  I124  1  0.33327047  0.83196955  0.50091939  1
  I  I125  1  0.33302723  0.83173392  0.83949041  1
  I  I126  1  0.66680995  0.16630550  0.16569691  1
  I  I127  1  0.66682960  0.16650190  0.50171507  1
  I  I128  1  0.67063240  0.16082869  0.83223138  1
  I  I129  1  0.67090305  0.50629875  0.17145495  1
  I  I130  1  0.66820998  0.50799909  0.49784234  1
  I  I131  1  0.66689832  0.50166498  0.83034348  1
  I  I132  1  0.66785860  0.82744776  0.16344186  1
  I  I133  1  0.67115272  0.82724817  0.50132886  1
  I  I134  1  0.66774471  0.83632881  0.83577977  1
