# generated using pymatgen
data_Cs27Sn13Pb14I81
_symmetry_space_group_name_H-M   'P 1'
_cell_length_a   18.96865558
_cell_length_b   18.98243912
_cell_length_c   18.97956259
_cell_angle_alpha   90.00231768
_cell_angle_beta   90.00101974
_cell_angle_gamma   90.00302476
_symmetry_Int_Tables_number   1
_chemical_formula_structural   Cs27Sn13Pb14I81
_chemical_formula_sum   'Cs27 Sn13 Pb14 I81'
_cell_volume   6833.99670064
_cell_formula_units_Z   1
loop_
 _symmetry_equiv_pos_site_id
 _symmetry_equiv_pos_as_xyz
  1  'x, y, z'
loop_
 _atom_site_type_symbol
 _atom_site_label
 _atom_site_symmetry_multiplicity
 _atom_site_fract_x
 _atom_site_fract_y
 _atom_site_fract_z
 _atom_site_occupancy
  Cs  Cs0  1  0.00022637  0.00301482  -0.00099126  1
  Cs  Cs1  1  -0.00132257  -0.00473682  0.33045621  1
  Cs  Cs2  1  0.00043812  -0.00015411  0.67022774  1
  Cs  Cs3  1  -0.00088454  0.33310582  -0.00031170  1
  Cs  Cs4  1  0.00237864  0.33644490  0.33477489  1
  Cs  Cs5  1  0.00016329  0.33285356  0.66637035  1
  Cs  Cs6  1  0.00051564  0.66626966  0.00073039  1
  Cs  Cs7  1  0.00031473  0.66626968  0.33381556  1
  Cs  Cs8  1  -0.00159062  0.66608392  0.66501288  1
  Cs  Cs9  1  0.33010621  -0.00344588  -0.00561133  1
  Cs  Cs10  1  0.33963297  0.00189935  0.33571065  1
  Cs  Cs11  1  0.33584101  0.00103184  0.66896420  1
  Cs  Cs12  1  0.33667043  0.33630792  0.00176556  1
  Cs  Cs13  1  0.33216661  0.32975404  0.33496751  1
  Cs  Cs14  1  0.33193014  0.32998648  0.66326460  1
  Cs  Cs15  1  0.33797121  0.66615785  -0.00346431  1
  Cs  Cs16  1  0.33065256  0.66684945  0.33284700  1
  Cs  Cs17  1  0.33592651  0.66951287  0.67053680  1
  Cs  Cs18  1  0.66866854  0.00461862  0.01033854  1
  Cs  Cs19  1  0.66044459  0.00058434  0.32894818  1
  Cs  Cs20  1  0.66609821  0.00047306  0.66396726  1
  Cs  Cs21  1  0.66314525  0.33171529  -0.00032320  1
  Cs  Cs22  1  0.66466070  0.33266514  0.33358213  1
  Cs  Cs23  1  0.66861866  0.33446550  0.66796243  1
  Cs  Cs24  1  0.66071836  0.66587334  0.00005558  1
  Cs  Cs25  1  0.66726873  0.66839239  0.33370069  1
  Cs  Cs26  1  0.66806352  0.66536157  0.66632628  1
  Sn  Sn27  1  0.16604873  0.83338265  0.49971097  1
  Sn  Sn28  1  0.83312866  0.83277939  0.83318470  1
  Sn  Sn29  1  0.83370554  0.50014548  0.16644822  1
  Sn  Sn30  1  0.83401876  0.50081244  0.83371418  1
  Sn  Sn31  1  0.16593506  0.50003470  0.83380288  1
  Sn  Sn32  1  0.16576132  0.50010959  0.16567956  1
  Sn  Sn33  1  0.83254006  0.49995295  0.49986162  1
  Sn  Sn34  1  0.16632196  0.83320478  0.16734328  1
  Sn  Sn35  1  0.16630133  0.16668842  0.16678620  1
  Sn  Sn36  1  0.83383650  0.16632036  0.49965656  1
  Sn  Sn37  1  0.83411086  0.83365310  0.50054975  1
  Sn  Sn38  1  0.50052450  0.50032040  0.50001151  1
  Sn  Sn39  1  0.50026108  0.16665935  0.83323308  1
  Pb  Pb40  1  0.16463393  0.83119962  0.83327926  1
  Pb  Pb41  1  0.49705022  0.16682557  0.16441709  1
  Pb  Pb42  1  0.50027509  0.49876192  0.83121904  1
  Pb  Pb43  1  0.49965105  0.50009036  0.16918785  1
  Pb  Pb44  1  0.16635831  0.50164469  0.50012946  1
  Pb  Pb45  1  0.49653632  0.83311439  0.16661973  1
  Pb  Pb46  1  0.83484851  0.83114269  0.16658808  1
  Pb  Pb47  1  0.16439910  0.16348287  0.49814737  1
  Pb  Pb48  1  0.50405638  0.83597675  0.83326803  1
  Pb  Pb49  1  0.16826829  0.16944588  0.83520539  1
  Pb  Pb50  1  0.50235472  0.16881845  0.50153025  1
  Pb  Pb51  1  0.83206190  0.16677086  0.83178558  1
  Pb  Pb52  1  0.50045415  0.83123257  0.50009632  1
  Pb  Pb53  1  0.83527494  0.16943226  0.16925354  1
  I  I54  1  0.16691078  -0.00069577  0.17196088  1
  I  I55  1  0.16113083  -0.00443073  0.49548034  1
  I  I56  1  0.16627065  -0.00018712  0.83473672  1
  I  I57  1  0.16267000  0.33485154  0.16216012  1
  I  I58  1  0.16623605  0.33350122  0.49912596  1
  I  I59  1  0.16022099  0.33754442  0.83690590  1
  I  I60  1  0.16174263  0.66585933  0.16805826  1
  I  I61  1  0.16084451  0.66929341  0.49462916  1
  I  I62  1  0.16546013  0.66319946  0.83805497  1
  I  I63  1  0.50103017  0.00017329  0.16743445  1
  I  I64  1  0.50048808  0.00008066  0.50074464  1
  I  I65  1  0.49854052  0.00324490  0.83167855  1
  I  I66  1  0.49778819  0.33360470  0.16714568  1
  I  I67  1  0.50495394  0.33667903  0.50067578  1
  I  I68  1  0.50192726  0.33139809  0.83206231  1
  I  I69  1  0.49839925  0.66622676  0.16606004  1
  I  I70  1  0.50611568  0.66341578  0.50137090  1
  I  I71  1  0.49801660  0.66658677  0.83224571  1
  I  I72  1  0.83536334  -0.00008418  0.16622955  1
  I  I73  1  0.83943770  -0.00123867  0.50622250  1
  I  I74  1  0.83227636  -0.00273017  0.82727401  1
  I  I75  1  0.83940699  0.33769128  0.16607776  1
  I  I76  1  0.82893563  0.33502505  0.50021667  1
  I  I77  1  0.83565812  0.33679507  0.83181402  1
  I  I78  1  0.83977782  0.66294006  0.17105863  1
  I  I79  1  0.83363909  0.66602149  0.50090167  1
  I  I80  1  0.83739440  0.66511781  0.82783313  1
  I  I81  1  0.16572301  0.16195725  0.00329830  1
  I  I82  1  0.16569863  0.17417500  0.33023016  1
  I  I83  1  0.16741041  0.16751377  0.66663092  1
  I  I84  1  0.15914405  0.50116548  0.00090059  1
  I  I85  1  0.16369346  0.49924594  0.33055508  1
  I  I86  1  0.16338708  0.50183971  0.66890404  1
  I  I87  1  0.16511618  0.83460878  0.00269705  1
  I  I88  1  0.15989975  0.82993698  0.33328848  1
  I  I89  1  0.16356712  0.83008113  0.66418678  1
  I  I90  1  0.50286821  0.16967916  -0.00300022  1
  I  I91  1  0.49979461  0.16761548  0.33338920  1
  I  I92  1  0.49939047  0.16845631  0.66903023  1
  I  I93  1  0.50175682  0.49845181  -0.00015666  1
  I  I94  1  0.50500836  0.49947714  0.33691114  1
  I  I95  1  0.50470425  0.49927348  0.66369318  1
  I  I96  1  0.49974513  0.83196922  -0.00029351  1
  I  I97  1  0.50426516  0.83354108  0.33359462  1
  I  I98  1  0.49401875  0.83317379  0.66665930  1
  I  I99  1  0.83242277  0.16614203  0.00027602  1
  I  I100  1  0.83392577  0.16639398  0.33717834  1
  I  I101  1  0.83307518  0.17151632  0.66375110  1
  I  I102  1  0.83932608  0.50429268  -0.00051551  1
  I  I103  1  0.83425615  0.49985141  0.33401186  1
  I  I104  1  0.83342301  0.50063088  0.66637576  1
  I  I105  1  0.83488703  0.82861459  -0.00256093  1
  I  I106  1  0.83642193  0.83118065  0.33632765  1
  I  I107  1  0.83907476  0.82813662  0.66525897  1
  I  I108  1  0.00320958  0.16532754  0.16578502  1
  I  I109  1  -0.00352998  0.17417369  0.50149484  1
  I  I110  1  -0.00008389  0.16593344  0.83327729  1
  I  I111  1  0.00037628  0.50003380  0.16845378  1
  I  I112  1  -0.00325883  0.49912194  0.49992206  1
  I  I113  1  -0.00130532  0.50229402  0.83201061  1
  I  I114  1  0.00313465  0.83369242  0.16881103  1
  I  I115  1  -0.00133815  0.82986076  0.49924512  1
  I  I116  1  -0.00336199  0.83166953  0.83072899  1
  I  I117  1  0.32898021  0.17067475  0.16814981  1
  I  I118  1  0.33320382  0.16795027  0.49972904  1
  I  I119  1  0.33589261  0.16910695  0.83296691  1
  I  I120  1  0.32943359  0.50061147  0.16332174  1
  I  I121  1  0.33492954  0.50173033  0.50019277  1
  I  I122  1  0.33072514  0.49869409  0.83703851  1
  I  I123  1  0.32773043  0.82970850  0.17270024  1
  I  I124  1  0.33034710  0.83021144  0.49458173  1
  I  I125  1  0.33320125  0.83211887  0.83327079  1
  I  I126  1  0.66690079  0.16810412  0.16675416  1
  I  I127  1  0.67054812  0.16328873  0.50031536  1
  I  I128  1  0.66454074  0.16981688  0.83138649  1
  I  I129  1  0.67002979  0.50011270  0.16450474  1
  I  I130  1  0.66964781  0.50152124  0.50074713  1
  I  I131  1  0.67026420  0.50220246  0.83457943  1
  I  I132  1  0.66708804  0.83199004  0.16703081  1
  I  I133  1  0.67063925  0.83352198  0.50484050  1
  I  I134  1  0.67187488  0.82436678  0.82504770  1
