# generated using pymatgen
data_Cs27Sn14Pb13I81
_symmetry_space_group_name_H-M   'P 1'
_cell_length_a   18.96929658
_cell_length_b   18.99206727
_cell_length_c   18.96804572
_cell_angle_alpha   89.99977817
_cell_angle_beta   89.99902935
_cell_angle_gamma   90.00124135
_symmetry_Int_Tables_number   1
_chemical_formula_structural   Cs27Sn14Pb13I81
_chemical_formula_sum   'Cs27 Sn14 Pb13 I81'
_cell_volume   6833.54493169
_cell_formula_units_Z   1
loop_
 _symmetry_equiv_pos_site_id
 _symmetry_equiv_pos_as_xyz
  1  'x, y, z'
loop_
 _atom_site_type_symbol
 _atom_site_label
 _atom_site_symmetry_multiplicity
 _atom_site_fract_x
 _atom_site_fract_y
 _atom_site_fract_z
 _atom_site_occupancy
  Cs  Cs0  1  -0.00065213  0.00610667  0.00357476  1
  Cs  Cs1  1  -0.00065575  0.00453216  0.33410603  1
  Cs  Cs2  1  0.00170292  -0.00405221  0.66409628  1
  Cs  Cs3  1  -0.00327604  0.33148230  0.00169601  1
  Cs  Cs4  1  -0.00095395  0.33136270  0.33400321  1
  Cs  Cs5  1  0.00273419  0.33468501  0.66526077  1
  Cs  Cs6  1  0.00358182  0.66395041  0.00173234  1
  Cs  Cs7  1  -0.00270811  0.66616074  0.33334717  1
  Cs  Cs8  1  -0.00062188  0.66753280  0.66592463  1
  Cs  Cs9  1  0.33492208  -0.00380000  -0.00144623  1
  Cs  Cs10  1  0.33508425  0.00037049  0.33442293  1
  Cs  Cs11  1  0.33141110  0.00061257  0.66673287  1
  Cs  Cs12  1  0.33256575  0.33409872  -0.00061436  1
  Cs  Cs13  1  0.33511141  0.33151895  0.33493379  1
  Cs  Cs14  1  0.33261856  0.33480389  0.66559771  1
  Cs  Cs15  1  0.33039679  0.66990747  0.00222883  1
  Cs  Cs16  1  0.33546889  0.66712429  0.33169537  1
  Cs  Cs17  1  0.33293178  0.66543357  0.66607342  1
  Cs  Cs18  1  0.66610359  0.00306217  -0.00385872  1
  Cs  Cs19  1  0.66550591  -0.00094134  0.33333265  1
  Cs  Cs20  1  0.66931166  -0.00288843  0.67052883  1
  Cs  Cs21  1  0.67056778  0.33076128  -0.00404257  1
  Cs  Cs22  1  0.66572235  0.33398878  0.33352989  1
  Cs  Cs23  1  0.66453954  0.33629939  0.67073466  1
  Cs  Cs24  1  0.66675406  0.66627910  -0.00095118  1
  Cs  Cs25  1  0.66656802  0.66679447  0.33401522  1
  Cs  Cs26  1  0.66896459  0.66604232  0.67331255  1
  Sn  Sn27  1  0.50129483  0.83339190  0.16752391  1
  Sn  Sn28  1  0.50006130  0.16652191  0.16716371  1
  Sn  Sn29  1  0.83184516  0.16764942  0.50018183  1
  Sn  Sn30  1  0.83213621  0.50088172  0.16771382  1
  Sn  Sn31  1  0.16752193  0.83232756  0.50013766  1
  Sn  Sn32  1  0.16657147  0.50008445  0.83251922  1
  Sn  Sn33  1  0.16605946  0.50098105  0.50013014  1
  Sn  Sn34  1  0.16666182  0.16661619  0.83330964  1
  Sn  Sn35  1  0.16654087  0.83331471  0.83257054  1
  Sn  Sn36  1  0.50103093  0.50003588  0.16680629  1
  Sn  Sn37  1  0.49960626  0.83383215  0.49977774  1
  Sn  Sn38  1  0.83368028  0.49927550  0.49945956  1
  Sn  Sn39  1  0.50131395  0.16577088  0.49977043  1
  Sn  Sn40  1  0.83248870  0.83274269  0.16688000  1
  Pb  Pb41  1  0.83564010  0.50011524  0.83338837  1
  Pb  Pb42  1  0.83301380  0.83290374  0.49854082  1
  Pb  Pb43  1  0.83089729  0.16692523  0.16860274  1
  Pb  Pb44  1  0.83579697  0.16662092  0.82965526  1
  Pb  Pb45  1  0.16620380  0.49985884  0.16762981  1
  Pb  Pb46  1  0.49822143  0.83318959  0.83297996  1
  Pb  Pb47  1  0.16646092  0.83342696  0.16767083  1
  Pb  Pb48  1  0.16710871  0.16664422  0.50124172  1
  Pb  Pb49  1  0.16968414  0.16667950  0.16426768  1
  Pb  Pb50  1  0.49734945  0.50014902  0.83681739  1
  Pb  Pb51  1  0.83646306  0.83332258  0.83700338  1
  Pb  Pb52  1  0.49821019  0.16664621  0.83253375  1
  Pb  Pb53  1  0.50027835  0.50041097  0.49872543  1
  I  I54  1  0.16468455  -0.00014417  0.16631178  1
  I  I55  1  0.16729789  -0.00249381  0.50385513  1
  I  I56  1  0.16794623  -0.00080252  0.82885492  1
  I  I57  1  0.16737532  0.33347052  0.16616804  1
  I  I58  1  0.16610884  0.33583228  0.50383656  1
  I  I59  1  0.16773397  0.33410357  0.82891500  1
  I  I60  1  0.17123180  0.66664052  0.16146257  1
  I  I61  1  0.16676247  0.66669313  0.50774806  1
  I  I62  1  0.16709290  0.66666168  0.82929478  1
  I  I63  1  0.50220588  -0.00070133  0.17101201  1
  I  I64  1  0.49809083  -0.00036194  0.49150778  1
  I  I65  1  0.49544135  -0.00008808  0.83841292  1
  I  I66  1  0.50141294  0.33330159  0.17120746  1
  I  I67  1  0.49930127  0.33118133  0.49526451  1
  I  I68  1  0.49511185  0.33337605  0.83311400  1
  I  I69  1  0.50274414  0.66729441  0.17089901  1
  I  I70  1  0.49720773  0.66933709  0.49486156  1
  I  I71  1  0.49660872  0.66667480  0.83238332  1
  I  I72  1  0.83119086  -0.00228305  0.16798487  1
  I  I73  1  0.83402590  0.00180856  0.49800932  1
  I  I74  1  0.83686834  -0.00000358  0.83361292  1
  I  I75  1  0.83062571  0.33620135  0.16845703  1
  I  I76  1  0.83565880  0.33447865  0.49356248  1
  I  I77  1  0.83691985  0.33337453  0.83881284  1
  I  I78  1  0.82622204  0.66578834  0.17267924  1
  I  I79  1  0.83571660  0.66400145  0.49692120  1
  I  I80  1  0.83574945  0.66668713  0.82855084  1
  I  I81  1  0.16771661  0.16667527  -0.00393955  1
  I  I82  1  0.16498267  0.16658712  0.33366905  1
  I  I83  1  0.16851937  0.16683442  0.66917041  1
  I  I84  1  0.16842192  0.50116522  -0.00246777  1
  I  I85  1  0.16565784  0.50575532  0.33671922  1
  I  I86  1  0.16148873  0.50055086  0.66550337  1
  I  I87  1  0.16692381  0.83202196  -0.00243522  1
  I  I88  1  0.16855859  0.82750289  0.33676237  1
  I  I89  1  0.17226383  0.83290404  0.66547357  1
  I  I90  1  0.49703886  0.16589628  0.00305467  1
  I  I91  1  0.50196033  0.16565750  0.33373885  1
  I  I92  1  0.50192851  0.16151520  0.66285151  1
  I  I93  1  0.50443024  0.50000587  0.00531521  1
  I  I94  1  0.49791140  0.50034403  0.33044559  1
  I  I95  1  0.50193402  0.49951425  0.66650671  1
  I  I96  1  0.50138544  0.83382453  0.00350579  1
  I  I97  1  0.49626481  0.83428674  0.33315949  1
  I  I98  1  0.49692772  0.83895570  0.66306813  1
  I  I99  1  0.83379925  0.16684583  0.00014474  1
  I  I100  1  0.83458863  0.16798759  0.33651124  1
  I  I101  1  0.82606351  0.17269352  0.66163999  1
  I  I102  1  0.83082665  0.50411990  0.00341063  1
  I  I103  1  0.83674527  0.50014964  0.33350787  1
  I  I104  1  0.83603657  0.49610583  0.66330219  1
  I  I105  1  0.82774150  0.82740927  0.00509038  1
  I  I106  1  0.83438680  0.83140785  0.33060310  1
  I  I107  1  0.83104958  0.83321405  0.66650200  1
  I  I108  1  -0.00044500  0.16640485  0.16691894  1
  I  I109  1  -0.00190186  0.16738111  0.50183274  1
  I  I110  1  0.00402950  0.16681696  0.83283442  1
  I  I111  1  -0.00310260  0.50574205  0.16691329  1
  I  I112  1  0.00013440  0.49959859  0.49808323  1
  I  I113  1  0.00401600  0.50058985  0.83432994  1
  I  I114  1  -0.00270995  0.82662156  0.16594995  1
  I  I115  1  0.00250158  0.83294971  0.50280913  1
  I  I116  1  0.00469490  0.83259498  0.82605783  1
  I  I117  1  0.33796619  0.16647084  0.17439553  1
  I  I118  1  0.33604671  0.16595132  0.49703616  1
  I  I119  1  0.33000181  0.16675626  0.83177915  1
  I  I120  1  0.33618686  0.50119800  0.16596864  1
  I  I121  1  0.33087077  0.50026604  0.50262186  1
  I  I122  1  0.32903451  0.49980940  0.82725561  1
  I  I123  1  0.33646979  0.83255970  0.16665821  1
  I  I124  1  0.33341868  0.83388154  0.49780124  1
  I  I125  1  0.32973133  0.83297021  0.83503420  1
  I  I126  1  0.66287532  0.16635676  0.16852106  1
  I  I127  1  0.66577435  0.16649088  0.49434834  1
  I  I128  1  0.66669020  0.16680953  0.83555625  1
  I  I129  1  0.66696621  0.50142753  0.17407813  1
  I  I130  1  0.66928501  0.49880370  0.49553287  1
  I  I131  1  0.66684156  0.49969852  0.83041771  1
  I  I132  1  0.66524425  0.83199615  0.17409717  1
  I  I133  1  0.66384807  0.83482638  0.49525986  1
  I  I134  1  0.66680210  0.83352110  0.83042634  1
