# generated using pymatgen
data_Cs27Sn13Pb14I81
_symmetry_space_group_name_H-M   'P 1'
_cell_length_a   18.97203499
_cell_length_b   18.98107401
_cell_length_c   18.97686083
_cell_angle_alpha   90.00062134
_cell_angle_beta   90.00166327
_cell_angle_gamma   90.00108470
_symmetry_Int_Tables_number   1
_chemical_formula_structural   Cs27Sn13Pb14I81
_chemical_formula_sum   'Cs27 Sn13 Pb14 I81'
_cell_volume   6833.74976333
_cell_formula_units_Z   1
loop_
 _symmetry_equiv_pos_site_id
 _symmetry_equiv_pos_as_xyz
  1  'x, y, z'
loop_
 _atom_site_type_symbol
 _atom_site_label
 _atom_site_symmetry_multiplicity
 _atom_site_fract_x
 _atom_site_fract_y
 _atom_site_fract_z
 _atom_site_occupancy
  Cs  Cs0  1  -0.00154091  0.00004892  -0.00161031  1
  Cs  Cs1  1  0.00824829  -0.00322242  0.33541704  1
  Cs  Cs2  1  0.00080692  0.00987598  0.66700286  1
  Cs  Cs3  1  0.00309246  0.33086636  -0.00094018  1
  Cs  Cs4  1  -0.00148699  0.33626787  0.33218636  1
  Cs  Cs5  1  -0.00201341  0.32795831  0.66867260  1
  Cs  Cs6  1  -0.00208184  0.66917876  0.00058046  1
  Cs  Cs7  1  0.00043455  0.66641846  0.33419040  1
  Cs  Cs8  1  0.00064933  0.66571510  0.66518873  1
  Cs  Cs9  1  0.33676161  0.00182087  -0.00215274  1
  Cs  Cs10  1  0.32878492  -0.00132651  0.33677163  1
  Cs  Cs11  1  0.33141701  -0.00183608  0.66755088  1
  Cs  Cs12  1  0.33172665  0.33124171  0.00197994  1
  Cs  Cs13  1  0.33392104  0.33275873  0.33220523  1
  Cs  Cs14  1  0.33597466  0.33503631  0.66441020  1
  Cs  Cs15  1  0.33353581  0.66574587  -0.00227628  1
  Cs  Cs16  1  0.33017161  0.66718864  0.33392547  1
  Cs  Cs17  1  0.33351711  0.66617387  0.66750679  1
  Cs  Cs18  1  0.66461814  -0.00195047  0.00193408  1
  Cs  Cs19  1  0.66610388  0.00112318  0.33164358  1
  Cs  Cs20  1  0.66842191  0.00113654  0.66525840  1
  Cs  Cs21  1  0.66613558  0.33466136  0.00197297  1
  Cs  Cs22  1  0.66641321  0.33299802  0.33365176  1
  Cs  Cs23  1  0.66751285  0.33543465  0.66433447  1
  Cs  Cs24  1  0.66795724  0.66749704  -0.00094577  1
  Cs  Cs25  1  0.66763984  0.66641069  0.33369293  1
  Cs  Cs26  1  0.66673728  0.66392283  0.66714481  1
  Sn  Sn27  1  0.50066962  0.50024555  0.16671642  1
  Sn  Sn28  1  0.83402844  0.50084910  0.49949806  1
  Sn  Sn29  1  0.83242908  0.49945748  0.16716971  1
  Sn  Sn30  1  0.16689739  0.83250997  0.83334076  1
  Sn  Sn31  1  0.83285524  0.16700781  0.16704929  1
  Sn  Sn32  1  0.50036974  0.16633501  0.83354360  1
  Sn  Sn33  1  0.16578628  0.50007619  0.50103034  1
  Sn  Sn34  1  0.83281720  0.83293943  0.50024909  1
  Sn  Sn35  1  0.16658560  0.50078585  0.83248359  1
  Sn  Sn36  1  0.50069608  0.16651863  0.16608058  1
  Sn  Sn37  1  0.49972803  0.83381874  0.83311920  1
  Sn  Sn38  1  0.50091045  0.83306321  0.50009023  1
  Sn  Sn39  1  0.49998216  0.83321686  0.16688627  1
  Pb  Pb40  1  0.83590513  0.50002109  0.83361034  1
  Pb  Pb41  1  0.16675968  0.16650134  0.16668585  1
  Pb  Pb42  1  0.16939017  0.83332269  0.16369474  1
  Pb  Pb43  1  0.49836760  0.50000244  0.83562775  1
  Pb  Pb44  1  0.83319032  0.16679237  0.49723752  1
  Pb  Pb45  1  0.50021068  0.50208909  0.49767959  1
  Pb  Pb46  1  0.16925242  0.16670127  0.83336045  1
  Pb  Pb47  1  0.83306233  0.83337118  0.83041563  1
  Pb  Pb48  1  0.83164254  0.83335213  0.16873314  1
  Pb  Pb49  1  0.83006918  0.16669105  0.83624331  1
  Pb  Pb50  1  0.16642285  0.83169428  0.50239921  1
  Pb  Pb51  1  0.50003664  0.16390032  0.49964356  1
  Pb  Pb52  1  0.16606136  0.50013659  0.16649882  1
  Pb  Pb53  1  0.16666443  0.17032088  0.50002233  1
  I  I54  1  0.16508039  -0.00021590  0.16603790  1
  I  I55  1  0.16629083  -0.00041308  0.50063802  1
  I  I56  1  0.17022844  -0.00293856  0.83390723  1
  I  I57  1  0.17223883  0.33365265  0.16514844  1
  I  I58  1  0.16136335  0.33862484  0.50586561  1
  I  I59  1  0.16724155  0.33630214  0.83009802  1
  I  I60  1  0.16789486  0.66658182  0.16746384  1
  I  I61  1  0.16579020  0.66378408  0.50147515  1
  I  I62  1  0.17389836  0.66689829  0.83030697  1
  I  I63  1  0.50419947  -0.00008616  0.16487490  1
  I  I64  1  0.50523781  -0.00452088  0.49616997  1
  I  I65  1  0.49465768  -0.00142295  0.83854719  1
  I  I66  1  0.50321240  0.33324787  0.16195014  1
  I  I67  1  0.49948571  0.33365055  0.50037809  1
  I  I68  1  0.49824323  0.33098336  0.83917988  1
  I  I69  1  0.50325792  0.66688731  0.16642507  1
  I  I70  1  0.50074918  0.67019406  0.50070971  1
  I  I71  1  0.49735350  0.66965713  0.83460118  1
  I  I72  1  0.82750488  0.00240917  0.16667900  1
  I  I73  1  0.82758314  -0.00289902  0.49982802  1
  I  I74  1  0.83825933  -0.00009418  0.83279275  1
  I  I75  1  0.82462937  0.33453938  0.17205572  1
  I  I76  1  0.83765480  0.33677612  0.49771364  1
  I  I77  1  0.83360625  0.33344409  0.82886519  1
  I  I78  1  0.82915495  0.66376449  0.16891149  1
  I  I79  1  0.83305701  0.66569617  0.49389398  1
  I  I80  1  0.82890024  0.66668724  0.83810616  1
  I  I81  1  0.16483328  0.16987575  -0.00013804  1
  I  I82  1  0.17031465  0.16694345  0.33326695  1
  I  I83  1  0.16837807  0.16465740  0.66693765  1
  I  I84  1  0.16866142  0.50333168  -0.00267642  1
  I  I85  1  0.16573352  0.50044014  0.33585948  1
  I  I86  1  0.16304272  0.50484771  0.66639915  1
  I  I87  1  0.17151005  0.82643323  -0.00432611  1
  I  I88  1  0.16816292  0.83216866  0.33372285  1
  I  I89  1  0.17430151  0.83017505  0.66993686  1
  I  I90  1  0.50294216  0.16162238  0.00100640  1
  I  I91  1  0.50415853  0.16695836  0.32962525  1
  I  I92  1  0.49728092  0.16196242  0.66955722  1
  I  I93  1  0.50386639  0.50400256  0.00377577  1
  I  I94  1  0.49914173  0.49903021  0.32952290  1
  I  I95  1  0.50163590  0.49978936  0.66656255  1
  I  I96  1  0.49533882  0.83434587  0.00015937  1
  I  I97  1  0.50533390  0.83274373  0.33299880  1
  I  I98  1  0.49913169  0.83742358  0.66721938  1
  I  I99  1  0.83168139  0.17288100  0.00432457  1
  I  I100  1  0.82375903  0.16906416  0.32946060  1
  I  I101  1  0.83292078  0.16712087  0.66652207  1
  I  I102  1  0.82988563  0.49652137  0.00349323  1
  I  I103  1  0.83515717  0.50016814  0.33323635  1
  I  I104  1  0.83474051  0.50488258  0.66344453  1
  I  I105  1  0.83307150  0.83267840  0.00014229  1
  I  I106  1  0.82745506  0.83129431  0.33661486  1
  I  I107  1  0.82684681  0.82572410  0.66252008  1
  I  I108  1  -0.00345346  0.17385313  0.16815753  1
  I  I109  1  -0.00029167  0.16057334  0.49816986  1
  I  I110  1  0.00002059  0.16562818  0.83455311  1
  I  I111  1  -0.00342060  0.49500466  0.16795186  1
  I  I112  1  -0.00111128  0.50668613  0.49683099  1
  I  I113  1  0.00394749  0.50699935  0.83453759  1
  I  I114  1  -0.00017846  0.83302912  0.16692218  1
  I  I115  1  -0.00257451  0.83018269  0.49969899  1
  I  I116  1  0.00284151  0.82774606  0.83240397  1
  I  I117  1  0.33748945  0.16794599  0.16223341  1
  I  I118  1  0.33368582  0.16677848  0.49706866  1
  I  I119  1  0.33721043  0.16468652  0.84154655  1
  I  I120  1  0.33628930  0.49957540  0.16651571  1
  I  I121  1  0.33122992  0.50179463  0.50229880  1
  I  I122  1  0.33049298  0.50192899  0.82869421  1
  I  I123  1  0.33843824  0.83298542  0.17229089  1
  I  I124  1  0.33620995  0.83241276  0.49771871  1
  I  I125  1  0.33509025  0.83301423  0.83218800  1
  I  I126  1  0.66520667  0.16782064  0.16285984  1
  I  I127  1  0.66651767  0.17095174  0.50305119  1
  I  I128  1  0.66207521  0.15980779  0.83519444  1
  I  I129  1  0.66651273  0.49924786  0.17157299  1
  I  I130  1  0.66940013  0.50230205  0.49693006  1
  I  I131  1  0.66649879  0.50026051  0.83130679  1
  I  I132  1  0.66286840  0.83305291  0.16195718  1
  I  I133  1  0.66578577  0.82737463  0.50127371  1
  I  I134  1  0.66290960  0.83721520  0.83587529  1
