# generated using pymatgen
data_Cs27Sn14Pb13I81
_symmetry_space_group_name_H-M   'P 1'
_cell_length_a   18.97529773
_cell_length_b   18.97733070
_cell_length_c   18.97324595
_cell_angle_alpha   90.00175558
_cell_angle_beta   90.00077837
_cell_angle_gamma   89.99942662
_symmetry_Int_Tables_number   1
_chemical_formula_structural   Cs27Sn14Pb13I81
_chemical_formula_sum   'Cs27 Sn14 Pb13 I81'
_cell_volume   6832.27535077
_cell_formula_units_Z   1
loop_
 _symmetry_equiv_pos_site_id
 _symmetry_equiv_pos_as_xyz
  1  'x, y, z'
loop_
 _atom_site_type_symbol
 _atom_site_label
 _atom_site_symmetry_multiplicity
 _atom_site_fract_x
 _atom_site_fract_y
 _atom_site_fract_z
 _atom_site_occupancy
  Cs  Cs0  1  0.00000336  0.00052333  -0.00087746  1
  Cs  Cs1  1  0.00229285  -0.00219594  0.33351765  1
  Cs  Cs2  1  -0.00105836  -0.00336101  0.66772496  1
  Cs  Cs3  1  0.00970178  0.33306769  -0.00086508  1
  Cs  Cs4  1  -0.00279712  0.33713817  0.33317204  1
  Cs  Cs5  1  -0.00347677  0.33424303  0.66712758  1
  Cs  Cs6  1  -0.00142904  0.66703590  0.00170453  1
  Cs  Cs7  1  -0.00216142  0.66726705  0.33015806  1
  Cs  Cs8  1  -0.00003080  0.67175051  0.66651311  1
  Cs  Cs9  1  0.33253941  0.00143820  0.00085255  1
  Cs  Cs10  1  0.33205094  0.00072849  0.33655424  1
  Cs  Cs11  1  0.33384865  -0.00079560  0.66376150  1
  Cs  Cs12  1  0.32367960  0.33865453  0.00048055  1
  Cs  Cs13  1  0.33337186  0.33246690  0.33341678  1
  Cs  Cs14  1  0.33325229  0.33447241  0.66666553  1
  Cs  Cs15  1  0.34143223  0.65934035  0.00003575  1
  Cs  Cs16  1  0.33291920  0.66587195  0.33746292  1
  Cs  Cs17  1  0.33418847  0.66579455  0.66478541  1
  Cs  Cs18  1  0.66676412  -0.00085198  0.00020872  1
  Cs  Cs19  1  0.66601890  0.00238723  0.33095309  1
  Cs  Cs20  1  0.66734829  0.00155637  0.66774873  1
  Cs  Cs21  1  0.66550302  0.32969814  -0.00094202  1
  Cs  Cs22  1  0.66874096  0.33225913  0.33583472  1
  Cs  Cs23  1  0.66923499  0.33116746  0.66484471  1
  Cs  Cs24  1  0.66080335  0.66685405  0.00646860  1
  Cs  Cs25  1  0.66886870  0.66551103  0.32504138  1
  Cs  Cs26  1  0.66638503  0.66721656  0.66873034  1
  Sn  Sn27  1  0.50018104  0.16671910  0.16637297  1
  Sn  Sn28  1  0.49997424  0.16670035  0.83353013  1
  Sn  Sn29  1  0.16666304  0.49872388  0.50041112  1
  Sn  Sn30  1  0.16692789  0.83332788  0.83496120  1
  Sn  Sn31  1  0.50188512  0.83331622  0.50005541  1
  Sn  Sn32  1  0.83286466  0.16684827  0.83445160  1
  Sn  Sn33  1  0.16726847  0.83324998  0.16488286  1
  Sn  Sn34  1  0.83176972  0.83355451  0.50020256  1
  Sn  Sn35  1  0.83306721  0.50028872  0.83364227  1
  Sn  Sn36  1  0.83347841  0.83277646  0.83310037  1
  Sn  Sn37  1  0.83318430  0.16654688  0.16553310  1
  Sn  Sn38  1  0.49933937  0.16677622  0.50018588  1
  Sn  Sn39  1  0.49995159  0.49976612  0.50020861  1
  Sn  Sn40  1  0.16684738  0.16787448  0.50042806  1
  Pb  Pb41  1  0.16668605  0.83313691  0.50040544  1
  Pb  Pb42  1  0.50210746  0.49701965  0.83120744  1
  Pb  Pb43  1  0.50024751  0.83513106  0.83180203  1
  Pb  Pb44  1  0.49754519  0.83554127  0.16932175  1
  Pb  Pb45  1  0.83327100  0.16489474  0.50021518  1
  Pb  Pb46  1  0.16466342  0.50301638  0.83095147  1
  Pb  Pb47  1  0.83298251  0.50293255  0.50153967  1
  Pb  Pb48  1  0.83455696  0.83537152  0.16590104  1
  Pb  Pb49  1  0.83331315  0.49665589  0.16317132  1
  Pb  Pb50  1  0.50007342  0.49664921  0.16927224  1
  Pb  Pb51  1  0.16670189  0.50303332  0.16933167  1
  Pb  Pb52  1  0.16657865  0.16539787  0.16904504  1
  Pb  Pb53  1  0.16651964  0.16496873  0.83097666  1
  I  I54  1  0.16594497  -0.00232789  0.16736317  1
  I  I55  1  0.17033398  0.00173613  0.49976392  1
  I  I56  1  0.16040502  -0.00278195  0.83226473  1
  I  I57  1  0.16660994  0.33325919  0.16673816  1
  I  I58  1  0.17481355  0.33262187  0.49998482  1
  I  I59  1  0.16561200  0.33333574  0.83313742  1
  I  I60  1  0.16408457  0.67085134  0.16624607  1
  I  I61  1  0.17026762  0.66484644  0.50045535  1
  I  I62  1  0.16051565  0.67093879  0.83277566  1
  I  I63  1  0.50369368  0.00367645  0.16991394  1
  I  I64  1  0.49864614  0.00113659  0.50032941  1
  I  I65  1  0.50537377  0.00345005  0.82949486  1
  I  I66  1  0.50391023  0.32838753  0.16937118  1
  I  I67  1  0.49464867  0.33202254  0.49995417  1
  I  I68  1  0.50590782  0.32873601  0.82988299  1
  I  I69  1  0.49892506  0.66670299  0.16835690  1
  I  I70  1  0.49744283  0.66692773  0.50203244  1
  I  I71  1  0.50043297  0.66660379  0.83005187  1
  I  I72  1  0.82963017  0.00317347  0.16237368  1
  I  I73  1  0.83140141  -0.00288999  0.50547033  1
  I  I74  1  0.83352752  0.00010361  0.83221858  1
  I  I75  1  0.82938792  0.32851669  0.16540620  1
  I  I76  1  0.83242624  0.33327294  0.50087264  1
  I  I77  1  0.82762736  0.33188018  0.83573970  1
  I  I78  1  0.83565198  0.66679814  0.16785284  1
  I  I79  1  0.83194990  0.67083467  0.50606561  1
  I  I80  1  0.83984903  0.66797655  0.82475621  1
  I  I81  1  0.16926971  0.16606381  -0.00017995  1
  I  I82  1  0.17074762  0.16550137  0.33705980  1
  I  I83  1  0.17091358  0.16620724  0.66299983  1
  I  I84  1  0.16517197  0.49855939  -0.00030334  1
  I  I85  1  0.17000384  0.49826002  0.33759122  1
  I  I86  1  0.17117565  0.49837321  0.66306848  1
  I  I87  1  0.15835472  0.83704248  -0.00106198  1
  I  I88  1  0.16676766  0.83472612  0.33220603  1
  I  I89  1  0.16383637  0.83412856  0.66850963  1
  I  I90  1  0.50732262  0.16386620  -0.00039758  1
  I  I91  1  0.50029137  0.16593332  0.33453542  1
  I  I92  1  0.50092817  0.16602685  0.66570957  1
  I  I93  1  0.50138665  0.49979352  -0.00019925  1
  I  I94  1  0.49668120  0.49905557  0.33789361  1
  I  I95  1  0.49628767  0.49796648  0.66287526  1
  I  I96  1  0.50161869  0.83570510  0.00010561  1
  I  I97  1  0.50324106  0.83622502  0.33784643  1
  I  I98  1  0.49844962  0.83705406  0.66326689  1
  I  I99  1  0.82478707  0.16378826  -0.00141915  1
  I  I100  1  0.83062443  0.16339630  0.33165971  1
  I  I101  1  0.83054796  0.16703700  0.66953227  1
  I  I102  1  0.83329581  0.50686149  -0.00465741  1
  I  I103  1  0.83392249  0.50022001  0.33341355  1
  I  I104  1  0.83306841  0.49407639  0.66927936  1
  I  I105  1  0.83722411  0.83330436  -0.00344019  1
  I  I106  1  0.83248647  0.83569129  0.33563322  1
  I  I107  1  0.83658726  0.83667927  0.66759443  1
  I  I108  1  -0.00248077  0.16427005  0.16288107  1
  I  I109  1  0.00214821  0.16784869  0.49997768  1
  I  I110  1  -0.00321452  0.16726271  0.83605567  1
  I  I111  1  -0.00004273  0.49722588  0.17116052  1
  I  I112  1  0.00223730  0.49648554  0.50170376  1
  I  I113  1  -0.00326353  0.49390547  0.82976011  1
  I  I114  1  0.00232060  0.83723724  0.17026182  1
  I  I115  1  -0.00192875  0.83462625  0.50159487  1
  I  I116  1  -0.00153972  0.83629944  0.82907431  1
  I  I117  1  0.33614311  0.16391264  0.16662678  1
  I  I118  1  0.33512476  0.16361891  0.49981443  1
  I  I119  1  0.33597437  0.16336846  0.83340818  1
  I  I120  1  0.33338393  0.49789898  0.16384151  1
  I  I121  1  0.33399105  0.50182455  0.50057227  1
  I  I122  1  0.33341267  0.50014662  0.83355191  1
  I  I123  1  0.32996280  0.83728409  0.16359800  1
  I  I124  1  0.33563165  0.83480545  0.49985321  1
  I  I125  1  0.33108774  0.83720248  0.83302975  1
  I  I126  1  0.66618945  0.16506040  0.16910083  1
  I  I127  1  0.66371142  0.16848095  0.50014623  1
  I  I128  1  0.66731409  0.16447305  0.83063787  1
  I  I129  1  0.66672855  0.50394127  0.17013148  1
  I  I130  1  0.66378612  0.49547686  0.50218652  1
  I  I131  1  0.66998017  0.50460133  0.82945505  1
  I  I132  1  0.66637530  0.83301200  0.16608548  1
  I  I133  1  0.66646221  0.83543491  0.50655420  1
  I  I134  1  0.66984853  0.83350689  0.82875618  1
