# generated using pymatgen
data_Cs27Sn14Pb13I81
_symmetry_space_group_name_H-M   'P 1'
_cell_length_a   18.97446375
_cell_length_b   18.97865718
_cell_length_c   18.97442716
_cell_angle_alpha   90.00100938
_cell_angle_beta   90.00220058
_cell_angle_gamma   89.99866978
_symmetry_Int_Tables_number   1
_chemical_formula_structural   Cs27Sn14Pb13I81
_chemical_formula_sum   'Cs27 Sn14 Pb13 I81'
_cell_volume   6832.87797250
_cell_formula_units_Z   1
loop_
 _symmetry_equiv_pos_site_id
 _symmetry_equiv_pos_as_xyz
  1  'x, y, z'
loop_
 _atom_site_type_symbol
 _atom_site_label
 _atom_site_symmetry_multiplicity
 _atom_site_fract_x
 _atom_site_fract_y
 _atom_site_fract_z
 _atom_site_occupancy
  Cs  Cs0  1  0.00134373  0.00406771  0.00202001  1
  Cs  Cs1  1  -0.00141875  -0.00126003  0.33561342  1
  Cs  Cs2  1  -0.00154570  -0.00448936  0.66184778  1
  Cs  Cs3  1  0.00051242  0.33445863  0.00062961  1
  Cs  Cs4  1  -0.00151571  0.33239898  0.33134445  1
  Cs  Cs5  1  0.00160754  0.33372878  0.66800295  1
  Cs  Cs6  1  0.00169157  0.66075012  -0.00109362  1
  Cs  Cs7  1  -0.00156707  0.66931588  0.33503409  1
  Cs  Cs8  1  -0.00160851  0.66923648  0.66579101  1
  Cs  Cs9  1  0.33528285  -0.00351018  0.00129095  1
  Cs  Cs10  1  0.33076465  -0.00236843  0.33342610  1
  Cs  Cs11  1  0.33454036  0.00473127  0.66517481  1
  Cs  Cs12  1  0.33005442  0.33481554  0.00055212  1
  Cs  Cs13  1  0.33485174  0.33360881  0.33478294  1
  Cs  Cs14  1  0.33450288  0.33478854  0.66407504  1
  Cs  Cs15  1  0.33240837  0.66794371  0.00023520  1
  Cs  Cs16  1  0.33541554  0.66817798  0.33178870  1
  Cs  Cs17  1  0.33371543  0.66143618  0.66891247  1
  Cs  Cs18  1  0.66309751  -0.00072795  -0.00519961  1
  Cs  Cs19  1  0.67058111  -0.00100436  0.33120676  1
  Cs  Cs20  1  0.66607129  -0.00308537  0.67672536  1
  Cs  Cs21  1  0.67075324  0.33282973  0.00150798  1
  Cs  Cs22  1  0.66621307  0.33386080  0.33260591  1
  Cs  Cs23  1  0.66273832  0.32932909  0.66584470  1
  Cs  Cs24  1  0.66738775  0.66689734  -0.00171131  1
  Cs  Cs25  1  0.66622222  0.66681919  0.33518397  1
  Cs  Cs26  1  0.66811563  0.67186013  0.66402491  1
  Sn  Sn27  1  0.49961074  0.83386590  0.49985911  1
  Sn  Sn28  1  0.49978740  0.49969988  0.83452039  1
  Sn  Sn29  1  0.83360304  0.83408756  0.16602807  1
  Sn  Sn30  1  0.83328990  0.16561978  0.16722034  1
  Sn  Sn31  1  0.16710696  0.16729203  0.16632053  1
  Sn  Sn32  1  0.83391324  0.49880804  0.49998928  1
  Sn  Sn33  1  0.49931694  0.49925954  0.16559056  1
  Sn  Sn34  1  0.83309827  0.16759422  0.49976656  1
  Sn  Sn35  1  0.16660934  0.83359617  0.83337156  1
  Sn  Sn36  1  0.16566131  0.49982655  0.49949880  1
  Sn  Sn37  1  0.49964816  0.16727330  0.16685438  1
  Sn  Sn38  1  0.16745895  0.49935457  0.16731133  1
  Sn  Sn39  1  0.16727744  0.49974924  0.83329430  1
  Sn  Sn40  1  0.16648163  0.16654589  0.83379916  1
  Pb  Pb41  1  0.49758095  0.83083036  0.83138509  1
  Pb  Pb42  1  0.83576319  0.16682740  0.83355308  1
  Pb  Pb43  1  0.16870869  0.83069698  0.50224474  1
  Pb  Pb44  1  0.50181855  0.83304318  0.16759537  1
  Pb  Pb45  1  0.83590052  0.83329667  0.83649457  1
  Pb  Pb46  1  0.16497542  0.16857682  0.49951190  1
  Pb  Pb47  1  0.50007438  0.50078747  0.49970668  1
  Pb  Pb48  1  0.83174522  0.83374817  0.49857676  1
  Pb  Pb49  1  0.49724445  0.16917246  0.83595532  1
  Pb  Pb50  1  0.16483937  0.83319742  0.16512449  1
  Pb  Pb51  1  0.50280137  0.16418831  0.49760046  1
  Pb  Pb52  1  0.83330442  0.49950635  0.16821513  1
  Pb  Pb53  1  0.83308805  0.49977904  0.83028485  1
  I  I54  1  0.16873123  0.00321400  0.16170305  1
  I  I55  1  0.16573287  0.00006579  0.50069236  1
  I  I56  1  0.16471894  0.00092442  0.83974379  1
  I  I57  1  0.16450514  0.33362436  0.16214230  1
  I  I58  1  0.16643189  0.33691564  0.50397175  1
  I  I59  1  0.16940912  0.33431872  0.83471753  1
  I  I60  1  0.16940286  0.66324411  0.16556650  1
  I  I61  1  0.16055627  0.66219195  0.49892733  1
  I  I62  1  0.17032618  0.66481025  0.83348887  1
  I  I63  1  0.49736870  0.00294557  0.16994564  1
  I  I64  1  0.50058403  -0.00297592  0.49791956  1
  I  I65  1  0.49850545  0.00017028  0.83307135  1
  I  I66  1  0.50113675  0.33387196  0.16424903  1
  I  I67  1  0.49937138  0.33319081  0.50164761  1
  I  I68  1  0.49368181  0.33705818  0.83212533  1
  I  I69  1  0.49625787  0.66338462  0.16502141  1
  I  I70  1  0.50190392  0.66812806  0.49792141  1
  I  I71  1  0.49313347  0.66286894  0.83961698  1
  I  I72  1  0.83484429  0.00217263  0.17355891  1
  I  I73  1  0.83299883  0.00279144  0.49573053  1
  I  I74  1  0.83535277  0.00009854  0.82815704  1
  I  I75  1  0.83378714  0.33048968  0.16905001  1
  I  I76  1  0.83695941  0.33341192  0.49314055  1
  I  I77  1  0.83630586  0.33340305  0.83789108  1
  I  I78  1  0.83362858  0.66800078  0.16900996  1
  I  I79  1  0.83597907  0.66425323  0.49828029  1
  I  I80  1  0.83607537  0.66645169  0.83381367  1
  I  I81  1  0.16384299  0.17195185  0.00130629  1
  I  I82  1  0.16788686  0.17171551  0.32981750  1
  I  I83  1  0.16453704  0.16832582  0.66917374  1
  I  I84  1  0.17075229  0.49983951  0.00019149  1
  I  I85  1  0.16715705  0.49487890  0.33217801  1
  I  I86  1  0.16725295  0.49995691  0.66758820  1
  I  I87  1  0.16636533  0.82797434  -0.00275350  1
  I  I88  1  0.16633941  0.83270798  0.33335561  1
  I  I89  1  0.16652151  0.83365585  0.67022727  1
  I  I90  1  0.50603426  0.16656094  0.00421497  1
  I  I91  1  0.49472093  0.17426439  0.32928252  1
  I  I92  1  0.50034556  0.16719858  0.66680788  1
  I  I93  1  0.49163457  0.49775083  0.00105823  1
  I  I94  1  0.49680870  0.49778254  0.33040426  1
  I  I95  1  0.49546921  0.50294811  0.66873241  1
  I  I96  1  0.50105015  0.83436812  -0.00013836  1
  I  I97  1  0.50039764  0.82919328  0.33516606  1
  I  I98  1  0.50177629  0.83021790  0.66385042  1
  I  I99  1  0.83220809  0.16292993  0.00368430  1
  I  I100  1  0.83614389  0.16711417  0.33179680  1
  I  I101  1  0.83559805  0.17170423  0.66384383  1
  I  I102  1  0.83554292  0.50030590  0.00013272  1
  I  I103  1  0.83721186  0.49925449  0.33600494  1
  I  I104  1  0.83767221  0.49538733  0.66226826  1
  I  I105  1  0.83130176  0.83956845  0.00426540  1
  I  I106  1  0.83426227  0.83472731  0.33071689  1
  I  I107  1  0.83265569  0.83318178  0.66667473  1
  I  I108  1  0.00054919  0.16726745  0.16597463  1
  I  I109  1  -0.00288353  0.16772430  0.49385806  1
  I  I110  1  0.00410724  0.17144725  0.83982660  1
  I  I111  1  0.00305941  0.49745191  0.16356696  1
  I  I112  1  0.00088633  0.49727233  0.49947709  1
  I  I113  1  0.00378822  0.49972393  0.83693161  1
  I  I114  1  -0.00289835  0.83725967  0.16772698  1
  I  I115  1  0.00009626  0.83363697  0.50070238  1
  I  I116  1  0.00396195  0.82894290  0.83192004  1
  I  I117  1  0.33252992  0.17195956  0.16185989  1
  I  I118  1  0.33335978  0.16698212  0.49964666  1
  I  I119  1  0.32905498  0.16527214  0.83772180  1
  I  I120  1  0.33231576  0.49334919  0.16821771  1
  I  I121  1  0.33059939  0.50211571  0.50077205  1
  I  I122  1  0.33145948  0.50014325  0.83170687  1
  I  I123  1  0.33321794  0.83534469  0.16723985  1
  I  I124  1  0.33599252  0.83083657  0.49745335  1
  I  I125  1  0.32975105  0.83396119  0.83519223  1
  I  I126  1  0.66690367  0.16791457  0.17293415  1
  I  I127  1  0.67064082  0.17485232  0.49308742  1
  I  I128  1  0.66638991  0.16814140  0.83349045  1
  I  I129  1  0.66402654  0.49753837  0.16437303  1
  I  I130  1  0.66895629  0.49855983  0.49839158  1
  I  I131  1  0.66358479  0.50051633  0.83810307  1
  I  I132  1  0.66966536  0.83651152  0.16914212  1
  I  I133  1  0.66438134  0.82854055  0.49833579  1
  I  I134  1  0.66640126  0.83141181  0.83210341  1
