# generated using pymatgen
data_Cs27Sn14Pb13I81
_symmetry_space_group_name_H-M   'P 1'
_cell_length_a   18.96517128
_cell_length_b   18.96517130
_cell_length_c   18.95522113
_cell_angle_alpha   89.99938730
_cell_angle_beta   90.00061249
_cell_angle_gamma   90.00247749
_symmetry_Int_Tables_number   1
_chemical_formula_structural   Cs27Sn14Pb13I81
_chemical_formula_sum   'Cs27 Sn14 Pb13 I81'
_cell_volume   6817.77074844
_cell_formula_units_Z   1
loop_
 _symmetry_equiv_pos_site_id
 _symmetry_equiv_pos_as_xyz
  1  'x, y, z'
loop_
 _atom_site_type_symbol
 _atom_site_label
 _atom_site_symmetry_multiplicity
 _atom_site_fract_x
 _atom_site_fract_y
 _atom_site_fract_z
 _atom_site_occupancy
  Cs  Cs0  1  0.00182615  0.00006319  0.00104454  1
  Cs  Cs1  1  -0.00196743  -0.00201143  0.33933191  1
  Cs  Cs2  1  0.00105515  0.00169617  0.66169592  1
  Cs  Cs3  1  -0.00027169  0.33360496  -0.00057258  1
  Cs  Cs4  1  0.00093040  0.33240286  0.33273550  1
  Cs  Cs5  1  -0.00112933  0.33446257  0.66846538  1
  Cs  Cs6  1  -0.00025560  0.66649639  0.00040009  1
  Cs  Cs7  1  -0.00006764  0.66968727  0.33270450  1
  Cs  Cs8  1  0.00166165  0.66367459  0.66905859  1
  Cs  Cs9  1  0.33297129  0.00036194  0.00052623  1
  Cs  Cs10  1  0.33112861  0.00220461  0.33519795  1
  Cs  Cs11  1  0.33569979  -0.00236649  0.65987719  1
  Cs  Cs12  1  0.33327000  0.33150718  0.00104449  1
  Cs  Cs13  1  0.33534473  0.33530075  0.33933193  1
  Cs  Cs14  1  0.33163750  0.33227804  0.66169594  1
  Cs  Cs15  1  0.33279088  0.66783917  0.00039512  1
  Cs  Cs16  1  0.33311279  0.66265987  0.33662604  1
  Cs  Cs17  1  0.33321574  0.66966211  0.66255515  1
  Cs  Cs18  1  0.66549423  0.00054249  0.00039515  1
  Cs  Cs19  1  0.67067346  0.00022051  0.33662599  1
  Cs  Cs20  1  0.66367136  0.00011719  0.66255529  1
  Cs  Cs21  1  0.66683689  0.33358891  0.00040011  1
  Cs  Cs22  1  0.66364580  0.33340104  0.33270449  1
  Cs  Cs23  1  0.66965885  0.33167178  0.66905878  1
  Cs  Cs24  1  0.66692257  0.66641076  0.00003588  1
  Cs  Cs25  1  0.66695341  0.66637985  0.33168093  1
  Cs  Cs26  1  0.66435512  0.66897838  0.67096390  1
  Sn  Sn27  1  0.16595128  0.83283777  0.83426779  1
  Sn  Sn28  1  0.83265403  0.16613888  0.83449447  1
  Sn  Sn29  1  0.16719443  0.50067925  0.83449444  1
  Sn  Sn30  1  0.16602051  0.50064058  0.16559169  1
  Sn  Sn31  1  0.83331879  0.50001455  0.83377312  1
  Sn  Sn32  1  0.49948138  0.49915512  0.83384141  1
  Sn  Sn33  1  0.83316850  0.50016483  0.49977709  1
  Sn  Sn34  1  0.49910074  0.83423263  0.16606745  1
  Sn  Sn35  1  0.50049555  0.16738201  0.83426779  1
  Sn  Sn36  1  0.50077616  0.16569460  0.16567810  1
  Sn  Sn37  1  0.83411869  0.49921463  0.16657299  1
  Sn  Sn38  1  0.16763873  0.83255716  0.16567807  1
  Sn  Sn39  1  0.83269279  0.16731284  0.16559171  1
  Sn  Sn40  1  0.83417830  0.83385191  0.83384142  1
  Pb  Pb41  1  0.16437776  0.50006254  0.49996373  1
  Pb  Pb42  1  0.49971074  0.49965696  0.16501390  1
  Pb  Pb43  1  0.50042163  0.16681756  0.49991772  1
  Pb  Pb44  1  0.83327077  0.16895559  0.49996371  1
  Pb  Pb45  1  0.50022714  0.83310618  0.49566404  1
  Pb  Pb46  1  0.16651578  0.83291176  0.49991771  1
  Pb  Pb47  1  0.16653262  0.16680067  0.16672945  1
  Pb  Pb48  1  0.83367638  0.83362259  0.16501391  1
  Pb  Pb49  1  0.50288386  0.50001180  0.50377252  1
  Pb  Pb50  1  0.16640650  0.16692687  0.49998080  1
  Pb  Pb51  1  0.83332151  0.83044949  0.50377249  1
  Pb  Pb52  1  0.16692880  0.16640457  0.83312608  1
  Pb  Pb53  1  0.49955317  0.83378018  0.83471647  1
  I  I54  1  0.16780168  -0.00301175  0.16125871  1
  I  I55  1  0.16583052  -0.00044747  0.50047874  1
  I  I56  1  0.16291722  -0.00328994  0.83854735  1
  I  I57  1  0.16445392  0.33670122  0.16139558  1
  I  I58  1  0.16658085  0.33409579  0.49995408  1
  I  I59  1  0.16371353  0.33676125  0.83756563  1
  I  I60  1  0.16613937  0.66603545  0.16217792  1
  I  I61  1  0.16560422  0.66644586  0.50027177  1
  I  I62  1  0.16270337  0.66570088  0.83709972  1
  I  I63  1  0.50017653  0.00085596  0.15943548  1
  I  I64  1  0.50028276  0.00003933  0.50619142  1
  I  I65  1  0.50393480  0.00276855  0.83634211  1
  I  I66  1  0.50174915  0.33077700  0.16383109  1
  I  I67  1  0.49913320  0.33352402  0.49489283  1
  I  I68  1  0.50398356  0.33334116  0.83907306  1
  I  I69  1  0.49993930  0.66841322  0.16385148  1
  I  I70  1  0.50093837  0.66636519  0.50101065  1
  I  I71  1  0.50395574  0.66431327  0.83539358  1
  I  I72  1  0.83227606  0.00260957  0.16090983  1
  I  I73  1  0.83377544  -0.00001868  0.49935545  1
  I  I74  1  0.83315303  0.00076043  0.83976189  1
  I  I75  1  0.83320192  0.33430217  0.16220816  1
  I  I76  1  0.83402368  0.33677000  0.50534198  1
  I  I77  1  0.83290266  0.33435376  0.83321737  1
  I  I78  1  0.83330694  0.66374818  0.16512751  1
  I  I79  1  0.83403085  0.66243556  0.49813871  1
  I  I80  1  0.83317991  0.66522689  0.83341635  1
  I  I81  1  0.16655085  0.16678278  -0.00009399  1
  I  I82  1  0.16632495  0.16700815  0.33245656  1
  I  I83  1  0.16597718  0.16735615  0.66753037  1
  I  I84  1  0.16123151  0.50406145  -0.00067718  1
  I  I85  1  0.16265635  0.50346635  0.32961180  1
  I  I86  1  0.16576156  0.50324061  0.67055415  1
  I  I87  1  0.16619914  0.82828739  -0.00020982  1
  I  I88  1  0.17078791  0.82918069  0.32945129  1
  I  I89  1  0.16232958  0.82880496  0.67049079  1
  I  I90  1  0.50504586  0.16713425  -0.00020982  1
  I  I91  1  0.50415274  0.16254506  0.32945135  1
  I  I92  1  0.50452833  0.17100417  0.67049076  1
  I  I93  1  0.50487334  0.49912158  -0.00327525  1
  I  I94  1  0.50002104  0.50018900  0.33312862  1
  I  I95  1  0.49937206  0.49508956  0.67236812  1
  I  I96  1  0.49887630  0.83445692  0.00255347  1
  I  I97  1  0.49507783  0.83825567  0.32741620  1
  I  I98  1  0.49997129  0.83336180  0.66700197  1
  I  I99  1  0.82927180  0.17210209  -0.00067717  1
  I  I100  1  0.82986711  0.17067678  0.32961184  1
  I  I101  1  0.83009269  0.16757162  0.67055418  1
  I  I102  1  0.83423026  0.49910282  -0.00089403  1
  I  I103  1  0.83789310  0.49544051  0.33150404  1
  I  I104  1  0.83341474  0.49991861  0.66911890  1
  I  I105  1  0.83421178  0.82846009  -0.00327526  1
  I  I106  1  0.83314444  0.83331227  0.33312865  1
  I  I107  1  0.83824356  0.83396140  0.67236815  1
  I  I108  1  -0.00336791  0.16887942  0.16139535  1
  I  I109  1  -0.00076246  0.16675256  0.49995425  1
  I  I110  1  -0.00342788  0.16961935  0.83756568  1
  I  I111  1  -0.00096886  0.50013127  0.16220790  1
  I  I112  1  -0.00343663  0.49931066  0.50534200  1
  I  I113  1  -0.00102044  0.50043124  0.83321758  1
  I  I114  1  0.00255631  0.83158454  0.16383090  1
  I  I115  1  -0.00019068  0.83419911  0.49489332  1
  I  I116  1  -0.00000782  0.82934964  0.83907301  1
  I  I117  1  0.33634508  0.16553192  0.16125888  1
  I  I118  1  0.33378081  0.16750212  0.50047870  1
  I  I119  1  0.33662326  0.17041617  0.83854713  1
  I  I120  1  0.33072376  0.50105732  0.16090993  1
  I  I121  1  0.33335199  0.49955814  0.49935549  1
  I  I122  1  0.33257289  0.50018018  0.83976181  1
  I  I123  1  0.33247735  0.83315669  0.15943565  1
  I  I124  1  0.33329397  0.83305094  0.50619099  1
  I  I125  1  0.33056479  0.82939876  0.83634228  1
  I  I126  1  0.66729784  0.16719368  0.16217788  1
  I  I127  1  0.66688750  0.16772992  0.50027165  1
  I  I128  1  0.66763244  0.17063034  0.83709975  1
  I  I129  1  0.66958513  0.50002668  0.16512776  1
  I  I130  1  0.67089776  0.49930132  0.49813855  1
  I  I131  1  0.66810645  0.50015306  0.83341621  1
  I  I132  1  0.66492008  0.83339393  0.16385145  1
  I  I133  1  0.66696813  0.83239554  0.50101078  1
  I  I134  1  0.66902001  0.82937778  0.83539351  1
