# generated using pymatgen
data_Cs27Sn13Pb14I81
_symmetry_space_group_name_H-M   'P 1'
_cell_length_a   18.98108064
_cell_length_b   18.97493141
_cell_length_c   18.97609108
_cell_angle_alpha   89.99863492
_cell_angle_beta   90.00057016
_cell_angle_gamma   89.99936407
_symmetry_Int_Tables_number   1
_chemical_formula_structural   Cs27Sn13Pb14I81
_chemical_formula_sum   'Cs27 Sn13 Pb14 I81'
_cell_volume   6834.51821088
_cell_formula_units_Z   1
loop_
 _symmetry_equiv_pos_site_id
 _symmetry_equiv_pos_as_xyz
  1  'x, y, z'
loop_
 _atom_site_type_symbol
 _atom_site_label
 _atom_site_symmetry_multiplicity
 _atom_site_fract_x
 _atom_site_fract_y
 _atom_site_fract_z
 _atom_site_occupancy
  Cs  Cs0  1  0.00091343  0.00053752  0.00079942  1
  Cs  Cs1  1  -0.00146388  -0.00007852  0.33285912  1
  Cs  Cs2  1  0.00244731  0.00005140  0.66665833  1
  Cs  Cs3  1  0.00187823  0.33094194  0.00045922  1
  Cs  Cs4  1  -0.00358768  0.33301691  0.33491138  1
  Cs  Cs5  1  -0.00462874  0.33333151  0.66711395  1
  Cs  Cs6  1  -0.00029385  0.66666039  -0.00024695  1
  Cs  Cs7  1  0.00395963  0.66820018  0.33323463  1
  Cs  Cs8  1  0.00026120  0.66442301  0.66615993  1
  Cs  Cs9  1  0.33263691  0.00120940  -0.00068108  1
  Cs  Cs10  1  0.33483026  -0.00127857  0.33400827  1
  Cs  Cs11  1  0.33359013  0.00290332  0.66559289  1
  Cs  Cs12  1  0.33324895  0.33323622  -0.00068482  1
  Cs  Cs13  1  0.33427495  0.33774945  0.33186182  1
  Cs  Cs14  1  0.33676264  0.32797967  0.66918099  1
  Cs  Cs15  1  0.33258747  0.66477833  0.00250193  1
  Cs  Cs16  1  0.33187713  0.66256726  0.33381969  1
  Cs  Cs17  1  0.33104236  0.66496233  0.66211530  1
  Cs  Cs18  1  0.66585450  -0.00244096  0.00086835  1
  Cs  Cs19  1  0.66591314  0.00082539  0.33261152  1
  Cs  Cs20  1  0.66391569  -0.00252778  0.66695081  1
  Cs  Cs21  1  0.66618842  0.33599701  -0.00129217  1
  Cs  Cs22  1  0.66848307  0.33137785  0.33690679  1
  Cs  Cs23  1  0.66988834  0.34337046  0.66650080  1
  Cs  Cs24  1  0.66845108  0.66676295  -0.00562322  1
  Cs  Cs25  1  0.66460425  0.66950041  0.33159022  1
  Cs  Cs26  1  0.66890752  0.66117378  0.67525517  1
  Sn  Sn27  1  0.16693411  0.50084924  0.83344785  1
  Sn  Sn28  1  0.83327006  0.83233748  0.16732272  1
  Sn  Sn29  1  0.50115824  0.83380293  0.49929130  1
  Sn  Sn30  1  0.49974061  0.83402610  0.16730898  1
  Sn  Sn31  1  0.16688888  0.83247813  0.83397357  1
  Sn  Sn32  1  0.83336654  0.50102965  0.16714668  1
  Sn  Sn33  1  0.49908569  0.16589519  0.16751643  1
  Sn  Sn34  1  0.83224051  0.83348434  0.49960512  1
  Sn  Sn35  1  0.83275631  0.16593678  0.83338731  1
  Sn  Sn36  1  0.16697768  0.83412214  0.16594598  1
  Sn  Sn37  1  0.16742997  0.16592670  0.16789998  1
  Sn  Sn38  1  0.49934622  0.16592529  0.49890744  1
  Sn  Sn39  1  0.16711714  0.16645964  0.49860709  1
  Pb  Pb40  1  0.49694524  0.50016247  0.83355488  1
  Pb  Pb41  1  0.50281137  0.16650536  0.83326353  1
  Pb  Pb42  1  0.50002025  0.50029532  0.49976884  1
  Pb  Pb43  1  0.49710327  0.83328236  0.83321434  1
  Pb  Pb44  1  0.16558684  0.16636950  0.83357186  1
  Pb  Pb45  1  0.50241836  0.50008772  0.16672566  1
  Pb  Pb46  1  0.16710123  0.83477349  0.49945150  1
  Pb  Pb47  1  0.83249356  0.16449582  0.50199367  1
  Pb  Pb48  1  0.16498210  0.49969495  0.16561340  1
  Pb  Pb49  1  0.83544382  0.49792589  0.83573794  1
  Pb  Pb50  1  0.83288647  0.16593895  0.16555906  1
  Pb  Pb51  1  0.16668134  0.49616640  0.50252078  1
  Pb  Pb52  1  0.83337866  0.50366892  0.49738481  1
  Pb  Pb53  1  0.83543176  0.83464147  0.83342278  1
  I  I54  1  0.16450483  -0.00071261  0.16375633  1
  I  I55  1  0.16722739  0.00269093  0.50148416  1
  I  I56  1  0.16442926  -0.00228998  0.83555600  1
  I  I57  1  0.16897562  0.32995902  0.16733708  1
  I  I58  1  0.17178347  0.32800161  0.49523267  1
  I  I59  1  0.16361970  0.33487239  0.83347297  1
  I  I60  1  0.16832436  0.66999336  0.16419787  1
  I  I61  1  0.16671726  0.66684926  0.49884810  1
  I  I62  1  0.16522359  0.66810889  0.83989084  1
  I  I63  1  0.50116772  -0.00067256  0.17018249  1
  I  I64  1  0.49974777  -0.00010400  0.49559959  1
  I  I65  1  0.49757848  -0.00006438  0.83356800  1
  I  I66  1  0.49657905  0.32972116  0.16970530  1
  I  I67  1  0.49516462  0.32951224  0.49588227  1
  I  I68  1  0.49812555  0.33293799  0.83412609  1
  I  I69  1  0.49653823  0.67061421  0.17119630  1
  I  I70  1  0.50271677  0.67072492  0.49485414  1
  I  I71  1  0.50369251  0.66709314  0.83385779  1
  I  I72  1  0.83432867  -0.00326694  0.16858609  1
  I  I73  1  0.83317216  -0.00325765  0.49265707  1
  I  I74  1  0.83761000  0.00203778  0.83639096  1
  I  I75  1  0.83470541  0.33463361  0.16207606  1
  I  I76  1  0.83380505  0.33323950  0.50053722  1
  I  I77  1  0.83653365  0.33036488  0.83472776  1
  I  I78  1  0.83428473  0.66914983  0.16937058  1
  I  I79  1  0.82860984  0.67182717  0.50012531  1
  I  I80  1  0.83342503  0.66678076  0.83178353  1
  I  I81  1  0.16882606  0.16529856  0.00298927  1
  I  I82  1  0.16855601  0.16015990  0.33203761  1
  I  I83  1  0.16947469  0.16573131  0.66446402  1
  I  I84  1  0.16448640  0.49932880  -0.00227077  1
  I  I85  1  0.16557616  0.50213804  0.33329024  1
  I  I86  1  0.16502102  0.50730811  0.67032895  1
  I  I87  1  0.16552518  0.83602426  0.00202183  1
  I  I88  1  0.16526065  0.83624147  0.33003842  1
  I  I89  1  0.16550540  0.83217869  0.66852187  1
  I  I90  1  0.49618206  0.16209955  0.00354079  1
  I  I91  1  0.49653747  0.16176062  0.33274481  1
  I  I92  1  0.49459642  0.16123241  0.66318991  1
  I  I93  1  0.50122235  0.49889663  0.00047790  1
  I  I94  1  0.49885141  0.49979993  0.33305494  1
  I  I95  1  0.50098686  0.49930999  0.66655679  1
  I  I96  1  0.50270429  0.83798544  0.00375600  1
  I  I97  1  0.49984401  0.83805521  0.33222157  1
  I  I98  1  0.50298085  0.83870749  0.66315170  1
  I  I99  1  0.83610275  0.16498499  -0.00182630  1
  I  I100  1  0.83483218  0.16892597  0.33331243  1
  I  I101  1  0.83684072  0.16436183  0.66927678  1
  I  I102  1  0.83347641  0.50684883  0.00324541  1
  I  I103  1  0.83517917  0.49851137  0.32950672  1
  I  I104  1  0.83396946  0.49935617  0.66677936  1
  I  I105  1  0.83141724  0.83157306  0.00338060  1
  I  I106  1  0.83540207  0.83114295  0.33188224  1
  I  I107  1  0.83068644  0.83796242  0.66410422  1
  I  I108  1  0.00260327  0.16348901  0.16793897  1
  I  I109  1  0.00223656  0.16461435  0.49752156  1
  I  I110  1  -0.00180741  0.16599738  0.83449180  1
  I  I111  1  -0.00277506  0.50401279  0.16488998  1
  I  I112  1  -0.00001023  0.49962458  0.50017051  1
  I  I113  1  0.00294670  0.50346754  0.83465252  1
  I  I114  1  0.00029236  0.83389177  0.16646792  1
  I  I115  1  -0.00176556  0.83548376  0.49678303  1
  I  I116  1  0.00329130  0.83219985  0.83746026  1
  I  I117  1  0.33287018  0.15929615  0.16858472  1
  I  I118  1  0.33367757  0.16008474  0.49827973  1
  I  I119  1  0.33338595  0.16752338  0.83297595  1
  I  I120  1  0.33325001  0.50170673  0.16446712  1
  I  I121  1  0.33316883  0.50547899  0.49995544  1
  I  I122  1  0.32891335  0.50240482  0.83568067  1
  I  I123  1  0.33315548  0.83856029  0.16591817  1
  I  I124  1  0.33609903  0.83612347  0.49787796  1
  I  I125  1  0.32907507  0.83189932  0.83775782  1
  I  I126  1  0.66371614  0.16371170  0.16926577  1
  I  I127  1  0.66338769  0.16362190  0.49523140  1
  I  I128  1  0.67010667  0.16543625  0.83547417  1
  I  I129  1  0.67023677  0.50335913  0.16549187  1
  I  I130  1  0.66686673  0.49374260  0.50053791  1
  I  I131  1  0.66708011  0.49780789  0.83363371  1
  I  I132  1  0.66647469  0.83451971  0.17154126  1
  I  I133  1  0.66603903  0.84041310  0.49108892  1
  I  I134  1  0.66671165  0.83534715  0.83550520  1
