# generated using pymatgen
data_Cs27Sn13Pb14I81
_symmetry_space_group_name_H-M   'P 1'
_cell_length_a   18.97892914
_cell_length_b   18.97568969
_cell_length_c   18.97805175
_cell_angle_alpha   89.99830196
_cell_angle_beta   90.00138098
_cell_angle_gamma   90.00002633
_symmetry_Int_Tables_number   1
_chemical_formula_structural   Cs27Sn13Pb14I81
_chemical_formula_sum   'Cs27 Sn13 Pb14 I81'
_cell_volume   6834.72271838
_cell_formula_units_Z   1
loop_
 _symmetry_equiv_pos_site_id
 _symmetry_equiv_pos_as_xyz
  1  'x, y, z'
loop_
 _atom_site_type_symbol
 _atom_site_label
 _atom_site_symmetry_multiplicity
 _atom_site_fract_x
 _atom_site_fract_y
 _atom_site_fract_z
 _atom_site_occupancy
  Cs  Cs0  1  0.00135899  -0.00013928  0.00205180  1
  Cs  Cs1  1  -0.00136049  -0.00022466  0.33198277  1
  Cs  Cs2  1  -0.00313222  0.00091710  0.66655525  1
  Cs  Cs3  1  -0.00379790  0.33956951  0.00043998  1
  Cs  Cs4  1  0.00339906  0.33670361  0.33148541  1
  Cs  Cs5  1  -0.00220107  0.33167012  0.66792561  1
  Cs  Cs6  1  0.00553392  0.66146682  -0.00155058  1
  Cs  Cs7  1  -0.00081775  0.66497692  0.33652370  1
  Cs  Cs8  1  0.00286529  0.66645463  0.66302807  1
  Cs  Cs9  1  0.33458369  -0.00028542  -0.00053096  1
  Cs  Cs10  1  0.33366404  0.00051405  0.33106568  1
  Cs  Cs11  1  0.33389754  0.00032025  0.66839616  1
  Cs  Cs12  1  0.33231986  0.33467761  0.00121246  1
  Cs  Cs13  1  0.33424532  0.33411184  0.33479983  1
  Cs  Cs14  1  0.33564834  0.33244392  0.66429151  1
  Cs  Cs15  1  0.32698850  0.66280896  -0.00356125  1
  Cs  Cs16  1  0.33440656  0.66654395  0.33441928  1
  Cs  Cs17  1  0.33205914  0.66614964  0.66759866  1
  Cs  Cs18  1  0.66471768  -0.00057393  0.00042703  1
  Cs  Cs19  1  0.66699184  -0.00118091  0.33197739  1
  Cs  Cs20  1  0.66865762  0.00062846  0.66758676  1
  Cs  Cs21  1  0.67058842  0.33790057  -0.00110244  1
  Cs  Cs22  1  0.66233278  0.33391080  0.33355061  1
  Cs  Cs23  1  0.66667401  0.33112204  0.66782769  1
  Cs  Cs24  1  0.66664060  0.66564867  0.00198734  1
  Cs  Cs25  1  0.66741284  0.66832178  0.33070154  1
  Cs  Cs26  1  0.66483354  0.66916884  0.66810634  1
  Sn  Sn27  1  0.83308613  0.83345065  0.83459580  1
  Sn  Sn28  1  0.49940225  0.16593393  0.83427906  1
  Sn  Sn29  1  0.50102837  0.16593712  0.16555212  1
  Sn  Sn30  1  0.49926530  0.83384151  0.50007078  1
  Sn  Sn31  1  0.50059769  0.83396274  0.83389603  1
  Sn  Sn32  1  0.16740023  0.83406983  0.49985060  1
  Sn  Sn33  1  0.50033716  0.83385215  0.16600708  1
  Sn  Sn34  1  0.83303616  0.83402013  0.16526856  1
  Sn  Sn35  1  0.16713639  0.16629008  0.83289528  1
  Sn  Sn36  1  0.83250200  0.16602004  0.16669820  1
  Sn  Sn37  1  0.16662397  0.16627661  0.50076457  1
  Sn  Sn38  1  0.83308269  0.49980164  0.50024982  1
  Sn  Sn39  1  0.16598999  0.49964914  0.50031050  1
  Pb  Pb40  1  0.50007462  0.49979131  0.83338827  1
  Pb  Pb41  1  0.16685898  0.50009278  0.16904762  1
  Pb  Pb42  1  0.83307775  0.83231019  0.49977469  1
  Pb  Pb43  1  0.83318498  0.50342989  0.83071253  1
  Pb  Pb44  1  0.16697036  0.16658050  0.16617336  1
  Pb  Pb45  1  0.16678900  0.83327174  0.16881497  1
  Pb  Pb46  1  0.16674449  0.49646305  0.83059347  1
  Pb  Pb47  1  0.83562351  0.16878181  0.49731350  1
  Pb  Pb48  1  0.83312970  0.50058247  0.16862737  1
  Pb  Pb49  1  0.16670516  0.83519876  0.83122625  1
  Pb  Pb50  1  0.49998885  0.50271300  0.50012053  1
  Pb  Pb51  1  0.49843693  0.16441857  0.49990107  1
  Pb  Pb52  1  0.83311333  0.16481484  0.83556823  1
  Pb  Pb53  1  0.50004240  0.50014322  0.16643172  1
  I  I54  1  0.16509843  0.00003985  0.17208285  1
  I  I55  1  0.17165198  -0.00008432  0.50312014  1
  I  I56  1  0.16841950  0.00295524  0.82631543  1
  I  I57  1  0.16668595  0.33287166  0.16931989  1
  I  I58  1  0.16162364  0.33297861  0.50331784  1
  I  I59  1  0.17270505  0.32847754  0.82858949  1
  I  I60  1  0.16671126  0.66704380  0.16842544  1
  I  I61  1  0.16622101  0.66712219  0.49821639  1
  I  I62  1  0.16701888  0.66679485  0.83189675  1
  I  I63  1  0.50387440  -0.00067267  0.16692340  1
  I  I64  1  0.49525824  -0.00384282  0.49968239  1
  I  I65  1  0.49911880  -0.00073259  0.83361086  1
  I  I66  1  0.50349082  0.32940792  0.16306383  1
  I  I67  1  0.49870822  0.33304238  0.49943452  1
  I  I68  1  0.49543067  0.32925926  0.83704833  1
  I  I69  1  0.50497098  0.67087140  0.16821173  1
  I  I70  1  0.49502260  0.67132106  0.49968570  1
  I  I71  1  0.50410500  0.67078751  0.83288330  1
  I  I72  1  0.82946837  -0.00099982  0.16533951  1
  I  I73  1  0.83531020  -0.00003699  0.50089976  1
  I  I74  1  0.83184301  -0.00325588  0.83195242  1
  I  I75  1  0.82978999  0.33042406  0.16860339  1
  I  I76  1  0.83892219  0.33650594  0.49834442  1
  I  I77  1  0.83343866  0.33313468  0.83421843  1
  I  I78  1  0.82785803  0.67036295  0.16545585  1
  I  I79  1  0.83969454  0.66468705  0.49873831  1
  I  I80  1  0.82693298  0.67166155  0.83917627  1
  I  I81  1  0.16873394  0.16377554  -0.00283997  1
  I  I82  1  0.16652037  0.16739977  0.33627254  1
  I  I83  1  0.17240259  0.16665757  0.66615079  1
  I  I84  1  0.16682791  0.49946460  -0.00058795  1
  I  I85  1  0.16285683  0.49747899  0.33797616  1
  I  I86  1  0.16283677  0.50401152  0.66245798  1
  I  I87  1  0.16823316  0.83571680  -0.00027411  1
  I  I88  1  0.16993535  0.83547535  0.33749597  1
  I  I89  1  0.16999372  0.83115851  0.66297229  1
  I  I90  1  0.49686429  0.15788094  -0.00017284  1
  I  I91  1  0.50211540  0.16247417  0.33058105  1
  I  I92  1  0.49698965  0.16240444  0.66935899  1
  I  I93  1  0.50028220  0.50407829  -0.00004484  1
  I  I94  1  0.49866125  0.49953177  0.33353943  1
  I  I95  1  0.50018241  0.50039119  0.66646102  1
  I  I96  1  0.50625534  0.83885689  0.00000042  1
  I  I97  1  0.50010767  0.83650348  0.33280469  1
  I  I98  1  0.50048099  0.83622913  0.66724308  1
  I  I99  1  0.83474940  0.16481134  0.00343484  1
  I  I100  1  0.82834286  0.15930902  0.32960498  1
  I  I101  1  0.83174634  0.16624910  0.66678906  1
  I  I102  1  0.83316970  0.49823059  0.00002857  1
  I  I103  1  0.83938947  0.50291161  0.33633993  1
  I  I104  1  0.83863210  0.50135316  0.66294680  1
  I  I105  1  0.82501035  0.83769502  0.00061160  1
  I  I106  1  0.83039725  0.83525270  0.33076205  1
  I  I107  1  0.83002666  0.83138377  0.66864483  1
  I  I108  1  -0.00268253  0.16187265  0.16866522  1
  I  I109  1  0.00395385  0.16125547  0.50452463  1
  I  I110  1  0.00222245  0.16465143  0.82894228  1
  I  I111  1  -0.00023428  0.49922593  0.16641887  1
  I  I112  1  0.00131225  0.50351923  0.49910788  1
  I  I113  1  0.00001657  0.50008687  0.83449971  1
  I  I114  1  -0.00335552  0.83807642  0.16471953  1
  I  I115  1  0.00247424  0.83388482  0.50024960  1
  I  I116  1  -0.00243816  0.83516970  0.83548797  1
  I  I117  1  0.33663937  0.16119815  0.16642934  1
  I  I118  1  0.33012279  0.17078667  0.49892186  1
  I  I119  1  0.33448292  0.16035220  0.83433273  1
  I  I120  1  0.33351499  0.49976787  0.17003804  1
  I  I121  1  0.33013449  0.49853227  0.49982166  1
  I  I122  1  0.33322129  0.50527634  0.83049627  1
  I  I123  1  0.33702584  0.83874519  0.16570776  1
  I  I124  1  0.33354133  0.83150934  0.49961784  1
  I  I125  1  0.33652922  0.83563710  0.83505519  1
  I  I126  1  0.66568242  0.16192306  0.16266114  1
  I  I127  1  0.66661373  0.16738660  0.50236528  1
  I  I128  1  0.66356590  0.16381595  0.83459845  1
  I  I129  1  0.66672350  0.49968709  0.17213288  1
  I  I130  1  0.66909418  0.50307280  0.49852408  1
  I  I131  1  0.66680477  0.49545198  0.82873206  1
  I  I132  1  0.66598703  0.83718721  0.16954049  1
  I  I133  1  0.66394264  0.83108025  0.49992392  1
  I  I134  1  0.66524880  0.83871419  0.83004372  1
