# generated using pymatgen
data_Cs27Sn14Pb13I81
_symmetry_space_group_name_H-M   'P 1'
_cell_length_a   18.97222675
_cell_length_b   18.97222674
_cell_length_c   18.98537649
_cell_angle_alpha   90.00017955
_cell_angle_beta   89.99982030
_cell_angle_gamma   90.00268537
_symmetry_Int_Tables_number   1
_chemical_formula_structural   Cs27Sn14Pb13I81
_chemical_formula_sum   'Cs27 Sn14 Pb13 I81'
_cell_volume   6833.69869446
_cell_formula_units_Z   1
loop_
 _symmetry_equiv_pos_site_id
 _symmetry_equiv_pos_as_xyz
  1  'x, y, z'
loop_
 _atom_site_type_symbol
 _atom_site_label
 _atom_site_symmetry_multiplicity
 _atom_site_fract_x
 _atom_site_fract_y
 _atom_site_fract_z
 _atom_site_occupancy
  Cs  Cs0  1  0.00091732  -0.00364221  -0.00164987  1
  Cs  Cs1  1  -0.00132460  0.00243837  0.33607825  1
  Cs  Cs2  1  0.00226192  -0.00074922  0.66565952  1
  Cs  Cs3  1  0.00210337  0.33436028  0.00115540  1
  Cs  Cs4  1  -0.00154726  0.32958113  0.33370261  1
  Cs  Cs5  1  0.00051368  0.33378585  0.66500602  1
  Cs  Cs6  1  -0.00116896  0.66783567  0.00046326  1
  Cs  Cs7  1  0.00041230  0.66625430  0.33419088  1
  Cs  Cs8  1  -0.00034271  0.66700936  0.66626226  1
  Cs  Cs9  1  0.33412840  0.00132922  -0.00181511  1
  Cs  Cs10  1  0.33811790  -0.00289269  0.33155746  1
  Cs  Cs11  1  0.33311701  0.00144405  0.66804789  1
  Cs  Cs12  1  0.33139656  0.33527006  0.00758738  1
  Cs  Cs13  1  0.33241311  0.33425351  0.32005591  1
  Cs  Cs14  1  0.33506588  0.33160085  0.66819681  1
  Cs  Cs15  1  0.33230630  0.66456339  0.00115534  1
  Cs  Cs16  1  0.33708570  0.66821388  0.33370287  1
  Cs  Cs17  1  0.33288080  0.66615290  0.66500585  1
  Cs  Cs18  1  0.66588817  0.00077845  -0.00187608  1
  Cs  Cs19  1  0.66432746  0.00233931  0.33031761  1
  Cs  Cs20  1  0.66515436  0.00151218  0.66932594  1
  Cs  Cs21  1  0.66533756  0.33253825  -0.00181509  1
  Cs  Cs22  1  0.66955924  0.32854867  0.33155745  1
  Cs  Cs23  1  0.66522272  0.33354973  0.66804800  1
  Cs  Cs24  1  0.67030862  0.66574949  -0.00164979  1
  Cs  Cs25  1  0.66422821  0.66799125  0.33607825  1
  Cs  Cs26  1  0.66741590  0.66440467  0.66565955  1
  Sn  Sn27  1  0.16598224  0.83255955  0.49983181  1
  Sn  Sn28  1  0.16624778  0.50041884  0.50066739  1
  Sn  Sn29  1  0.16569906  0.83309971  0.16703191  1
  Sn  Sn30  1  0.49953315  0.16713352  0.50065905  1
  Sn  Sn31  1  0.83410710  0.50068444  0.49983178  1
  Sn  Sn32  1  0.49888249  0.83334589  0.83289575  1
  Sn  Sn33  1  0.16581488  0.50085177  0.83233466  1
  Sn  Sn34  1  0.16780338  0.83232938  0.83309258  1
  Sn  Sn35  1  0.83415002  0.83251662  0.16803620  1
  Sn  Sn36  1  0.83374643  0.83292027  0.49920449  1
  Sn  Sn37  1  0.83433729  0.49886330  0.83309260  1
  Sn  Sn38  1  0.50052153  0.16614517  0.83239107  1
  Sn  Sn39  1  0.83356694  0.50096762  0.16703186  1
  Sn  Sn40  1  0.83332079  0.16778415  0.83289571  1
  Pb  Pb41  1  0.50060490  0.83302901  0.16373061  1
  Pb  Pb42  1  0.16931491  0.16714130  0.49997043  1
  Pb  Pb43  1  0.49932209  0.49982097  0.83325934  1
  Pb  Pb44  1  0.16684567  0.16734460  0.83325932  1
  Pb  Pb45  1  0.50365504  0.50051075  0.16685948  1
  Pb  Pb46  1  0.83193755  0.16649460  0.50224417  1
  Pb  Pb47  1  0.49952536  0.49735173  0.49997043  1
  Pb  Pb48  1  0.16441021  0.50225653  0.16714637  1
  Pb  Pb49  1  0.50015624  0.16651041  0.16581922  1
  Pb  Pb50  1  0.16615591  0.16301164  0.16685950  1
  Pb  Pb51  1  0.83363766  0.16606176  0.16373057  1
  Pb  Pb52  1  0.83374286  0.83292380  0.83285800  1
  Pb  Pb53  1  0.50017210  0.83472910  0.50224417  1
  I  I54  1  0.15982316  -0.00562937  0.16526352  1
  I  I55  1  0.16245062  -0.00369958  0.50129192  1
  I  I56  1  0.16667639  -0.00321691  0.83323814  1
  I  I57  1  0.16700616  0.33395164  0.16563774  1
  I  I58  1  0.16159540  0.33719124  0.50731695  1
  I  I59  1  0.16488058  0.33692697  0.82782748  1
  I  I60  1  0.16411449  0.67026431  0.16457590  1
  I  I61  1  0.16258524  0.66749740  0.50211370  1
  I  I62  1  0.16606550  0.66737618  0.83285368  1
  I  I63  1  0.50177855  -0.00037536  0.16783625  1
  I  I64  1  0.50063656  0.00251807  0.50387511  1
  I  I65  1  0.50122888  0.00008084  0.82999269  1
  I  I66  1  0.49991716  0.33332253  0.16450516  1
  I  I67  1  0.50162218  0.32979038  0.50969385  1
  I  I68  1  0.50286632  0.33054050  0.82903254  1
  I  I69  1  0.49803196  0.66714935  0.16483336  1
  I  I70  1  0.50094650  0.66664785  0.50155577  1
  I  I71  1  0.49953713  0.66924567  0.83415520  1
  I  I72  1  0.83693329  -0.00376025  0.16998225  1
  I  I73  1  0.83691348  -0.00320880  0.49741449  1
  I  I74  1  0.83177101  0.00143543  0.83345744  1
  I  I75  1  0.83231618  0.33648240  0.16952475  1
  I  I76  1  0.83662800  0.33661845  0.49783493  1
  I  I77  1  0.83236951  0.33487764  0.83315675  1
  I  I78  1  0.83730898  0.66709226  0.16353392  1
  I  I79  1  0.83615798  0.66650287  0.50220812  1
  I  I80  1  0.83351139  0.66396831  0.83377576  1
  I  I81  1  0.16895311  0.16740558  -0.00031489  1
  I  I82  1  0.16915233  0.16861379  0.33361243  1
  I  I83  1  0.16500183  0.16115517  0.66676747  1
  I  I84  1  0.16341860  0.50324773  -0.00267877  1
  I  I85  1  0.16360164  0.50306501  0.33644190  1
  I  I86  1  0.15820385  0.50846311  0.66706640  1
  I  I87  1  0.16586576  0.83054343  -0.00082979  1
  I  I88  1  0.16178322  0.82995337  0.33428711  1
  I  I89  1  0.16595545  0.83007956  0.66664618  1
  I  I90  1  0.50464490  0.16202179  -0.00388947  1
  I  I91  1  0.50019911  0.16646760  0.33589272  1
  I  I92  1  0.50425655  0.16240989  0.66839318  1
  I  I93  1  0.49926135  0.49771324  -0.00031490  1
  I  I94  1  0.49805232  0.49751486  0.33361242  1
  I  I95  1  0.50551155  0.50166473  0.66676750  1
  I  I96  1  0.49717492  0.84024036  -0.00430213  1
  I  I97  1  0.49793674  0.83615413  0.33352321  1
  I  I98  1  0.49706842  0.83593892  0.67012042  1
  I  I99  1  0.82642631  0.16949201  -0.00430216  1
  I  I100  1  0.83051224  0.16872985  0.33352321  1
  I  I101  1  0.83072796  0.16959825  0.67012042  1
  I  I102  1  0.83612331  0.50080077  -0.00082980  1
  I  I103  1  0.83671355  0.50488333  0.33428710  1
  I  I104  1  0.83658674  0.50071141  0.66664619  1
  I  I105  1  0.83572126  0.83094537  0.00167288  1
  I  I106  1  0.84037601  0.82629083  0.33392150  1
  I  I107  1  0.83571569  0.83095090  0.66422758  1
  I  I108  1  -0.00048268  0.16863484  0.16483384  1
  I  I109  1  0.00001881  0.16572008  0.50155557  1
  I  I110  1  -0.00257899  0.16712951  0.83415523  1
  I  I111  1  -0.00359763  0.50255184  0.16457614  1
  I  I112  1  -0.00083073  0.50408158  0.50211396  1
  I  I113  1  -0.00070949  0.50060081  0.83285323  1
  I  I114  1  -0.00042564  0.82935795  0.16353385  1
  I  I115  1  0.00016377  0.83050865  0.50220831  1
  I  I116  1  0.00269834  0.83315563  0.83377563  1
  I  I117  1  0.33334414  0.16674924  0.16450481  1
  I  I118  1  0.33687625  0.16504526  0.50969396  1
  I  I119  1  0.33612617  0.16380011  0.82903274  1
  I  I120  1  0.33271502  0.49966071  0.16563744  1
  I  I121  1  0.32947546  0.50507102  0.50731705  1
  I  I122  1  0.32973972  0.50178643  0.82782765  1
  I  I123  1  0.33018432  0.83435045  0.16952467  1
  I  I124  1  0.33004821  0.83003858  0.49783483  1
  I  I125  1  0.33178908  0.83429717  0.83315699  1
  I  I126  1  0.66704201  0.16488837  0.16783616  1
  I  I127  1  0.66414859  0.16602942  0.50387525  1
  I  I128  1  0.66658584  0.16543810  0.82999254  1
  I  I129  1  0.67229607  0.50684359  0.16526383  1
  I  I130  1  0.67036623  0.50421623  0.50129161  1
  I  I131  1  0.66988360  0.49999033  0.83323821  1
  I  I132  1  0.67042694  0.82973312  0.16998240  1
  I  I133  1  0.66987551  0.82975346  0.49741448  1
  I  I134  1  0.66523124  0.83489542  0.83345730  1
