# generated using pymatgen
data_Cs27Sn13Pb14I81
_symmetry_space_group_name_H-M   'P 1'
_cell_length_a   18.97390600
_cell_length_b   18.97592502
_cell_length_c   18.98141126
_cell_angle_alpha   89.99968136
_cell_angle_beta   90.00039929
_cell_angle_gamma   90.00075224
_symmetry_Int_Tables_number   1
_chemical_formula_structural   Cs27Sn13Pb14I81
_chemical_formula_sum   'Cs27 Sn13 Pb14 I81'
_cell_volume   6834.20810327
_cell_formula_units_Z   1
loop_
 _symmetry_equiv_pos_site_id
 _symmetry_equiv_pos_as_xyz
  1  'x, y, z'
loop_
 _atom_site_type_symbol
 _atom_site_label
 _atom_site_symmetry_multiplicity
 _atom_site_fract_x
 _atom_site_fract_y
 _atom_site_fract_z
 _atom_site_occupancy
  Cs  Cs0  1  0.00293673  0.00200133  -0.00086520  1
  Cs  Cs1  1  -0.00221678  -0.00580237  0.33439070  1
  Cs  Cs2  1  -0.00424038  0.00078754  0.66640812  1
  Cs  Cs3  1  0.00167872  0.33201421  -0.00366448  1
  Cs  Cs4  1  0.00250670  0.33348100  0.33244639  1
  Cs  Cs5  1  -0.00184195  0.33356111  0.67105724  1
  Cs  Cs6  1  0.00205345  0.66798059  0.00800673  1
  Cs  Cs7  1  0.00552848  0.67553427  0.32844441  1
  Cs  Cs8  1  0.00478858  0.66496293  0.66369643  1
  Cs  Cs9  1  0.33477455  -0.00088151  -0.00189705  1
  Cs  Cs10  1  0.33599994  0.00428277  0.33275527  1
  Cs  Cs11  1  0.33553051  -0.00237238  0.66890127  1
  Cs  Cs12  1  0.33290517  0.33347305  0.00125232  1
  Cs  Cs13  1  0.33518751  0.33126411  0.33339451  1
  Cs  Cs14  1  0.33377642  0.33422930  0.66421162  1
  Cs  Cs15  1  0.32633252  0.66922403  -0.00035665  1
  Cs  Cs16  1  0.32799582  0.66508350  0.33384210  1
  Cs  Cs17  1  0.32926396  0.66851822  0.66716534  1
  Cs  Cs18  1  0.66470998  -0.00045240  -0.00059449  1
  Cs  Cs19  1  0.66643549  0.00056514  0.33430032  1
  Cs  Cs20  1  0.66758717  -0.00089438  0.66601639  1
  Cs  Cs21  1  0.66656524  0.33531906  0.00029623  1
  Cs  Cs22  1  0.66477113  0.33388097  0.33374927  1
  Cs  Cs23  1  0.66773609  0.33504002  0.66665686  1
  Cs  Cs24  1  0.66817739  0.66445537  -0.00252620  1
  Cs  Cs25  1  0.66821300  0.66527510  0.33147909  1
  Cs  Cs26  1  0.66582416  0.66394361  0.66945497  1
  Sn  Sn27  1  0.83326127  0.83221620  0.83323062  1
  Sn  Sn28  1  0.83294497  0.50015436  0.49996651  1
  Sn  Sn29  1  0.50076725  0.50043044  0.50079549  1
  Sn  Sn30  1  0.16681606  0.16664740  0.16779513  1
  Sn  Sn31  1  0.83314909  0.16687735  0.16684497  1
  Sn  Sn32  1  0.83263286  0.50134867  0.83253915  1
  Sn  Sn33  1  0.16704863  0.16672569  0.49964726  1
  Sn  Sn34  1  0.50049252  0.83352409  0.16738595  1
  Sn  Sn35  1  0.50020990  0.16602939  0.16654553  1
  Sn  Sn36  1  0.50015433  0.49932993  0.83265884  1
  Sn  Sn37  1  0.49960259  0.16666984  0.50039364  1
  Sn  Sn38  1  0.50045080  0.83286215  0.49908637  1
  Sn  Sn39  1  0.50041720  0.16766300  0.83305147  1
  Pb  Pb40  1  0.49982514  0.50040054  0.16659050  1
  Pb  Pb41  1  0.83099205  0.16720111  0.83517637  1
  Pb  Pb42  1  0.16273944  0.83341733  0.83318478  1
  Pb  Pb43  1  0.16666797  0.49999878  0.83320452  1
  Pb  Pb44  1  0.83314416  0.16851265  0.49818507  1
  Pb  Pb45  1  0.83097759  0.83043124  0.50167681  1
  Pb  Pb46  1  0.16938024  0.83657022  0.50011452  1
  Pb  Pb47  1  0.16667966  0.49735537  0.16684169  1
  Pb  Pb48  1  0.83086525  0.83567855  0.16467975  1
  Pb  Pb49  1  0.16962036  0.16669249  0.83280015  1
  Pb  Pb50  1  0.83330234  0.49818331  0.16680048  1
  Pb  Pb51  1  0.16669969  0.49771840  0.49996789  1
  Pb  Pb52  1  0.16974144  0.83644823  0.16679153  1
  Pb  Pb53  1  0.50089376  0.83260372  0.83329366  1
  I  I54  1  0.16522669  0.00453066  0.17075153  1
  I  I55  1  0.17191143  0.00466762  0.49531457  1
  I  I56  1  0.16751061  0.00045375  0.83372593  1
  I  I57  1  0.17139020  0.32851241  0.17022824  1
  I  I58  1  0.17413549  0.32970160  0.49520647  1
  I  I59  1  0.16224302  0.33303660  0.83478271  1
  I  I60  1  0.16788172  0.66733785  0.16549447  1
  I  I61  1  0.16778311  0.66673558  0.50085794  1
  I  I62  1  0.17415156  0.66661087  0.83305939  1
  I  I63  1  0.49990626  0.00213199  0.16895744  1
  I  I64  1  0.49543175  0.00121981  0.49941535  1
  I  I65  1  0.50149888  0.00245840  0.83200154  1
  I  I66  1  0.49941401  0.32978349  0.16849063  1
  I  I67  1  0.49968669  0.33261818  0.50013346  1
  I  I68  1  0.50515781  0.33306561  0.83118425  1
  I  I69  1  0.50209314  0.66960849  0.16941709  1
  I  I70  1  0.50597850  0.66598398  0.50045628  1
  I  I71  1  0.50338115  0.66367234  0.83020236  1
  I  I72  1  0.83375825  0.00385388  0.16551830  1
  I  I73  1  0.83281181  0.00001414  0.50119594  1
  I  I74  1  0.83043139  -0.00154024  0.83600680  1
  I  I75  1  0.82912799  0.32973774  0.16483443  1
  I  I76  1  0.82665073  0.33623992  0.50632199  1
  I  I77  1  0.83070192  0.33624534  0.83095062  1
  I  I78  1  0.83068639  0.66685383  0.16724802  1
  I  I79  1  0.82600007  0.66242358  0.50160636  1
  I  I80  1  0.82393226  0.66517689  0.83000883  1
  I  I81  1  0.16759122  0.16656418  0.00307373  1
  I  I82  1  0.17376146  0.16824107  0.33305173  1
  I  I83  1  0.17235651  0.16761068  0.66343484  1
  I  I84  1  0.16761093  0.49707153  -0.00013149  1
  I  I85  1  0.16742501  0.49983128  0.33369994  1
  I  I86  1  0.16706916  0.49580668  0.66649366  1
  I  I87  1  0.17067339  0.83611250  0.00022000  1
  I  I88  1  0.16314667  0.83100987  0.33340938  1
  I  I89  1  0.17100112  0.83644147  0.66644710  1
  I  I90  1  0.50049160  0.16601317  0.00070184  1
  I  I91  1  0.49920078  0.16652147  0.33342814  1
  I  I92  1  0.49574421  0.16666653  0.66574574  1
  I  I93  1  0.50535882  0.49532507  -0.00315714  1
  I  I94  1  0.50416043  0.49638561  0.33671018  1
  I  I95  1  0.50423106  0.49551800  0.66615466  1
  I  I96  1  0.50195183  0.83923148  0.00214082  1
  I  I97  1  0.50094721  0.83852575  0.33380267  1
  I  I98  1  0.50167960  0.83736113  0.66403525  1
  I  I99  1  0.83238952  0.16816655  0.00311805  1
  I  I100  1  0.82767200  0.16875151  0.33035488  1
  I  I101  1  0.83365506  0.16500462  0.66675164  1
  I  I102  1  0.82723476  0.50151124  -0.00335741  1
  I  I103  1  0.82617878  0.49529640  0.33650094  1
  I  I104  1  0.82730884  0.50119052  0.66705242  1
  I  I105  1  0.82889330  0.82703500  -0.00303003  1
  I  I106  1  0.83379122  0.83283062  0.33331948  1
  I  I107  1  0.82877913  0.83492148  0.66956665  1
  I  I108  1  0.00034071  0.16961011  0.17058141  1
  I  I109  1  0.00237418  0.16948348  0.49475085  1
  I  I110  1  -0.00018920  0.16666097  0.83465149  1
  I  I111  1  -0.00026583  0.49684249  0.16592748  1
  I  I112  1  -0.00309472  0.49545401  0.50596687  1
  I  I113  1  -0.00377986  0.50242808  0.82847785  1
  I  I114  1  -0.00002734  0.83472990  0.16450127  1
  I  I115  1  -0.00021843  0.83386484  0.50202782  1
  I  I116  1  -0.00519257  0.82845458  0.83359149  1
  I  I117  1  0.33488777  0.16343160  0.16759647  1
  I  I118  1  0.33589888  0.16880185  0.49526627  1
  I  I119  1  0.33825259  0.17118205  0.83732667  1
  I  I120  1  0.33387292  0.49800516  0.16619582  1
  I  I121  1  0.33721014  0.50074358  0.50385702  1
  I  I122  1  0.33718931  0.49464018  0.82932001  1
  I  I123  1  0.33786088  0.83867132  0.16857366  1
  I  I124  1  0.33823723  0.82857413  0.49772938  1
  I  I125  1  0.33367399  0.83398195  0.83415265  1
  I  I126  1  0.66482022  0.16361480  0.16653991  1
  I  I127  1  0.66298300  0.16548085  0.49881325  1
  I  I128  1  0.66259093  0.16780719  0.83298780  1
  I  I129  1  0.66634630  0.49551397  0.16674305  1
  I  I130  1  0.66478651  0.49666507  0.50413315  1
  I  I131  1  0.66580984  0.49885809  0.82922623  1
  I  I132  1  0.66297754  0.84129002  0.17028879  1
  I  I133  1  0.66254244  0.84049937  0.49680813  1
  I  I134  1  0.66846996  0.83246599  0.83378644  1
