# generated using pymatgen
data_Cs27Sn13Pb14I81
_symmetry_space_group_name_H-M   'P 1'
_cell_length_a   18.97420295
_cell_length_b   18.97603230
_cell_length_c   18.97960615
_cell_angle_alpha   89.99885562
_cell_angle_beta   89.99953389
_cell_angle_gamma   89.99758273
_symmetry_Int_Tables_number   1
_chemical_formula_structural   Cs27Sn13Pb14I81
_chemical_formula_sum   'Cs27 Sn13 Pb14 I81'
_cell_volume   6833.70375744
_cell_formula_units_Z   1
loop_
 _symmetry_equiv_pos_site_id
 _symmetry_equiv_pos_as_xyz
  1  'x, y, z'
loop_
 _atom_site_type_symbol
 _atom_site_label
 _atom_site_symmetry_multiplicity
 _atom_site_fract_x
 _atom_site_fract_y
 _atom_site_fract_z
 _atom_site_occupancy
  Cs  Cs0  1  -0.00107221  -0.00051658  0.00142020  1
  Cs  Cs1  1  0.00005834  0.00042983  0.33327410  1
  Cs  Cs2  1  0.00321884  0.00205198  0.66366373  1
  Cs  Cs3  1  -0.00073576  0.33181443  0.00399455  1
  Cs  Cs4  1  -0.00311024  0.33216755  0.33322395  1
  Cs  Cs5  1  -0.00207621  0.33260438  0.66333129  1
  Cs  Cs6  1  0.00047320  0.66869317  -0.00170293  1
  Cs  Cs7  1  0.00219788  0.66728884  0.33445771  1
  Cs  Cs8  1  0.00004778  0.66582782  0.66660858  1
  Cs  Cs9  1  0.33225130  0.00346814  -0.00396154  1
  Cs  Cs10  1  0.33426861  -0.00045637  0.33453865  1
  Cs  Cs11  1  0.33298920  0.00139501  0.66917134  1
  Cs  Cs12  1  0.33681509  0.33493483  -0.00038157  1
  Cs  Cs13  1  0.33416582  0.33532577  0.33238237  1
  Cs  Cs14  1  0.33298975  0.33092272  0.66798478  1
  Cs  Cs15  1  0.33418168  0.66022697  0.00244977  1
  Cs  Cs16  1  0.33402596  0.66463872  0.33426448  1
  Cs  Cs17  1  0.33116145  0.66839178  0.66311193  1
  Cs  Cs18  1  0.66961702  -0.00370401  -0.00019458  1
  Cs  Cs19  1  0.66466408  -0.00083622  0.33208004  1
  Cs  Cs20  1  0.66159775  -0.00341442  0.66890122  1
  Cs  Cs21  1  0.66645971  0.33329409  -0.00162819  1
  Cs  Cs22  1  0.66918991  0.33134965  0.33466203  1
  Cs  Cs23  1  0.66966287  0.33756461  0.66677870  1
  Cs  Cs24  1  0.66372882  0.67123699  -0.00668256  1
  Cs  Cs25  1  0.66296054  0.67191232  0.33236970  1
  Cs  Cs26  1  0.66803134  0.66552570  0.67382191  1
  Sn  Sn27  1  0.83366518  0.16675141  0.83354542  1
  Sn  Sn28  1  0.49960579  0.49911911  0.49985123  1
  Sn  Sn29  1  0.16641883  0.83255646  0.83330754  1
  Sn  Sn30  1  0.83304260  0.16731768  0.16594404  1
  Sn  Sn31  1  0.49988535  0.16767482  0.49948321  1
  Sn  Sn32  1  0.16571499  0.83279765  0.49992655  1
  Sn  Sn33  1  0.83382951  0.83324472  0.49989808  1
  Sn  Sn34  1  0.16694735  0.16612076  0.16702103  1
  Sn  Sn35  1  0.83297897  0.50050092  0.16664108  1
  Sn  Sn36  1  0.16702666  0.50018946  0.50073325  1
  Sn  Sn37  1  0.16673562  0.83402417  0.16674268  1
  Sn  Sn38  1  0.50008017  0.16664826  0.16735176  1
  Sn  Sn39  1  0.16630568  0.50014376  0.83248143  1
  Pb  Pb40  1  0.83083230  0.16454542  0.49967868  1
  Pb  Pb41  1  0.49947036  0.83306809  0.50009315  1
  Pb  Pb42  1  0.16489540  0.16715926  0.83563258  1
  Pb  Pb43  1  0.49742991  0.49986278  0.83063487  1
  Pb  Pb44  1  0.49670538  0.83317945  0.83353842  1
  Pb  Pb45  1  0.83324959  0.50219365  0.49820554  1
  Pb  Pb46  1  0.50270142  0.16681201  0.83346918  1
  Pb  Pb47  1  0.50307064  0.49805225  0.16865401  1
  Pb  Pb48  1  0.83585984  0.49829841  0.83575380  1
  Pb  Pb49  1  0.83584422  0.83546334  0.83093089  1
  Pb  Pb50  1  0.16538504  0.49996099  0.16704914  1
  Pb  Pb51  1  0.16844090  0.16693637  0.49790045  1
  Pb  Pb52  1  0.83507664  0.83346808  0.16804807  1
  Pb  Pb53  1  0.49691405  0.83575495  0.16639245  1
  I  I54  1  0.16456792  0.00013517  0.16730627  1
  I  I55  1  0.16447971  -0.00270623  0.50164233  1
  I  I56  1  0.16517341  -0.00256906  0.83079213  1
  I  I57  1  0.16711454  0.33063112  0.16680659  1
  I  I58  1  0.16892056  0.33611791  0.50295497  1
  I  I59  1  0.16528277  0.33595503  0.82936047  1
  I  I60  1  0.16303335  0.66914031  0.16714771  1
  I  I61  1  0.16860642  0.66697212  0.49818650  1
  I  I62  1  0.16578982  0.66722940  0.83423193  1
  I  I63  1  0.50500171  0.00447460  0.17440275  1
  I  I64  1  0.50053086  0.00265782  0.49536691  1
  I  I65  1  0.49718112  0.00034877  0.82982890  1
  I  I66  1  0.49396175  0.32954306  0.16885750  1
  I  I67  1  0.49438454  0.33335598  0.49549703  1
  I  I68  1  0.49601277  0.33319734  0.83458978  1
  I  I69  1  0.49997636  0.66648958  0.16909215  1
  I  I70  1  0.49715560  0.66392486  0.49974999  1
  I  I71  1  0.50417036  0.66642267  0.83176374  1
  I  I72  1  0.83250918  0.00322802  0.16456144  1
  I  I73  1  0.84025228  -0.00296098  0.49805761  1
  I  I74  1  0.83503637  0.00313929  0.84093049  1
  I  I75  1  0.83707772  0.33137484  0.16505129  1
  I  I76  1  0.83560493  0.33323744  0.50076072  1
  I  I77  1  0.83600338  0.33032581  0.83460215  1
  I  I78  1  0.83804614  0.66463925  0.17078152  1
  I  I79  1  0.83503884  0.66978101  0.49713357  1
  I  I80  1  0.83248777  0.66678964  0.83431907  1
  I  I81  1  0.16985517  0.16327913  0.00387362  1
  I  I82  1  0.16184880  0.16323064  0.32973841  1
  I  I83  1  0.16649670  0.16413733  0.66658945  1
  I  I84  1  0.16334910  0.50316607  -0.00182716  1
  I  I85  1  0.16919459  0.50338309  0.33606742  1
  I  I86  1  0.16963961  0.50769527  0.66558337  1
  I  I87  1  0.16673250  0.83417756  0.00020797  1
  I  I88  1  0.16285152  0.83357890  0.33396826  1
  I  I89  1  0.16293339  0.82842541  0.66589051  1
  I  I90  1  0.49713578  0.16578205  0.00340783  1
  I  I91  1  0.50128501  0.16987666  0.33270595  1
  I  I92  1  0.50053484  0.16908764  0.66369135  1
  I  I93  1  0.49808046  0.49817300  0.00011758  1
  I  I94  1  0.49190497  0.49857458  0.33661750  1
  I  I95  1  0.49957261  0.49324946  0.66231201  1
  I  I96  1  0.50057353  0.83576008  0.00016974  1
  I  I97  1  0.49767238  0.83252219  0.33341058  1
  I  I98  1  0.49894412  0.83739898  0.66628895  1
  I  I99  1  0.83300147  0.16983212  0.00207267  1
  I  I100  1  0.83538834  0.16883780  0.33024540  1
  I  I101  1  0.83348679  0.16447205  0.66853190  1
  I  I102  1  0.83684017  0.49715783  0.00359428  1
  I  I103  1  0.83696838  0.49211447  0.33066528  1
  I  I104  1  0.83205279  0.49864845  0.66656193  1
  I  I105  1  0.83562410  0.83294461  -0.00006402  1
  I  I106  1  0.84029569  0.83513790  0.33590975  1
  I  I107  1  0.83880156  0.83457404  0.66316895  1
  I  I108  1  -0.00012052  0.16638582  0.16253488  1
  I  I109  1  -0.00001276  0.16814603  0.49864306  1
  I  I110  1  -0.00268165  0.16608832  0.83939666  1
  I  I111  1  -0.00210034  0.49294074  0.16906223  1
  I  I112  1  0.00301887  0.50295776  0.50206414  1
  I  I113  1  0.00380504  0.50376193  0.82669646  1
  I  I114  1  0.00356089  0.83914876  0.16619910  1
  I  I115  1  0.00233881  0.82906647  0.49927738  1
  I  I116  1  0.00402542  0.83026852  0.83549101  1
  I  I117  1  0.33299609  0.16127311  0.17165882  1
  I  I118  1  0.33625668  0.16579501  0.49459887  1
  I  I119  1  0.33307067  0.16567472  0.83450058  1
  I  I120  1  0.33328626  0.49916925  0.16522482  1
  I  I121  1  0.33189773  0.50220610  0.50205623  1
  I  I122  1  0.32903965  0.50304208  0.83437490  1
  I  I123  1  0.32826372  0.83698703  0.17048001  1
  I  I124  1  0.32963547  0.83236597  0.49988353  1
  I  I125  1  0.32795917  0.83266105  0.82936584  1
  I  I126  1  0.66712137  0.17237268  0.16778586  1
  I  I127  1  0.66318695  0.17075601  0.49430293  1
  I  I128  1  0.67037494  0.16665962  0.83870564  1
  I  I129  1  0.67067851  0.49344455  0.16978788  1
  I  I130  1  0.66422332  0.49637856  0.49613721  1
  I  I131  1  0.66695651  0.49820977  0.83230318  1
  I  I132  1  0.66678780  0.83425240  0.17082991  1
  I  I133  1  0.66891026  0.83506290  0.49764221  1
  I  I134  1  0.66718165  0.83485088  0.83087353  1
