# generated using pymatgen
data_Cs27Sn13Pb14I81
_symmetry_space_group_name_H-M   'P 1'
_cell_length_a   18.96720155
_cell_length_b   18.98404605
_cell_length_c   18.98073260
_cell_angle_alpha   89.99932680
_cell_angle_beta   90.00065600
_cell_angle_gamma   89.99964544
_symmetry_Int_Tables_number   1
_chemical_formula_structural   Cs27Sn13Pb14I81
_chemical_formula_sum   'Cs27 Sn13 Pb14 I81'
_cell_volume   6834.47263210
_cell_formula_units_Z   1
loop_
 _symmetry_equiv_pos_site_id
 _symmetry_equiv_pos_as_xyz
  1  'x, y, z'
loop_
 _atom_site_type_symbol
 _atom_site_label
 _atom_site_symmetry_multiplicity
 _atom_site_fract_x
 _atom_site_fract_y
 _atom_site_fract_z
 _atom_site_occupancy
  Cs  Cs0  1  -0.00158293  -0.00100896  -0.00117521  1
  Cs  Cs1  1  -0.00018391  -0.00113851  0.33368035  1
  Cs  Cs2  1  0.00165917  0.00006878  0.66847463  1
  Cs  Cs3  1  0.00201926  0.33369637  -0.00057025  1
  Cs  Cs4  1  0.00018981  0.33438875  0.33408731  1
  Cs  Cs5  1  0.00096764  0.33361435  0.66593814  1
  Cs  Cs6  1  -0.00000437  0.66630716  0.00135169  1
  Cs  Cs7  1  -0.00105247  0.66671914  0.33374450  1
  Cs  Cs8  1  0.00229715  0.66525877  0.66420015  1
  Cs  Cs9  1  0.33518492  0.00117405  0.00212560  1
  Cs  Cs10  1  0.34224581  0.00050750  0.33312912  1
  Cs  Cs11  1  0.33021050  -0.00399757  0.66445217  1
  Cs  Cs12  1  0.33115829  0.33311137  0.00392985  1
  Cs  Cs13  1  0.33676681  0.33110755  0.32648890  1
  Cs  Cs14  1  0.33156421  0.33243938  0.66780600  1
  Cs  Cs15  1  0.34329159  0.66615169  0.00032315  1
  Cs  Cs16  1  0.34148870  0.66934261  0.33179430  1
  Cs  Cs17  1  0.33596128  0.67340024  0.66714347  1
  Cs  Cs18  1  0.66884008  -0.00241116  -0.00277308  1
  Cs  Cs19  1  0.66472896  0.00086828  0.33301374  1
  Cs  Cs20  1  0.66741718  0.00225192  0.67015559  1
  Cs  Cs21  1  0.66769736  0.33412088  -0.00369836  1
  Cs  Cs22  1  0.66659825  0.33159097  0.33677936  1
  Cs  Cs23  1  0.66545429  0.33317933  0.66631602  1
  Cs  Cs24  1  0.66086882  0.66765894  -0.00165199  1
  Cs  Cs25  1  0.66864631  0.66720684  0.33307544  1
  Cs  Cs26  1  0.66100132  0.66412244  0.66908582  1
  Sn  Sn27  1  0.49839907  0.16694449  0.83302642  1
  Sn  Sn28  1  0.83390112  0.83338461  0.49981994  1
  Sn  Sn29  1  0.16592442  0.83317394  0.16677397  1
  Sn  Sn30  1  0.16588653  0.16750587  0.50013547  1
  Sn  Sn31  1  0.83449041  0.50007133  0.83298623  1
  Sn  Sn32  1  0.83396987  0.50008923  0.50026140  1
  Sn  Sn33  1  0.83393835  0.49990061  0.16667691  1
  Sn  Sn34  1  0.16581577  0.49967270  0.83268696  1
  Sn  Sn35  1  0.83445829  0.16651988  0.49934816  1
  Sn  Sn36  1  0.16651016  0.49933260  0.50026552  1
  Sn  Sn37  1  0.83462282  0.83330961  0.16748912  1
  Sn  Sn38  1  0.16738990  0.16732576  0.83277600  1
  Sn  Sn39  1  0.83403836  0.16679200  0.16735634  1
  Pb  Pb40  1  0.16641370  0.83278977  0.83581808  1
  Pb  Pb41  1  0.49955442  0.16692526  0.50197531  1
  Pb  Pb42  1  0.49888210  0.49962815  0.50015755  1
  Pb  Pb43  1  0.16464853  0.16484889  0.16712134  1
  Pb  Pb44  1  0.50368121  0.83350301  0.50008283  1
  Pb  Pb45  1  0.16515759  0.50203927  0.16713226  1
  Pb  Pb46  1  0.83367058  0.82992999  0.83308170  1
  Pb  Pb47  1  0.16501916  0.83322890  0.49788835  1
  Pb  Pb48  1  0.49878076  0.49801883  0.83299559  1
  Pb  Pb49  1  0.83443374  0.16856329  0.83287862  1
  Pb  Pb50  1  0.50350211  0.16687154  0.16400113  1
  Pb  Pb51  1  0.50097855  0.83353818  0.16676888  1
  Pb  Pb52  1  0.49983760  0.83657574  0.83312485  1
  Pb  Pb53  1  0.50341772  0.49957766  0.16684361  1
  I  I54  1  0.15824751  -0.00267545  0.16588071  1
  I  I55  1  0.16142169  0.00301352  0.50434755  1
  I  I56  1  0.17014222  0.00322135  0.82948599  1
  I  I57  1  0.16487461  0.33336721  0.16561313  1
  I  I58  1  0.15679250  0.33317223  0.50499241  1
  I  I59  1  0.16556628  0.33329451  0.83032778  1
  I  I60  1  0.15803074  0.66950944  0.16687889  1
  I  I61  1  0.16041580  0.66349181  0.50425761  1
  I  I62  1  0.15995192  0.66293544  0.82918808  1
  I  I63  1  0.50236302  0.00019106  0.16504885  1
  I  I64  1  0.49989630  0.00030684  0.50145263  1
  I  I65  1  0.49638820  0.00451708  0.83340204  1
  I  I66  1  0.50012272  0.33300627  0.16639334  1
  I  I67  1  0.50746827  0.33319476  0.50048764  1
  I  I68  1  0.50081080  0.33044896  0.83292191  1
  I  I69  1  0.50094989  0.66677218  0.16505923  1
  I  I70  1  0.49958521  0.66658172  0.50068370  1
  I  I71  1  0.50114776  0.66644970  0.83442859  1
  I  I72  1  0.83651217  -0.00007464  0.17282473  1
  I  I73  1  0.83661614  0.00088025  0.49294733  1
  I  I74  1  0.83213248  0.00016081  0.83403759  1
  I  I75  1  0.83258093  0.33359518  0.16895516  1
  I  I76  1  0.83608839  0.33347112  0.49707942  1
  I  I77  1  0.83370129  0.33657774  0.83450926  1
  I  I78  1  0.83749094  0.66655845  0.16986877  1
  I  I79  1  0.83715969  0.66566683  0.49654596  1
  I  I80  1  0.83910901  0.66168682  0.83345130  1
  I  I81  1  0.16841105  0.17000408  -0.00263893  1
  I  I82  1  0.16206100  0.17076688  0.33657106  1
  I  I83  1  0.16389328  0.16966953  0.66630669  1
  I  I84  1  0.16096370  0.49589913  -0.00274974  1
  I  I85  1  0.16030003  0.49586257  0.33664699  1
  I  I86  1  0.15671671  0.49530132  0.66653726  1
  I  I87  1  0.15778202  0.83429865  0.00349388  1
  I  I88  1  0.16101623  0.83308920  0.33034807  1
  I  I89  1  0.16525147  0.83386682  0.66638230  1
  I  I90  1  0.49460773  0.16772547  -0.00365674  1
  I  I91  1  0.49854959  0.16564575  0.33332950  1
  I  I92  1  0.50289710  0.16801342  0.66967678  1
  I  I93  1  0.50117471  0.49958825  -0.00023625  1
  I  I94  1  0.49937325  0.49971425  0.33348962  1
  I  I95  1  0.50808813  0.49914596  0.66671116  1
  I  I96  1  0.50304895  0.83305738  0.00011595  1
  I  I97  1  0.49765524  0.83469816  0.33322420  1
  I  I98  1  0.50128181  0.83248669  0.66663194  1
  I  I99  1  0.83265295  0.16634403  0.00223298  1
  I  I100  1  0.83808767  0.17027947  0.33432874  1
  I  I101  1  0.83312401  0.16615368  0.66357892  1
  I  I102  1  0.83705591  0.49879854  0.00000172  1
  I  I103  1  0.83671057  0.50025044  0.33395381  1
  I  I104  1  0.83653059  0.49905230  0.66586426  1
  I  I105  1  0.83594011  0.83495966  0.00330221  1
  I  I106  1  0.83717814  0.82956476  0.33302946  1
  I  I107  1  0.83340736  0.83538370  0.66332379  1
  I  I108  1  -0.00384017  0.16853603  0.16547645  1
  I  I109  1  -0.00099934  0.16773257  0.50246398  1
  I  I110  1  0.00287984  0.16890967  0.83242097  1
  I  I111  1  -0.00380998  0.49836704  0.16655086  1
  I  I112  1  -0.00151890  0.49895162  0.50105835  1
  I  I113  1  -0.00025150  0.49373767  0.83278838  1
  I  I114  1  -0.00258167  0.83325829  0.16954568  1
  I  I115  1  -0.00357024  0.83297903  0.49715825  1
  I  I116  1  -0.00015286  0.83939903  0.83347076  1
  I  I117  1  0.33311335  0.16364835  0.16910837  1
  I  I118  1  0.32943036  0.17145533  0.50216315  1
  I  I119  1  0.33116651  0.17220425  0.82842980  1
  I  I120  1  0.33296272  0.50288798  0.16599649  1
  I  I121  1  0.32877753  0.49484354  0.50591220  1
  I  I122  1  0.32924438  0.49827458  0.82855791  1
  I  I123  1  0.33072500  0.83338784  0.16580489  1
  I  I124  1  0.33299148  0.83336045  0.49776919  1
  I  I125  1  0.33296109  0.82810334  0.83594330  1
  I  I126  1  0.67207320  0.16469340  0.17139765  1
  I  I127  1  0.67042858  0.16700252  0.49747646  1
  I  I128  1  0.66566655  0.16794510  0.83454695  1
  I  I129  1  0.67275843  0.50303155  0.16639835  1
  I  I130  1  0.67100107  0.49976116  0.49980433  1
  I  I131  1  0.66966137  0.49893032  0.83378751  1
  I  I132  1  0.67113570  0.83287092  0.17065145  1
  I  I133  1  0.67255125  0.83309069  0.49261157  1
  I  I134  1  0.66711359  0.83390428  0.83513857  1
