# generated using pymatgen
data_Cs27Sn13Pb14I81
_symmetry_space_group_name_H-M   'P 1'
_cell_length_a   18.97834489
_cell_length_b   18.97838388
_cell_length_c   18.97349403
_cell_angle_alpha   89.99678763
_cell_angle_beta   89.99909852
_cell_angle_gamma   90.00107190
_symmetry_Int_Tables_number   1
_chemical_formula_structural   Cs27Sn13Pb14I81
_chemical_formula_sum   'Cs27 Sn13 Pb14 I81'
_cell_volume   6833.84108971
_cell_formula_units_Z   1
loop_
 _symmetry_equiv_pos_site_id
 _symmetry_equiv_pos_as_xyz
  1  'x, y, z'
loop_
 _atom_site_type_symbol
 _atom_site_label
 _atom_site_symmetry_multiplicity
 _atom_site_fract_x
 _atom_site_fract_y
 _atom_site_fract_z
 _atom_site_occupancy
  Cs  Cs0  1  -0.00641132  0.00099270  0.00617855  1
  Cs  Cs1  1  0.00204513  0.00204009  0.32910596  1
  Cs  Cs2  1  0.00115654  -0.00131360  0.66708014  1
  Cs  Cs3  1  -0.00018129  0.33280840  0.00197591  1
  Cs  Cs4  1  -0.00049327  0.33388152  0.33420501  1
  Cs  Cs5  1  0.00216871  0.33533938  0.66340173  1
  Cs  Cs6  1  -0.00166383  0.66737399  -0.00115429  1
  Cs  Cs7  1  0.00012905  0.66399760  0.33633039  1
  Cs  Cs8  1  0.00078844  0.66645558  0.66580997  1
  Cs  Cs9  1  0.32961768  -0.00149283  0.00232601  1
  Cs  Cs10  1  0.33446755  -0.00180220  0.33240396  1
  Cs  Cs11  1  0.33462395  -0.00051884  0.66516409  1
  Cs  Cs12  1  0.33719051  0.33700049  -0.00215483  1
  Cs  Cs13  1  0.33332894  0.33252764  0.33256071  1
  Cs  Cs14  1  0.33291925  0.33201987  0.66965124  1
  Cs  Cs15  1  0.33703773  0.66377829  -0.00093407  1
  Cs  Cs16  1  0.33611637  0.66771799  0.33167127  1
  Cs  Cs17  1  0.33096873  0.66870840  0.66909575  1
  Cs  Cs18  1  0.67935933  0.00208378  -0.00281766  1
  Cs  Cs19  1  0.66134143  -0.00191097  0.33313207  1
  Cs  Cs20  1  0.66317446  0.00221648  0.66907654  1
  Cs  Cs21  1  0.66266748  0.33126898  -0.00175186  1
  Cs  Cs22  1  0.66615273  0.33579564  0.33424782  1
  Cs  Cs23  1  0.66571202  0.32971056  0.66706281  1
  Cs  Cs24  1  0.66575986  0.66789163  0.00306720  1
  Cs  Cs25  1  0.66218936  0.66534771  0.33214507  1
  Cs  Cs26  1  0.67172722  0.66854327  0.66416395  1
  Sn  Sn27  1  0.16722954  0.83453006  0.83288583  1
  Sn  Sn28  1  0.83340639  0.49973645  0.83437978  1
  Sn  Sn29  1  0.49951018  0.83348080  0.83347810  1
  Sn  Sn30  1  0.49991013  0.16628180  0.16649334  1
  Sn  Sn31  1  0.16605760  0.16633236  0.50053842  1
  Sn  Sn32  1  0.83400637  0.16509226  0.50000223  1
  Sn  Sn33  1  0.16610929  0.50015522  0.16725055  1
  Sn  Sn34  1  0.83421651  0.83505960  0.49986196  1
  Sn  Sn35  1  0.16818157  0.50007633  0.49923349  1
  Sn  Sn36  1  0.16631720  0.16558558  0.83299770  1
  Sn  Sn37  1  0.16589401  0.83363628  0.50040962  1
  Sn  Sn38  1  0.49843684  0.49994580  0.50073542  1
  Sn  Sn39  1  0.83403701  0.49995742  0.16538779  1
  Pb  Pb40  1  0.83356868  0.83083621  0.17009066  1
  Pb  Pb41  1  0.49947465  0.83145111  0.50144855  1
  Pb  Pb42  1  0.83382887  0.49990255  0.49977744  1
  Pb  Pb43  1  0.16790518  0.16891303  0.16676146  1
  Pb  Pb44  1  0.50267660  0.50192047  0.83076078  1
  Pb  Pb45  1  0.50008126  0.83620356  0.16333233  1
  Pb  Pb46  1  0.83425106  0.83190375  0.83138109  1
  Pb  Pb47  1  0.16541653  0.50026513  0.83318032  1
  Pb  Pb48  1  0.49927387  0.16835781  0.49903624  1
  Pb  Pb49  1  0.16663847  0.83068235  0.16659287  1
  Pb  Pb50  1  0.83137605  0.16895948  0.16944431  1
  Pb  Pb51  1  0.49746247  0.16422943  0.83558780  1
  Pb  Pb52  1  0.49983994  0.49879931  0.16826527  1
  Pb  Pb53  1  0.83606270  0.16884552  0.83097259  1
  I  I54  1  0.16906594  0.00016988  0.16893395  1
  I  I55  1  0.16185901  0.00000062  0.50526192  1
  I  I56  1  0.17104613  -0.00048413  0.82393171  1
  I  I57  1  0.16333491  0.33677067  0.17160905  1
  I  I58  1  0.16538752  0.33333434  0.50031513  1
  I  I59  1  0.16393043  0.33132335  0.82925368  1
  I  I60  1  0.16372908  0.66255489  0.17156785  1
  I  I61  1  0.16523819  0.66674200  0.50077557  1
  I  I62  1  0.16814796  0.66927598  0.82925444  1
  I  I63  1  0.49740323  0.00349402  0.17130260  1
  I  I64  1  0.49923128  -0.00006074  0.49906399  1
  I  I65  1  0.49867579  -0.00339702  0.83054411  1
  I  I66  1  0.49933998  0.33132596  0.16802396  1
  I  I67  1  0.49775017  0.33633483  0.49891673  1
  I  I68  1  0.49949856  0.33319728  0.83347079  1
  I  I69  1  0.50043795  0.66662221  0.16743182  1
  I  I70  1  0.49785551  0.66353452  0.49918238  1
  I  I71  1  0.49179286  0.66943199  0.83236511  1
  I  I72  1  0.83175532  0.00023394  0.16546960  1
  I  I73  1  0.84101978  -0.00001348  0.50113986  1
  I  I74  1  0.83109481  0.00012244  0.83342619  1
  I  I75  1  0.83764936  0.33685015  0.16693534  1
  I  I76  1  0.83668549  0.33147811  0.49991829  1
  I  I77  1  0.83505965  0.33656296  0.83345948  1
  I  I78  1  0.83640114  0.66264057  0.16562377  1
  I  I79  1  0.83661880  0.66846839  0.50113200  1
  I  I80  1  0.83600458  0.66401000  0.83277476  1
  I  I81  1  0.16946917  0.16418204  -0.00261638  1
  I  I82  1  0.16418812  0.16556997  0.33678372  1
  I  I83  1  0.16389692  0.16928554  0.66506540  1
  I  I84  1  0.16357312  0.49926324  0.00220182  1
  I  I85  1  0.16381670  0.49940648  0.33506964  1
  I  I86  1  0.16732743  0.49993895  0.66358141  1
  I  I87  1  0.17095313  0.83572770  -0.00342292  1
  I  I88  1  0.16255107  0.83528860  0.33701471  1
  I  I89  1  0.16651591  0.83090790  0.66542198  1
  I  I90  1  0.49776292  0.16997187  0.00288399  1
  I  I91  1  0.49846867  0.16914535  0.33145259  1
  I  I92  1  0.50192728  0.16779623  0.66680421  1
  I  I93  1  0.49807348  0.49976783  -0.00013645  1
  I  I94  1  0.50117390  0.50046999  0.33633370  1
  I  I95  1  0.49495619  0.49874018  0.66294648  1
  I  I96  1  0.49196069  0.83038049  -0.00428177  1
  I  I97  1  0.50048321  0.83214361  0.33344111  1
  I  I98  1  0.49792971  0.83255537  0.66909588  1
  I  I99  1  0.83365259  0.16673105  -0.00004894  1
  I  I100  1  0.84081129  0.16674016  0.33739543  1
  I  I101  1  0.83376006  0.16722648  0.66289520  1
  I  I102  1  0.83994202  0.50070638  0.00059856  1
  I  I103  1  0.83469926  0.49970665  0.33159530  1
  I  I104  1  0.83383960  0.50095630  0.66793709  1
  I  I105  1  0.83305794  0.83266654  -0.00007018  1
  I  I106  1  0.83972614  0.83403381  0.33825905  1
  I  I107  1  0.83535772  0.83169905  0.66334306  1
  I  I108  1  0.00000350  0.16726929  0.16561715  1
  I  I109  1  0.00153245  0.16967664  0.50297372  1
  I  I110  1  0.00400278  0.16085958  0.83195602  1
  I  I111  1  0.00051757  0.49908651  0.17027766  1
  I  I112  1  0.00288456  0.50003542  0.49928337  1
  I  I113  1  -0.00223941  0.50205515  0.83125062  1
  I  I114  1  0.00016905  0.83533669  0.16208823  1
  I  I115  1  0.00166173  0.82996334  0.50605686  1
  I  I116  1  0.00331639  0.83421139  0.82935235  1
  I  I117  1  0.33530663  0.17051703  0.16935134  1
  I  I118  1  0.32968040  0.16545882  0.50203728  1
  I  I119  1  0.32948821  0.16757967  0.82606222  1
  I  I120  1  0.33064427  0.49836458  0.17019546  1
  I  I121  1  0.33087979  0.49993836  0.49444055  1
  I  I122  1  0.33317617  0.49863082  0.83526518  1
  I  I123  1  0.33325085  0.83083094  0.17137940  1
  I  I124  1  0.32978568  0.83490316  0.50220352  1
  I  I125  1  0.33138771  0.83546544  0.82633170  1
  I  I126  1  0.66399593  0.16970736  0.16858313  1
  I  I127  1  0.66904370  0.16601641  0.49752392  1
  I  I128  1  0.66686665  0.16642063  0.83247965  1
  I  I129  1  0.66914132  0.49862022  0.16631414  1
  I  I130  1  0.66533412  0.50026893  0.49994194  1
  I  I131  1  0.67029554  0.50203112  0.83624663  1
  I  I132  1  0.66677940  0.82995297  0.16769112  1
  I  I133  1  0.66908297  0.83400998  0.50190282  1
  I  I134  1  0.66506260  0.82965677  0.83123687  1
