# generated using pymatgen
data_Cs27Sn14Pb13I81
_symmetry_space_group_name_H-M   'P 1'
_cell_length_a   18.96763540
_cell_length_b   18.97251618
_cell_length_c   18.98718160
_cell_angle_alpha   90.00001425
_cell_angle_beta   90.00014260
_cell_angle_gamma   90.00229927
_symmetry_Int_Tables_number   1
_chemical_formula_structural   Cs27Sn14Pb13I81
_chemical_formula_sum   'Cs27 Sn14 Pb13 I81'
_cell_volume   6832.79873965
_cell_formula_units_Z   1
loop_
 _symmetry_equiv_pos_site_id
 _symmetry_equiv_pos_as_xyz
  1  'x, y, z'
loop_
 _atom_site_type_symbol
 _atom_site_label
 _atom_site_symmetry_multiplicity
 _atom_site_fract_x
 _atom_site_fract_y
 _atom_site_fract_z
 _atom_site_occupancy
  Cs  Cs0  1  -0.00276276  -0.00553432  0.00073909  1
  Cs  Cs1  1  -0.00015538  -0.00177324  0.33640506  1
  Cs  Cs2  1  0.00054617  -0.00212130  0.66243790  1
  Cs  Cs3  1  0.00268769  0.33567757  0.00002443  1
  Cs  Cs4  1  -0.00096753  0.33024084  0.33380318  1
  Cs  Cs5  1  0.00023387  0.33023856  0.66580024  1
  Cs  Cs6  1  0.00020935  0.66659171  0.00031236  1
  Cs  Cs7  1  -0.00005387  0.66805813  0.33293001  1
  Cs  Cs8  1  0.00031667  0.66862957  0.66639602  1
  Cs  Cs9  1  0.34381952  0.00857811  0.00025069  1
  Cs  Cs10  1  0.33614763  0.00064547  0.32889845  1
  Cs  Cs11  1  0.33494075  0.00337001  0.67073592  1
  Cs  Cs12  1  0.32724370  0.32766834  -0.00142147  1
  Cs  Cs13  1  0.33224276  0.33053757  0.33125183  1
  Cs  Cs14  1  0.33318264  0.33069091  0.66975645  1
  Cs  Cs15  1  0.32860013  0.66443427  0.00138621  1
  Cs  Cs16  1  0.33423503  0.66817622  0.33748574  1
  Cs  Cs17  1  0.33242595  0.66672782  0.66102094  1
  Cs  Cs18  1  0.66124436  0.00048327  -0.00238694  1
  Cs  Cs19  1  0.66611927  0.00136110  0.33158621  1
  Cs  Cs20  1  0.66471736  0.00008072  0.67170448  1
  Cs  Cs21  1  0.66793859  0.33474654  -0.00044399  1
  Cs  Cs22  1  0.66888296  0.33615628  0.33523264  1
  Cs  Cs23  1  0.66757376  0.33561515  0.66512203  1
  Cs  Cs24  1  0.66872461  0.66559303  -0.00080081  1
  Cs  Cs25  1  0.66504275  0.66392659  0.33341889  1
  Cs  Cs26  1  0.66448758  0.66529862  0.66745278  1
  Sn  Sn27  1  0.50012799  0.50037008  0.83466438  1
  Sn  Sn28  1  0.16550318  0.50014738  0.49984163  1
  Sn  Sn29  1  0.16709285  0.83356472  0.83357547  1
  Sn  Sn30  1  0.50039478  0.16673158  0.49979894  1
  Sn  Sn31  1  0.16636813  0.83344689  0.16656302  1
  Sn  Sn32  1  0.83442693  0.50098746  0.50001561  1
  Sn  Sn33  1  0.83328004  0.83232361  0.49933665  1
  Sn  Sn34  1  0.83299277  0.50003615  0.16660637  1
  Sn  Sn35  1  0.50018431  0.50015274  0.16541244  1
  Sn  Sn36  1  0.83358994  0.83334536  0.16749597  1
  Sn  Sn37  1  0.16596797  0.83260980  0.49985969  1
  Sn  Sn38  1  0.83309102  0.49925921  0.83336891  1
  Sn  Sn39  1  0.83344814  0.16660850  0.16559818  1
  Sn  Sn40  1  0.83381246  0.16735966  0.83417742  1
  Pb  Pb41  1  0.50060646  0.83079984  0.16657951  1
  Pb  Pb42  1  0.16906565  0.16607665  0.49991637  1
  Pb  Pb43  1  0.83209011  0.16629566  0.50006175  1
  Pb  Pb44  1  0.49681708  0.83020955  0.83347731  1
  Pb  Pb45  1  0.50261059  0.16957420  0.83178379  1
  Pb  Pb46  1  0.83428779  0.83289003  0.83327996  1
  Pb  Pb47  1  0.16350802  0.16371347  0.83353620  1
  Pb  Pb48  1  0.49994723  0.49867296  0.49992744  1
  Pb  Pb49  1  0.50036118  0.83570407  0.49998351  1
  Pb  Pb50  1  0.16371033  0.16336795  0.16661124  1
  Pb  Pb51  1  0.16615501  0.50148507  0.83110885  1
  Pb  Pb52  1  0.50281416  0.16978339  0.16819005  1
  Pb  Pb53  1  0.16623181  0.50169600  0.16894412  1
  I  I54  1  0.16077771  -0.00501915  0.17142697  1
  I  I55  1  0.16118390  -0.00397754  0.49990935  1
  I  I56  1  0.16345347  -0.00440596  0.82875799  1
  I  I57  1  0.16665748  0.33348176  0.16890962  1
  I  I58  1  0.16229485  0.33625717  0.50042987  1
  I  I59  1  0.16884117  0.33351977  0.83067848  1
  I  I60  1  0.16020844  0.66985017  0.16514157  1
  I  I61  1  0.16332241  0.66749572  0.50027641  1
  I  I62  1  0.16327261  0.66946288  0.83457371  1
  I  I63  1  0.49986497  0.00025676  0.16851653  1
  I  I64  1  0.50157353  0.00310438  0.49998264  1
  I  I65  1  0.50045516  0.00033780  0.83128594  1
  I  I66  1  0.50612677  0.33758943  0.16477270  1
  I  I67  1  0.50229203  0.33142660  0.49984099  1
  I  I68  1  0.50143806  0.33736999  0.83588197  1
  I  I69  1  0.50719716  0.66295610  0.16535159  1
  I  I70  1  0.49951401  0.66647443  0.50018218  1
  I  I71  1  0.50982675  0.66245413  0.83463452  1
  I  I72  1  0.83951352  -0.00088549  0.16796346  1
  I  I73  1  0.83700591  -0.00299114  0.49714321  1
  I  I74  1  0.83632771  0.00193428  0.83528495  1
  I  I75  1  0.82767329  0.33456409  0.16751097  1
  I  I76  1  0.83525698  0.33637256  0.49779716  1
  I  I77  1  0.82953012  0.33492493  0.83512098  1
  I  I78  1  0.83353037  0.66623184  0.16716486  1
  I  I79  1  0.83657602  0.66597639  0.49745340  1
  I  I80  1  0.83124487  0.66355145  0.83502226  1
  I  I81  1  0.16979294  0.16659537  0.00008588  1
  I  I82  1  0.16496679  0.16605560  0.33333602  1
  I  I83  1  0.16461381  0.16454917  0.66663291  1
  I  I84  1  0.16498380  0.50335975  0.00009151  1
  I  I85  1  0.16360815  0.50585098  0.33683514  1
  I  I86  1  0.16345005  0.50664884  0.66321682  1
  I  I87  1  0.15931858  0.83172173  0.00089618  1
  I  I88  1  0.16123455  0.82902280  0.33386021  1
  I  I89  1  0.16159366  0.82897659  0.66526896  1
  I  I90  1  0.49911924  0.16510324  0.00003157  1
  I  I91  1  0.50227041  0.16888973  0.33557033  1
  I  I92  1  0.50264712  0.16882588  0.66436822  1
  I  I93  1  0.51009109  0.50150235  0.00015902  1
  I  I94  1  0.50459747  0.49871788  0.33120417  1
  I  I95  1  0.50402859  0.49819447  0.66870678  1
  I  I96  1  0.50057082  0.83612381  0.00006954  1
  I  I97  1  0.49610151  0.83101595  0.33332284  1
  I  I98  1  0.50134533  0.83135138  0.66662735  1
  I  I99  1  0.83329642  0.16927328  0.00055022  1
  I  I100  1  0.83133344  0.16892267  0.33087672  1
  I  I101  1  0.83103109  0.17022248  0.66875588  1
  I  I102  1  0.82825202  0.50010031  0.00041061  1
  I  I103  1  0.83235761  0.50030365  0.33312712  1
  I  I104  1  0.83252441  0.49979754  0.66643134  1
  I  I105  1  0.83835894  0.83068926  0.00277393  1
  I  I106  1  0.84087546  0.83097724  0.33313544  1
  I  I107  1  0.83794325  0.83098258  0.66398313  1
  I  I108  1  -0.00468029  0.17360942  0.16529874  1
  I  I109  1  -0.00022456  0.16683398  0.50021880  1
  I  I110  1  -0.00438625  0.17550880  0.83518134  1
  I  I111  1  -0.00374128  0.49882483  0.16383377  1
  I  I112  1  -0.00183171  0.50362227  0.50013516  1
  I  I113  1  -0.00353210  0.49784541  0.83623568  1
  I  I114  1  -0.00144804  0.83118759  0.16766143  1
  I  I115  1  -0.00043812  0.82997110  0.49927516  1
  I  I116  1  0.00222229  0.83102285  0.83270281  1
  I  I117  1  0.33361996  0.16648661  0.16865337  1
  I  I118  1  0.33655352  0.16864563  0.50046812  1
  I  I119  1  0.33353833  0.16686820  0.83110779  1
  I  I120  1  0.33555351  0.50285948  0.16461709  1
  I  I121  1  0.33089807  0.50422082  0.49994331  1
  I  I122  1  0.33561375  0.50348160  0.83563822  1
  I  I123  1  0.33036962  0.82975953  0.16931081  1
  I  I124  1  0.32982552  0.82840776  0.49925614  1
  I  I125  1  0.32867948  0.83085109  0.83097816  1
  I  I126  1  0.67096523  0.16081459  0.16372986  1
  I  I127  1  0.66485712  0.16859504  0.49969765  1
  I  I128  1  0.67049419  0.16598517  0.83653060  1
  I  I129  1  0.66912602  0.50209707  0.16899317  1
  I  I130  1  0.67003629  0.50261724  0.49968687  1
  I  I131  1  0.66866829  0.49707487  0.83127054  1
  I  I132  1  0.67068746  0.83468375  0.17214198  1
  I  I133  1  0.67038125  0.82895424  0.49472105  1
  I  I134  1  0.66681710  0.83577362  0.83255711  1
