# generated using pymatgen
data_Cs27Sn13Pb14I81
_symmetry_space_group_name_H-M   'P 1'
_cell_length_a   18.97647242
_cell_length_b   18.97230829
_cell_length_c   18.98041468
_cell_angle_alpha   90.00086327
_cell_angle_beta   90.00099041
_cell_angle_gamma   90.00061806
_symmetry_Int_Tables_number   1
_chemical_formula_structural   Cs27Sn13Pb14I81
_chemical_formula_sum   'Cs27 Sn13 Pb14 I81'
_cell_volume   6833.47095488
_cell_formula_units_Z   1
loop_
 _symmetry_equiv_pos_site_id
 _symmetry_equiv_pos_as_xyz
  1  'x, y, z'
loop_
 _atom_site_type_symbol
 _atom_site_label
 _atom_site_symmetry_multiplicity
 _atom_site_fract_x
 _atom_site_fract_y
 _atom_site_fract_z
 _atom_site_occupancy
  Cs  Cs0  1  -0.00012275  -0.00032967  0.00167751  1
  Cs  Cs1  1  0.00081352  -0.00046151  0.33302743  1
  Cs  Cs2  1  0.00006921  0.00020220  0.66532514  1
  Cs  Cs3  1  -0.00081852  0.34222635  -0.00001662  1
  Cs  Cs4  1  0.00068729  0.33266896  0.33454009  1
  Cs  Cs5  1  0.00033686  0.33302130  0.66549948  1
  Cs  Cs6  1  -0.00074501  0.65952342  -0.00032381  1
  Cs  Cs7  1  -0.00021696  0.66853507  0.33401804  1
  Cs  Cs8  1  -0.00049216  0.66638078  0.66687083  1
  Cs  Cs9  1  0.33519108  -0.00089830  0.00044762  1
  Cs  Cs10  1  0.33004246  0.00254561  0.32708978  1
  Cs  Cs11  1  0.33095574  0.00174035  0.66908693  1
  Cs  Cs12  1  0.33253099  0.33491933  0.00258728  1
  Cs  Cs13  1  0.33391041  0.33265290  0.32726818  1
  Cs  Cs14  1  0.33566462  0.33239566  0.66704338  1
  Cs  Cs15  1  0.33181890  0.66751595  0.00146423  1
  Cs  Cs16  1  0.34116118  0.66520178  0.33582876  1
  Cs  Cs17  1  0.33386797  0.66518716  0.66502073  1
  Cs  Cs18  1  0.66488704  0.00008790  -0.00069999  1
  Cs  Cs19  1  0.66851756  -0.00120599  0.33230525  1
  Cs  Cs20  1  0.66779629  -0.00112427  0.66742414  1
  Cs  Cs21  1  0.66826529  0.33295731  0.00034688  1
  Cs  Cs22  1  0.66651367  0.33587940  0.33423494  1
  Cs  Cs23  1  0.66423348  0.33162481  0.66598055  1
  Cs  Cs24  1  0.66832190  0.66702878  -0.00100560  1
  Cs  Cs25  1  0.65756886  0.66407599  0.33648342  1
  Cs  Cs26  1  0.66552596  0.67513026  0.66512568  1
  Sn  Sn27  1  0.16616442  0.83375726  0.83352046  1
  Sn  Sn28  1  0.50017793  0.49946747  0.83317814  1
  Sn  Sn29  1  0.16637510  0.16647783  0.83346316  1
  Sn  Sn30  1  0.83364840  0.16663834  0.83343515  1
  Sn  Sn31  1  0.16651029  0.83256722  0.49989734  1
  Sn  Sn32  1  0.83257702  0.16720570  0.49996378  1
  Sn  Sn33  1  0.83371225  0.16614240  0.16662618  1
  Sn  Sn34  1  0.50000670  0.16765536  0.83256659  1
  Sn  Sn35  1  0.50048822  0.16629909  0.50030446  1
  Sn  Sn36  1  0.16620001  0.50042448  0.50009416  1
  Sn  Sn37  1  0.16554328  0.83311541  0.16660714  1
  Sn  Sn38  1  0.83381012  0.49969333  0.50036722  1
  Sn  Sn39  1  0.83394514  0.83364829  0.16693386  1
  Pb  Pb40  1  0.50265003  0.16667614  0.16626409  1
  Pb  Pb41  1  0.16822587  0.49992061  0.83131103  1
  Pb  Pb42  1  0.16407307  0.16523391  0.16344574  1
  Pb  Pb43  1  0.49767405  0.83388719  0.83326794  1
  Pb  Pb44  1  0.16668331  0.16671246  0.50134233  1
  Pb  Pb45  1  0.16663301  0.50310242  0.16981529  1
  Pb  Pb46  1  0.50017845  0.49977656  0.16331703  1
  Pb  Pb47  1  0.83491934  0.83363070  0.49813611  1
  Pb  Pb48  1  0.49687690  0.83705658  0.50008809  1
  Pb  Pb49  1  0.50036486  0.83346695  0.16662054  1
  Pb  Pb50  1  0.83326074  0.50033200  0.16941734  1
  Pb  Pb51  1  0.83100536  0.49789427  0.83046379  1
  Pb  Pb52  1  0.49999213  0.49775018  0.50171516  1
  Pb  Pb53  1  0.83581045  0.83533400  0.83551833  1
  I  I54  1  0.16483076  -0.00307304  0.17241459  1
  I  I55  1  0.16665858  -0.00242245  0.49928919  1
  I  I56  1  0.16822933  0.00046821  0.83033427  1
  I  I57  1  0.16607519  0.33340862  0.16673901  1
  I  I58  1  0.16506044  0.33524438  0.50403072  1
  I  I59  1  0.16506097  0.33032044  0.83008613  1
  I  I60  1  0.15904566  0.67138491  0.15964700  1
  I  I61  1  0.16035614  0.66703338  0.50230674  1
  I  I62  1  0.16923108  0.66947583  0.83482455  1
  I  I63  1  0.49778902  0.00028764  0.16495503  1
  I  I64  1  0.50613519  0.00478340  0.50731390  1
  I  I65  1  0.50152932  0.00382380  0.83012012  1
  I  I66  1  0.50074813  0.33285666  0.16923070  1
  I  I67  1  0.49970774  0.32980615  0.50348406  1
  I  I68  1  0.49793480  0.33088827  0.82851097  1
  I  I69  1  0.50192195  0.66671457  0.16596344  1
  I  I70  1  0.50237119  0.66662067  0.50155748  1
  I  I71  1  0.49741356  0.66420843  0.83312025  1
  I  I72  1  0.83738133  0.00108352  0.16873842  1
  I  I73  1  0.83146546  0.00336991  0.50197010  1
  I  I74  1  0.82905008  0.00417953  0.82797930  1
  I  I75  1  0.83196842  0.33007581  0.16449653  1
  I  I76  1  0.83615305  0.33169729  0.49868985  1
  I  I77  1  0.83876450  0.32895270  0.83794922  1
  I  I78  1  0.83909720  0.66981701  0.16720519  1
  I  I79  1  0.83659156  0.66440386  0.49843321  1
  I  I80  1  0.83249924  0.66661844  0.83368143  1
  I  I81  1  0.16898160  0.16120839  -0.00475303  1
  I  I82  1  0.16732758  0.16565409  0.33324377  1
  I  I83  1  0.16325237  0.16140559  0.66947338  1
  I  I84  1  0.16837985  0.50032618  -0.00018691  1
  I  I85  1  0.16322551  0.50241184  0.33793079  1
  I  I86  1  0.16320394  0.50526583  0.66360593  1
  I  I87  1  0.16417806  0.84019668  -0.00023092  1
  I  I88  1  0.16200483  0.82988506  0.33340888  1
  I  I89  1  0.16789348  0.83442418  0.66673697  1
  I  I90  1  0.50001016  0.16945431  -0.00365272  1
  I  I91  1  0.50349145  0.16617998  0.33620724  1
  I  I92  1  0.50399253  0.16972828  0.66767175  1
  I  I93  1  0.49871469  0.49203151  -0.00463826  1
  I  I94  1  0.49980190  0.49935474  0.33382238  1
  I  I95  1  0.49875397  0.49546017  0.66931222  1
  I  I96  1  0.49755018  0.83520778  -0.00023211  1
  I  I97  1  0.49766953  0.83414877  0.33358136  1
  I  I98  1  0.49881834  0.83210344  0.66663796  1
  I  I99  1  0.83296911  0.16066186  -0.00060749  1
  I  I100  1  0.82911525  0.16630233  0.33424966  1
  I  I101  1  0.83285844  0.17099669  0.66661194  1
  I  I102  1  0.83202514  0.49910619  -0.00026685  1
  I  I103  1  0.83718524  0.49342817  0.33730885  1
  I  I104  1  0.83792834  0.49447626  0.66273393  1
  I  I105  1  0.83843865  0.83923150  0.00348252  1
  I  I106  1  0.84087594  0.84053570  0.33041202  1
  I  I107  1  0.83520390  0.83417529  0.66656115  1
  I  I108  1  -0.00396750  0.16388611  0.16935690  1
  I  I109  1  -0.00275240  0.16713126  0.50120932  1
  I  I110  1  -0.00024876  0.16069869  0.83168610  1
  I  I111  1  -0.00003017  0.49755330  0.16340775  1
  I  I112  1  -0.00013989  0.49710784  0.50092684  1
  I  I113  1  -0.00011193  0.49901818  0.83364500  1
  I  I114  1  0.00063561  0.83940129  0.16736492  1
  I  I115  1  0.00322777  0.83515581  0.50206260  1
  I  I116  1  0.00400384  0.83895577  0.83027573  1
  I  I117  1  0.33306485  0.16485827  0.16761119  1
  I  I118  1  0.33537055  0.16590254  0.50668380  1
  I  I119  1  0.33345712  0.16585617  0.82698811  1
  I  I120  1  0.33312590  0.50130316  0.16965052  1
  I  I121  1  0.33088827  0.50398725  0.50215969  1
  I  I122  1  0.33581740  0.49359517  0.82988663  1
  I  I123  1  0.32964435  0.83325513  0.16611675  1
  I  I124  1  0.32856863  0.82768154  0.49837519  1
  I  I125  1  0.32925715  0.83965033  0.83541939  1
  I  I126  1  0.67091126  0.16012282  0.16298428  1
  I  I127  1  0.66811809  0.17203236  0.50436894  1
  I  I128  1  0.66695049  0.17144008  0.83267388  1
  I  I129  1  0.66700814  0.50232689  0.16969085  1
  I  I130  1  0.66921102  0.49607282  0.49996755  1
  I  I131  1  0.66337390  0.49330304  0.83182331  1
  I  I132  1  0.67024363  0.83873714  0.16669189  1
  I  I133  1  0.66674214  0.83049695  0.49804676  1
  I  I134  1  0.66691933  0.83373365  0.83509960  1
