# generated using pymatgen
data_Cs27Sn14Pb13I81
_symmetry_space_group_name_H-M   'P 1'
_cell_length_a   18.97115682
_cell_length_b   18.97115682
_cell_length_c   18.98414853
_cell_angle_alpha   90.00128913
_cell_angle_beta   89.99871064
_cell_angle_gamma   90.00105590
_symmetry_Int_Tables_number   1
_chemical_formula_structural   Cs27Sn14Pb13I81
_chemical_formula_sum   'Cs27 Sn14 Pb13 I81'
_cell_volume   6832.48600539
_cell_formula_units_Z   1
loop_
 _symmetry_equiv_pos_site_id
 _symmetry_equiv_pos_as_xyz
  1  'x, y, z'
loop_
 _atom_site_type_symbol
 _atom_site_label
 _atom_site_symmetry_multiplicity
 _atom_site_fract_x
 _atom_site_fract_y
 _atom_site_fract_z
 _atom_site_occupancy
  Cs  Cs0  1  -0.00282384  -0.00089759  -0.00006201  1
  Cs  Cs1  1  0.00137282  0.00071394  0.33456810  1
  Cs  Cs2  1  0.00193738  -0.00122818  0.66564815  1
  Cs  Cs3  1  0.00115591  0.33448927  0.00000002  1
  Cs  Cs4  1  0.00631727  0.33056152  0.32953862  1
  Cs  Cs5  1  -0.00277183  0.33965063  0.67046122  1
  Cs  Cs6  1  0.00237746  0.66671117  0.00010838  1
  Cs  Cs7  1  -0.00244489  0.66832471  0.33177637  1
  Cs  Cs8  1  -0.00094646  0.66445355  0.66775496  1
  Cs  Cs9  1  0.33680510  -0.00207107  -0.00477797  1
  Cs  Cs10  1  0.33026372  -0.00028642  0.33837682  1
  Cs  Cs11  1  0.33084342  0.00008471  0.66712794  1
  Cs  Cs12  1  0.33337779  0.33571083  -0.00010834  1
  Cs  Cs13  1  0.33112037  0.33238685  0.33224497  1
  Cs  Cs14  1  0.33499156  0.33088820  0.66822363  1
  Cs  Cs15  1  0.33224464  0.66557802  -0.00000007  1
  Cs  Cs16  1  0.33475942  0.66826084  0.33772957  1
  Cs  Cs17  1  0.33492743  0.66809261  0.66227047  1
  Cs  Cs18  1  0.66694829  0.00028156  0.00000013  1
  Cs  Cs19  1  0.66815805  0.00069475  0.33180613  1
  Cs  Cs20  1  0.66736158  0.00149136  0.66819395  1
  Cs  Cs21  1  0.66576920  0.33050953  0.00006207  1
  Cs  Cs22  1  0.66543846  0.33527071  0.33435165  1
  Cs  Cs23  1  0.66738068  0.33470603  0.66543201  1
  Cs  Cs24  1  0.66459562  0.67013846  0.00477791  1
  Cs  Cs25  1  0.66675132  0.66417680  0.33287203  1
  Cs  Cs26  1  0.66638008  0.66359687  0.66162332  1
  Sn  Sn27  1  0.16626395  0.83361394  0.16597819  1
  Sn  Sn28  1  0.50028056  0.49959730  0.83402187  1
  Sn  Sn29  1  0.16583754  0.83401198  0.83427448  1
  Sn  Sn30  1  0.50067844  0.16644567  0.49998365  1
  Sn  Sn31  1  0.49947061  0.16752498  0.83341830  1
  Sn  Sn32  1  0.16650567  0.49983896  0.50000003  1
  Sn  Sn33  1  0.50067862  0.49917093  0.16572556  1
  Sn  Sn34  1  0.16673331  0.16637363  0.83364124  1
  Sn  Sn35  1  0.83300200  0.16633536  0.49999999  1
  Sn  Sn36  1  0.83311236  0.83401175  0.50001637  1
  Sn  Sn37  1  0.83304027  0.50006668  0.16635875  1
  Sn  Sn38  1  0.83419165  0.83280392  0.16658174  1
  Sn  Sn39  1  0.83381848  0.83320230  0.83338577  1
  Sn  Sn40  1  0.49986900  0.16715180  0.16661419  1
  Pb  Pb41  1  0.49992490  0.83309754  0.83321186  1
  Pb  Pb42  1  0.16942594  0.16394025  0.16395502  1
  Pb  Pb43  1  0.83512888  0.49946720  0.49747585  1
  Pb  Pb44  1  0.16613388  0.16846223  0.50252406  1
  Pb  Pb45  1  0.83170790  0.16654537  0.16855817  1
  Pb  Pb46  1  0.16425310  0.83172674  0.50045099  1
  Pb  Pb47  1  0.83060689  0.50275926  0.83604493  1
  Pb  Pb48  1  0.50289991  0.83623322  0.50000001  1
  Pb  Pb49  1  0.16724112  0.50220376  0.16810668  1
  Pb  Pb50  1  0.49839334  0.49758643  0.49954901  1
  Pb  Pb51  1  0.49976422  0.83325820  0.16678815  1
  Pb  Pb52  1  0.16887041  0.50057445  0.83189334  1
  Pb  Pb53  1  0.83321209  0.16504122  0.83144184  1
  I  I54  1  0.16043030  -0.00386839  0.16718659  1
  I  I55  1  0.16877642  0.00003682  0.49861550  1
  I  I56  1  0.17005639  -0.00054486  0.83554196  1
  I  I57  1  0.16363598  0.33325285  0.16680200  1
  I  I58  1  0.16531508  0.33577114  0.50033486  1
  I  I59  1  0.17027844  0.33101687  0.82997144  1
  I  I60  1  0.16657806  0.67008398  0.16051377  1
  I  I61  1  0.16655265  0.66427475  0.50136336  1
  I  I62  1  0.16367354  0.66981456  0.83584251  1
  I  I63  1  0.50056206  0.00294666  0.16536093  1
  I  I64  1  0.49923923  0.00456316  0.50014916  1
  I  I65  1  0.49915896  0.00306325  0.83402461  1
  I  I66  1  0.50599840  0.33355799  0.16591217  1
  I  I67  1  0.50651577  0.32965572  0.50098344  1
  I  I68  1  0.49416662  0.33190216  0.83393478  1
  I  I69  1  0.50119273  0.66379068  0.16117501  1
  I  I70  1  0.49950943  0.66635814  0.50051525  1
  I  I71  1  0.50020015  0.66399174  0.83960664  1
  I  I72  1  0.83500529  -0.00311170  0.16553198  1
  I  I73  1  0.82938582  -0.00070499  0.49775597  1
  I  I74  1  0.83189460  -0.00329959  0.83834354  1
  I  I75  1  0.83002512  0.33571403  0.16956183  1
  I  I76  1  0.82943002  0.33064154  0.49933533  1
  I  I77  1  0.83619869  0.33348913  0.83241283  1
  I  I78  1  0.83025162  0.66785502  0.16879117  1
  I  I79  1  0.83644218  0.66935955  0.50146022  1
  I  I80  1  0.83873363  0.67089002  0.82806037  1
  I  I81  1  0.17146908  0.16627165  -0.00392072  1
  I  I82  1  0.16813146  0.16610384  0.33328311  1
  I  I83  1  0.17343716  0.15960428  0.67006236  1
  I  I84  1  0.16568139  0.49901443  -0.00000003  1
  I  I85  1  0.16817259  0.50101811  0.33559983  1
  I  I86  1  0.16768466  0.50150625  0.66440011  1
  I  I87  1  0.15853840  0.83606378  -0.00064422  1
  I  I88  1  0.16341803  0.83074687  0.33110863  1
  I  I89  1  0.16367722  0.83595905  0.66967687  1
  I  I90  1  0.49561791  0.17062813  -0.00045124  1
  I  I91  1  0.50582177  0.17002828  0.33322785  1
  I  I92  1  0.49993681  0.16989974  0.66737636  1
  I  I93  1  0.50273045  0.49187160  0.00064423  1
  I  I94  1  0.50262577  0.49701044  0.33032311  1
  I  I95  1  0.49741337  0.49675169  0.66889139  1
  I  I96  1  0.50472514  0.83805854  0.00000002  1
  I  I97  1  0.49838927  0.83281496  0.33327283  1
  I  I98  1  0.49948129  0.83172197  0.66672721  1
  I  I99  1  0.83192371  0.16525714  -0.00000000  1
  I  I100  1  0.82767743  0.16120190  0.33645784  1
  I  I101  1  0.82786837  0.16101051  0.66354212  1
  I  I102  1  0.83293802  0.50480210  0.00392072  1
  I  I103  1  0.82627102  0.50677060  0.32993764  1
  I  I104  1  0.83277078  0.50146488  0.66671690  1
  I  I105  1  0.83729483  0.82895142  0.00045121  1
  I  I106  1  0.83656613  0.83326988  0.33262360  1
  I  I107  1  0.83669510  0.83915527  0.66677215  1
  I  I108  1  0.00015576  0.16953216  0.16758696  1
  I  I109  1  -0.00269181  0.16276338  0.50066492  1
  I  I110  1  0.00238071  0.16335836  0.83043830  1
  I  I111  1  -0.00231646  0.50361170  0.17002835  1
  I  I112  1  0.00243775  0.49864854  0.49966521  1
  I  I113  1  -0.00008047  0.49696918  0.83319832  1
  I  I114  1  -0.00143121  0.82750004  0.16606515  1
  I  I115  1  -0.00367759  0.83984910  0.49901650  1
  I  I116  1  0.00022468  0.83933195  0.83408790  1
  I  I117  1  0.33755666  0.17206692  0.17193976  1
  I  I118  1  0.33602618  0.16977569  0.49853990  1
  I  I119  1  0.33452170  0.16358504  0.83120853  1
  I  I120  1  0.33648123  0.49700710  0.16415765  1
  I  I121  1  0.33094139  0.49988602  0.49863650  1
  I  I122  1  0.33675066  0.49991172  0.83948622  1
  I  I123  1  0.33065834  0.83353322  0.16039365  1
  I  I124  1  0.33302473  0.83284251  0.49948426  1
  I  I125  1  0.33045738  0.83452576  0.83882515  1
  I  I126  1  0.66336708  0.16522816  0.16165651  1
  I  I127  1  0.66596169  0.16271885  0.50224376  1
  I  I128  1  0.66355494  0.16833864  0.83446809  1
  I  I129  1  0.66612181  0.50338941  0.16445812  1
  I  I130  1  0.66670351  0.50210963  0.50138467  1
  I  I131  1  0.66279833  0.49376375  0.83281315  1
  I  I132  1  0.66972988  0.83249250  0.16597514  1
  I  I133  1  0.67122984  0.83257305  0.49985117  1
  I  I134  1  0.66961333  0.83389533  0.83463894  1
