# generated using pymatgen
data_Cs27Sn13Pb14I81
_symmetry_space_group_name_H-M   'P 1'
_cell_length_a   18.97610648
_cell_length_b   18.97884410
_cell_length_c   18.97547397
_cell_angle_alpha   90.00059140
_cell_angle_beta   89.99899295
_cell_angle_gamma   90.00022561
_symmetry_Int_Tables_number   1
_chemical_formula_structural   Cs27Sn13Pb14I81
_chemical_formula_sum   'Cs27 Sn13 Pb14 I81'
_cell_volume   6833.91384236
_cell_formula_units_Z   1
loop_
 _symmetry_equiv_pos_site_id
 _symmetry_equiv_pos_as_xyz
  1  'x, y, z'
loop_
 _atom_site_type_symbol
 _atom_site_label
 _atom_site_symmetry_multiplicity
 _atom_site_fract_x
 _atom_site_fract_y
 _atom_site_fract_z
 _atom_site_occupancy
  Cs  Cs0  1  -0.00246564  -0.00096960  0.00486320  1
  Cs  Cs1  1  -0.00055901  -0.00160694  0.32373356  1
  Cs  Cs2  1  0.00369456  -0.00165792  0.66868619  1
  Cs  Cs3  1  0.00037752  0.33329494  0.00021221  1
  Cs  Cs4  1  -0.00171769  0.33342061  0.33510054  1
  Cs  Cs5  1  0.00018237  0.33475112  0.66558836  1
  Cs  Cs6  1  -0.00136051  0.66764956  -0.00058642  1
  Cs  Cs7  1  -0.00156651  0.66626676  0.33186411  1
  Cs  Cs8  1  0.00027804  0.66602403  0.66741473  1
  Cs  Cs9  1  0.33219565  -0.00074718  0.00160526  1
  Cs  Cs10  1  0.33561526  0.00177186  0.33511999  1
  Cs  Cs11  1  0.33112829  -0.00217479  0.66469109  1
  Cs  Cs12  1  0.34135755  0.33588478  0.00713782  1
  Cs  Cs13  1  0.33381302  0.33519172  0.32523628  1
  Cs  Cs14  1  0.33067563  0.33505021  0.66872434  1
  Cs  Cs15  1  0.33567951  0.66468637  0.00093194  1
  Cs  Cs16  1  0.33361497  0.66590880  0.33394407  1
  Cs  Cs17  1  0.33287783  0.66756626  0.66652224  1
  Cs  Cs18  1  0.67012984  0.00377264  0.00087773  1
  Cs  Cs19  1  0.66425474  0.00601942  0.33323927  1
  Cs  Cs20  1  0.66419784  0.00365497  0.66548642  1
  Cs  Cs21  1  0.65809307  0.32930583  -0.00101801  1
  Cs  Cs22  1  0.66910443  0.32625152  0.33649337  1
  Cs  Cs23  1  0.66771920  0.32558520  0.66666532  1
  Cs  Cs24  1  0.66675180  0.66666493  -0.00023372  1
  Cs  Cs25  1  0.66855157  0.66766050  0.33554763  1
  Cs  Cs26  1  0.66801463  0.66701782  0.66661713  1
  Sn  Sn27  1  0.50012654  0.83311042  0.83420084  1
  Sn  Sn28  1  0.83363534  0.50036877  0.83422328  1
  Sn  Sn29  1  0.83333517  0.83267493  0.83227654  1
  Sn  Sn30  1  0.16664900  0.16694670  0.83312652  1
  Sn  Sn31  1  0.16769951  0.50006625  0.50067547  1
  Sn  Sn32  1  0.49955932  0.49997340  0.50055727  1
  Sn  Sn33  1  0.16651249  0.83317376  0.83293018  1
  Sn  Sn34  1  0.16547316  0.83331410  0.50042031  1
  Sn  Sn35  1  0.16646139  0.16665380  0.50052216  1
  Sn  Sn36  1  0.16620653  0.49990672  0.83301277  1
  Sn  Sn37  1  0.83421139  0.83332140  0.50082940  1
  Sn  Sn38  1  0.83313784  0.50006418  0.16535208  1
  Sn  Sn39  1  0.50010377  0.83294727  0.16595781  1
  Pb  Pb40  1  0.49984968  0.16370342  0.16662452  1
  Pb  Pb41  1  0.50028980  0.50172831  0.83153280  1
  Pb  Pb42  1  0.49678707  0.17007998  0.50038305  1
  Pb  Pb43  1  0.83372835  0.50134290  0.50103584  1
  Pb  Pb44  1  0.49990372  0.83222979  0.50051801  1
  Pb  Pb45  1  0.16863081  0.83299150  0.16660745  1
  Pb  Pb46  1  0.16660750  0.16678738  0.16637248  1
  Pb  Pb47  1  0.83349666  0.17024906  0.16630382  1
  Pb  Pb48  1  0.49673035  0.16345048  0.83308481  1
  Pb  Pb49  1  0.83119289  0.83214098  0.16643485  1
  Pb  Pb50  1  0.83575655  0.16665458  0.83324802  1
  Pb  Pb51  1  0.50298913  0.50181132  0.16937859  1
  Pb  Pb52  1  0.16484696  0.50027836  0.16634201  1
  Pb  Pb53  1  0.83658196  0.16279654  0.50035298  1
  I  I54  1  0.16699113  -0.00027564  0.16685371  1
  I  I55  1  0.16278511  -0.00122339  0.50706501  1
  I  I56  1  0.16791402  -0.00145189  0.82684002  1
  I  I57  1  0.16593580  0.33358442  0.16706878  1
  I  I58  1  0.17106693  0.33429013  0.50674582  1
  I  I59  1  0.16042083  0.33463032  0.82567342  1
  I  I60  1  0.16712929  0.66670811  0.16811303  1
  I  I61  1  0.16711731  0.66689544  0.50566715  1
  I  I62  1  0.16580741  0.66706611  0.82745781  1
  I  I63  1  0.50041385  -0.00443150  0.16398227  1
  I  I64  1  0.49992581  -0.00001934  0.49877767  1
  I  I65  1  0.50140552  -0.00508233  0.83553691  1
  I  I66  1  0.50057690  0.33362962  0.16789361  1
  I  I67  1  0.49709519  0.33795771  0.50013535  1
  I  I68  1  0.50041031  0.33344150  0.83206676  1
  I  I69  1  0.49921198  0.66941568  0.16245675  1
  I  I70  1  0.49353079  0.66463720  0.50035510  1
  I  I71  1  0.49523243  0.67001412  0.83518142  1
  I  I72  1  0.83211321  -0.00017457  0.16722937  1
  I  I73  1  0.83572348  -0.00538239  0.50615795  1
  I  I74  1  0.83366285  -0.00382762  0.82933916  1
  I  I75  1  0.83461761  0.33830877  0.16215951  1
  I  I76  1  0.83295632  0.33327925  0.49868190  1
  I  I77  1  0.83852756  0.33680672  0.83657777  1
  I  I78  1  0.83359819  0.66440546  0.16535404  1
  I  I79  1  0.83849818  0.66942316  0.50129800  1
  I  I80  1  0.83851490  0.66748175  0.83335856  1
  I  I81  1  0.16567066  0.16479997  -0.00381690  1
  I  I82  1  0.16675418  0.16624321  0.33692939  1
  I  I83  1  0.16659127  0.16583252  0.66680192  1
  I  I84  1  0.16430035  0.50156042  -0.00386652  1
  I  I85  1  0.16882428  0.50045162  0.33684304  1
  I  I86  1  0.16476203  0.50104614  0.66702168  1
  I  I87  1  0.16395090  0.83337582  -0.00396037  1
  I  I88  1  0.16367793  0.83310750  0.33699954  1
  I  I89  1  0.16810629  0.83301500  0.66730208  1
  I  I90  1  0.49657665  0.16998368  -0.00029234  1
  I  I91  1  0.49752169  0.16380230  0.33366443  1
  I  I92  1  0.50286439  0.16372222  0.66666854  1
  I  I93  1  0.49733537  0.50006463  -0.00014963  1
  I  I94  1  0.49346558  0.50442582  0.33691934  1
  I  I95  1  0.49856163  0.50486417  0.66385382  1
  I  I96  1  0.49890906  0.83139907  -0.00173305  1
  I  I97  1  0.49981015  0.83028938  0.33185351  1
  I  I98  1  0.49899568  0.83135892  0.66952918  1
  I  I99  1  0.83765239  0.16082254  -0.00039112  1
  I  I100  1  0.83595474  0.16681103  0.33355789  1
  I  I101  1  0.83073736  0.17212159  0.66667272  1
  I  I102  1  0.83992928  0.50760305  -0.00221419  1
  I  I103  1  0.83341451  0.50334666  0.33215595  1
  I  I104  1  0.83576518  0.50384524  0.66980962  1
  I  I105  1  0.83662881  0.83128413  -0.00352831  1
  I  I106  1  0.83724740  0.83024161  0.33595945  1
  I  I107  1  0.83318217  0.82650876  0.66798114  1
  I  I108  1  0.00014051  0.16392014  0.16725022  1
  I  I109  1  0.00454843  0.17353562  0.50522036  1
  I  I110  1  0.00403096  0.16289734  0.82824953  1
  I  I111  1  -0.00290728  0.50292883  0.16735067  1
  I  I112  1  0.00332127  0.49875376  0.50090065  1
  I  I113  1  0.00106605  0.50475989  0.83142004  1
  I  I114  1  -0.00029472  0.83307467  0.16579955  1
  I  I115  1  0.00131317  0.83058457  0.50742424  1
  I  I116  1  0.00065831  0.83218299  0.82812569  1
  I  I117  1  0.33317782  0.16762198  0.16671795  1
  I  I118  1  0.32867791  0.15895115  0.50498818  1
  I  I119  1  0.32844678  0.16722844  0.82796915  1
  I  I120  1  0.33370844  0.50001492  0.16531733  1
  I  I121  1  0.33086824  0.50351516  0.50538676  1
  I  I122  1  0.33005205  0.50164202  0.82967434  1
  I  I123  1  0.33635293  0.83215334  0.16272468  1
  I  I124  1  0.32998713  0.83440372  0.50311135  1
  I  I125  1  0.33183299  0.83332176  0.83253312  1
  I  I126  1  0.66664222  0.16620562  0.16725760  1
  I  I127  1  0.66673882  0.16710736  0.49806057  1
  I  I128  1  0.66658457  0.16709408  0.83476282  1
  I  I129  1  0.67038836  0.50348507  0.16122530  1
  I  I130  1  0.66518427  0.50611690  0.49916685  1
  I  I131  1  0.66959921  0.50692807  0.83497962  1
  I  I132  1  0.66371069  0.83011873  0.16333621  1
  I  I133  1  0.66893008  0.82791094  0.50302638  1
  I  I134  1  0.66772711  0.82649944  0.83265470  1
