# generated using pymatgen
data_Cs27Sn13Pb14I81
_symmetry_space_group_name_H-M   'P 1'
_cell_length_a   18.98305700
_cell_length_b   18.97158601
_cell_length_c   18.97633913
_cell_angle_alpha   89.99939950
_cell_angle_beta   90.00052777
_cell_angle_gamma   90.00053927
_symmetry_Int_Tables_number   1
_chemical_formula_structural   Cs27Sn13Pb14I81
_chemical_formula_sum   'Cs27 Sn13 Pb14 I81'
_cell_volume   6834.11408147
_cell_formula_units_Z   1
loop_
 _symmetry_equiv_pos_site_id
 _symmetry_equiv_pos_as_xyz
  1  'x, y, z'
loop_
 _atom_site_type_symbol
 _atom_site_label
 _atom_site_symmetry_multiplicity
 _atom_site_fract_x
 _atom_site_fract_y
 _atom_site_fract_z
 _atom_site_occupancy
  Cs  Cs0  1  -0.00060662  -0.00067354  0.00106025  1
  Cs  Cs1  1  -0.00021763  -0.00451837  0.33256386  1
  Cs  Cs2  1  0.00222999  0.00301205  0.66706007  1
  Cs  Cs3  1  0.00031988  0.33385605  -0.00078758  1
  Cs  Cs4  1  0.00325231  0.33194146  0.33136197  1
  Cs  Cs5  1  0.00009500  0.33368711  0.66696636  1
  Cs  Cs6  1  0.00169151  0.66496332  0.00214205  1
  Cs  Cs7  1  -0.00164792  0.67513229  0.33522019  1
  Cs  Cs8  1  -0.00366580  0.66291400  0.65877869  1
  Cs  Cs9  1  0.33339755  -0.00230941  -0.00154147  1
  Cs  Cs10  1  0.33048031  0.00004414  0.33395513  1
  Cs  Cs11  1  0.33379889  -0.00438862  0.66735565  1
  Cs  Cs12  1  0.33283002  0.33366124  0.00101015  1
  Cs  Cs13  1  0.33393102  0.33626346  0.33221529  1
  Cs  Cs14  1  0.33049675  0.33174825  0.66792198  1
  Cs  Cs15  1  0.33128411  0.66819849  -0.00141647  1
  Cs  Cs16  1  0.33724288  0.66527169  0.34178389  1
  Cs  Cs17  1  0.33602965  0.67532574  0.66302333  1
  Cs  Cs18  1  0.66680267  0.00112798  0.00009724  1
  Cs  Cs19  1  0.66863956  0.00027467  0.33176645  1
  Cs  Cs20  1  0.66527387  0.00143481  0.66862647  1
  Cs  Cs21  1  0.66620944  0.33314687  0.00020789  1
  Cs  Cs22  1  0.66221785  0.33272247  0.32986769  1
  Cs  Cs23  1  0.66889102  0.33224493  0.66949622  1
  Cs  Cs24  1  0.66727084  0.66612596  -0.00030261  1
  Cs  Cs25  1  0.66452228  0.66881164  0.34102775  1
  Cs  Cs26  1  0.66741366  0.66621308  0.65910683  1
  Sn  Sn27  1  0.49971373  0.16741078  0.83271122  1
  Sn  Sn28  1  0.83350341  0.16584917  0.83354335  1
  Sn  Sn29  1  0.50054564  0.16703407  0.50084728  1
  Sn  Sn30  1  0.49901653  0.49955645  0.83351712  1
  Sn  Sn31  1  0.16769903  0.49946054  0.83373940  1
  Sn  Sn32  1  0.16676358  0.16725093  0.83451035  1
  Sn  Sn33  1  0.49998600  0.83321465  0.16619833  1
  Sn  Sn34  1  0.83419564  0.16753910  0.16673807  1
  Sn  Sn35  1  0.83358371  0.83354604  0.83358411  1
  Sn  Sn36  1  0.16590098  0.16738435  0.16554497  1
  Sn  Sn37  1  0.83260022  0.16713276  0.49973561  1
  Sn  Sn38  1  0.83383402  0.49949826  0.16666246  1
  Sn  Sn39  1  0.16580749  0.49940474  0.16608051  1
  Pb  Pb40  1  0.16650223  0.83343028  0.50017857  1
  Pb  Pb41  1  0.50204120  0.83323644  0.83444991  1
  Pb  Pb42  1  0.49961289  0.50219050  0.16477389  1
  Pb  Pb43  1  0.83371841  0.49972342  0.83467849  1
  Pb  Pb44  1  0.50022698  0.83672758  0.49739585  1
  Pb  Pb45  1  0.83177551  0.83332766  0.16506586  1
  Pb  Pb46  1  0.83324689  0.83647177  0.50311011  1
  Pb  Pb47  1  0.16659941  0.49973896  0.50004540  1
  Pb  Pb48  1  0.16890359  0.83283489  0.16651805  1
  Pb  Pb49  1  0.49996446  0.49698578  0.50357401  1
  Pb  Pb50  1  0.16663095  0.16670816  0.49997234  1
  Pb  Pb51  1  0.49954473  0.16557607  0.16626047  1
  Pb  Pb52  1  0.83345065  0.49679490  0.49613300  1
  Pb  Pb53  1  0.16390091  0.83270879  0.83332164  1
  I  I54  1  0.16331513  0.00343136  0.16287214  1
  I  I55  1  0.16702358  0.00096024  0.49942673  1
  I  I56  1  0.16886024  0.00368450  0.83710661  1
  I  I57  1  0.16291734  0.33235585  0.16230205  1
  I  I58  1  0.16672343  0.33285450  0.49992001  1
  I  I59  1  0.16577105  0.33183580  0.83727879  1
  I  I60  1  0.16242090  0.66291387  0.16042339  1
  I  I61  1  0.16689801  0.66630435  0.50008106  1
  I  I62  1  0.17042621  0.66292304  0.83934295  1
  I  I63  1  0.50133587  -0.00167430  0.16447879  1
  I  I64  1  0.50370573  0.00448043  0.50742340  1
  I  I65  1  0.49838513  0.00355996  0.83109329  1
  I  I66  1  0.50075431  0.33324311  0.16849879  1
  I  I67  1  0.50434796  0.32906556  0.49887522  1
  I  I68  1  0.50200063  0.33158952  0.83132636  1
  I  I69  1  0.50112496  0.66936321  0.16200313  1
  I  I70  1  0.49935473  0.66668417  0.50017865  1
  I  I71  1  0.49686107  0.66391629  0.83846324  1
  I  I72  1  0.83593825  0.00369754  0.16777510  1
  I  I73  1  0.82967524  0.00479064  0.49449424  1
  I  I74  1  0.83224053  0.00324134  0.83559394  1
  I  I75  1  0.83572665  0.33150091  0.16387920  1
  I  I76  1  0.83012738  0.32870213  0.50748885  1
  I  I77  1  0.83261589  0.32976345  0.83191646  1
  I  I78  1  0.83673409  0.66392933  0.16141959  1
  I  I79  1  0.83370155  0.66662181  0.50100405  1
  I  I80  1  0.83254526  0.66831812  0.83827727  1
  I  I81  1  0.16395299  0.17007392  -0.00064344  1
  I  I82  1  0.16455979  0.17006598  0.32983545  1
  I  I83  1  0.16380209  0.17058247  0.67031569  1
  I  I84  1  0.16650169  0.49473582  -0.00019580  1
  I  I85  1  0.16317641  0.49385884  0.32937827  1
  I  I86  1  0.16950635  0.49386283  0.67065192  1
  I  I87  1  0.16730347  0.83480833  -0.00009469  1
  I  I88  1  0.16646744  0.83545743  0.33275406  1
  I  I89  1  0.16786949  0.83520125  0.66737123  1
  I  I90  1  0.50291958  0.16846561  -0.00312193  1
  I  I91  1  0.50384082  0.16283506  0.33510951  1
  I  I92  1  0.50384835  0.16996987  0.66843662  1
  I  I93  1  0.49979970  0.49216472  -0.00313415  1
  I  I94  1  0.49987887  0.50055661  0.33334338  1
  I  I95  1  0.49540089  0.49941500  0.67181056  1
  I  I96  1  0.50137958  0.83731448  0.00188221  1
  I  I97  1  0.50103187  0.83368655  0.32989027  1
  I  I98  1  0.50091135  0.83150326  0.66662631  1
  I  I99  1  0.83297937  0.16630673  -0.00034997  1
  I  I100  1  0.83235232  0.17165552  0.33227162  1
  I  I101  1  0.83248961  0.16150167  0.66802978  1
  I  I102  1  0.83382411  0.49382006  0.00257770  1
  I  I103  1  0.83864031  0.49564282  0.32800270  1
  I  I104  1  0.83334248  0.50079283  0.66666514  1
  I  I105  1  0.83160553  0.84134073  -0.00249472  1
  I  I106  1  0.83219224  0.83362752  0.33336276  1
  I  I107  1  0.83194377  0.83749527  0.67101411  1
  I  I108  1  -0.00060773  0.16957744  0.16359161  1
  I  I109  1  -0.00303921  0.16658783  0.50290140  1
  I  I110  1  -0.00026527  0.16628423  0.83356259  1
  I  I111  1  0.00038261  0.49486155  0.15926613  1
  I  I112  1  -0.00018035  0.49723250  0.50650325  1
  I  I113  1  0.00281362  0.49625560  0.83628115  1
  I  I114  1  -0.00006697  0.83371576  0.16595208  1
  I  I115  1  -0.00065483  0.83556820  0.49907133  1
  I  I116  1  -0.00365225  0.84024073  0.83584554  1
  I  I117  1  0.33042994  0.16905908  0.16403243  1
  I  I118  1  0.33610488  0.16623577  0.50306837  1
  I  I119  1  0.33321242  0.17120364  0.83371842  1
  I  I120  1  0.33015045  0.49495940  0.16375451  1
  I  I121  1  0.33346992  0.49692441  0.49410473  1
  I  I122  1  0.33272815  0.49058022  0.84010863  1
  I  I123  1  0.33627460  0.83624473  0.16418928  1
  I  I124  1  0.33388139  0.83594971  0.49991440  1
  I  I125  1  0.33339683  0.83601525  0.83436240  1
  I  I126  1  0.66944203  0.16878413  0.16416242  1
  I  I127  1  0.66728207  0.16653327  0.50336388  1
  I  I128  1  0.66700220  0.16665421  0.83323253  1
  I  I129  1  0.66912262  0.49506388  0.16356531  1
  I  I130  1  0.66672814  0.50104234  0.50013631  1
  I  I131  1  0.66481871  0.49576352  0.83612097  1
  I  I132  1  0.66441595  0.83552437  0.16380764  1
  I  I133  1  0.66675820  0.83204106  0.49945387  1
  I  I134  1  0.66954840  0.83933045  0.83623330  1
