# generated using pymatgen
data_Cs27Sn14Pb13I81
_symmetry_space_group_name_H-M   'P 1'
_cell_length_a   18.96540578
_cell_length_b   18.97719892
_cell_length_c   18.98598841
_cell_angle_alpha   90.00093295
_cell_angle_beta   89.99970859
_cell_angle_gamma   90.00157707
_symmetry_Int_Tables_number   1
_chemical_formula_structural   Cs27Sn14Pb13I81
_chemical_formula_sum   'Cs27 Sn14 Pb13 I81'
_cell_volume   6833.25236374
_cell_formula_units_Z   1
loop_
 _symmetry_equiv_pos_site_id
 _symmetry_equiv_pos_as_xyz
  1  'x, y, z'
loop_
 _atom_site_type_symbol
 _atom_site_label
 _atom_site_symmetry_multiplicity
 _atom_site_fract_x
 _atom_site_fract_y
 _atom_site_fract_z
 _atom_site_occupancy
  Cs  Cs0  1  -0.00006886  0.00040868  -0.00013177  1
  Cs  Cs1  1  0.00188080  -0.00205376  0.33268419  1
  Cs  Cs2  1  0.00188158  -0.00277191  0.66740891  1
  Cs  Cs3  1  0.00039387  0.33353161  -0.00057682  1
  Cs  Cs4  1  -0.00087327  0.33652743  0.33644876  1
  Cs  Cs5  1  -0.00236956  0.33551327  0.66487968  1
  Cs  Cs6  1  0.00213615  0.66604647  -0.00137647  1
  Cs  Cs7  1  -0.00100668  0.66703067  0.33618857  1
  Cs  Cs8  1  -0.00071077  0.66812347  0.66522214  1
  Cs  Cs9  1  0.33180074  0.00131761  -0.00085664  1
  Cs  Cs10  1  0.33115985  0.00368824  0.33506901  1
  Cs  Cs11  1  0.33260627  0.00144892  0.66622934  1
  Cs  Cs12  1  0.33237787  0.33590465  0.00066155  1
  Cs  Cs13  1  0.33697493  0.33013465  0.33241177  1
  Cs  Cs14  1  0.33697875  0.33082848  0.66643276  1
  Cs  Cs15  1  0.33745328  0.65829522  -0.00079497  1
  Cs  Cs16  1  0.33860413  0.66476281  0.33020613  1
  Cs  Cs17  1  0.33960915  0.66720135  0.67089780  1
  Cs  Cs18  1  0.66621363  0.00272871  0.00373421  1
  Cs  Cs19  1  0.66533780  -0.00348554  0.32860287  1
  Cs  Cs20  1  0.66512190  -0.00166383  0.66782326  1
  Cs  Cs21  1  0.66864142  0.32710224  -0.00042796  1
  Cs  Cs22  1  0.66788361  0.33539847  0.33595488  1
  Cs  Cs23  1  0.67008043  0.33463675  0.66488158  1
  Cs  Cs24  1  0.66018835  0.66951510  0.00128166  1
  Cs  Cs25  1  0.66284869  0.66776786  0.33100620  1
  Cs  Cs26  1  0.66576386  0.66672677  0.66687597  1
  Sn  Sn27  1  0.16609343  0.83361609  0.83354759  1
  Sn  Sn28  1  0.16704441  0.16641373  0.83383773  1
  Sn  Sn29  1  0.83388446  0.83345372  0.50056631  1
  Sn  Sn30  1  0.83412510  0.50082623  0.49995417  1
  Sn  Sn31  1  0.83376271  0.50034718  0.16633395  1
  Sn  Sn32  1  0.16688647  0.16635345  0.16593660  1
  Sn  Sn33  1  0.16660488  0.50119792  0.50029695  1
  Sn  Sn34  1  0.16650683  0.83334853  0.16638532  1
  Sn  Sn35  1  0.83375955  0.50132800  0.83378331  1
  Sn  Sn36  1  0.83361531  0.16563177  0.49983084  1
  Sn  Sn37  1  0.49913343  0.16660829  0.16594771  1
  Sn  Sn38  1  0.16643958  0.83180687  0.50016268  1
  Sn  Sn39  1  0.83402334  0.83253947  0.83305919  1
  Sn  Sn40  1  0.49905311  0.16640924  0.83383303  1
  Pb  Pb41  1  0.83403695  0.16589054  0.83166101  1
  Pb  Pb42  1  0.16513183  0.49978896  0.16890251  1
  Pb  Pb43  1  0.50293515  0.49708693  0.16653865  1
  Pb  Pb44  1  0.49984095  0.50014998  0.50013203  1
  Pb  Pb45  1  0.16504780  0.49996047  0.83096965  1
  Pb  Pb46  1  0.50337323  0.49694199  0.83331619  1
  Pb  Pb47  1  0.16493776  0.16661056  0.50021303  1
  Pb  Pb48  1  0.83536170  0.83122161  0.16629954  1
  Pb  Pb49  1  0.49626502  0.83584101  0.16645939  1
  Pb  Pb50  1  0.83425158  0.16820724  0.16908756  1
  Pb  Pb51  1  0.49985482  0.83563774  0.83340668  1
  Pb  Pb52  1  0.50303505  0.16639778  0.49996279  1
  Pb  Pb53  1  0.49962498  0.83337078  0.50004687  1
  I  I54  1  0.16902870  0.00020580  0.16883350  1
  I  I55  1  0.16162282  -0.00282626  0.49980009  1
  I  I56  1  0.16412821  -0.00051435  0.83154756  1
  I  I57  1  0.16880057  0.33029100  0.16333288  1
  I  I58  1  0.16004345  0.33528692  0.49986262  1
  I  I59  1  0.16826322  0.33049115  0.83687337  1
  I  I60  1  0.16208306  0.66942011  0.16493228  1
  I  I61  1  0.15665896  0.66783707  0.49940446  1
  I  I62  1  0.16292644  0.66981927  0.83542128  1
  I  I63  1  0.50240553  0.00379186  0.16271167  1
  I  I64  1  0.50127813  0.00016229  0.49985995  1
  I  I65  1  0.50181669  0.00354405  0.83705671  1
  I  I66  1  0.49236746  0.32931870  0.16299269  1
  I  I67  1  0.50069001  0.33306986  0.50015218  1
  I  I68  1  0.49439784  0.32908528  0.83700307  1
  I  I69  1  0.49972509  0.66662453  0.16796476  1
  I  I70  1  0.50396435  0.66674703  0.49964274  1
  I  I71  1  0.49799206  0.66667313  0.83261296  1
  I  I72  1  0.83090856  -0.00008739  0.16755512  1
  I  I73  1  0.83767340  -0.00157753  0.50536568  1
  I  I74  1  0.83460979  -0.00287304  0.82752620  1
  I  I75  1  0.83465449  0.33615885  0.16719748  1
  I  I76  1  0.83672885  0.33464825  0.50040811  1
  I  I77  1  0.83259438  0.33527977  0.83084188  1
  I  I78  1  0.83696506  0.66344262  0.17176278  1
  I  I79  1  0.83856127  0.66676954  0.50118191  1
  I  I80  1  0.83995640  0.66737205  0.82801872  1
  I  I81  1  0.16908894  0.15941247  -0.00025576  1
  I  I82  1  0.16915761  0.16387713  0.33100932  1
  I  I83  1  0.16917074  0.16360637  0.66929842  1
  I  I84  1  0.16334638  0.50179196  -0.00012979  1
  I  I85  1  0.15851686  0.50265760  0.33675015  1
  I  I86  1  0.15865757  0.50193515  0.66315696  1
  I  I87  1  0.16103420  0.84014408  -0.00086554  1
  I  I88  1  0.16175859  0.83494444  0.33391339  1
  I  I89  1  0.16134385  0.83501947  0.66688287  1
  I  I90  1  0.49764867  0.16662449  -0.00011251  1
  I  I91  1  0.49528386  0.16697515  0.33041743  1
  I  I92  1  0.49559384  0.16634994  0.66954996  1
  I  I93  1  0.50102454  0.50181662  -0.00008282  1
  I  I94  1  0.50253183  0.49648034  0.33326070  1
  I  I95  1  0.50192924  0.49618837  0.66683183  1
  I  I96  1  0.50353619  0.83255821  -0.00004508  1
  I  I97  1  0.50191095  0.83646396  0.33317213  1
  I  I98  1  0.49664990  0.83729121  0.66682770  1
  I  I99  1  0.83237898  0.16842173  0.00003608  1
  I  I100  1  0.83396294  0.16712035  0.33690364  1
  I  I101  1  0.83394896  0.17169345  0.66389978  1
  I  I102  1  0.83382838  0.50244881  -0.00078973  1
  I  I103  1  0.83731392  0.49793904  0.33486638  1
  I  I104  1  0.83685040  0.49919224  0.66582793  1
  I  I105  1  0.83786741  0.82951328  -0.00300993  1
  I  I106  1  0.83761145  0.83332944  0.33628991  1
  I  I107  1  0.84090179  0.82991641  0.66625999  1
  I  I108  1  0.00324886  0.16347765  0.16250869  1
  I  I109  1  -0.00303261  0.16809840  0.50024410  1
  I  I110  1  0.00284497  0.16520882  0.83715775  1
  I  I111  1  -0.00291897  0.49636590  0.16635601  1
  I  I112  1  -0.00166791  0.49987512  0.49968759  1
  I  I113  1  -0.00338399  0.49745862  0.83379605  1
  I  I114  1  0.00343439  0.84110399  0.16713009  1
  I  I115  1  -0.00018364  0.83278666  0.50091540  1
  I  I116  1  0.00054970  0.83631885  0.83164728  1
  I  I117  1  0.33199781  0.16264530  0.16404329  1
  I  I118  1  0.33310199  0.16725099  0.49992203  1
  I  I119  1  0.33176437  0.16094471  0.83557459  1
  I  I120  1  0.33315292  0.50190777  0.16904661  1
  I  I121  1  0.32984981  0.50433200  0.49949802  1
  I  I122  1  0.33322950  0.50247925  0.83135747  1
  I  I123  1  0.32791355  0.83379113  0.16778268  1
  I  I124  1  0.32887769  0.82981673  0.50103283  1
  I  I125  1  0.32952650  0.83647741  0.83126492  1
  I  I126  1  0.66478408  0.16993193  0.16328540  1
  I  I127  1  0.67124561  0.16886256  0.50091513  1
  I  I128  1  0.66499847  0.16794594  0.83622932  1
  I  I129  1  0.67114791  0.49913257  0.17084952  1
  I  I130  1  0.67089384  0.49907170  0.50020668  1
  I  I131  1  0.67183861  0.50449930  0.82893911  1
  I  I132  1  0.66678006  0.83369345  0.16771274  1
  I  I133  1  0.67064396  0.83265517  0.50515613  1
  I  I134  1  0.67013231  0.83034535  0.82680661  1
