# generated using pymatgen
data_Cs27Sn13Pb14I81
_symmetry_space_group_name_H-M   'P 1'
_cell_length_a   18.99624349
_cell_length_b   18.98822718
_cell_length_c   18.99027928
_cell_angle_alpha   90.00054489
_cell_angle_beta   90.00099668
_cell_angle_gamma   89.99987514
_symmetry_Int_Tables_number   1
_chemical_formula_structural   Cs27Sn13Pb14I81
_chemical_formula_sum   'Cs27 Sn13 Pb14 I81'
_cell_volume   6849.88843715
_cell_formula_units_Z   1
loop_
 _symmetry_equiv_pos_site_id
 _symmetry_equiv_pos_as_xyz
  1  'x, y, z'
loop_
 _atom_site_type_symbol
 _atom_site_label
 _atom_site_symmetry_multiplicity
 _atom_site_fract_x
 _atom_site_fract_y
 _atom_site_fract_z
 _atom_site_occupancy
  Cs  Cs0  1  0.00041064  0.00058096  0.00027835  1
  Cs  Cs1  1  0.00156484  -0.00022541  0.33303207  1
  Cs  Cs2  1  0.00060713  0.00187787  0.66638658  1
  Cs  Cs3  1  -0.00421575  0.33100145  0.00173979  1
  Cs  Cs4  1  0.00248549  0.33659983  0.33021203  1
  Cs  Cs5  1  -0.00592708  0.33918784  0.66715371  1
  Cs  Cs6  1  0.00104678  0.66809174  0.00183023  1
  Cs  Cs7  1  -0.00045309  0.66701406  0.33231886  1
  Cs  Cs8  1  0.00375701  0.65752635  0.66491839  1
  Cs  Cs9  1  0.33221808  0.00038165  -0.00253397  1
  Cs  Cs10  1  0.33183379  0.00138588  0.33437820  1
  Cs  Cs11  1  0.33278326  -0.00130031  0.66858738  1
  Cs  Cs12  1  0.33859740  0.32971328  0.00242565  1
  Cs  Cs13  1  0.34114367  0.33043636  0.33477070  1
  Cs  Cs14  1  0.33286468  0.33991046  0.66410099  1
  Cs  Cs15  1  0.33358319  0.66776696  -0.00284360  1
  Cs  Cs16  1  0.33226537  0.66796162  0.33387351  1
  Cs  Cs17  1  0.32915767  0.66204394  0.66879385  1
  Cs  Cs18  1  0.66702065  -0.00237928  -0.00176299  1
  Cs  Cs19  1  0.66652273  -0.00169774  0.33786374  1
  Cs  Cs20  1  0.66736416  0.00170082  0.66657933  1
  Cs  Cs21  1  0.66768141  0.33778184  -0.00223461  1
  Cs  Cs22  1  0.65524077  0.33113115  0.33924871  1
  Cs  Cs23  1  0.67351914  0.33710157  0.66203466  1
  Cs  Cs24  1  0.66514853  0.66833691  0.00190785  1
  Cs  Cs25  1  0.66887587  0.66964250  0.33179602  1
  Cs  Cs26  1  0.66870393  0.66293944  0.66495122  1
  Sn  Sn27  1  0.83320361  0.83339430  0.83358426  1
  Sn  Sn28  1  0.83349360  0.83375742  0.16582314  1
  Sn  Sn29  1  0.83265978  0.16656008  0.16722793  1
  Sn  Sn30  1  0.16670370  0.50057870  0.16627187  1
  Sn  Sn31  1  0.49890925  0.83364332  0.50067596  1
  Sn  Sn32  1  0.50085644  0.83392180  0.83276369  1
  Sn  Sn33  1  0.16715008  0.16665918  0.83215711  1
  Sn  Sn34  1  0.49962687  0.16612521  0.83297959  1
  Sn  Sn35  1  0.49958615  0.83388577  0.16667393  1
  Sn  Sn36  1  0.16628675  0.16605462  0.50124211  1
  Sn  Sn37  1  0.83365922  0.49992620  0.16688317  1
  Sn  Sn38  1  0.16682116  0.83286728  0.16724798  1
  Sn  Sn39  1  0.16724294  0.83423605  0.49956682  1
  Pb  Pb40  1  0.83343495  0.50342656  0.83595725  1
  Pb  Pb41  1  0.83331026  0.50002384  0.49634897  1
  Pb  Pb42  1  0.16638737  0.83427924  0.83308659  1
  Pb  Pb43  1  0.83401839  0.83332657  0.50039689  1
  Pb  Pb44  1  0.16677867  0.49606835  0.83680182  1
  Pb  Pb45  1  0.50004062  0.50012815  0.83333409  1
  Pb  Pb46  1  0.50279553  0.16384770  0.16447537  1
  Pb  Pb47  1  0.16560378  0.16663837  0.16672043  1
  Pb  Pb48  1  0.49782579  0.16428907  0.50306866  1
  Pb  Pb49  1  0.49981435  0.50337298  0.49998866  1
  Pb  Pb50  1  0.49992110  0.50244314  0.16663539  1
  Pb  Pb51  1  0.83307901  0.16482209  0.83484488  1
  Pb  Pb52  1  0.83610898  0.16644465  0.49721395  1
  Pb  Pb53  1  0.16679025  0.49991999  0.49720618  1
  I  I54  1  0.16546718  -0.00317535  0.16746846  1
  I  I55  1  0.17015929  -0.00144072  0.49602356  1
  I  I56  1  0.16758048  0.00203076  0.83616265  1
  I  I57  1  0.15907070  0.33548281  0.16509230  1
  I  I58  1  0.16503379  0.33029378  0.50269920  1
  I  I59  1  0.17280727  0.32817036  0.82828614  1
  I  I60  1  0.16188690  0.66910207  0.17186342  1
  I  I61  1  0.17035431  0.67004354  0.49758729  1
  I  I62  1  0.16646966  0.66661093  0.83090600  1
  I  I63  1  0.49825918  -0.00459875  0.16825117  1
  I  I64  1  0.49836196  -0.00396719  0.49604560  1
  I  I65  1  0.49967579  -0.00185775  0.83485002  1
  I  I66  1  0.49976494  0.33298789  0.16477289  1
  I  I67  1  0.49853321  0.33284097  0.49988118  1
  I  I68  1  0.49405849  0.32989953  0.83630182  1
  I  I69  1  0.50423528  0.67142873  0.16421210  1
  I  I70  1  0.49334370  0.67225844  0.50141776  1
  I  I71  1  0.50426410  0.67099869  0.83490021  1
  I  I72  1  0.83473054  -0.00191835  0.16245123  1
  I  I73  1  0.83225751  -0.00039401  0.49532164  1
  I  I74  1  0.83201315  -0.00320522  0.84184843  1
  I  I75  1  0.84273252  0.33359767  0.16636506  1
  I  I76  1  0.83540232  0.33316070  0.50005804  1
  I  I77  1  0.83318269  0.33338936  0.83618499  1
  I  I78  1  0.83404300  0.66834723  0.16281416  1
  I  I79  1  0.83467290  0.66714760  0.49910011  1
  I  I80  1  0.82722450  0.67165298  0.83907654  1
  I  I81  1  0.16883965  0.16552052  -0.00200962  1
  I  I82  1  0.16296762  0.16417256  0.33525802  1
  I  I83  1  0.17056162  0.15674940  0.66657569  1
  I  I84  1  0.16230915  0.50818576  0.00439128  1
  I  I85  1  0.16052248  0.50128101  0.32943603  1
  I  I86  1  0.16719105  0.50355581  0.66663564  1
  I  I87  1  0.16786830  0.83162579  0.00288992  1
  I  I88  1  0.16906521  0.83545228  0.33225829  1
  I  I89  1  0.16974753  0.83691929  0.66404856  1
  I  I90  1  0.49178632  0.15930265  -0.00300249  1
  I  I91  1  0.49967490  0.16627031  0.33343469  1
  I  I92  1  0.49931640  0.15760111  0.67063523  1
  I  I93  1  0.49958260  0.50269218  0.00025391  1
  I  I94  1  0.50039182  0.49985470  0.33299810  1
  I  I95  1  0.49902024  0.50296958  0.66668564  1
  I  I96  1  0.50109962  0.83625958  0.00026253  1
  I  I97  1  0.50026553  0.83166092  0.33268126  1
  I  I98  1  0.50026952  0.83852160  0.66721058  1
  I  I99  1  0.83737808  0.16677822  0.00306024  1
  I  I100  1  0.83604222  0.16153186  0.32882721  1
  I  I101  1  0.83207968  0.16329746  0.66675206  1
  I  I102  1  0.83774961  0.49834814  0.00411454  1
  I  I103  1  0.83919581  0.50619694  0.32807011  1
  I  I104  1  0.83317675  0.50139594  0.66681151  1
  I  I105  1  0.83052904  0.83322991  0.00192867  1
  I  I106  1  0.83100330  0.83219916  0.32973952  1
  I  I107  1  0.82905534  0.83647799  0.66966785  1
  I  I108  1  -0.00219898  0.16098371  0.16428739  1
  I  I109  1  0.00417852  0.15738570  0.50610324  1
  I  I110  1  0.00248918  0.16366834  0.83206891  1
  I  I111  1  -0.00017277  0.50622939  0.16671636  1
  I  I112  1  0.00033199  0.50351046  0.50148912  1
  I  I113  1  0.00014810  0.50091977  0.83194968  1
  I  I114  1  -0.00021805  0.83284314  0.16631579  1
  I  I115  1  0.00341440  0.83696419  0.49508160  1
  I  I116  1  -0.00217436  0.83611115  0.83939326  1
  I  I117  1  0.33360802  0.16728318  0.16778434  1
  I  I118  1  0.32993831  0.16353717  0.49761594  1
  I  I119  1  0.33331227  0.15820871  0.83253050  1
  I  I120  1  0.33034301  0.50527721  0.16699535  1
  I  I121  1  0.33301223  0.49823100  0.49624556  1
  I  I122  1  0.33315599  0.50603911  0.83620920  1
  I  I123  1  0.33290541  0.82869878  0.16686469  1
  I  I124  1  0.33288704  0.83750135  0.49498456  1
  I  I125  1  0.33592523  0.83598868  0.83703055  1
  I  I126  1  0.67064372  0.16651615  0.16389079  1
  I  I127  1  0.66642966  0.16555500  0.49959849  1
  I  I128  1  0.66392657  0.16169396  0.83780953  1
  I  I129  1  0.66974628  0.50233643  0.16518150  1
  I  I130  1  0.66656244  0.50106928  0.49789850  1
  I  I131  1  0.66686752  0.49631199  0.83669855  1
  I  I132  1  0.66704792  0.83314881  0.16578244  1
  I  I133  1  0.66393072  0.83279306  0.49643085  1
  I  I134  1  0.66577599  0.83910458  0.83850306  1
