# generated using pymatgen
data_Cs27Sn14Pb13I81
_symmetry_space_group_name_H-M   'P 1'
_cell_length_a   18.95810476
_cell_length_b   18.96503124
_cell_length_c   18.96052962
_cell_angle_alpha   90.00238920
_cell_angle_beta   89.99984164
_cell_angle_gamma   89.99979474
_symmetry_Int_Tables_number   1
_chemical_formula_structural   Cs27Sn14Pb13I81
_chemical_formula_sum   'Cs27 Sn14 Pb13 I81'
_cell_volume   6817.08870281
_cell_formula_units_Z   1
loop_
 _symmetry_equiv_pos_site_id
 _symmetry_equiv_pos_as_xyz
  1  'x, y, z'
loop_
 _atom_site_type_symbol
 _atom_site_label
 _atom_site_symmetry_multiplicity
 _atom_site_fract_x
 _atom_site_fract_y
 _atom_site_fract_z
 _atom_site_occupancy
  Cs  Cs0  1  -0.00002956  0.00160460  0.00146705  1
  Cs  Cs1  1  0.00042762  0.00043048  0.33476687  1
  Cs  Cs2  1  -0.00186986  0.00150060  0.66287328  1
  Cs  Cs3  1  -0.00116346  0.33267904  0.00119087  1
  Cs  Cs4  1  0.00128326  0.33390925  0.33131202  1
  Cs  Cs5  1  0.00093966  0.33458593  0.66780212  1
  Cs  Cs6  1  0.00056348  0.66613417  -0.00135965  1
  Cs  Cs7  1  0.00015134  0.66529984  0.33450444  1
  Cs  Cs8  1  0.00036114  0.66554997  0.66634362  1
  Cs  Cs9  1  0.33390364  -0.00548719  -0.00041380  1
  Cs  Cs10  1  0.33039675  -0.00199083  0.33302361  1
  Cs  Cs11  1  0.33757048  0.00167554  0.66597804  1
  Cs  Cs12  1  0.33266827  0.33362276  -0.00138692  1
  Cs  Cs13  1  0.33191079  0.33355483  0.33513074  1
  Cs  Cs14  1  0.34155561  0.33268262  0.66704262  1
  Cs  Cs15  1  0.33778345  0.67467212  -0.00668801  1
  Cs  Cs16  1  0.33501935  0.66880242  0.33275247  1
  Cs  Cs17  1  0.33257509  0.66636438  0.67147682  1
  Cs  Cs18  1  0.66733397  0.00176624  -0.00094908  1
  Cs  Cs19  1  0.67023386  -0.00061126  0.33481919  1
  Cs  Cs20  1  0.66642411  0.00072540  0.66491281  1
  Cs  Cs21  1  0.66907849  0.33157493  0.00173373  1
  Cs  Cs22  1  0.66431210  0.33520354  0.33164685  1
  Cs  Cs23  1  0.65925103  0.33214290  0.66632982  1
  Cs  Cs24  1  0.66565986  0.66748185  0.00192404  1
  Cs  Cs25  1  0.66501030  0.66543630  0.33385971  1
  Cs  Cs26  1  0.66751955  0.66694756  0.66406229  1
  Sn  Sn27  1  0.16593517  0.50071581  0.49943206  1
  Sn  Sn28  1  0.83362209  0.16661459  0.16620718  1
  Sn  Sn29  1  0.49960813  0.16671047  0.16675955  1
  Sn  Sn30  1  0.16673411  0.16737731  0.16574541  1
  Sn  Sn31  1  0.16745412  0.83244099  0.49996882  1
  Sn  Sn32  1  0.83383569  0.83352708  0.83411148  1
  Sn  Sn33  1  0.49881541  0.83314702  0.49979165  1
  Sn  Sn34  1  0.83365418  0.49969965  0.83339645  1
  Sn  Sn35  1  0.16641645  0.50004759  0.16671986  1
  Sn  Sn36  1  0.83439979  0.16675954  0.83383089  1
  Sn  Sn37  1  0.83416235  0.50023808  0.16667664  1
  Sn  Sn38  1  0.83376528  0.83312369  0.16599937  1
  Sn  Sn39  1  0.16582370  0.16681991  0.83401360  1
  Sn  Sn40  1  0.83407485  0.49954324  0.49982955  1
  Pb  Pb41  1  0.50005099  0.16435528  0.49714359  1
  Pb  Pb42  1  0.83392100  0.83133191  0.49993929  1
  Pb  Pb43  1  0.16512274  0.49811968  0.83371464  1
  Pb  Pb44  1  0.16420114  0.83611801  0.83071061  1
  Pb  Pb45  1  0.50014920  0.16654980  0.83583881  1
  Pb  Pb46  1  0.16655674  0.16756008  0.50018919  1
  Pb  Pb47  1  0.49909031  0.49839812  0.16647890  1
  Pb  Pb48  1  0.50299099  0.83351641  0.83102389  1
  Pb  Pb49  1  0.50276400  0.83557438  0.16828695  1
  Pb  Pb50  1  0.83332153  0.16999856  0.50004145  1
  Pb  Pb51  1  0.49908014  0.50188487  0.49974728  1
  Pb  Pb52  1  0.50308089  0.50006092  0.83376946  1
  Pb  Pb53  1  0.16469469  0.83287461  0.16796517  1
  I  I54  1  0.16480985  0.00294714  0.16539816  1
  I  I55  1  0.16992533  -0.00221796  0.49959869  1
  I  I56  1  0.16033675  0.00396749  0.83895741  1
  I  I57  1  0.16151586  0.33305427  0.16946094  1
  I  I58  1  0.16030815  0.33662075  0.49774807  1
  I  I59  1  0.15976059  0.33006560  0.83365491  1
  I  I60  1  0.15963839  0.66365670  0.17086567  1
  I  I61  1  0.16510574  0.66555728  0.49425781  1
  I  I62  1  0.16472196  0.66668416  0.83466744  1
  I  I63  1  0.49994346  0.00369784  0.16769197  1
  I  I64  1  0.49559672  -0.00347507  0.49997313  1
  I  I65  1  0.50289937  0.00011580  0.83213520  1
  I  I66  1  0.50591028  0.33014001  0.16682800  1
  I  I67  1  0.50056789  0.33338531  0.50037726  1
  I  I68  1  0.50192268  0.33296743  0.83130069  1
  I  I69  1  0.50183243  0.66703564  0.16852933  1
  I  I70  1  0.50107949  0.66957429  0.49813472  1
  I  I71  1  0.50087623  0.66697911  0.83392965  1
  I  I72  1  0.83292664  0.00092797  0.16123851  1
  I  I73  1  0.83303858  -0.00011082  0.49963378  1
  I  I74  1  0.83628469  0.00072515  0.83996289  1
  I  I75  1  0.83346829  0.33318632  0.16483421  1
  I  I76  1  0.84003570  0.33808191  0.49897672  1
  I  I77  1  0.83738399  0.33298506  0.83651216  1
  I  I78  1  0.83743394  0.66560461  0.16476542  1
  I  I79  1  0.83419835  0.66333251  0.49955780  1
  I  I80  1  0.83225804  0.66620818  0.83562973  1
  I  I81  1  0.16430037  0.17211938  0.00168424  1
  I  I82  1  0.16473702  0.16718531  0.32989262  1
  I  I83  1  0.15975347  0.16551211  0.66953192  1
  I  I84  1  0.16091617  0.49580397  0.00321418  1
  I  I85  1  0.15796038  0.49736130  0.33277470  1
  I  I86  1  0.16097993  0.50270226  0.66409274  1
  I  I87  1  0.16710485  0.83119093  -0.00012676  1
  I  I88  1  0.16614706  0.83451993  0.33606472  1
  I  I89  1  0.16705109  0.82818270  0.66284162  1
  I  I90  1  0.50227429  0.16624141  0.00370760  1
  I  I91  1  0.50172900  0.16730365  0.32917219  1
  I  I92  1  0.50046999  0.16620811  0.66675822  1
  I  I93  1  0.50006300  0.50038642  0.00039528  1
  I  I94  1  0.50648900  0.49917624  0.33318744  1
  I  I95  1  0.50107822  0.49907922  0.66650097  1
  I  I96  1  0.49959867  0.83394597  0.00012425  1
  I  I97  1  0.49921993  0.83407674  0.33615505  1
  I  I98  1  0.49845346  0.83348191  0.66312808  1
  I  I99  1  0.83347298  0.16980419  0.00100638  1
  I  I100  1  0.83453603  0.16500749  0.32961530  1
  I  I101  1  0.83813412  0.16506851  0.67010912  1
  I  I102  1  0.83648215  0.49936154  0.00086120  1
  I  I103  1  0.83658026  0.50058241  0.33227190  1
  I  I104  1  0.83746947  0.50155093  0.66673018  1
  I  I105  1  0.83337306  0.83022457  0.00045772  1
  I  I106  1  0.83324618  0.83454296  0.33069435  1
  I  I107  1  0.83319202  0.83382588  0.66915306  1
  I  I108  1  -0.00073349  0.16786484  0.16288885  1
  I  I109  1  -0.00004883  0.16040809  0.49685421  1
  I  I110  1  -0.00155783  0.16697378  0.84102868  1
  I  I111  1  -0.00135270  0.49531509  0.16811169  1
  I  I112  1  -0.00017146  0.50598069  0.49862089  1
  I  I113  1  -0.00382320  0.50153652  0.83313619  1
  I  I114  1  -0.00384019  0.83732738  0.16610913  1
  I  I115  1  0.00223434  0.83119559  0.49988423  1
  I  I116  1  -0.00413232  0.83112927  0.83485277  1
  I  I117  1  0.33173720  0.17164712  0.16437534  1
  I  I118  1  0.33303845  0.17029058  0.50049637  1
  I  I119  1  0.33024170  0.16726177  0.83655955  1
  I  I120  1  0.32931860  0.49381763  0.17394853  1
  I  I121  1  0.32950461  0.50095502  0.49392488  1
  I  I122  1  0.33287883  0.49741005  0.83223310  1
  I  I123  1  0.33317550  0.83419863  0.16785020  1
  I  I124  1  0.33214053  0.82870965  0.49776181  1
  I  I125  1  0.33301011  0.83494877  0.83374153  1
  I  I126  1  0.66882979  0.16654168  0.16369284  1
  I  I127  1  0.66698189  0.16569868  0.49993425  1
  I  I128  1  0.67050278  0.16701779  0.83712088  1
  I  I129  1  0.67050562  0.49904101  0.16721492  1
  I  I130  1  0.66975798  0.50138754  0.49956056  1
  I  I131  1  0.67257817  0.49680047  0.83320865  1
  I  I132  1  0.67136143  0.83258450  0.16603477  1
  I  I133  1  0.66546585  0.83262115  0.49985366  1
  I  I134  1  0.67160902  0.83582844  0.83489565  1
