# generated using pymatgen
data_Cs27Sn13Pb14I81
_symmetry_space_group_name_H-M   'P 1'
_cell_length_a   18.97310882
_cell_length_b   18.97882379
_cell_length_c   18.97917744
_cell_angle_alpha   89.99973222
_cell_angle_beta   89.99956902
_cell_angle_gamma   90.00015849
_symmetry_Int_Tables_number   1
_chemical_formula_structural   Cs27Sn13Pb14I81
_chemical_formula_sum   'Cs27 Sn13 Pb14 I81'
_cell_volume   6834.16055043
_cell_formula_units_Z   1
loop_
 _symmetry_equiv_pos_site_id
 _symmetry_equiv_pos_as_xyz
  1  'x, y, z'
loop_
 _atom_site_type_symbol
 _atom_site_label
 _atom_site_symmetry_multiplicity
 _atom_site_fract_x
 _atom_site_fract_y
 _atom_site_fract_z
 _atom_site_occupancy
  Cs  Cs0  1  -0.00329987  -0.00100729  0.00078781  1
  Cs  Cs1  1  -0.00256987  -0.00905545  0.33344689  1
  Cs  Cs2  1  0.00281772  0.00064595  0.66609069  1
  Cs  Cs3  1  0.00116516  0.33662663  -0.00265483  1
  Cs  Cs4  1  0.00431025  0.33327497  0.33194726  1
  Cs  Cs5  1  0.00579813  0.33753012  0.66950977  1
  Cs  Cs6  1  0.00455237  0.66396305  0.00037421  1
  Cs  Cs7  1  0.00692192  0.67638939  0.33806664  1
  Cs  Cs8  1  -0.00433063  0.66150117  0.66233109  1
  Cs  Cs9  1  0.33573450  0.00016380  -0.00225240  1
  Cs  Cs10  1  0.33381115  0.00106687  0.33420201  1
  Cs  Cs11  1  0.33251287  0.00121259  0.66799711  1
  Cs  Cs12  1  0.33282610  0.33230933  0.00108836  1
  Cs  Cs13  1  0.33450678  0.33423393  0.33359440  1
  Cs  Cs14  1  0.32766638  0.33172928  0.66424909  1
  Cs  Cs15  1  0.33404416  0.66789430  0.00153024  1
  Cs  Cs16  1  0.32847294  0.66445245  0.33275795  1
  Cs  Cs17  1  0.33555267  0.66731468  0.66386123  1
  Cs  Cs18  1  0.66673350  0.00037301  -0.00096550  1
  Cs  Cs19  1  0.66830942  0.00188693  0.33297087  1
  Cs  Cs20  1  0.66540818  0.00026691  0.66860104  1
  Cs  Cs21  1  0.66699958  0.33279848  0.00127612  1
  Cs  Cs22  1  0.66495301  0.33158208  0.33185473  1
  Cs  Cs23  1  0.66741174  0.33385736  0.66549608  1
  Cs  Cs24  1  0.66425312  0.66448756  -0.00200241  1
  Cs  Cs25  1  0.66766121  0.66506429  0.33682875  1
  Cs  Cs26  1  0.66954878  0.66378356  0.66542111  1
  Sn  Sn27  1  0.49932477  0.16652503  0.16659270  1
  Sn  Sn28  1  0.16522835  0.83337802  0.83332793  1
  Sn  Sn29  1  0.50079456  0.16580351  0.50017212  1
  Sn  Sn30  1  0.50042107  0.83426401  0.49889382  1
  Sn  Sn31  1  0.50046560  0.83332907  0.16786247  1
  Sn  Sn32  1  0.50119032  0.49999384  0.16581113  1
  Sn  Sn33  1  0.83287132  0.50047836  0.16728881  1
  Sn  Sn34  1  0.83448186  0.83370279  0.83358583  1
  Sn  Sn35  1  0.49999513  0.49850070  0.83383372  1
  Sn  Sn36  1  0.50066677  0.16784457  0.83313038  1
  Sn  Sn37  1  0.83267168  0.16618195  0.83226259  1
  Sn  Sn38  1  0.83285322  0.16703178  0.50094295  1
  Sn  Sn39  1  0.16700280  0.16614442  0.16645520  1
  Pb  Pb40  1  0.16634878  0.16640731  0.49749826  1
  Pb  Pb41  1  0.16645949  0.49997445  0.49990493  1
  Pb  Pb42  1  0.83092884  0.83059749  0.16458292  1
  Pb  Pb43  1  0.16918480  0.83570446  0.16477883  1
  Pb  Pb44  1  0.83328823  0.16790127  0.16653311  1
  Pb  Pb45  1  0.50054311  0.83337230  0.83311784  1
  Pb  Pb46  1  0.16999424  0.50287797  0.83346573  1
  Pb  Pb47  1  0.16941291  0.83374519  0.50274468  1
  Pb  Pb48  1  0.49994959  0.49943372  0.49965284  1
  Pb  Pb49  1  0.16640774  0.16529525  0.83515888  1
  Pb  Pb50  1  0.83146349  0.49944653  0.83484574  1
  Pb  Pb51  1  0.83319360  0.49695510  0.49677838  1
  Pb  Pb52  1  0.16705717  0.49812206  0.16664715  1
  Pb  Pb53  1  0.83090368  0.83554750  0.50241241  1
  I  I54  1  0.17285881  0.00339203  0.16572110  1
  I  I55  1  0.16675033  0.00013939  0.49950401  1
  I  I56  1  0.16972518  -0.00237143  0.83506748  1
  I  I57  1  0.17312714  0.33014018  0.16564266  1
  I  I58  1  0.16972513  0.33257612  0.50006640  1
  I  I59  1  0.16492926  0.33326607  0.83467550  1
  I  I60  1  0.16833769  0.66698042  0.16539019  1
  I  I61  1  0.16964432  0.66726264  0.49915150  1
  I  I62  1  0.16324202  0.67062196  0.83520716  1
  I  I63  1  0.49551995  0.00103121  0.16585509  1
  I  I64  1  0.50298140  0.00145120  0.49741007  1
  I  I65  1  0.50077186  0.00280400  0.83608657  1
  I  I66  1  0.50001023  0.33243690  0.16575806  1
  I  I67  1  0.50365711  0.32961472  0.49759279  1
  I  I68  1  0.50547769  0.33159931  0.83731485  1
  I  I69  1  0.50490854  0.66637326  0.16415309  1
  I  I70  1  0.49856639  0.66934608  0.49875090  1
  I  I71  1  0.49939919  0.66483579  0.83734159  1
  I  I72  1  0.83267302  0.00000910  0.16748201  1
  I  I73  1  0.82975261  0.00361961  0.49932030  1
  I  I74  1  0.82951273  0.00131976  0.83171110  1
  I  I75  1  0.82615606  0.33546017  0.16480374  1
  I  I76  1  0.82391258  0.32879675  0.50658179  1
  I  I77  1  0.82950303  0.33002981  0.83163826  1
  I  I78  1  0.82527797  0.66309517  0.16303465  1
  I  I79  1  0.83132129  0.66684780  0.50183135  1
  I  I80  1  0.83365694  0.66894553  0.83630355  1
  I  I81  1  0.17319313  0.16588940  0.00277238  1
  I  I82  1  0.17270144  0.16803859  0.32972589  1
  I  I83  1  0.17010010  0.16541547  0.66681897  1
  I  I84  1  0.16586561  0.49958713  0.00001536  1
  I  I85  1  0.16966297  0.49868274  0.33270633  1
  I  I86  1  0.16897897  0.49841617  0.66721585  1
  I  I87  1  0.16662143  0.83460285  -0.00288414  1
  I  I88  1  0.16596746  0.83377857  0.33326146  1
  I  I89  1  0.16709350  0.83620779  0.67044790  1
  I  I90  1  0.50006431  0.16647993  0.00007638  1
  I  I91  1  0.50014591  0.16621225  0.33281234  1
  I  I92  1  0.50469212  0.16529042  0.66711254  1
  I  I93  1  0.50350213  0.49762477  0.00092601  1
  I  I94  1  0.50315554  0.49719427  0.32984799  1
  I  I95  1  0.49996528  0.49865650  0.66949635  1
  I  I96  1  0.49980893  0.83563214  0.00211608  1
  I  I97  1  0.50026744  0.83721266  0.33258431  1
  I  I98  1  0.49928973  0.83704338  0.66472560  1
  I  I99  1  0.82907857  0.16411529  -0.00282561  1
  I  I100  1  0.82847086  0.16984124  0.33543017  1
  I  I101  1  0.82336152  0.16239122  0.66767595  1
  I  I102  1  0.82864441  0.49668149  0.00261946  1
  I  I103  1  0.82328720  0.49679433  0.32907786  1
  I  I104  1  0.83116945  0.50227530  0.66673444  1
  I  I105  1  0.83265422  0.84146010  -0.00331747  1
  I  I106  1  0.83368932  0.83429994  0.33339532  1
  I  I107  1  0.83293070  0.83437865  0.67046454  1
  I  I108  1  0.00189372  0.17021625  0.16546274  1
  I  I109  1  -0.00328376  0.16844185  0.50373599  1
  I  I110  1  -0.00317759  0.16390491  0.83129202  1
  I  I111  1  -0.00260845  0.49481258  0.16502640  1
  I  I112  1  -0.00063960  0.49753048  0.49887606  1
  I  I113  1  -0.00013183  0.49757566  0.83580321  1
  I  I114  1  -0.00004443  0.83382298  0.16671832  1
  I  I115  1  -0.00026079  0.83473962  0.49864235  1
  I  I116  1  -0.00112292  0.84113440  0.83501284  1
  I  I117  1  0.33656201  0.16839730  0.16595717  1
  I  I118  1  0.33708000  0.16358006  0.50251961  1
  I  I119  1  0.33681116  0.16773684  0.83199643  1
  I  I120  1  0.33733460  0.50132450  0.16300444  1
  I  I121  1  0.33414901  0.49827892  0.49891995  1
  I  I122  1  0.33828775  0.49549109  0.84008515  1
  I  I123  1  0.33779348  0.82930314  0.16658603  1
  I  I124  1  0.33773098  0.83971660  0.49909513  1
  I  I125  1  0.33234432  0.83349430  0.83411629  1
  I  I126  1  0.66321124  0.16558191  0.16627651  1
  I  I127  1  0.66476771  0.16299448  0.49863241  1
  I  I128  1  0.66534345  0.16380727  0.83553042  1
  I  I129  1  0.66401224  0.49663514  0.16228533  1
  I  I130  1  0.66632159  0.50246178  0.50186259  1
  I  I131  1  0.66320681  0.50105667  0.83652672  1
  I  I132  1  0.66245158  0.83998745  0.16638612  1
  I  I133  1  0.66281814  0.83576090  0.49851349  1
  I  I134  1  0.66851451  0.83548218  0.83401860  1
