# generated using pymatgen
data_Cs27Sn14Pb13I81
_symmetry_space_group_name_H-M   'P 1'
_cell_length_a   18.96948760
_cell_length_b   18.97018360
_cell_length_c   18.98809610
_cell_angle_alpha   89.99903365
_cell_angle_beta   90.00096748
_cell_angle_gamma   89.99978871
_symmetry_Int_Tables_number   1
_chemical_formula_structural   Cs27Sn14Pb13I81
_chemical_formula_sum   'Cs27 Sn14 Pb13 I81'
_cell_volume   6832.95491187
_cell_formula_units_Z   1
loop_
 _symmetry_equiv_pos_site_id
 _symmetry_equiv_pos_as_xyz
  1  'x, y, z'
loop_
 _atom_site_type_symbol
 _atom_site_label
 _atom_site_symmetry_multiplicity
 _atom_site_fract_x
 _atom_site_fract_y
 _atom_site_fract_z
 _atom_site_occupancy
  Cs  Cs0  1  0.00268624  0.00701942  -0.00207487  1
  Cs  Cs1  1  0.00821418  0.00494401  0.33298714  1
  Cs  Cs2  1  0.00185320  0.00444022  0.66816854  1
  Cs  Cs3  1  0.00066863  0.33352209  -0.00110614  1
  Cs  Cs4  1  0.00083062  0.32892252  0.33292521  1
  Cs  Cs5  1  0.00200814  0.32651757  0.66855223  1
  Cs  Cs6  1  -0.00211438  0.66439404  -0.00220155  1
  Cs  Cs7  1  -0.00228655  0.66685862  0.33350331  1
  Cs  Cs8  1  -0.00226315  0.66745773  0.66907784  1
  Cs  Cs9  1  0.33369157  -0.00253026  0.00276862  1
  Cs  Cs10  1  0.32928539  -0.00408126  0.33143570  1
  Cs  Cs11  1  0.33361080  0.00170853  0.66618727  1
  Cs  Cs12  1  0.33306123  0.33344555  -0.00010090  1
  Cs  Cs13  1  0.33602049  0.33604823  0.33571897  1
  Cs  Cs14  1  0.33515401  0.33563133  0.66345877  1
  Cs  Cs15  1  0.33319153  0.66897082  -0.00110213  1
  Cs  Cs16  1  0.32735906  0.66792721  0.33426686  1
  Cs  Cs17  1  0.33229058  0.66279088  0.66675131  1
  Cs  Cs18  1  0.66478711  -0.00168559  0.00013332  1
  Cs  Cs19  1  0.66642111  0.00066469  0.33638335  1
  Cs  Cs20  1  0.66663395  -0.00031763  0.66375383  1
  Cs  Cs21  1  0.66681363  0.33335617  0.00265207  1
  Cs  Cs22  1  0.66532776  0.33239917  0.33157876  1
  Cs  Cs23  1  0.66398518  0.33281208  0.66532040  1
  Cs  Cs24  1  0.66814094  0.66735739  -0.00108615  1
  Cs  Cs25  1  0.67001719  0.66799810  0.33297142  1
  Cs  Cs26  1  0.66759785  0.66726845  0.66714606  1
  Sn  Sn27  1  0.83305813  0.83296086  0.49980496  1
  Sn  Sn28  1  0.83349394  0.50056502  0.16677382  1
  Sn  Sn29  1  0.16580582  0.83245989  0.83327505  1
  Sn  Sn30  1  0.50033560  0.16689747  0.16664211  1
  Sn  Sn31  1  0.83354095  0.83334962  0.16671140  1
  Sn  Sn32  1  0.16627477  0.50026789  0.16601587  1
  Sn  Sn33  1  0.83376474  0.50029228  0.83308400  1
  Sn  Sn34  1  0.83335963  0.50021876  0.50016085  1
  Sn  Sn35  1  0.49997544  0.50019449  0.16651554  1
  Sn  Sn36  1  0.50036928  0.16670081  0.83357844  1
  Sn  Sn37  1  0.83412352  0.83300162  0.83341832  1
  Sn  Sn38  1  0.50031558  0.83341241  0.49998982  1
  Sn  Sn39  1  0.16590857  0.50093937  0.83407100  1
  Sn  Sn40  1  0.50043828  0.16557382  0.49963610  1
  Pb  Pb41  1  0.50024327  0.49853893  0.83539632  1
  Pb  Pb42  1  0.16943275  0.16719258  0.83347297  1
  Pb  Pb43  1  0.83112145  0.16667612  0.83343986  1
  Pb  Pb44  1  0.50218461  0.50074835  0.49757149  1
  Pb  Pb45  1  0.17005533  0.16675641  0.49991993  1
  Pb  Pb46  1  0.16316005  0.50021150  0.50041595  1
  Pb  Pb47  1  0.50027001  0.83495616  0.83126464  1
  Pb  Pb48  1  0.16971886  0.16967011  0.16652161  1
  Pb  Pb49  1  0.50183279  0.83284643  0.16889615  1
  Pb  Pb50  1  0.83152527  0.16655356  0.16662650  1
  Pb  Pb51  1  0.16331588  0.83092625  0.16413938  1
  Pb  Pb52  1  0.83177284  0.16630398  0.49992526  1
  Pb  Pb53  1  0.16562438  0.83299742  0.50265009  1
  I  I54  1  0.16696881  -0.00025908  0.16556311  1
  I  I55  1  0.16222443  -0.00028889  0.50217490  1
  I  I56  1  0.16185665  -0.00279168  0.83141407  1
  I  I57  1  0.16031141  0.33792583  0.15963888  1
  I  I58  1  0.16645371  0.33378305  0.50256099  1
  I  I59  1  0.16219602  0.33693626  0.83755646  1
  I  I60  1  0.17323829  0.66278912  0.16547768  1
  I  I61  1  0.17521392  0.66654281  0.49798893  1
  I  I62  1  0.16326447  0.66573579  0.83693892  1
  I  I63  1  0.50318844  0.00233515  0.16518786  1
  I  I64  1  0.50707210  0.00005887  0.49931725  1
  I  I65  1  0.50048927  0.00300811  0.83796280  1
  I  I66  1  0.50241921  0.33389809  0.16836812  1
  I  I67  1  0.50136951  0.33111398  0.50122121  1
  I  I68  1  0.50038762  0.33048505  0.82860210  1
  I  I69  1  0.49984641  0.66363627  0.16739818  1
  I  I70  1  0.50330080  0.66933863  0.49942232  1
  I  I71  1  0.49976150  0.66665708  0.83321055  1
  I  I72  1  0.82948202  -0.00329601  0.16625939  1
  I  I73  1  0.82965634  -0.00362784  0.50110427  1
  I  I74  1  0.83628548  -0.00362366  0.83268652  1
  I  I75  1  0.83431348  0.33721069  0.16625884  1
  I  I76  1  0.83208992  0.33652667  0.49935942  1
  I  I77  1  0.83650661  0.33698491  0.83433160  1
  I  I78  1  0.83016147  0.66531224  0.16657835  1
  I  I79  1  0.82661009  0.66713058  0.50009137  1
  I  I80  1  0.83572825  0.66633583  0.83347147  1
  I  I81  1  0.17033805  0.16430270  -0.00009113  1
  I  I82  1  0.16736361  0.16783604  0.33300660  1
  I  I83  1  0.16927899  0.16917930  0.66704549  1
  I  I84  1  0.16235589  0.50299878  -0.00021805  1
  I  I85  1  0.16733995  0.49837584  0.33033002  1
  I  I86  1  0.16367922  0.50353848  0.67021195  1
  I  I87  1  0.16369630  0.83168463  -0.00363784  1
  I  I88  1  0.16709252  0.83305319  0.33311008  1
  I  I89  1  0.16247236  0.82660607  0.67050343  1
  I  I90  1  0.50079982  0.17235132  0.00067988  1
  I  I91  1  0.50189741  0.16836644  0.33321750  1
  I  I92  1  0.50083218  0.16197140  0.66609750  1
  I  I93  1  0.50467917  0.49459267  0.00339759  1
  I  I94  1  0.50026151  0.49397623  0.32960306  1
  I  I95  1  0.49981449  0.49757294  0.66654473  1
  I  I96  1  0.50111328  0.83555909  0.00006492  1
  I  I97  1  0.50646443  0.83832297  0.33663509  1
  I  I98  1  0.50582615  0.83875736  0.66352695  1
  I  I99  1  0.82805909  0.16607515  -0.00004342  1
  I  I100  1  0.82930137  0.16795561  0.33329153  1
  I  I101  1  0.82894439  0.16829726  0.66674340  1
  I  I102  1  0.83294255  0.50519037  0.00019030  1
  I  I103  1  0.83166065  0.50584611  0.33252472  1
  I  I104  1  0.83619119  0.50616317  0.66740810  1
  I  I105  1  0.83564375  0.82655389  -0.00039612  1
  I  I106  1  0.82557381  0.82532149  0.33354463  1
  I  I107  1  0.83200356  0.82684637  0.66680813  1
  I  I108  1  0.00019506  0.16675744  0.16652293  1
  I  I109  1  -0.00007299  0.16648850  0.50042187  1
  I  I110  1  0.00010431  0.16657013  0.83312426  1
  I  I111  1  -0.00114286  0.50589769  0.16570957  1
  I  I112  1  -0.00492995  0.50814223  0.49551320  1
  I  I113  1  -0.00105716  0.50378020  0.83819068  1
  I  I114  1  -0.00485491  0.82736069  0.17289564  1
  I  I115  1  -0.00402178  0.82667007  0.49804244  1
  I  I116  1  -0.00159296  0.82863808  0.83141781  1
  I  I117  1  0.33807789  0.17110025  0.16674492  1
  I  I118  1  0.33870044  0.16168863  0.50038856  1
  I  I119  1  0.33732491  0.16683412  0.83287042  1
  I  I120  1  0.33336117  0.49375608  0.16196181  1
  I  I121  1  0.33345696  0.49853675  0.49994604  1
  I  I122  1  0.33067010  0.50278700  0.83825624  1
  I  I123  1  0.33312086  0.83298180  0.16673459  1
  I  I124  1  0.33589640  0.83948975  0.50069735  1
  I  I125  1  0.33093405  0.82999035  0.83176765  1
  I  I126  1  0.66319346  0.17359917  0.16691027  1
  I  I127  1  0.66330538  0.16568350  0.49979782  1
  I  I128  1  0.66314278  0.16714738  0.83328406  1
  I  I129  1  0.66776196  0.49863871  0.16645882  1
  I  I130  1  0.67032688  0.50092045  0.50119361  1
  I  I131  1  0.66998278  0.50347630  0.83433881  1
  I  I132  1  0.66999949  0.82743608  0.16151837  1
  I  I133  1  0.66797851  0.83388049  0.50243060  1
  I  I134  1  0.67010927  0.82954324  0.83463043  1
