# generated using pymatgen
data_Cs27Sn14Pb13I81
_symmetry_space_group_name_H-M   'P 1'
_cell_length_a   18.97033302
_cell_length_b   18.96979551
_cell_length_c   18.98661636
_cell_angle_alpha   90.00121458
_cell_angle_beta   90.00085523
_cell_angle_gamma   90.00117239
_symmetry_Int_Tables_number   1
_chemical_formula_structural   Cs27Sn14Pb13I81
_chemical_formula_sum   'Cs27 Sn14 Pb13 I81'
_cell_volume   6832.58713653
_cell_formula_units_Z   1
loop_
 _symmetry_equiv_pos_site_id
 _symmetry_equiv_pos_as_xyz
  1  'x, y, z'
loop_
 _atom_site_type_symbol
 _atom_site_label
 _atom_site_symmetry_multiplicity
 _atom_site_fract_x
 _atom_site_fract_y
 _atom_site_fract_z
 _atom_site_occupancy
  Cs  Cs0  1  -0.00050249  -0.00056172  -0.00021060  1
  Cs  Cs1  1  -0.00157071  0.00009166  0.33189558  1
  Cs  Cs2  1  -0.00072127  -0.00036948  0.66828033  1
  Cs  Cs3  1  0.00299331  0.33113333  0.00165656  1
  Cs  Cs4  1  0.00355839  0.33399601  0.33457184  1
  Cs  Cs5  1  0.00331606  0.33173199  0.66349696  1
  Cs  Cs6  1  -0.00032839  0.66927780  -0.00401246  1
  Cs  Cs7  1  -0.00565646  0.66803055  0.33665406  1
  Cs  Cs8  1  -0.00967291  0.66893671  0.66825276  1
  Cs  Cs9  1  0.33375366  -0.00086970  0.00009731  1
  Cs  Cs10  1  0.33474496  -0.00135224  0.33339482  1
  Cs  Cs11  1  0.33552934  -0.00047505  0.66641067  1
  Cs  Cs12  1  0.33225804  0.33295118  0.00049387  1
  Cs  Cs13  1  0.33027671  0.33509013  0.33483738  1
  Cs  Cs14  1  0.33183101  0.33358307  0.66453698  1
  Cs  Cs15  1  0.33153340  0.66741134  0.00185342  1
  Cs  Cs16  1  0.33393054  0.66966493  0.33134585  1
  Cs  Cs17  1  0.33451075  0.66919374  0.66563379  1
  Cs  Cs18  1  0.66322409  0.00211322  0.00173022  1
  Cs  Cs19  1  0.66488464  0.00002305  0.33444270  1
  Cs  Cs20  1  0.66301290  0.00189230  0.66478519  1
  Cs  Cs21  1  0.66870279  0.33682097  -0.00000586  1
  Cs  Cs22  1  0.66786345  0.33757807  0.33031265  1
  Cs  Cs23  1  0.66561370  0.33344516  0.66877222  1
  Cs  Cs24  1  0.67252630  0.65509713  -0.00109953  1
  Cs  Cs25  1  0.67427412  0.66081563  0.33450917  1
  Cs  Cs26  1  0.67461774  0.65819710  0.66668797  1
  Sn  Sn27  1  0.16708907  0.83348535  0.16763270  1
  Sn  Sn28  1  0.16691862  0.16712239  0.83402899  1
  Sn  Sn29  1  0.83322402  0.16611271  0.83266045  1
  Sn  Sn30  1  0.16717426  0.83370148  0.49945859  1
  Sn  Sn31  1  0.16715668  0.50039331  0.16601230  1
  Sn  Sn32  1  0.83220164  0.16613028  0.50047959  1
  Sn  Sn33  1  0.16744286  0.49955631  0.83348344  1
  Sn  Sn34  1  0.50012694  0.83356208  0.16650847  1
  Sn  Sn35  1  0.16779684  0.16627411  0.16604891  1
  Sn  Sn36  1  0.50068699  0.16655058  0.49970746  1
  Sn  Sn37  1  0.50015713  0.83332325  0.83361727  1
  Sn  Sn38  1  0.49984944  0.16616512  0.83353436  1
  Sn  Sn39  1  0.49890030  0.16620155  0.16674272  1
  Sn  Sn40  1  0.49949990  0.83352055  0.49983789  1
  Pb  Pb41  1  0.16718866  0.16469059  0.49994715  1
  Pb  Pb42  1  0.49754465  0.49975195  0.83331720  1
  Pb  Pb43  1  0.16694763  0.50374555  0.50038034  1
  Pb  Pb44  1  0.49964990  0.50036222  0.49996376  1
  Pb  Pb45  1  0.83301788  0.16647168  0.16666285  1
  Pb  Pb46  1  0.83231128  0.83577597  0.50001308  1
  Pb  Pb47  1  0.83684884  0.49649628  0.83337984  1
  Pb  Pb48  1  0.83232263  0.83364992  0.16638335  1
  Pb  Pb49  1  0.83349443  0.49602299  0.50008836  1
  Pb  Pb50  1  0.82909186  0.83621312  0.83357669  1
  Pb  Pb51  1  0.83727392  0.49978904  0.16648476  1
  Pb  Pb52  1  0.16819404  0.83369589  0.83338642  1
  Pb  Pb53  1  0.49791116  0.50022845  0.16671798  1
  I  I54  1  0.17035971  0.00047484  0.16613832  1
  I  I55  1  0.16864709  -0.00301449  0.49633734  1
  I  I56  1  0.16519040  0.00332185  0.83611173  1
  I  I57  1  0.16978942  0.33197309  0.16174996  1
  I  I58  1  0.16565273  0.33305252  0.49753909  1
  I  I59  1  0.16779262  0.33115990  0.84077147  1
  I  I60  1  0.17185943  0.66764920  0.16604626  1
  I  I61  1  0.17451994  0.67161971  0.49620226  1
  I  I62  1  0.17035291  0.66489165  0.83709731  1
  I  I63  1  0.49240076  0.00081968  0.16633215  1
  I  I64  1  0.49963456  0.00072918  0.50026614  1
  I  I65  1  0.49716207  0.00152608  0.83310321  1
  I  I66  1  0.49684353  0.32963204  0.16613036  1
  I  I67  1  0.50391183  0.32919079  0.50094473  1
  I  I68  1  0.50212663  0.32921471  0.83338445  1
  I  I69  1  0.49442739  0.67035859  0.16698149  1
  I  I70  1  0.49335465  0.67080592  0.49960909  1
  I  I71  1  0.49553069  0.66980977  0.83329565  1
  I  I72  1  0.84035639  0.00037616  0.16620581  1
  I  I73  1  0.83183030  0.00362253  0.50425367  1
  I  I74  1  0.84071411  0.00435640  0.82997627  1
  I  I75  1  0.83202066  0.33281057  0.16751359  1
  I  I76  1  0.82828790  0.32801853  0.50420124  1
  I  I77  1  0.82672438  0.32851976  0.82976176  1
  I  I78  1  0.83167813  0.66664802  0.16720256  1
  I  I79  1  0.83366300  0.66674420  0.49966492  1
  I  I80  1  0.83360712  0.66648180  0.83335883  1
  I  I81  1  0.16871220  0.16581537  0.00022176  1
  I  I82  1  0.16863994  0.16917140  0.33041541  1
  I  I83  1  0.16851663  0.16984260  0.66938018  1
  I  I84  1  0.16790699  0.49968559  0.00054262  1
  I  I85  1  0.16754456  0.49524609  0.33018220  1
  I  I86  1  0.16748640  0.49318415  0.66967620  1
  I  I87  1  0.17084928  0.83349961  0.00283436  1
  I  I88  1  0.17434049  0.83429768  0.33203950  1
  I  I89  1  0.17188834  0.83487087  0.66466443  1
  I  I90  1  0.49863536  0.16077865  -0.00013704  1
  I  I91  1  0.49986642  0.16085311  0.33306777  1
  I  I92  1  0.50007064  0.16127856  0.66709472  1
  I  I93  1  0.50099524  0.50029311  0.00000606  1
  I  I94  1  0.49657938  0.49763900  0.33322650  1
  I  I95  1  0.49616372  0.49969033  0.66679017  1
  I  I96  1  0.49377852  0.84219715  0.00059581  1
  I  I97  1  0.49345230  0.84176437  0.33310393  1
  I  I98  1  0.49336666  0.84198611  0.66629081  1
  I  I99  1  0.83186270  0.16692186  -0.00294327  1
  I  I100  1  0.83046662  0.16549405  0.33602370  1
  I  I101  1  0.83077160  0.16601269  0.66722410  1
  I  I102  1  0.82998971  0.49743763  -0.00030055  1
  I  I103  1  0.83485377  0.49836144  0.33333599  1
  I  I104  1  0.83639456  0.50258313  0.66694510  1
  I  I105  1  0.83625478  0.83636725  -0.00015745  1
  I  I106  1  0.83169318  0.83632627  0.33334579  1
  I  I107  1  0.83741132  0.83247374  0.66677579  1
  I  I108  1  0.00358020  0.16685673  0.16394337  1
  I  I109  1  -0.00154080  0.16522841  0.50343589  1
  I  I110  1  0.00108258  0.17181552  0.83311042  1
  I  I111  1  0.00564131  0.49776879  0.16246861  1
  I  I112  1  0.00044437  0.49958683  0.49906170  1
  I  I113  1  0.00471038  0.49644462  0.83852067  1
  I  I114  1  0.00391175  0.83423004  0.17132727  1
  I  I115  1  0.00253709  0.83424896  0.49450933  1
  I  I116  1  0.00002381  0.83340912  0.83314874  1
  I  I117  1  0.33301475  0.16593833  0.16372414  1
  I  I118  1  0.33634920  0.16451205  0.50244822  1
  I  I119  1  0.33362919  0.16683165  0.83387794  1
  I  I120  1  0.32966235  0.49912271  0.16232133  1
  I  I121  1  0.33293706  0.49327131  0.50075781  1
  I  I122  1  0.32972883  0.49291579  0.83776495  1
  I  I123  1  0.33313629  0.83471353  0.16767993  1
  I  I124  1  0.33448488  0.83953395  0.49903004  1
  I  I125  1  0.33630226  0.83975594  0.83294611  1
  I  I126  1  0.66290923  0.16037674  0.16467570  1
  I  I127  1  0.66485497  0.16051830  0.50333358  1
  I  I128  1  0.66532270  0.16059952  0.83250128  1
  I  I129  1  0.66666553  0.50000352  0.16748286  1
  I  I130  1  0.66670066  0.50503445  0.49992622  1
  I  I131  1  0.66686518  0.50077043  0.83244909  1
  I  I132  1  0.66200862  0.84201122  0.16796578  1
  I  I133  1  0.66264205  0.83719379  0.49895385  1
  I  I134  1  0.66094063  0.84000336  0.83283217  1
