# generated using pymatgen
data_Cs27Sn14Pb13I81
_symmetry_space_group_name_H-M   'P 1'
_cell_length_a   18.97389331
_cell_length_b   18.97764965
_cell_length_c   18.97966920
_cell_angle_alpha   89.99995073
_cell_angle_beta   90.00062544
_cell_angle_gamma   89.99966072
_symmetry_Int_Tables_number   1
_chemical_formula_structural   Cs27Sn14Pb13I81
_chemical_formula_sum   'Cs27 Sn14 Pb13 I81'
_cell_volume   6834.19738357
_cell_formula_units_Z   1
loop_
 _symmetry_equiv_pos_site_id
 _symmetry_equiv_pos_as_xyz
  1  'x, y, z'
loop_
 _atom_site_type_symbol
 _atom_site_label
 _atom_site_symmetry_multiplicity
 _atom_site_fract_x
 _atom_site_fract_y
 _atom_site_fract_z
 _atom_site_occupancy
  Cs  Cs0  1  0.00040625  -0.00004608  0.00035985  1
  Cs  Cs1  1  0.00118065  0.00076372  0.33355600  1
  Cs  Cs2  1  0.00078531  0.00068728  0.66578803  1
  Cs  Cs3  1  0.00067701  0.33200486  -0.00277485  1
  Cs  Cs4  1  -0.00726655  0.33188511  0.33528892  1
  Cs  Cs5  1  -0.00158270  0.33554954  0.66836824  1
  Cs  Cs6  1  -0.00101266  0.66884542  -0.00078261  1
  Cs  Cs7  1  -0.00017412  0.66712365  0.33349375  1
  Cs  Cs8  1  0.00218772  0.66484456  0.66696464  1
  Cs  Cs9  1  0.33193312  0.00190549  0.00284791  1
  Cs  Cs10  1  0.33240371  -0.00073301  0.33360024  1
  Cs  Cs11  1  0.33373388  0.00027750  0.66354270  1
  Cs  Cs12  1  0.33425916  0.33245413  0.00000052  1
  Cs  Cs13  1  0.33382132  0.33086982  0.33133032  1
  Cs  Cs14  1  0.33399545  0.33837640  0.66862890  1
  Cs  Cs15  1  0.33331166  0.66365501  0.00185019  1
  Cs  Cs16  1  0.33406552  0.66942871  0.33334892  1
  Cs  Cs17  1  0.33258244  0.65988619  0.66662937  1
  Cs  Cs18  1  0.66732320  -0.00344935  -0.00335034  1
  Cs  Cs19  1  0.66408834  0.00119624  0.33543752  1
  Cs  Cs20  1  0.66322625  -0.00183784  0.66730001  1
  Cs  Cs21  1  0.66579777  0.33687233  -0.00008161  1
  Cs  Cs22  1  0.67393329  0.34011046  0.33322142  1
  Cs  Cs23  1  0.66898693  0.33510233  0.66686596  1
  Cs  Cs24  1  0.67015191  0.66742966  -0.00052662  1
  Cs  Cs25  1  0.66496903  0.65974326  0.33124492  1
  Cs  Cs26  1  0.66387563  0.66999046  0.66839893  1
  Sn  Sn27  1  0.16725570  0.83339617  0.16664083  1
  Sn  Sn28  1  0.83367267  0.49947168  0.83336055  1
  Sn  Sn29  1  0.49922203  0.83453266  0.16733429  1
  Sn  Sn30  1  0.83326690  0.83358332  0.49950989  1
  Sn  Sn31  1  0.16692152  0.83407680  0.50023753  1
  Sn  Sn32  1  0.16639867  0.49959359  0.16723861  1
  Sn  Sn33  1  0.49959638  0.83414256  0.49893144  1
  Sn  Sn34  1  0.16616059  0.16578045  0.83294803  1
  Sn  Sn35  1  0.16707942  0.83421027  0.83319153  1
  Sn  Sn36  1  0.16688711  0.16679939  0.16705102  1
  Sn  Sn37  1  0.83380437  0.16697271  0.83335720  1
  Sn  Sn38  1  0.49917756  0.16641694  0.49893981  1
  Sn  Sn39  1  0.49964523  0.16569301  0.16778057  1
  Sn  Sn40  1  0.16737318  0.16626809  0.50007450  1
  Pb  Pb41  1  0.49790576  0.49983209  0.16680390  1
  Pb  Pb42  1  0.83354108  0.50311279  0.50234490  1
  Pb  Pb43  1  0.83299167  0.16493730  0.50203121  1
  Pb  Pb44  1  0.16564458  0.49968261  0.83546035  1
  Pb  Pb45  1  0.49972937  0.49945577  0.49980243  1
  Pb  Pb46  1  0.16666698  0.49929080  0.49736550  1
  Pb  Pb47  1  0.50288995  0.50006219  0.83359787  1
  Pb  Pb48  1  0.83290018  0.83369254  0.16919428  1
  Pb  Pb49  1  0.83580206  0.83395803  0.83123004  1
  Pb  Pb50  1  0.49665194  0.83352347  0.83354839  1
  Pb  Pb51  1  0.49939745  0.16655507  0.83328109  1
  Pb  Pb52  1  0.83266340  0.16628282  0.16450539  1
  Pb  Pb53  1  0.83624038  0.50004322  0.16447430  1
  I  I54  1  0.16999321  -0.00000721  0.16609266  1
  I  I55  1  0.16666132  -0.00052221  0.49727809  1
  I  I56  1  0.16036626  0.00074219  0.83699430  1
  I  I57  1  0.17089121  0.33148007  0.16480050  1
  I  I58  1  0.17134014  0.32927016  0.50126019  1
  I  I59  1  0.16497472  0.32989493  0.83350901  1
  I  I60  1  0.16974624  0.66860586  0.16587544  1
  I  I61  1  0.16713334  0.67037104  0.50104410  1
  I  I62  1  0.16515087  0.66960970  0.83292980  1
  I  I63  1  0.49087986  -0.00008673  0.17069255  1
  I  I64  1  0.49868921  -0.00056030  0.49623496  1
  I  I65  1  0.50747960  0.00004211  0.83360746  1
  I  I66  1  0.49492388  0.32966131  0.16947354  1
  I  I67  1  0.49411366  0.32919147  0.49675963  1
  I  I68  1  0.49462791  0.33284715  0.83353218  1
  I  I69  1  0.49523854  0.67019872  0.17130128  1
  I  I70  1  0.49919589  0.67067392  0.49620801  1
  I  I71  1  0.49990305  0.66719997  0.83291145  1
  I  I72  1  0.83869761  -0.00006435  0.16216827  1
  I  I73  1  0.83495403  -0.00293068  0.50312153  1
  I  I74  1  0.83640738  0.00260134  0.83267040  1
  I  I75  1  0.83342406  0.33310143  0.16915093  1
  I  I76  1  0.83348609  0.33312757  0.49952074  1
  I  I77  1  0.84074053  0.33206161  0.83297503  1
  I  I78  1  0.83399990  0.66695607  0.16373843  1
  I  I79  1  0.83497403  0.67124903  0.50192530  1
  I  I80  1  0.83544528  0.66496778  0.83183358  1
  I  I81  1  0.16629064  0.16409293  0.00054228  1
  I  I82  1  0.17113451  0.16375516  0.33321371  1
  I  I83  1  0.16633892  0.15898421  0.66631037  1
  I  I84  1  0.16566645  0.50089820  0.00321250  1
  I  I85  1  0.16753668  0.50157122  0.32946777  1
  I  I86  1  0.16501175  0.50120202  0.66676728  1
  I  I87  1  0.16976153  0.83571837  0.00087806  1
  I  I88  1  0.16663818  0.83504662  0.33347493  1
  I  I89  1  0.16545849  0.84006832  0.66576640  1
  I  I90  1  0.49603187  0.16269061  0.00324276  1
  I  I91  1  0.49039526  0.16137014  0.33328380  1
  I  I92  1  0.49706673  0.16103207  0.66340800  1
  I  I93  1  0.49940834  0.49993333  0.00048264  1
  I  I94  1  0.50104358  0.50050827  0.33320020  1
  I  I95  1  0.49860120  0.50061111  0.66654242  1
  I  I96  1  0.49539547  0.83766582  0.00354636  1
  I  I97  1  0.49454095  0.83716566  0.33360904  1
  I  I98  1  0.50055497  0.83797475  0.66313972  1
  I  I99  1  0.83886841  0.16910378  -0.00352885  1
  I  I100  1  0.83666785  0.16554683  0.33358229  1
  I  I101  1  0.83880093  0.16949660  0.66982902  1
  I  I102  1  0.83398879  0.49674236  -0.00333440  1
  I  I103  1  0.83293443  0.50071513  0.33337817  1
  I  I104  1  0.83665859  0.49445522  0.66995645  1
  I  I105  1  0.83334212  0.83207646  -0.00026281  1
  I  I106  1  0.83990940  0.83485518  0.33697271  1
  I  I107  1  0.83288434  0.83372116  0.66344837  1
  I  I108  1  0.00377955  0.16546011  0.16898116  1
  I  I109  1  0.00333103  0.16206764  0.49724452  1
  I  I110  1  0.00212996  0.16672712  0.83355961  1
  I  I111  1  0.00435304  0.50076718  0.16686788  1
  I  I112  1  0.00022684  0.50088779  0.49866235  1
  I  I113  1  -0.00212139  0.49839993  0.83468578  1
  I  I114  1  0.00381864  0.83415134  0.16688543  1
  I  I115  1  0.00216497  0.83666764  0.50058193  1
  I  I116  1  0.00403641  0.83434633  0.83443114  1
  I  I117  1  0.33163099  0.16591744  0.16483492  1
  I  I118  1  0.33211288  0.15857240  0.50086925  1
  I  I119  1  0.32961430  0.16144660  0.83410289  1
  I  I120  1  0.32985978  0.50063208  0.16446109  1
  I  I121  1  0.33300438  0.50480722  0.50243301  1
  I  I122  1  0.33291540  0.50024954  0.83377009  1
  I  I123  1  0.33173734  0.83388843  0.17066978  1
  I  I124  1  0.33251849  0.83772391  0.49872146  1
  I  I125  1  0.32852083  0.84054471  0.83002327  1
  I  I126  1  0.66285985  0.16107884  0.16998190  1
  I  I127  1  0.66354651  0.16137025  0.49742252  1
  I  I128  1  0.66916139  0.17194204  0.83298252  1
  I  I129  1  0.66663612  0.50056920  0.16495798  1
  I  I130  1  0.66671832  0.49956452  0.50072866  1
  I  I131  1  0.67106702  0.49312567  0.83318907  1
  I  I132  1  0.66291819  0.83831191  0.17027818  1
  I  I133  1  0.66525336  0.83774071  0.49707826  1
  I  I134  1  0.66669194  0.83205383  0.83307014  1
