# generated using pymatgen
data_Cs27Sn14Pb13I81
_symmetry_space_group_name_H-M   'P 1'
_cell_length_a   18.98591065
_cell_length_b   18.96602387
_cell_length_c   18.97694789
_cell_angle_alpha   89.99974999
_cell_angle_beta   90.00036850
_cell_angle_gamma   90.00169961
_symmetry_Int_Tables_number   1
_chemical_formula_structural   Cs27Sn14Pb13I81
_chemical_formula_sum   'Cs27 Sn14 Pb13 I81'
_cell_volume   6833.35668378
_cell_formula_units_Z   1
loop_
 _symmetry_equiv_pos_site_id
 _symmetry_equiv_pos_as_xyz
  1  'x, y, z'
loop_
 _atom_site_type_symbol
 _atom_site_label
 _atom_site_symmetry_multiplicity
 _atom_site_fract_x
 _atom_site_fract_y
 _atom_site_fract_z
 _atom_site_occupancy
  Cs  Cs0  1  -0.00225139  0.00208801  0.00148985  1
  Cs  Cs1  1  -0.00119049  0.00038524  0.33501028  1
  Cs  Cs2  1  0.00315915  0.00142278  0.66428803  1
  Cs  Cs3  1  0.00018683  0.33233690  -0.00168024  1
  Cs  Cs4  1  -0.00129447  0.33326126  0.33223243  1
  Cs  Cs5  1  -0.00025836  0.33594892  0.66860472  1
  Cs  Cs6  1  -0.00002062  0.66374367  -0.00018791  1
  Cs  Cs7  1  0.00602100  0.66525158  0.33308598  1
  Cs  Cs8  1  -0.00299638  0.66057177  0.66781834  1
  Cs  Cs9  1  0.33398009  0.00064781  -0.00268379  1
  Cs  Cs10  1  0.33216933  -0.00058590  0.33604930  1
  Cs  Cs11  1  0.33114136  0.00143914  0.66607211  1
  Cs  Cs12  1  0.33534384  0.33252331  -0.00017795  1
  Cs  Cs13  1  0.33735305  0.33449431  0.33313628  1
  Cs  Cs14  1  0.33577493  0.33233191  0.66739598  1
  Cs  Cs15  1  0.33479852  0.66626566  0.00533434  1
  Cs  Cs16  1  0.32952896  0.66665182  0.33090076  1
  Cs  Cs17  1  0.33194075  0.66894163  0.66481397  1
  Cs  Cs18  1  0.66841251  -0.00539304  0.00075819  1
  Cs  Cs19  1  0.67101960  -0.00015860  0.33457274  1
  Cs  Cs20  1  0.66710290  -0.00109665  0.66584307  1
  Cs  Cs21  1  0.66398515  0.33245646  0.00342736  1
  Cs  Cs22  1  0.66390279  0.33527768  0.33046023  1
  Cs  Cs23  1  0.66474664  0.33454436  0.66514156  1
  Cs  Cs24  1  0.66549360  0.67183506  -0.00214160  1
  Cs  Cs25  1  0.66557293  0.66332830  0.33389752  1
  Cs  Cs26  1  0.67189880  0.66712495  0.66895542  1
  Sn  Sn27  1  0.49937322  0.16644880  0.16603979  1
  Sn  Sn28  1  0.16661049  0.16603115  0.83320858  1
  Sn  Sn29  1  0.49980347  0.49967249  0.83387287  1
  Sn  Sn30  1  0.50109649  0.49936592  0.16540997  1
  Sn  Sn31  1  0.49996002  0.83340614  0.49996711  1
  Sn  Sn32  1  0.50048412  0.16693465  0.83411506  1
  Sn  Sn33  1  0.16764839  0.16656918  0.16681870  1
  Sn  Sn34  1  0.83272032  0.50006893  0.16640656  1
  Sn  Sn35  1  0.16594326  0.16683779  0.49997116  1
  Sn  Sn36  1  0.16630096  0.83423008  0.50130612  1
  Sn  Sn37  1  0.83391094  0.16645568  0.50091875  1
  Sn  Sn38  1  0.16661233  0.83394079  0.83283831  1
  Sn  Sn39  1  0.83396037  0.83380653  0.49998738  1
  Sn  Sn40  1  0.83293752  0.16657553  0.83249607  1
  Pb  Pb41  1  0.50001203  0.83377759  0.16891387  1
  Pb  Pb42  1  0.16671247  0.49946943  0.50030381  1
  Pb  Pb43  1  0.50015791  0.16522474  0.50001355  1
  Pb  Pb44  1  0.83626706  0.83566849  0.83127166  1
  Pb  Pb45  1  0.83070338  0.49733301  0.83557741  1
  Pb  Pb46  1  0.16921320  0.49982789  0.83336946  1
  Pb  Pb47  1  0.16731327  0.49710184  0.16646306  1
  Pb  Pb48  1  0.49801594  0.83374057  0.83138655  1
  Pb  Pb49  1  0.83352815  0.83028685  0.16920261  1
  Pb  Pb50  1  0.49994601  0.50290259  0.50015785  1
  Pb  Pb51  1  0.83333907  0.49929978  0.49810719  1
  Pb  Pb52  1  0.16659147  0.83619932  0.16637379  1
  Pb  Pb53  1  0.83295908  0.16766559  0.16682831  1
  I  I54  1  0.17238025  0.00458196  0.16712307  1
  I  I55  1  0.16639432  0.00084705  0.50042913  1
  I  I56  1  0.16980591  0.00211750  0.83175488  1
  I  I57  1  0.16785835  0.32870772  0.16642269  1
  I  I58  1  0.16190984  0.32884957  0.50095485  1
  I  I59  1  0.16478603  0.32930026  0.83274380  1
  I  I60  1  0.16713019  0.66664176  0.16823444  1
  I  I61  1  0.16610152  0.67047907  0.50430193  1
  I  I62  1  0.16843309  0.66968672  0.82632412  1
  I  I63  1  0.49525773  0.00354287  0.16253082  1
  I  I64  1  0.49921261  -0.00261473  0.50015527  1
  I  I65  1  0.50071941  0.00360155  0.83685151  1
  I  I66  1  0.49957290  0.33243350  0.16408886  1
  I  I67  1  0.49996620  0.33316169  0.49953727  1
  I  I68  1  0.49761443  0.33140847  0.83642207  1
  I  I69  1  0.50463823  0.66356579  0.16329580  1
  I  I70  1  0.49903564  0.67092784  0.49987378  1
  I  I71  1  0.49774770  0.66432518  0.83687089  1
  I  I72  1  0.83291247  0.00026750  0.16570047  1
  I  I73  1  0.83415961  0.00087490  0.50241959  1
  I  I74  1  0.82744893  0.00416364  0.83406647  1
  I  I75  1  0.83123608  0.33529203  0.16914009  1
  I  I76  1  0.83867627  0.32961965  0.50287870  1
  I  I77  1  0.83972761  0.32896945  0.82656073  1
  I  I78  1  0.82558474  0.66240143  0.16775832  1
  I  I79  1  0.83411930  0.66968788  0.49758436  1
  I  I80  1  0.83342783  0.66664280  0.83228348  1
  I  I81  1  0.16698583  0.16344397  -0.00094158  1
  I  I82  1  0.16630954  0.16327225  0.33407675  1
  I  I83  1  0.16699743  0.16227099  0.66681572  1
  I  I84  1  0.16376009  0.50163117  0.00000051  1
  I  I85  1  0.16924642  0.50042206  0.33317814  1
  I  I86  1  0.16898630  0.49572520  0.66692825  1
  I  I87  1  0.16863073  0.83809389  -0.00314986  1
  I  I88  1  0.16653704  0.83695778  0.33688874  1
  I  I89  1  0.16829235  0.84261102  0.66556462  1
  I  I90  1  0.49625811  0.17077948  -0.00047962  1
  I  I91  1  0.49694985  0.16996338  0.33083605  1
  I  I92  1  0.49757830  0.16967234  0.66951953  1
  I  I93  1  0.50302754  0.49475485  0.00051377  1
  I  I94  1  0.50347075  0.49535387  0.33013440  1
  I  I95  1  0.49809358  0.49398428  0.66966808  1
  I  I96  1  0.49779671  0.83294505  -0.00024456  1
  I  I97  1  0.49677821  0.83422765  0.33705628  1
  I  I98  1  0.50103126  0.83435479  0.66346826  1
  I  I99  1  0.83665361  0.16994121  -0.00248461  1
  I  I100  1  0.83678663  0.16378343  0.33611488  1
  I  I101  1  0.83585392  0.16309960  0.66640768  1
  I  I102  1  0.83221771  0.49665536  0.00321161  1
  I  I103  1  0.82534368  0.49707916  0.33044266  1
  I  I104  1  0.83182936  0.50167451  0.66694346  1
  I  I105  1  0.83415630  0.83443034  -0.00039472  1
  I  I106  1  0.83580317  0.84197354  0.33778213  1
  I  I107  1  0.83023990  0.83427199  0.66297804  1
  I  I108  1  0.00239052  0.16787683  0.16496875  1
  I  I109  1  0.00056847  0.15923319  0.50137225  1
  I  I110  1  0.00081695  0.16168452  0.83339969  1
  I  I111  1  -0.00215398  0.49867504  0.16985265  1
  I  I112  1  -0.00008211  0.50366998  0.49659369  1
  I  I113  1  -0.00019549  0.49967748  0.83457535  1
  I  I114  1  0.00015151  0.83301761  0.16863385  1
  I  I115  1  0.00070913  0.83921248  0.50266817  1
  I  I116  1  0.00413809  0.83910467  0.82837978  1
  I  I117  1  0.33372476  0.17197519  0.16463805  1
  I  I118  1  0.33067618  0.16230079  0.50155824  1
  I  I119  1  0.33313908  0.16691600  0.83352349  1
  I  I120  1  0.33677128  0.49817965  0.16305228  1
  I  I121  1  0.33353225  0.49996183  0.49696688  1
  I  I122  1  0.33699099  0.49373542  0.84003569  1
  I  I123  1  0.33329086  0.82834775  0.17087983  1
  I  I124  1  0.33187430  0.83761302  0.50329855  1
  I  I125  1  0.33032229  0.83984159  0.82628883  1
  I  I126  1  0.66385684  0.16954494  0.16463274  1
  I  I127  1  0.66912465  0.16183170  0.50247215  1
  I  I128  1  0.66610571  0.17199782  0.83278739  1
  I  I129  1  0.66499981  0.49217624  0.16524138  1
  I  I130  1  0.66653895  0.50018878  0.50094478  1
  I  I131  1  0.66286993  0.49496828  0.83408626  1
  I  I132  1  0.66662619  0.83886348  0.16935055  1
  I  I133  1  0.66734877  0.83818904  0.49824539  1
  I  I134  1  0.66675059  0.83388075  0.83066880  1
