# generated using pymatgen
data_Cs27Sn14Pb13I81
_symmetry_space_group_name_H-M   'P 1'
_cell_length_a   18.97967073
_cell_length_b   18.97522989
_cell_length_c   18.97005111
_cell_angle_alpha   90.00221524
_cell_angle_beta   89.99985368
_cell_angle_gamma   89.99966706
_symmetry_Int_Tables_number   1
_chemical_formula_structural   Cs27Sn14Pb13I81
_chemical_formula_sum   'Cs27 Sn14 Pb13 I81'
_cell_volume   6831.94278191
_cell_formula_units_Z   1
loop_
 _symmetry_equiv_pos_site_id
 _symmetry_equiv_pos_as_xyz
  1  'x, y, z'
loop_
 _atom_site_type_symbol
 _atom_site_label
 _atom_site_symmetry_multiplicity
 _atom_site_fract_x
 _atom_site_fract_y
 _atom_site_fract_z
 _atom_site_occupancy
  Cs  Cs0  1  -0.00020767  -0.00336957  0.00366944  1
  Cs  Cs1  1  0.00584687  -0.00164813  0.33059404  1
  Cs  Cs2  1  -0.00005833  0.00005125  0.66664874  1
  Cs  Cs3  1  0.00188896  0.33615010  0.00110614  1
  Cs  Cs4  1  -0.00095675  0.33336964  0.33250242  1
  Cs  Cs5  1  -0.00022545  0.33528401  0.66803995  1
  Cs  Cs6  1  -0.00688441  0.66413503  -0.00585029  1
  Cs  Cs7  1  -0.00079358  0.66646107  0.33660780  1
  Cs  Cs8  1  0.00020280  0.66473126  0.66667914  1
  Cs  Cs9  1  0.33115973  0.00187382  0.00012454  1
  Cs  Cs10  1  0.32579939  -0.00146708  0.33056193  1
  Cs  Cs11  1  0.33470172  -0.00194185  0.66763308  1
  Cs  Cs12  1  0.33206958  0.33275363  0.00125624  1
  Cs  Cs13  1  0.33251768  0.33429574  0.33199937  1
  Cs  Cs14  1  0.33347875  0.33288655  0.66741891  1
  Cs  Cs15  1  0.33945134  0.66549202  -0.00388624  1
  Cs  Cs16  1  0.33599098  0.66740941  0.33463864  1
  Cs  Cs17  1  0.33327733  0.66795229  0.66657253  1
  Cs  Cs18  1  0.67049579  -0.00224786  -0.00121376  1
  Cs  Cs19  1  0.66795187  0.00214926  0.33446455  1
  Cs  Cs20  1  0.66557859  0.00775145  0.66731554  1
  Cs  Cs21  1  0.66616829  0.33097932  0.00211725  1
  Cs  Cs22  1  0.66840211  0.33368403  0.33356270  1
  Cs  Cs23  1  0.66628271  0.32429747  0.66603646  1
  Cs  Cs24  1  0.66544348  0.67136281  0.00146488  1
  Cs  Cs25  1  0.66571817  0.66477345  0.33300216  1
  Cs  Cs26  1  0.66418862  0.66706689  0.66428985  1
  Sn  Sn27  1  0.16659816  0.16588521  0.83245835  1
  Sn  Sn28  1  0.16714100  0.83390863  0.83328529  1
  Sn  Sn29  1  0.49928778  0.83276785  0.83217713  1
  Sn  Sn30  1  0.16676133  0.49915199  0.49925636  1
  Sn  Sn31  1  0.50081349  0.16641684  0.16698484  1
  Sn  Sn32  1  0.50100066  0.83298908  0.50056392  1
  Sn  Sn33  1  0.83303844  0.50039690  0.49963703  1
  Sn  Sn34  1  0.50041518  0.50011790  0.83229096  1
  Sn  Sn35  1  0.83408535  0.49938153  0.16737164  1
  Sn  Sn36  1  0.16680946  0.16762182  0.50100810  1
  Sn  Sn37  1  0.83246899  0.16737658  0.16697360  1
  Sn  Sn38  1  0.50020736  0.50013609  0.50103550  1
  Sn  Sn39  1  0.16605260  0.50057134  0.16733917  1
  Sn  Sn40  1  0.83220396  0.83288448  0.50014042  1
  Pb  Pb41  1  0.49988721  0.83609957  0.16702480  1
  Pb  Pb42  1  0.50047750  0.49884163  0.16708779  1
  Pb  Pb43  1  0.16695850  0.83266996  0.50152304  1
  Pb  Pb44  1  0.83658738  0.16680207  0.83632386  1
  Pb  Pb45  1  0.83335651  0.83253233  0.16954364  1
  Pb  Pb46  1  0.49829629  0.16625020  0.83531453  1
  Pb  Pb47  1  0.16609631  0.16833979  0.16658466  1
  Pb  Pb48  1  0.16844406  0.50025783  0.83301565  1
  Pb  Pb49  1  0.16667216  0.82902285  0.16317873  1
  Pb  Pb50  1  0.83592291  0.16677573  0.49821315  1
  Pb  Pb51  1  0.83257975  0.83325195  0.83022880  1
  Pb  Pb52  1  0.82974663  0.49988121  0.83291649  1
  Pb  Pb53  1  0.49766309  0.16637727  0.49800169  1
  I  I54  1  0.16648067  -0.00004463  0.16925793  1
  I  I55  1  0.16673189  0.00187021  0.50153285  1
  I  I56  1  0.17299565  0.00009469  0.82770746  1
  I  I57  1  0.16609596  0.33622833  0.16614426  1
  I  I58  1  0.16701977  0.33477895  0.50179873  1
  I  I59  1  0.16875787  0.33159581  0.83296528  1
  I  I60  1  0.16183103  0.66143009  0.17452913  1
  I  I61  1  0.16653223  0.66344819  0.49760512  1
  I  I62  1  0.16980436  0.66890258  0.83350339  1
  I  I63  1  0.50488631  0.00390913  0.16662508  1
  I  I64  1  0.50373984  -0.00297018  0.50380499  1
  I  I65  1  0.49723486  -0.00300908  0.82951281  1
  I  I66  1  0.50008328  0.33115898  0.16626086  1
  I  I67  1  0.50205051  0.33651677  0.50293266  1
  I  I68  1  0.49816625  0.33572992  0.82994155  1
  I  I69  1  0.49970408  0.66662154  0.16549030  1
  I  I70  1  0.49816273  0.66560148  0.50299874  1
  I  I71  1  0.49289295  0.66703125  0.83055418  1
  I  I72  1  0.82933152  0.00257873  0.16709360  1
  I  I73  1  0.82971542  -0.00239534  0.49969795  1
  I  I74  1  0.82935971  -0.00000116  0.83291398  1
  I  I75  1  0.83340853  0.33461820  0.17294220  1
  I  I76  1  0.83100568  0.33660547  0.49735231  1
  I  I77  1  0.83305117  0.33347952  0.82863721  1
  I  I78  1  0.83788850  0.66303519  0.16851332  1
  I  I79  1  0.83481612  0.66493635  0.49451044  1
  I  I80  1  0.83975882  0.66649021  0.83923754  1
  I  I81  1  0.16778318  0.16447955  -0.00216648  1
  I  I82  1  0.16715085  0.16902243  0.33554497  1
  I  I83  1  0.16802446  0.16967325  0.66616967  1
  I  I84  1  0.16377189  0.49880153  0.00219996  1
  I  I85  1  0.16828376  0.49341098  0.33498297  1
  I  I86  1  0.16430325  0.49904194  0.66359365  1
  I  I87  1  0.17338638  0.84031350  -0.00457136  1
  I  I88  1  0.16718541  0.83738680  0.33354299  1
  I  I89  1  0.16854854  0.83271803  0.66933442  1
  I  I90  1  0.50072889  0.16883149  0.00296462  1
  I  I91  1  0.50102554  0.16868751  0.33052864  1
  I  I92  1  0.49978284  0.16734965  0.66648325  1
  I  I93  1  0.49806830  0.50262516  -0.00215550  1
  I  I94  1  0.49919463  0.50314959  0.33664148  1
  I  I95  1  0.49799676  0.50386546  0.66518997  1
  I  I96  1  0.49515881  0.82887484  -0.00323492  1
  I  I97  1  0.50375486  0.82803150  0.33693826  1
  I  I98  1  0.49900969  0.82850962  0.66625105  1
  I  I99  1  0.83064983  0.17327004  0.00433670  1
  I  I100  1  0.83179815  0.16902307  0.33042226  1
  I  I101  1  0.83285214  0.16720508  0.66634437  1
  I  I102  1  0.83857592  0.49522125  0.00306313  1
  I  I103  1  0.83236634  0.49981735  0.33427447  1
  I  I104  1  0.83796749  0.50503367  0.66288653  1
  I  I105  1  0.83351053  0.83362143  -0.00002668  1
  I  I106  1  0.82754517  0.83119765  0.33749728  1
  I  I107  1  0.83343409  0.82549031  0.66240224  1
  I  I108  1  -0.00229414  0.16989594  0.16697013  1
  I  I109  1  0.00372483  0.17021088  0.50119397  1
  I  I110  1  0.00464078  0.16177388  0.83038622  1
  I  I111  1  -0.00042132  0.49319902  0.17402486  1
  I  I112  1  0.00005490  0.50023515  0.49481389  1
  I  I113  1  0.00000579  0.50001239  0.83230829  1
  I  I114  1  0.00010548  0.83994189  0.16750747  1
  I  I115  1  -0.00185801  0.83015639  0.50043536  1
  I  I116  1  0.00260615  0.83774903  0.83278480  1
  I  I117  1  0.33451736  0.16871001  0.16645400  1
  I  I118  1  0.32992358  0.17091091  0.50033606  1
  I  I119  1  0.33045670  0.16633053  0.83270210  1
  I  I120  1  0.33133835  0.49687116  0.16942988  1
  I  I121  1  0.33338133  0.50017069  0.49949148  1
  I  I122  1  0.33622168  0.50122020  0.83034782  1
  I  I123  1  0.33323499  0.83503578  0.17225342  1
  I  I124  1  0.33602845  0.83012974  0.50238312  1
  I  I125  1  0.33425043  0.83276807  0.82687185  1
  I  I126  1  0.66731255  0.17370032  0.16753214  1
  I  I127  1  0.66667838  0.16840405  0.49962601  1
  I  I128  1  0.66654878  0.16634254  0.83326956  1
  I  I129  1  0.66935952  0.49698634  0.17009878  1
  I  I130  1  0.66656871  0.50571232  0.49862200  1
  I  I131  1  0.66187825  0.50701323  0.83097443  1
  I  I132  1  0.66657926  0.82997470  0.16176512  1
  I  I133  1  0.66564470  0.82482562  0.50427555  1
  I  I134  1  0.66308844  0.82788082  0.83280473  1
