# generated using pymatgen
data_Cs27Sn14Pb13I81
_symmetry_space_group_name_H-M   'P 1'
_cell_length_a   18.97998882
_cell_length_b   18.97430741
_cell_length_c   18.97079112
_cell_angle_alpha   89.99876195
_cell_angle_beta   89.99863709
_cell_angle_gamma   90.00049169
_symmetry_Int_Tables_number   1
_chemical_formula_structural   Cs27Sn14Pb13I81
_chemical_formula_sum   'Cs27 Sn14 Pb13 I81'
_cell_volume   6831.99164470
_cell_formula_units_Z   1
loop_
 _symmetry_equiv_pos_site_id
 _symmetry_equiv_pos_as_xyz
  1  'x, y, z'
loop_
 _atom_site_type_symbol
 _atom_site_label
 _atom_site_symmetry_multiplicity
 _atom_site_fract_x
 _atom_site_fract_y
 _atom_site_fract_z
 _atom_site_occupancy
  Cs  Cs0  1  0.00355594  -0.00076855  0.00199679  1
  Cs  Cs1  1  -0.00059662  0.00078180  0.33188915  1
  Cs  Cs2  1  -0.00065404  0.00362250  0.66589521  1
  Cs  Cs3  1  -0.00080093  0.33604848  -0.00321867  1
  Cs  Cs4  1  0.00279230  0.33168036  0.33404745  1
  Cs  Cs5  1  -0.00673583  0.32739201  0.66954863  1
  Cs  Cs6  1  -0.00223561  0.66713966  0.00214775  1
  Cs  Cs7  1  0.00107586  0.66288945  0.33172687  1
  Cs  Cs8  1  0.00039413  0.66712928  0.66526995  1
  Cs  Cs9  1  0.33268145  0.00031999  -0.00015856  1
  Cs  Cs10  1  0.33221571  0.00045240  0.33342756  1
  Cs  Cs11  1  0.33330925  -0.00124796  0.66718934  1
  Cs  Cs12  1  0.33478071  0.33298948  0.00143174  1
  Cs  Cs13  1  0.33424842  0.33805025  0.33124779  1
  Cs  Cs14  1  0.33310762  0.33312735  0.66799411  1
  Cs  Cs15  1  0.33185507  0.66946886  -0.00323161  1
  Cs  Cs16  1  0.33104668  0.65877864  0.34366583  1
  Cs  Cs17  1  0.33373986  0.66722010  0.66368096  1
  Cs  Cs18  1  0.66206928  -0.00467482  0.00390081  1
  Cs  Cs19  1  0.66871164  0.00159304  0.33156858  1
  Cs  Cs20  1  0.66707904  0.00020118  0.66496287  1
  Cs  Cs21  1  0.66419754  0.33865789  0.00169426  1
  Cs  Cs22  1  0.66129306  0.33091110  0.33192610  1
  Cs  Cs23  1  0.67239383  0.33179882  0.66686355  1
  Cs  Cs24  1  0.67142215  0.66926972  -0.00068040  1
  Cs  Cs25  1  0.66847170  0.66383148  0.33452237  1
  Cs  Cs26  1  0.66550341  0.66684256  0.66679079  1
  Sn  Sn27  1  0.49881374  0.16617403  0.50079116  1
  Sn  Sn28  1  0.49819047  0.83296848  0.16693981  1
  Sn  Sn29  1  0.16786910  0.16627038  0.49930403  1
  Sn  Sn30  1  0.49975433  0.83327118  0.83365064  1
  Sn  Sn31  1  0.16659753  0.83266828  0.83368855  1
  Sn  Sn32  1  0.83349499  0.83251264  0.50036488  1
  Sn  Sn33  1  0.50005868  0.16651935  0.83260062  1
  Sn  Sn34  1  0.16825702  0.83358376  0.16657946  1
  Sn  Sn35  1  0.83340624  0.50079496  0.49996832  1
  Sn  Sn36  1  0.16589175  0.16610047  0.16731119  1
  Sn  Sn37  1  0.83423597  0.16680044  0.16588432  1
  Sn  Sn38  1  0.49930636  0.50044217  0.83319363  1
  Sn  Sn39  1  0.83365585  0.83388974  0.83233853  1
  Sn  Sn40  1  0.16715248  0.50091768  0.83321182  1
  Pb  Pb41  1  0.83029990  0.16390285  0.83635845  1
  Pb  Pb42  1  0.16466875  0.83496893  0.49991497  1
  Pb  Pb43  1  0.16463984  0.49690851  0.50319895  1
  Pb  Pb44  1  0.49968694  0.50409795  0.16410716  1
  Pb  Pb45  1  0.16834486  0.16638242  0.83383181  1
  Pb  Pb46  1  0.83336495  0.50233742  0.83198590  1
  Pb  Pb47  1  0.49905545  0.16517949  0.16651853  1
  Pb  Pb48  1  0.50184641  0.49723435  0.50273742  1
  Pb  Pb49  1  0.83340022  0.49694649  0.16931392  1
  Pb  Pb50  1  0.83320726  0.16633670  0.49838767  1
  Pb  Pb51  1  0.16682900  0.50037769  0.16430205  1
  Pb  Pb52  1  0.50175734  0.83497044  0.49988024  1
  Pb  Pb53  1  0.83385599  0.83433838  0.16674819  1
  I  I54  1  0.16618730  -0.00039304  0.16353845  1
  I  I55  1  0.16726569  0.00297467  0.50152806  1
  I  I56  1  0.16750861  -0.00294248  0.83436255  1
  I  I57  1  0.16211508  0.33015309  0.16940156  1
  I  I58  1  0.16835759  0.32909330  0.49484524  1
  I  I59  1  0.17148889  0.33518837  0.83256985  1
  I  I60  1  0.16968838  0.67032681  0.16311245  1
  I  I61  1  0.16638983  0.66661735  0.49761949  1
  I  I62  1  0.17075013  0.66852726  0.83826326  1
  I  I63  1  0.49967463  -0.00270774  0.15977216  1
  I  I64  1  0.49961473  0.00290512  0.50611005  1
  I  I65  1  0.50005038  -0.00108863  0.83357879  1
  I  I66  1  0.50153852  0.33338456  0.16563937  1
  I  I67  1  0.49948432  0.32919566  0.50397765  1
  I  I68  1  0.49494024  0.33315586  0.82854373  1
  I  I69  1  0.49619089  0.67211461  0.16087270  1
  I  I70  1  0.50038965  0.66661212  0.49978623  1
  I  I71  1  0.50005017  0.66791326  0.83865186  1
  I  I72  1  0.83413891  0.00209177  0.16926218  1
  I  I73  1  0.83282339  -0.00216703  0.50319560  1
  I  I74  1  0.83491291  -0.00415050  0.82617558  1
  I  I75  1  0.83862421  0.32891188  0.16826671  1
  I  I76  1  0.83332361  0.33484407  0.49916328  1
  I  I77  1  0.83372224  0.33315618  0.83168745  1
  I  I78  1  0.83294619  0.66685792  0.16536366  1
  I  I79  1  0.83271931  0.66785342  0.50464315  1
  I  I80  1  0.82879718  0.67055220  0.83314387  1
  I  I81  1  0.16426422  0.16467005  0.00253664  1
  I  I82  1  0.16729765  0.16008553  0.33268700  1
  I  I83  1  0.16857238  0.16667277  0.66490911  1
  I  I84  1  0.16971244  0.49885952  -0.00387166  1
  I  I85  1  0.16476673  0.50221965  0.33371954  1
  I  I86  1  0.17143331  0.50643586  0.67079935  1
  I  I87  1  0.16547395  0.83620683  -0.00090485  1
  I  I88  1  0.16904368  0.83794277  0.33046110  1
  I  I89  1  0.16952321  0.83148518  0.66987372  1
  I  I90  1  0.50032046  0.16700571  -0.00280439  1
  I  I91  1  0.50124638  0.16363444  0.33536585  1
  I  I92  1  0.49494190  0.16373927  0.66732586  1
  I  I93  1  0.49753723  0.49252612  -0.00440561  1
  I  I94  1  0.50215249  0.49908528  0.33366060  1
  I  I95  1  0.49625073  0.50641205  0.67078770  1
  I  I96  1  0.50194662  0.83639178  -0.00188278  1
  I  I97  1  0.49842510  0.83887531  0.33076324  1
  I  I98  1  0.49796276  0.83238008  0.67014847  1
  I  I99  1  0.84005429  0.16404231  0.00350733  1
  I  I100  1  0.83229117  0.16323770  0.33086833  1
  I  I101  1  0.83532693  0.16777603  0.66692773  1
  I  I102  1  0.83289905  0.50008442  -0.00030893  1
  I  I103  1  0.83350542  0.50853811  0.33710884  1
  I  I104  1  0.83327202  0.49953531  0.66424539  1
  I  I105  1  0.83202529  0.83554829  -0.00273693  1
  I  I106  1  0.83251843  0.83268517  0.33561415  1
  I  I107  1  0.83240259  0.83097740  0.66764085  1
  I  I108  1  0.00159015  0.15952772  0.17316196  1
  I  I109  1  0.00208927  0.16639869  0.49766419  1
  I  I110  1  -0.00004984  0.16721887  0.83029666  1
  I  I111  1  0.00010957  0.50425868  0.16320884  1
  I  I112  1  -0.00289213  0.50250233  0.50251493  1
  I  I113  1  0.00254605  0.50392416  0.83241735  1
  I  I114  1  0.00290627  0.83684154  0.16264124  1
  I  I115  1  -0.00323241  0.83353447  0.50459721  1
  I  I116  1  0.00090903  0.82849485  0.83424424  1
  I  I117  1  0.33047678  0.16321828  0.16718701  1
  I  I118  1  0.33334596  0.16488068  0.49872776  1
  I  I119  1  0.33636843  0.16204066  0.83386551  1
  I  I120  1  0.33333074  0.49351136  0.16939519  1
  I  I121  1  0.33326811  0.50016898  0.49936105  1
  I  I122  1  0.33384611  0.50461606  0.83321969  1
  I  I123  1  0.33254055  0.84183471  0.15573701  1
  I  I124  1  0.33319187  0.83432263  0.50199141  1
  I  I125  1  0.33357505  0.83370513  0.83859598  1
  I  I126  1  0.66782674  0.16361043  0.16755707  1
  I  I127  1  0.66454655  0.16623149  0.50282377  1
  I  I128  1  0.66237423  0.16727872  0.82752306  1
  I  I129  1  0.66650910  0.49884195  0.16401820  1
  I  I130  1  0.66952140  0.50222392  0.50281804  1
  I  I131  1  0.66389181  0.50011816  0.83184828  1
  I  I132  1  0.66464167  0.83680421  0.16191843  1
  I  I133  1  0.66971707  0.83345774  0.50420908  1
  I  I134  1  0.66562942  0.83400035  0.83413485  1
