# generated using pymatgen
data_Cs27Sn13Pb14I81
_symmetry_space_group_name_H-M   'P 1'
_cell_length_a   18.98453221
_cell_length_b   18.97637512
_cell_length_c   18.96937625
_cell_angle_alpha   90.00101990
_cell_angle_beta   90.00031855
_cell_angle_gamma   90.00066403
_symmetry_Int_Tables_number   1
_chemical_formula_structural   Cs27Sn13Pb14I81
_chemical_formula_sum   'Cs27 Sn13 Pb14 I81'
_cell_volume   6833.86204649
_cell_formula_units_Z   1
loop_
 _symmetry_equiv_pos_site_id
 _symmetry_equiv_pos_as_xyz
  1  'x, y, z'
loop_
 _atom_site_type_symbol
 _atom_site_label
 _atom_site_symmetry_multiplicity
 _atom_site_fract_x
 _atom_site_fract_y
 _atom_site_fract_z
 _atom_site_occupancy
  Cs  Cs0  1  -0.00297763  -0.00189410  0.00766804  1
  Cs  Cs1  1  0.00186998  0.00242702  0.32874417  1
  Cs  Cs2  1  -0.00025423  0.00073511  0.66554718  1
  Cs  Cs3  1  -0.00100054  0.33614805  -0.00300453  1
  Cs  Cs4  1  -0.00019024  0.33120776  0.33256838  1
  Cs  Cs5  1  -0.00047568  0.33232510  0.66865680  1
  Cs  Cs6  1  0.00017138  0.66550594  -0.00051728  1
  Cs  Cs7  1  0.00009571  0.66637548  0.33383328  1
  Cs  Cs8  1  0.00148791  0.66673114  0.66693939  1
  Cs  Cs9  1  0.34109288  -0.00020039  0.00523761  1
  Cs  Cs10  1  0.32780433  0.00085068  0.33269350  1
  Cs  Cs11  1  0.33473690  0.00075138  0.66516038  1
  Cs  Cs12  1  0.33877708  0.33397468  -0.00294357  1
  Cs  Cs13  1  0.33390601  0.33207159  0.33091034  1
  Cs  Cs14  1  0.33063899  0.33132443  0.66949822  1
  Cs  Cs15  1  0.33280817  0.66603332  0.00304978  1
  Cs  Cs16  1  0.33538261  0.66626320  0.33202486  1
  Cs  Cs17  1  0.32877014  0.66710617  0.66645379  1
  Cs  Cs18  1  0.66205945  -0.00536080  0.00390474  1
  Cs  Cs19  1  0.66967324  0.00107829  0.33274896  1
  Cs  Cs20  1  0.66570197  -0.00057419  0.66826963  1
  Cs  Cs21  1  0.66579217  0.33114904  0.00007826  1
  Cs  Cs22  1  0.66529890  0.33770100  0.33237470  1
  Cs  Cs23  1  0.66838287  0.33325917  0.66581896  1
  Cs  Cs24  1  0.66632580  0.67317010  -0.00034338  1
  Cs  Cs25  1  0.66155388  0.66107509  0.33655622  1
  Cs  Cs26  1  0.66783131  0.66769298  0.66431629  1
  Sn  Sn27  1  0.50158308  0.50039122  0.83266741  1
  Sn  Sn28  1  0.16584112  0.16458385  0.83345892  1
  Sn  Sn29  1  0.50098184  0.16610352  0.50042578  1
  Sn  Sn30  1  0.83370918  0.83428023  0.50028226  1
  Sn  Sn31  1  0.16642763  0.50019070  0.49903650  1
  Sn  Sn32  1  0.16579995  0.49970945  0.16774502  1
  Sn  Sn33  1  0.83253193  0.16583941  0.50084587  1
  Sn  Sn34  1  0.83209085  0.49973061  0.83400448  1
  Sn  Sn35  1  0.83396804  0.16655076  0.83305079  1
  Sn  Sn36  1  0.83400587  0.50006767  0.16558811  1
  Sn  Sn37  1  0.49980393  0.83438286  0.50052977  1
  Sn  Sn38  1  0.16638760  0.83264911  0.50076031  1
  Sn  Sn39  1  0.16636781  0.83536317  0.83305342  1
  Pb  Pb40  1  0.50001164  0.83331806  0.17018100  1
  Pb  Pb41  1  0.16656011  0.83133954  0.16675470  1
  Pb  Pb42  1  0.50028779  0.50004159  0.16386185  1
  Pb  Pb43  1  0.50074600  0.16777960  0.83160509  1
  Pb  Pb44  1  0.83331032  0.83023968  0.17014761  1
  Pb  Pb45  1  0.83522627  0.49957683  0.50042212  1
  Pb  Pb46  1  0.49722368  0.49961714  0.50199113  1
  Pb  Pb47  1  0.16624021  0.16633133  0.50119584  1
  Pb  Pb48  1  0.16654105  0.16954610  0.16258743  1
  Pb  Pb49  1  0.16609030  0.50010418  0.83342925  1
  Pb  Pb50  1  0.83324786  0.16878550  0.16632792  1
  Pb  Pb51  1  0.49730931  0.83116856  0.83114432  1
  Pb  Pb52  1  0.83515290  0.83380111  0.83173037  1
  Pb  Pb53  1  0.50020577  0.16669989  0.17016765  1
  I  I54  1  0.16699777  0.00009508  0.16971014  1
  I  I55  1  0.16738683  -0.00287662  0.50363847  1
  I  I56  1  0.16172108  -0.00003421  0.82376339  1
  I  I57  1  0.16249158  0.33756376  0.17326447  1
  I  I58  1  0.16635045  0.33547138  0.49933846  1
  I  I59  1  0.16568239  0.33159183  0.83193001  1
  I  I60  1  0.16274485  0.66315559  0.16573929  1
  I  I61  1  0.16624996  0.66757651  0.50324668  1
  I  I62  1  0.16698331  0.66850471  0.83054923  1
  I  I63  1  0.49998902  -0.00004939  0.16169393  1
  I  I64  1  0.49836942  -0.00043585  0.50218411  1
  I  I65  1  0.50101129  -0.00020850  0.83333613  1
  I  I66  1  0.49874454  0.33379298  0.16981941  1
  I  I67  1  0.50391862  0.33084694  0.50201168  1
  I  I68  1  0.49731801  0.33583222  0.83018686  1
  I  I69  1  0.49953644  0.66629666  0.16920075  1
  I  I70  1  0.50219652  0.66923424  0.50155634  1
  I  I71  1  0.50389364  0.66329239  0.83068467  1
  I  I72  1  0.83294647  -0.00011916  0.16504024  1
  I  I73  1  0.83402113  0.00040851  0.50625452  1
  I  I74  1  0.83683278  0.00300734  0.82819990  1
  I  I75  1  0.83812163  0.33692562  0.16801261  1
  I  I76  1  0.83060363  0.33071918  0.50130528  1
  I  I77  1  0.83656973  0.33340654  0.83015529  1
  I  I78  1  0.83853184  0.66231120  0.16096201  1
  I  I79  1  0.83211114  0.66885846  0.49994394  1
  I  I80  1  0.83255882  0.66394814  0.83475014  1
  I  I81  1  0.15974003  0.16340961  -0.00545422  1
  I  I82  1  0.16715783  0.16569953  0.33330434  1
  I  I83  1  0.16534855  0.16989116  0.66911840  1
  I  I84  1  0.16542420  0.49963392  0.00183161  1
  I  I85  1  0.16186720  0.50546700  0.33418853  1
  I  I86  1  0.16670324  0.50190689  0.66470368  1
  I  I87  1  0.16533001  0.83385024  -0.00307536  1
  I  I88  1  0.16737935  0.83044271  0.33710958  1
  I  I89  1  0.16654426  0.82907673  0.66524251  1
  I  I90  1  0.49885063  0.16981972  -0.00039240  1
  I  I91  1  0.50493997  0.16459436  0.33878517  1
  I  I92  1  0.50085382  0.16382325  0.66348584  1
  I  I93  1  0.49697640  0.49832948  -0.00398045  1
  I  I94  1  0.50157289  0.50034708  0.33367161  1
  I  I95  1  0.50433196  0.49969985  0.66946743  1
  I  I96  1  0.49797626  0.83134984  -0.00038469  1
  I  I97  1  0.49689528  0.83451986  0.33889301  1
  I  I98  1  0.50126328  0.83603140  0.66281026  1
  I  I99  1  0.83934579  0.17131058  -0.00361277  1
  I  I100  1  0.82982149  0.16424536  0.33681685  1
  I  I101  1  0.83401399  0.17030324  0.66653203  1
  I  I102  1  0.83688015  0.49424044  -0.00129307  1
  I  I103  1  0.83694523  0.50088484  0.33171878  1
  I  I104  1  0.83228081  0.49866016  0.66922782  1
  I  I105  1  0.83589617  0.83460328  -0.00005038  1
  I  I106  1  0.83687228  0.83843796  0.33867874  1
  I  I107  1  0.83264505  0.83111046  0.66315847  1
  I  I108  1  -0.00002933  0.16613158  0.17259837  1
  I  I109  1  -0.00275533  0.16515546  0.50289253  1
  I  I110  1  -0.00091147  0.17142735  0.82551008  1
  I  I111  1  0.00003682  0.50022688  0.16441790  1
  I  I112  1  0.00300085  0.50394876  0.50188668  1
  I  I113  1  -0.00239226  0.49854941  0.83361493  1
  I  I114  1  -0.00002958  0.83347962  0.16964882  1
  I  I115  1  0.00056632  0.83170575  0.50440984  1
  I  I116  1  0.00307062  0.83048750  0.82547188  1
  I  I117  1  0.33312703  0.17006742  0.16695706  1
  I  I118  1  0.33503816  0.16487715  0.50235809  1
  I  I119  1  0.33103332  0.16731508  0.83023831  1
  I  I120  1  0.33050059  0.50088530  0.16935726  1
  I  I121  1  0.32941893  0.50365948  0.49778077  1
  I  I122  1  0.33447526  0.49977141  0.83146395  1
  I  I123  1  0.33307060  0.82938959  0.16758743  1
  I  I124  1  0.33262573  0.83245894  0.50451091  1
  I  I125  1  0.32931120  0.83543807  0.82615989  1
  I  I126  1  0.66691113  0.17045838  0.16325731  1
  I  I127  1  0.66780524  0.16009748  0.50586529  1
  I  I128  1  0.66997788  0.17184994  0.82939356  1
  I  I129  1  0.66980895  0.49920704  0.16613606  1
  I  I130  1  0.66676330  0.50268789  0.49802700  1
  I  I131  1  0.66848337  0.49393599  0.83700412  1
  I  I132  1  0.66683205  0.83033476  0.16629735  1
  I  I133  1  0.66694700  0.83699682  0.49976027  1
  I  I134  1  0.66665922  0.83353357  0.83117548  1
