# generated using pymatgen
data_Cs27Sn13Pb14I81
_symmetry_space_group_name_H-M   'P 1'
_cell_length_a   18.98118430
_cell_length_b   18.97628174
_cell_length_c   18.97530037
_cell_angle_alpha   90.00243270
_cell_angle_beta   89.99948059
_cell_angle_gamma   90.00075063
_symmetry_Int_Tables_number   1
_chemical_formula_structural   Cs27Sn13Pb14I81
_chemical_formula_sum   'Cs27 Sn13 Pb14 I81'
_cell_volume   6834.75709424
_cell_formula_units_Z   1
loop_
 _symmetry_equiv_pos_site_id
 _symmetry_equiv_pos_as_xyz
  1  'x, y, z'
loop_
 _atom_site_type_symbol
 _atom_site_label
 _atom_site_symmetry_multiplicity
 _atom_site_fract_x
 _atom_site_fract_y
 _atom_site_fract_z
 _atom_site_occupancy
  Cs  Cs0  1  -0.00017513  0.00149488  0.00081857  1
  Cs  Cs1  1  -0.00155148  0.00156710  0.33273542  1
  Cs  Cs2  1  0.00011315  -0.00281056  0.66602689  1
  Cs  Cs3  1  0.00267819  0.33418274  0.00033041  1
  Cs  Cs4  1  -0.00159565  0.33009640  0.33184184  1
  Cs  Cs5  1  -0.00078589  0.33375120  0.66793447  1
  Cs  Cs6  1  -0.00141803  0.66493471  -0.00119370  1
  Cs  Cs7  1  -0.00138937  0.66700139  0.33530784  1
  Cs  Cs8  1  0.00331014  0.66890713  0.66571707  1
  Cs  Cs9  1  0.33580221  -0.00304523  0.00140926  1
  Cs  Cs10  1  0.33397792  0.00085893  0.33095124  1
  Cs  Cs11  1  0.33411016  -0.00077255  0.66869886  1
  Cs  Cs12  1  0.33032364  0.33543727  0.00131629  1
  Cs  Cs13  1  0.33452964  0.33296498  0.33300564  1
  Cs  Cs14  1  0.33673286  0.33387601  0.66656969  1
  Cs  Cs15  1  0.33579361  0.66462327  0.00057071  1
  Cs  Cs16  1  0.33313870  0.66688158  0.33419481  1
  Cs  Cs17  1  0.32603004  0.66550589  0.66535780  1
  Cs  Cs18  1  0.66440402  -0.00186017  -0.00499640  1
  Cs  Cs19  1  0.66859770  -0.00212295  0.33347588  1
  Cs  Cs20  1  0.66582463  0.00384544  0.67003209  1
  Cs  Cs21  1  0.66800287  0.33501836  -0.00167919  1
  Cs  Cs22  1  0.66638884  0.33405353  0.33494019  1
  Cs  Cs23  1  0.66326552  0.33059659  0.66704082  1
  Cs  Cs24  1  0.66468631  0.66640878  -0.00022476  1
  Cs  Cs25  1  0.66834969  0.66948421  0.33263063  1
  Cs  Cs26  1  0.67201312  0.66536545  0.66451365  1
  Sn  Sn27  1  0.16630090  0.16679179  0.50116113  1
  Sn  Sn28  1  0.50061385  0.83333315  0.50019913  1
  Sn  Sn29  1  0.83241856  0.83461570  0.49915651  1
  Sn  Sn30  1  0.49941866  0.49907966  0.16628300  1
  Sn  Sn31  1  0.49928444  0.50017644  0.83383831  1
  Sn  Sn32  1  0.16716875  0.50116397  0.16648899  1
  Sn  Sn33  1  0.50144931  0.16738795  0.16669575  1
  Sn  Sn34  1  0.16752554  0.49899261  0.83415447  1
  Sn  Sn35  1  0.83182842  0.16588166  0.16700172  1
  Sn  Sn36  1  0.83424877  0.83425754  0.16688810  1
  Sn  Sn37  1  0.83404364  0.16588390  0.49930974  1
  Sn  Sn38  1  0.16667790  0.16707989  0.83219689  1
  Sn  Sn39  1  0.16573875  0.83212393  0.16668854  1
  Pb  Pb40  1  0.83550891  0.16666203  0.83343482  1
  Pb  Pb41  1  0.49990978  0.83010847  0.82997153  1
  Pb  Pb42  1  0.16656841  0.49723083  0.49964673  1
  Pb  Pb43  1  0.16621286  0.83575410  0.49765052  1
  Pb  Pb44  1  0.16646151  0.16688165  0.16658463  1
  Pb  Pb45  1  0.83328157  0.49998642  0.16672532  1
  Pb  Pb46  1  0.16664638  0.83308280  0.83622323  1
  Pb  Pb47  1  0.49997784  0.50246253  0.49975938  1
  Pb  Pb48  1  0.50048611  0.83293809  0.16768406  1
  Pb  Pb49  1  0.83329550  0.83348521  0.83330358  1
  Pb  Pb50  1  0.83365824  0.49989327  0.83334055  1
  Pb  Pb51  1  0.50034451  0.16494454  0.49813440  1
  Pb  Pb52  1  0.83342337  0.49962763  0.49992365  1
  Pb  Pb53  1  0.49740452  0.16854744  0.83618238  1
  I  I54  1  0.16621712  -0.00168647  0.16763185  1
  I  I55  1  0.16525012  0.00358507  0.50313647  1
  I  I56  1  0.16467350  0.00281861  0.83097779  1
  I  I57  1  0.16770187  0.33562358  0.16544268  1
  I  I58  1  0.16123537  0.32922936  0.49783577  1
  I  I59  1  0.16937948  0.33404854  0.83651085  1
  I  I60  1  0.16734743  0.66581198  0.16207754  1
  I  I61  1  0.16588426  0.66689465  0.50213751  1
  I  I62  1  0.17078717  0.66325612  0.83569083  1
  I  I63  1  0.49895582  0.00208775  0.16990036  1
  I  I64  1  0.50086282  -0.00275074  0.49572541  1
  I  I65  1  0.49864724  0.00012534  0.83483410  1
  I  I66  1  0.49859628  0.33376772  0.16476577  1
  I  I67  1  0.50044122  0.33324625  0.50063994  1
  I  I68  1  0.49800073  0.33659391  0.83412679  1
  I  I69  1  0.49842273  0.66390679  0.16409063  1
  I  I70  1  0.50638248  0.67022563  0.49690614  1
  I  I71  1  0.49249357  0.66232187  0.84272070  1
  I  I72  1  0.83498205  0.00020121  0.17160472  1
  I  I73  1  0.83420961  0.00029283  0.49385380  1
  I  I74  1  0.83562468  0.00024855  0.83475011  1
  I  I75  1  0.83336086  0.33015512  0.17127260  1
  I  I76  1  0.83788643  0.32923910  0.49485555  1
  I  I77  1  0.83254034  0.33310131  0.83322970  1
  I  I78  1  0.83456960  0.66973088  0.17159306  1
  I  I79  1  0.82901035  0.67040990  0.49516442  1
  I  I80  1  0.83543097  0.66667690  0.83297753  1
  I  I81  1  0.16674090  0.16855325  -0.00170685  1
  I  I82  1  0.16521672  0.16590798  0.33500041  1
  I  I83  1  0.16135506  0.17157539  0.66642795  1
  I  I84  1  0.17026927  0.49730829  0.00065977  1
  I  I85  1  0.17107979  0.50251875  0.32983290  1
  I  I86  1  0.17142165  0.49789554  0.66979543  1
  I  I87  1  0.16198010  0.83520229  0.00444147  1
  I  I88  1  0.16576689  0.82925394  0.32968545  1
  I  I89  1  0.16588529  0.83079494  0.66645819  1
  I  I90  1  0.50416344  0.16618387  0.00434072  1
  I  I91  1  0.49760377  0.17258455  0.33001442  1
  I  I92  1  0.50195946  0.16762290  0.66676306  1
  I  I93  1  0.49503919  0.49661226  0.00135859  1
  I  I94  1  0.49529455  0.49694144  0.32983525  1
  I  I95  1  0.49451964  0.50191505  0.66969455  1
  I  I96  1  0.49971805  0.83528730  0.00011887  1
  I  I97  1  0.50130056  0.83189748  0.33536480  1
  I  I98  1  0.50632267  0.83429802  0.66224605  1
  I  I99  1  0.83143936  0.16271765  0.00355689  1
  I  I100  1  0.83673049  0.16301153  0.33295340  1
  I  I101  1  0.83598077  0.16198262  0.66329890  1
  I  I102  1  0.83385505  0.49998150  0.00040536  1
  I  I103  1  0.83365331  0.49968438  0.33296733  1
  I  I104  1  0.83310879  0.50093317  0.66665642  1
  I  I105  1  0.83776647  0.83735958  0.00384905  1
  I  I106  1  0.83348166  0.83749643  0.33279710  1
  I  I107  1  0.82915306  0.83747309  0.66276424  1
  I  I108  1  -0.00221641  0.16562487  0.16805477  1
  I  I109  1  -0.00077845  0.16180431  0.49687218  1
  I  I110  1  0.00358578  0.17374630  0.83525160  1
  I  I111  1  0.00307290  0.50028178  0.16210573  1
  I  I112  1  0.00024589  0.50426305  0.50038905  1
  I  I113  1  0.00403705  0.49611055  0.83854185  1
  I  I114  1  -0.00060529  0.83415504  0.17199258  1
  I  I115  1  -0.00296651  0.83565244  0.49711374  1
  I  I116  1  0.00024650  0.83010181  0.82974994  1
  I  I117  1  0.33495204  0.16716888  0.16697331  1
  I  I118  1  0.33105116  0.16542862  0.50106048  1
  I  I119  1  0.32951182  0.16855290  0.82875165  1
  I  I120  1  0.33301254  0.49962368  0.16280129  1
  I  I121  1  0.33322709  0.50103480  0.49878193  1
  I  I122  1  0.33235410  0.49585077  0.83891417  1
  I  I123  1  0.33140809  0.83358560  0.16853206  1
  I  I124  1  0.33490565  0.83382419  0.49755679  1
  I  I125  1  0.33318540  0.83671664  0.83302068  1
  I  I126  1  0.66748105  0.16692839  0.17301591  1
  I  I127  1  0.66967420  0.16452024  0.49643260  1
  I  I128  1  0.66635410  0.16884800  0.83106036  1
  I  I129  1  0.66360152  0.49913049  0.16235159  1
  I  I130  1  0.66650460  0.49646144  0.50054493  1
  I  I131  1  0.66323338  0.50151801  0.83881918  1
  I  I132  1  0.66943712  0.83410751  0.17012469  1
  I  I133  1  0.66825721  0.83735111  0.49262014  1
  I  I134  1  0.66647301  0.83083609  0.83858138  1
