# generated using pymatgen
data_Cs27Sn13Pb14I81
_symmetry_space_group_name_H-M   'P 1'
_cell_length_a   18.97507392
_cell_length_b   18.97968735
_cell_length_c   18.97815201
_cell_angle_alpha   89.99974232
_cell_angle_beta   90.00026966
_cell_angle_gamma   90.00131818
_symmetry_Int_Tables_number   1
_chemical_formula_structural   Cs27Sn13Pb14I81
_chemical_formula_sum   'Cs27 Sn13 Pb14 I81'
_cell_volume   6834.81008087
_cell_formula_units_Z   1
loop_
 _symmetry_equiv_pos_site_id
 _symmetry_equiv_pos_as_xyz
  1  'x, y, z'
loop_
 _atom_site_type_symbol
 _atom_site_label
 _atom_site_symmetry_multiplicity
 _atom_site_fract_x
 _atom_site_fract_y
 _atom_site_fract_z
 _atom_site_occupancy
  Cs  Cs0  1  -0.00109554  -0.00141197  -0.00081899  1
  Cs  Cs1  1  0.00205537  0.00162271  0.33905094  1
  Cs  Cs2  1  -0.00097113  -0.00064439  0.66252917  1
  Cs  Cs3  1  -0.00089279  0.33405988  -0.00053366  1
  Cs  Cs4  1  0.00464126  0.33130528  0.33982301  1
  Cs  Cs5  1  0.00038591  0.33339378  0.66269688  1
  Cs  Cs6  1  -0.00009193  0.66765867  0.00069314  1
  Cs  Cs7  1  0.00117611  0.66603906  0.33652048  1
  Cs  Cs8  1  0.00115943  0.66734363  0.65819086  1
  Cs  Cs9  1  0.33338725  0.00036225  0.00165810  1
  Cs  Cs10  1  0.33295582  -0.00005533  0.33156699  1
  Cs  Cs11  1  0.33310584  -0.00119449  0.66686663  1
  Cs  Cs12  1  0.33151053  0.33313039  -0.00080098  1
  Cs  Cs13  1  0.33069330  0.33039203  0.33075385  1
  Cs  Cs14  1  0.33803984  0.33464783  0.67009170  1
  Cs  Cs15  1  0.33069482  0.66621674  -0.00047823  1
  Cs  Cs16  1  0.33304661  0.66937854  0.33641973  1
  Cs  Cs17  1  0.33237270  0.66724770  0.66448838  1
  Cs  Cs18  1  0.66739736  -0.00094476  0.00017207  1
  Cs  Cs19  1  0.66420259  -0.00119145  0.33097022  1
  Cs  Cs20  1  0.66822034  -0.00440176  0.66786586  1
  Cs  Cs21  1  0.66722046  0.33320118  -0.00054573  1
  Cs  Cs22  1  0.66691966  0.33532629  0.33444315  1
  Cs  Cs23  1  0.66420865  0.33339289  0.66745711  1
  Cs  Cs24  1  0.66816185  0.66622313  0.00029586  1
  Cs  Cs25  1  0.66583159  0.66420774  0.33234372  1
  Cs  Cs26  1  0.66717455  0.67156886  0.66703658  1
  Sn  Sn27  1  0.83278213  0.49941663  0.83382676  1
  Sn  Sn28  1  0.50027530  0.49976952  0.16617770  1
  Sn  Sn29  1  0.50041525  0.16723068  0.50072479  1
  Sn  Sn30  1  0.50035246  0.49897915  0.50021896  1
  Sn  Sn31  1  0.83343048  0.16721140  0.16624336  1
  Sn  Sn32  1  0.16564898  0.83334364  0.16562555  1
  Sn  Sn33  1  0.50035453  0.16705679  0.83288811  1
  Sn  Sn34  1  0.16634150  0.16587848  0.83372512  1
  Sn  Sn35  1  0.83338351  0.16739220  0.83402730  1
  Sn  Sn36  1  0.50105671  0.49954007  0.83363569  1
  Sn  Sn37  1  0.83433788  0.83328635  0.16627026  1
  Sn  Sn38  1  0.83306501  0.49942419  0.16600676  1
  Sn  Sn39  1  0.16637304  0.83400235  0.83415841  1
  Pb  Pb40  1  0.17003096  0.49958804  0.50002506  1
  Pb  Pb41  1  0.83308762  0.83341038  0.49628969  1
  Pb  Pb42  1  0.49775990  0.83323018  0.83356456  1
  Pb  Pb43  1  0.16980864  0.16674124  0.50317664  1
  Pb  Pb44  1  0.16381873  0.16473239  0.16448478  1
  Pb  Pb45  1  0.83543493  0.83293172  0.83469018  1
  Pb  Pb46  1  0.16674825  0.83363147  0.49991150  1
  Pb  Pb47  1  0.16596809  0.49992297  0.83335966  1
  Pb  Pb48  1  0.50022045  0.83373886  0.50009912  1
  Pb  Pb49  1  0.50190085  0.16879505  0.16604576  1
  Pb  Pb50  1  0.16589232  0.50192253  0.16657458  1
  Pb  Pb51  1  0.83118175  0.49980969  0.50036811  1
  Pb  Pb52  1  0.83072277  0.16677622  0.50058154  1
  Pb  Pb53  1  0.50008480  0.83065430  0.16635007  1
  I  I54  1  0.16276471  -0.00333486  0.16420263  1
  I  I55  1  0.17026189  0.00023576  0.49798533  1
  I  I56  1  0.16762830  0.00093375  0.83781680  1
  I  I57  1  0.16691636  0.33313714  0.16552658  1
  I  I58  1  0.16354882  0.33293333  0.50028836  1
  I  I59  1  0.16785545  0.33027402  0.83290495  1
  I  I60  1  0.16241141  0.66997550  0.15924887  1
  I  I61  1  0.16912782  0.66680355  0.50265913  1
  I  I62  1  0.16774402  0.66925743  0.83784159  1
  I  I63  1  0.50133178  0.00022829  0.16756529  1
  I  I64  1  0.50002586  0.00365132  0.50568375  1
  I  I65  1  0.50276725  0.00359354  0.82842784  1
  I  I66  1  0.50521230  0.33699534  0.16633338  1
  I  I67  1  0.50075708  0.33398146  0.50230806  1
  I  I68  1  0.49845189  0.33333160  0.83257496  1
  I  I69  1  0.50520746  0.66225375  0.16629639  1
  I  I70  1  0.50010146  0.66301964  0.50024625  1
  I  I71  1  0.50350425  0.66294010  0.83284174  1
  I  I72  1  0.83682050  0.00041907  0.16196538  1
  I  I73  1  0.82991433  0.00026408  0.50094356  1
  I  I74  1  0.83013485  0.00306551  0.83737265  1
  I  I75  1  0.82674202  0.33387418  0.16124563  1
  I  I76  1  0.83542687  0.33329998  0.49460123  1
  I  I77  1  0.83355775  0.33290421  0.84136062  1
  I  I78  1  0.83241970  0.66574154  0.16228856  1
  I  I79  1  0.83042219  0.66643764  0.50181970  1
  I  I80  1  0.82858320  0.66354791  0.83795476  1
  I  I81  1  0.17263670  0.16535114  -0.00374826  1
  I  I82  1  0.16709890  0.16494643  0.33323083  1
  I  I83  1  0.16102673  0.16039690  0.67161205  1
  I  I84  1  0.17304844  0.49921478  -0.00018657  1
  I  I85  1  0.16647936  0.50289757  0.33311875  1
  I  I86  1  0.16532242  0.50337246  0.66710368  1
  I  I87  1  0.16356241  0.83648280  -0.00006747  1
  I  I88  1  0.16231589  0.83110338  0.32996818  1
  I  I89  1  0.16836824  0.83687832  0.66989961  1
  I  I90  1  0.49836967  0.17036693  -0.00345860  1
  I  I91  1  0.50241102  0.17086317  0.33522962  1
  I  I92  1  0.50046110  0.17491978  0.66851689  1
  I  I93  1  0.50395400  0.49691729  -0.00083460  1
  I  I94  1  0.50445003  0.49755958  0.33293139  1
  I  I95  1  0.50263621  0.49512701  0.66791944  1
  I  I96  1  0.50031489  0.83372230  0.00000098  1
  I  I97  1  0.49836271  0.83368973  0.33305784  1
  I  I98  1  0.49745532  0.82877588  0.66699891  1
  I  I99  1  0.83084878  0.16717650  -0.00097817  1
  I  I100  1  0.83101773  0.16637707  0.33017507  1
  I  I101  1  0.83553139  0.17190688  0.67071317  1
  I  I102  1  0.82516867  0.49936908  0.00015266  1
  I  I103  1  0.82872849  0.50115449  0.32986755  1
  I  I104  1  0.83041047  0.49454887  0.67041497  1
  I  I105  1  0.83494010  0.83274963  0.00294925  1
  I  I106  1  0.83925304  0.83264987  0.32761084  1
  I  I107  1  0.83473376  0.83291485  0.66692837  1
  I  I108  1  -0.00450485  0.17198767  0.16102691  1
  I  I109  1  -0.00002837  0.16508124  0.49986324  1
  I  I110  1  -0.00101322  0.16703865  0.83989061  1
  I  I111  1  -0.00400493  0.49923203  0.15940687  1
  I  I112  1  -0.00024211  0.50203959  0.50008332  1
  I  I113  1  -0.00359974  0.49684617  0.84100414  1
  I  I114  1  -0.00088124  0.83108339  0.16072291  1
  I  I115  1  0.00006405  0.83302358  0.50265614  1
  I  I116  1  0.00318911  0.83711030  0.83675385  1
  I  I117  1  0.33336562  0.16620882  0.16646451  1
  I  I118  1  0.33778032  0.17176110  0.50409977  1
  I  I119  1  0.33419031  0.16707977  0.82852506  1
  I  I120  1  0.33648979  0.50142932  0.16602685  1
  I  I121  1  0.33866415  0.49689228  0.50125743  1
  I  I122  1  0.33661309  0.49717898  0.83336142  1
  I  I123  1  0.33047034  0.83166242  0.16346103  1
  I  I124  1  0.33341133  0.83165236  0.49735072  1
  I  I125  1  0.32979437  0.83683172  0.83971255  1
  I  I126  1  0.67012729  0.16172291  0.16146718  1
  I  I127  1  0.66291831  0.17183623  0.50535906  1
  I  I128  1  0.66671338  0.17187800  0.83336175  1
  I  I129  1  0.66726169  0.50247743  0.16606438  1
  I  I130  1  0.66299719  0.49526160  0.49930426  1
  I  I131  1  0.66620831  0.49270418  0.83460860  1
  I  I132  1  0.66997904  0.83467601  0.16685333  1
  I  I133  1  0.66654055  0.83340774  0.49941323  1
  I  I134  1  0.66696296  0.83540820  0.83466365  1
