# generated using pymatgen
data_Cs27Sn14Pb13I81
_symmetry_space_group_name_H-M   'P 1'
_cell_length_a   18.97438563
_cell_length_b   18.97066936
_cell_length_c   18.97998772
_cell_angle_alpha   89.99969470
_cell_angle_beta   89.99845463
_cell_angle_gamma   90.00195187
_symmetry_Int_Tables_number   1
_chemical_formula_structural   Cs27Sn14Pb13I81
_chemical_formula_sum   'Cs27 Sn14 Pb13 I81'
_cell_volume   6831.97555946
_cell_formula_units_Z   1
loop_
 _symmetry_equiv_pos_site_id
 _symmetry_equiv_pos_as_xyz
  1  'x, y, z'
loop_
 _atom_site_type_symbol
 _atom_site_label
 _atom_site_symmetry_multiplicity
 _atom_site_fract_x
 _atom_site_fract_y
 _atom_site_fract_z
 _atom_site_occupancy
  Cs  Cs0  1  0.00002596  -0.00159009  -0.00410993  1
  Cs  Cs1  1  -0.00168084  0.00112684  0.33649064  1
  Cs  Cs2  1  -0.00389789  -0.00022193  0.66701691  1
  Cs  Cs3  1  -0.00083243  0.33369280  0.00621756  1
  Cs  Cs4  1  0.00262516  0.33565207  0.33500800  1
  Cs  Cs5  1  -0.00059933  0.33061162  0.65987774  1
  Cs  Cs6  1  0.00738122  0.66807863  0.00128492  1
  Cs  Cs7  1  -0.00157963  0.66378635  0.33231413  1
  Cs  Cs8  1  0.00080288  0.66959916  0.66746840  1
  Cs  Cs9  1  0.33266467  0.00175653  0.00121096  1
  Cs  Cs10  1  0.33616160  -0.00234033  0.33132684  1
  Cs  Cs11  1  0.33637048  0.00070570  0.66660658  1
  Cs  Cs12  1  0.33743222  0.32995948  -0.00298112  1
  Cs  Cs13  1  0.33349205  0.33156016  0.33510448  1
  Cs  Cs14  1  0.33282613  0.33546567  0.66744681  1
  Cs  Cs15  1  0.32346352  0.66850902  -0.00390432  1
  Cs  Cs16  1  0.33213985  0.67363646  0.33255321  1
  Cs  Cs17  1  0.33180188  0.66247041  0.66966414  1
  Cs  Cs18  1  0.66731017  0.00078579  -0.00131089  1
  Cs  Cs19  1  0.66501332  -0.00230369  0.33315693  1
  Cs  Cs20  1  0.66893220  -0.00011222  0.66842321  1
  Cs  Cs21  1  0.66463600  0.33399437  0.00195023  1
  Cs  Cs22  1  0.66658843  0.33436343  0.33194472  1
  Cs  Cs23  1  0.66681698  0.33485067  0.66698117  1
  Cs  Cs24  1  0.66813854  0.66188801  -0.00110066  1
  Cs  Cs25  1  0.66777092  0.66812297  0.33535680  1
  Cs  Cs26  1  0.66665685  0.66472153  0.66470261  1
  Sn  Sn27  1  0.50051552  0.16736073  0.49998300  1
  Sn  Sn28  1  0.50055436  0.49931769  0.49864866  1
  Sn  Sn29  1  0.49964664  0.16568702  0.83328010  1
  Sn  Sn30  1  0.50031871  0.83352285  0.83363121  1
  Sn  Sn31  1  0.49971280  0.50007711  0.16757295  1
  Sn  Sn32  1  0.16691151  0.16691737  0.83357190  1
  Sn  Sn33  1  0.50012602  0.16716662  0.16694959  1
  Sn  Sn34  1  0.83292102  0.83394669  0.16689498  1
  Sn  Sn35  1  0.83324667  0.16563810  0.16697935  1
  Sn  Sn36  1  0.83258221  0.50068550  0.50097130  1
  Sn  Sn37  1  0.16678262  0.16649132  0.16616322  1
  Sn  Sn38  1  0.16581562  0.83353028  0.49999899  1
  Sn  Sn39  1  0.83379120  0.49979962  0.83257435  1
  Sn  Sn40  1  0.83406411  0.83270559  0.49936703  1
  Pb  Pb41  1  0.16703797  0.50233575  0.49985544  1
  Pb  Pb42  1  0.16889557  0.83592371  0.83114613  1
  Pb  Pb43  1  0.50063045  0.83280096  0.50167049  1
  Pb  Pb44  1  0.83321086  0.16879073  0.83565560  1
  Pb  Pb45  1  0.16324630  0.49665688  0.83321316  1
  Pb  Pb46  1  0.50085794  0.49957056  0.83331121  1
  Pb  Pb47  1  0.17048224  0.49744120  0.16677766  1
  Pb  Pb48  1  0.50178414  0.83301318  0.16429320  1
  Pb  Pb49  1  0.83194251  0.50015674  0.16726663  1
  Pb  Pb50  1  0.83098826  0.16681678  0.49773886  1
  Pb  Pb51  1  0.16386796  0.83604102  0.16847165  1
  Pb  Pb52  1  0.83173728  0.83135009  0.83341697  1
  Pb  Pb53  1  0.16927264  0.16476284  0.49999840  1
  I  I54  1  0.17350610  0.00407799  0.16370342  1
  I  I55  1  0.16113735  -0.00276821  0.50004610  1
  I  I56  1  0.16811923  0.00375711  0.83785045  1
  I  I57  1  0.16036032  0.32891059  0.16472835  1
  I  I58  1  0.16417753  0.33300434  0.49995302  1
  I  I59  1  0.17613619  0.32895480  0.83622792  1
  I  I60  1  0.16656206  0.66699090  0.16732509  1
  I  I61  1  0.16795773  0.67016036  0.50015984  1
  I  I62  1  0.16917129  0.66682951  0.83234306  1
  I  I63  1  0.49863002  0.00339414  0.16935127  1
  I  I64  1  0.49947052  0.00253658  0.49750823  1
  I  I65  1  0.49794010  0.00218512  0.83270458  1
  I  I66  1  0.50301800  0.33141208  0.16501644  1
  I  I67  1  0.50505801  0.33317913  0.50096532  1
  I  I68  1  0.49773552  0.33014451  0.83401400  1
  I  I69  1  0.50535015  0.66407520  0.17114066  1
  I  I70  1  0.50177835  0.66382828  0.49710049  1
  I  I71  1  0.50413813  0.66835241  0.83186571  1
  I  I72  1  0.83013375  0.00071280  0.17199192  1
  I  I73  1  0.83506050  -0.00243892  0.49742142  1
  I  I74  1  0.83399387  0.00029052  0.83137879  1
  I  I75  1  0.83370601  0.33063214  0.16563211  1
  I  I76  1  0.83010140  0.33591590  0.50266440  1
  I  I77  1  0.83013027  0.33630940  0.82800366  1
  I  I78  1  0.82928471  0.66887056  0.16827252  1
  I  I79  1  0.83018982  0.66661056  0.49772882  1
  I  I80  1  0.82755698  0.66371465  0.83370935  1
  I  I81  1  0.17241264  0.16644042  0.00060287  1
  I  I82  1  0.16782834  0.16525284  0.33059182  1
  I  I83  1  0.17242127  0.16538316  0.66905208  1
  I  I84  1  0.16533410  0.50384905  0.00001687  1
  I  I85  1  0.16159926  0.49689357  0.33332900  1
  I  I86  1  0.17210186  0.49751780  0.66653137  1
  I  I87  1  0.16614025  0.83195324  -0.00001437  1
  I  I88  1  0.16770083  0.83569719  0.33623574  1
  I  I89  1  0.15983390  0.83582898  0.66357557  1
  I  I90  1  0.49964147  0.16727873  0.00065938  1
  I  I91  1  0.50027645  0.17137450  0.33262096  1
  I  I92  1  0.49535683  0.16641228  0.66696149  1
  I  I93  1  0.50427340  0.49527803  0.00219796  1
  I  I94  1  0.50687458  0.49096947  0.33404957  1
  I  I95  1  0.50291353  0.49725224  0.66396533  1
  I  I96  1  0.50285735  0.83813390  -0.00315270  1
  I  I97  1  0.49868876  0.83580995  0.33335228  1
  I  I98  1  0.50189702  0.83874672  0.66921931  1
  I  I99  1  0.82849007  0.16336616  0.00369092  1
  I  I100  1  0.83313465  0.16737783  0.32968410  1
  I  I101  1  0.83303935  0.16483472  0.66648150  1
  I  I102  1  0.82930158  0.49832802  -0.00131012  1
  I  I103  1  0.83008731  0.50149744  0.33610419  1
  I  I104  1  0.82593587  0.50470084  0.66488015  1
  I  I105  1  0.82932121  0.83677199  0.00249378  1
  I  I106  1  0.83518957  0.83167829  0.33408482  1
  I  I107  1  0.83513689  0.83090087  0.66377198  1
  I  I108  1  -0.00023743  0.16159253  0.16128032  1
  I  I109  1  -0.00020969  0.16862747  0.49971006  1
  I  I110  1  0.00233487  0.16887353  0.83843982  1
  I  I111  1  -0.00000559  0.49841823  0.16669503  1
  I  I112  1  -0.00330072  0.50163468  0.50386430  1
  I  I113  1  -0.00453037  0.50051501  0.82747916  1
  I  I114  1  -0.00420805  0.83732352  0.16704311  1
  I  I115  1  -0.00182442  0.82892870  0.49651181  1
  I  I116  1  -0.00002497  0.83367633  0.83448362  1
  I  I117  1  0.33463901  0.17187727  0.16574191  1
  I  I118  1  0.33748833  0.16983904  0.49649243  1
  I  I119  1  0.33512140  0.16317480  0.83834338  1
  I  I120  1  0.33866676  0.49499719  0.17211991  1
  I  I121  1  0.33695701  0.49660811  0.49662511  1
  I  I122  1  0.33334092  0.50241298  0.83326754  1
  I  I123  1  0.33332063  0.83331736  0.16831383  1
  I  I124  1  0.33205367  0.83512054  0.50221879  1
  I  I125  1  0.33689090  0.83366230  0.83180008  1
  I  I126  1  0.66554074  0.16706486  0.16655328  1
  I  I127  1  0.66276044  0.16560134  0.50078389  1
  I  I128  1  0.66357385  0.16457762  0.83424586  1
  I  I129  1  0.66401388  0.49310722  0.16719339  1
  I  I130  1  0.66652641  0.50210953  0.50016060  1
  I  I131  1  0.66863104  0.49799401  0.83193856  1
  I  I132  1  0.66956264  0.83936263  0.17377777  1
  I  I133  1  0.66933467  0.83201163  0.49713212  1
  I  I134  1  0.66398779  0.84112463  0.83119943  1
