# generated using pymatgen
data_Cs27Sn14Pb13I81
_symmetry_space_group_name_H-M   'P 1'
_cell_length_a   18.97713169
_cell_length_b   18.97183491
_cell_length_c   18.97718155
_cell_angle_alpha   89.99801766
_cell_angle_beta   90.00041143
_cell_angle_gamma   90.00251975
_symmetry_Int_Tables_number   1
_chemical_formula_structural   Cs27Sn14Pb13I81
_chemical_formula_sum   'Cs27 Sn14 Pb13 I81'
_cell_volume   6832.37381918
_cell_formula_units_Z   1
loop_
 _symmetry_equiv_pos_site_id
 _symmetry_equiv_pos_as_xyz
  1  'x, y, z'
loop_
 _atom_site_type_symbol
 _atom_site_label
 _atom_site_symmetry_multiplicity
 _atom_site_fract_x
 _atom_site_fract_y
 _atom_site_fract_z
 _atom_site_occupancy
  Cs  Cs0  1  -0.00301355  -0.00110714  0.00519988  1
  Cs  Cs1  1  0.00291354  -0.00328475  0.32928585  1
  Cs  Cs2  1  0.00359435  0.00265534  0.66523076  1
  Cs  Cs3  1  0.00065435  0.33308533  -0.00139554  1
  Cs  Cs4  1  -0.00307705  0.33451365  0.33205650  1
  Cs  Cs5  1  -0.00115461  0.33518546  0.66752755  1
  Cs  Cs6  1  0.00163525  0.66878960  0.00044270  1
  Cs  Cs7  1  0.00352481  0.66856706  0.33334708  1
  Cs  Cs8  1  -0.00038082  0.66470026  0.66666680  1
  Cs  Cs9  1  0.33616086  0.00467762  -0.00812517  1
  Cs  Cs10  1  0.33068528  -0.00204103  0.33807559  1
  Cs  Cs11  1  0.33068421  0.00980851  0.66817922  1
  Cs  Cs12  1  0.33377198  0.33168255  0.00333317  1
  Cs  Cs13  1  0.33771733  0.33170169  0.32864564  1
  Cs  Cs14  1  0.33158758  0.32865160  0.66719569  1
  Cs  Cs15  1  0.33205801  0.66512272  0.00240481  1
  Cs  Cs16  1  0.33334637  0.66794542  0.33015965  1
  Cs  Cs17  1  0.33381372  0.66641686  0.66664064  1
  Cs  Cs18  1  0.66608287  -0.00393598  0.00162786  1
  Cs  Cs19  1  0.66669047  0.00159843  0.33099691  1
  Cs  Cs20  1  0.66418943  -0.00331757  0.66839175  1
  Cs  Cs21  1  0.66772006  0.33260232  0.00506187  1
  Cs  Cs22  1  0.66675030  0.33150775  0.33220122  1
  Cs  Cs23  1  0.67105758  0.33709177  0.66449217  1
  Cs  Cs24  1  0.66592265  0.67028575  -0.00312742  1
  Cs  Cs25  1  0.66416198  0.66581281  0.33712925  1
  Cs  Cs26  1  0.66651089  0.66606657  0.66591789  1
  Sn  Sn27  1  0.83296959  0.83337266  0.50016299  1
  Sn  Sn28  1  0.16656679  0.16684961  0.16693348  1
  Sn  Sn29  1  0.49989877  0.83317337  0.16733745  1
  Sn  Sn30  1  0.49961834  0.50053435  0.50088194  1
  Sn  Sn31  1  0.83332114  0.16628478  0.50081413  1
  Sn  Sn32  1  0.50046635  0.83266706  0.49946806  1
  Sn  Sn33  1  0.83312063  0.16700370  0.83273193  1
  Sn  Sn34  1  0.50000254  0.49989186  0.83257367  1
  Sn  Sn35  1  0.83346167  0.50028977  0.49979521  1
  Sn  Sn36  1  0.16685843  0.50082712  0.83253029  1
  Sn  Sn37  1  0.16649618  0.83270661  0.83284148  1
  Sn  Sn38  1  0.83323607  0.49950088  0.83371496  1
  Sn  Sn39  1  0.16710424  0.49993689  0.50032313  1
  Sn  Sn40  1  0.83337293  0.50076661  0.16655452  1
  Pb  Pb41  1  0.16476750  0.49896138  0.16650153  1
  Pb  Pb42  1  0.49784602  0.83125878  0.83204212  1
  Pb  Pb43  1  0.16926660  0.83545819  0.16406931  1
  Pb  Pb44  1  0.16727130  0.83135845  0.50185314  1
  Pb  Pb45  1  0.16413330  0.16759424  0.83472920  1
  Pb  Pb46  1  0.50232291  0.50143376  0.16683043  1
  Pb  Pb47  1  0.83503608  0.83313540  0.83096508  1
  Pb  Pb48  1  0.50254737  0.16687958  0.50021972  1
  Pb  Pb49  1  0.16401170  0.16984927  0.49804478  1
  Pb  Pb50  1  0.50355169  0.17016235  0.83308316  1
  Pb  Pb51  1  0.49775871  0.16355468  0.16686108  1
  Pb  Pb52  1  0.83438842  0.16834721  0.16670874  1
  Pb  Pb53  1  0.83159235  0.83066961  0.16942687  1
  I  I54  1  0.16369871  0.00284078  0.16575142  1
  I  I55  1  0.16625148  0.00008330  0.50106750  1
  I  I56  1  0.16574825  -0.00179469  0.83517170  1
  I  I57  1  0.16496679  0.33140272  0.16489187  1
  I  I58  1  0.16628872  0.33810249  0.50729040  1
  I  I59  1  0.16718218  0.33703433  0.83045242  1
  I  I60  1  0.16599769  0.66672089  0.16754285  1
  I  I61  1  0.16079434  0.66298167  0.50112921  1
  I  I62  1  0.16366696  0.66410213  0.83050156  1
  I  I63  1  0.50146452  -0.00425646  0.17313292  1
  I  I64  1  0.50499283  -0.00323255  0.49501032  1
  I  I65  1  0.49859724  -0.00006964  0.83401279  1
  I  I66  1  0.50017477  0.33353235  0.16654343  1
  I  I67  1  0.50081656  0.33713930  0.50423342  1
  I  I68  1  0.49433584  0.33850034  0.82736646  1
  I  I69  1  0.50009734  0.66904882  0.16905221  1
  I  I70  1  0.50588755  0.66538101  0.50025453  1
  I  I71  1  0.50611456  0.66292640  0.83160000  1
  I  I72  1  0.83386045  -0.00025350  0.16619706  1
  I  I73  1  0.82833469  -0.00015203  0.50512126  1
  I  I74  1  0.83698695  0.00234342  0.82867567  1
  I  I75  1  0.83301966  0.33648369  0.17077051  1
  I  I76  1  0.83386088  0.33529691  0.50088604  1
  I  I77  1  0.83537244  0.33567853  0.82827213  1
  I  I78  1  0.83485178  0.66265879  0.16471881  1
  I  I79  1  0.83225720  0.66496159  0.50035370  1
  I  I80  1  0.83189423  0.66295541  0.83217718  1
  I  I81  1  0.16340118  0.16875939  0.00205393  1
  I  I82  1  0.16376890  0.16790829  0.33083983  1
  I  I83  1  0.16746957  0.16466061  0.66662490  1
  I  I84  1  0.16585761  0.50189500  -0.00326426  1
  I  I85  1  0.16495638  0.49820019  0.33620853  1
  I  I86  1  0.16191478  0.50325471  0.66706907  1
  I  I87  1  0.16689533  0.82527223  -0.00352335  1
  I  I88  1  0.16469646  0.83301794  0.33357063  1
  I  I89  1  0.16717855  0.83082878  0.66954771  1
  I  I90  1  0.50209114  0.16626335  -0.00015324  1
  I  I91  1  0.50266640  0.17265401  0.33357046  1
  I  I92  1  0.49544828  0.16058342  0.66671109  1
  I  I93  1  0.50028132  0.50168868  -0.00280970  1
  I  I94  1  0.50064769  0.50180038  0.33668897  1
  I  I95  1  0.50476254  0.50593647  0.66569133  1
  I  I96  1  0.49770412  0.83144773  0.00135672  1
  I  I97  1  0.50360513  0.82666745  0.33520924  1
  I  I98  1  0.50494228  0.82933611  0.66330590  1
  I  I99  1  0.83578140  0.17351648  -0.00264165  1
  I  I100  1  0.83450282  0.16947117  0.33630391  1
  I  I101  1  0.83449226  0.17360136  0.66615917  1
  I  I102  1  0.83368021  0.49400664  -0.00151796  1
  I  I103  1  0.83352326  0.49911832  0.33540608  1
  I  I104  1  0.83343439  0.49916503  0.66610259  1
  I  I105  1  0.83262605  0.83340433  -0.00009340  1
  I  I106  1  0.83343550  0.83309024  0.33764482  1
  I  I107  1  0.82708538  0.82813539  0.66295325  1
  I  I108  1  0.00195798  0.16769824  0.16625318  1
  I  I109  1  -0.00408813  0.16738725  0.50392668  1
  I  I110  1  -0.00340903  0.17370540  0.82940722  1
  I  I111  1  -0.00325265  0.49876553  0.16789731  1
  I  I112  1  -0.00141361  0.49976459  0.50263217  1
  I  I113  1  -0.00064821  0.49951724  0.83013935  1
  I  I114  1  0.00004045  0.83383925  0.16726449  1
  I  I115  1  -0.00256632  0.83133398  0.50252338  1
  I  I116  1  0.00264764  0.82649894  0.83167409  1
  I  I117  1  0.33011543  0.17045399  0.16509887  1
  I  I118  1  0.33310757  0.16644422  0.49819848  1
  I  I119  1  0.33318421  0.16662363  0.83574026  1
  I  I120  1  0.33348764  0.49915943  0.16665632  1
  I  I121  1  0.33393188  0.50574949  0.50679568  1
  I  I122  1  0.33292978  0.50593206  0.82663247  1
  I  I123  1  0.33665341  0.83097679  0.17498643  1
  I  I124  1  0.33630993  0.82678085  0.49632410  1
  I  I125  1  0.33019915  0.82692858  0.83304783  1
  I  I126  1  0.66683095  0.16730433  0.16646145  1
  I  I127  1  0.67078562  0.17284572  0.50234442  1
  I  I128  1  0.67146746  0.17128918  0.82980899  1
  I  I129  1  0.67022962  0.49898550  0.16714218  1
  I  I130  1  0.66764688  0.50071875  0.50257064  1
  I  I131  1  0.66752622  0.49601751  0.83018385  1
  I  I132  1  0.66385696  0.83273205  0.16638184  1
  I  I133  1  0.66692472  0.82768318  0.49757595  1
  I  I134  1  0.66658541  0.83351387  0.83557970  1
