# generated using pymatgen
data_Cs27Sn14Pb13I81
_symmetry_space_group_name_H-M   'P 1'
_cell_length_a   18.97216921
_cell_length_b   18.97230511
_cell_length_c   18.98228922
_cell_angle_alpha   90.00048921
_cell_angle_beta   90.00000087
_cell_angle_gamma   89.99742467
_symmetry_Int_Tables_number   1
_chemical_formula_structural   Cs27Sn14Pb13I81
_chemical_formula_sum   'Cs27 Sn14 Pb13 I81'
_cell_volume   6832.59494911
_cell_formula_units_Z   1
loop_
 _symmetry_equiv_pos_site_id
 _symmetry_equiv_pos_as_xyz
  1  'x, y, z'
loop_
 _atom_site_type_symbol
 _atom_site_label
 _atom_site_symmetry_multiplicity
 _atom_site_fract_x
 _atom_site_fract_y
 _atom_site_fract_z
 _atom_site_occupancy
  Cs  Cs0  1  0.00204474  0.00057495  -0.00254024  1
  Cs  Cs1  1  0.00157469  -0.00109885  0.33393078  1
  Cs  Cs2  1  -0.00361917  0.00694970  0.66807960  1
  Cs  Cs3  1  -0.00015038  0.33544847  -0.00533837  1
  Cs  Cs4  1  -0.00337353  0.33316534  0.34013962  1
  Cs  Cs5  1  0.00759131  0.32585820  0.66629480  1
  Cs  Cs6  1  -0.00045243  0.66722861  0.00275237  1
  Cs  Cs7  1  -0.00221954  0.66812503  0.33203710  1
  Cs  Cs8  1  0.00313147  0.66662834  0.66552782  1
  Cs  Cs9  1  0.33009593  0.00249508  0.00779615  1
  Cs  Cs10  1  0.33203564  -0.00015066  0.32643474  1
  Cs  Cs11  1  0.33801327  -0.00575138  0.66631442  1
  Cs  Cs12  1  0.33519080  0.33070041  -0.00193324  1
  Cs  Cs13  1  0.33442830  0.33066623  0.33453892  1
  Cs  Cs14  1  0.32926250  0.33564029  0.66761237  1
  Cs  Cs15  1  0.33176201  0.66647711  0.00089502  1
  Cs  Cs16  1  0.33261015  0.66778832  0.33379100  1
  Cs  Cs17  1  0.33335914  0.66666649  0.66609906  1
  Cs  Cs18  1  0.66805955  0.00010208  -0.00242825  1
  Cs  Cs19  1  0.66669262  0.00109892  0.33403357  1
  Cs  Cs20  1  0.66818710  -0.00194137  0.66968513  1
  Cs  Cs21  1  0.66362225  0.33707214  0.00239316  1
  Cs  Cs22  1  0.66637903  0.33448643  0.33243484  1
  Cs  Cs23  1  0.66606580  0.33277368  0.66604837  1
  Cs  Cs24  1  0.66781853  0.66474580  -0.00067363  1
  Cs  Cs25  1  0.66816502  0.66556380  0.33391957  1
  Cs  Cs26  1  0.66482268  0.66891260  0.66667346  1
  Sn  Sn27  1  0.16654757  0.83320580  0.83224300  1
  Sn  Sn28  1  0.49862166  0.50095661  0.16691576  1
  Sn  Sn29  1  0.83294104  0.50022118  0.83133249  1
  Sn  Sn30  1  0.50134877  0.83238491  0.16661945  1
  Sn  Sn31  1  0.50024188  0.16748929  0.50106206  1
  Sn  Sn32  1  0.50058970  0.49934033  0.50021288  1
  Sn  Sn33  1  0.50066315  0.49955495  0.83288665  1
  Sn  Sn34  1  0.50022196  0.16725194  0.83220626  1
  Sn  Sn35  1  0.16547529  0.83317773  0.50113949  1
  Sn  Sn36  1  0.83230376  0.83452214  0.16719532  1
  Sn  Sn37  1  0.16765791  0.49955658  0.16703966  1
  Sn  Sn38  1  0.83272933  0.50063076  0.50177986  1
  Sn  Sn39  1  0.83336112  0.16566591  0.16664301  1
  Sn  Sn40  1  0.83403830  0.83267962  0.49962859  1
  Pb  Pb41  1  0.83128848  0.16667348  0.49876122  1
  Pb  Pb42  1  0.83297936  0.50029423  0.16706863  1
  Pb  Pb43  1  0.50053425  0.83310335  0.49802817  1
  Pb  Pb44  1  0.83100468  0.16967706  0.83546160  1
  Pb  Pb45  1  0.49827269  0.83303388  0.83623419  1
  Pb  Pb46  1  0.50139537  0.16706374  0.16664788  1
  Pb  Pb47  1  0.16321225  0.17026699  0.16682225  1
  Pb  Pb48  1  0.16668705  0.50154802  0.49816531  1
  Pb  Pb49  1  0.16700612  0.50139992  0.83495613  1
  Pb  Pb50  1  0.16604857  0.83205581  0.16704372  1
  Pb  Pb51  1  0.16995578  0.16334740  0.49996044  1
  Pb  Pb52  1  0.83504537  0.83127711  0.83308307  1
  Pb  Pb53  1  0.16985609  0.16376371  0.83322768  1
  I  I54  1  0.17029057  -0.00005589  0.16656014  1
  I  I55  1  0.16106642  -0.00472654  0.50187110  1
  I  I56  1  0.16666705  -0.00407122  0.83145978  1
  I  I57  1  0.17374879  0.33794627  0.16558427  1
  I  I58  1  0.16373390  0.33341627  0.49776832  1
  I  I59  1  0.16449970  0.33342706  0.83602812  1
  I  I60  1  0.16704776  0.66430092  0.16634779  1
  I  I61  1  0.16798167  0.66954281  0.50184858  1
  I  I62  1  0.16926357  0.66909775  0.83098499  1
  I  I63  1  0.50154303  -0.00229207  0.16738484  1
  I  I64  1  0.49962691  0.00197100  0.50257731  1
  I  I65  1  0.49780022  0.00221023  0.82980259  1
  I  I66  1  0.49906887  0.33654553  0.16647184  1
  I  I67  1  0.50613177  0.33542102  0.49689175  1
  I  I68  1  0.50392642  0.33519066  0.83637170  1
  I  I69  1  0.50213651  0.66547955  0.16699969  1
  I  I70  1  0.50093503  0.66369918  0.50170347  1
  I  I71  1  0.50242217  0.66336533  0.83137720  1
  I  I72  1  0.82686033  -0.00205186  0.17227973  1
  I  I73  1  0.83554508  -0.00296509  0.49603010  1
  I  I74  1  0.83278138  0.00005126  0.83240088  1
  I  I75  1  0.83219083  0.33205953  0.16645583  1
  I  I76  1  0.83005597  0.33643185  0.49944047  1
  I  I77  1  0.83233595  0.33780672  0.83084164  1
  I  I78  1  0.83249103  0.66893479  0.16794951  1
  I  I79  1  0.83066859  0.66638055  0.49634550  1
  I  I80  1  0.82606236  0.66333327  0.83563722  1
  I  I81  1  0.16951133  0.16298272  0.00012952  1
  I  I82  1  0.17080088  0.16384049  0.33328970  1
  I  I83  1  0.16318366  0.16998997  0.66658797  1
  I  I84  1  0.16914332  0.50445698  0.00286135  1
  I  I85  1  0.17035607  0.50411226  0.33038610  1
  I  I86  1  0.16888104  0.50147776  0.66649055  1
  I  I87  1  0.16811049  0.83070520  -0.00133179  1
  I  I88  1  0.16586086  0.83103504  0.33546400  1
  I  I89  1  0.16329292  0.83045862  0.66575900  1
  I  I90  1  0.50178796  0.17018645  -0.00198888  1
  I  I91  1  0.50203414  0.16990641  0.33536669  1
  I  I92  1  0.50063972  0.17416058  0.66652897  1
  I  I93  1  0.50113262  0.50001667  0.00002867  1
  I  I94  1  0.50100726  0.50017772  0.33352222  1
  I  I95  1  0.50496239  0.49575442  0.66644922  1
  I  I96  1  0.50392678  0.82901209  0.00403009  1
  I  I97  1  0.49898292  0.82946440  0.33022180  1
  I  I98  1  0.50077693  0.83220197  0.66665812  1
  I  I99  1  0.83032925  0.16184295  0.00322614  1
  I  I100  1  0.82909970  0.16846478  0.33089801  1
  I  I101  1  0.83297586  0.16390155  0.66676984  1
  I  I102  1  0.83015096  0.49970405  -0.00160179  1
  I  I103  1  0.83027772  0.50112762  0.33577455  1
  I  I104  1  0.82408931  0.50685276  0.66555000  1
  I  I105  1  0.83105750  0.83411936  0.00276805  1
  I  I106  1  0.83515297  0.82989124  0.33345419  1
  I  I107  1  0.83485514  0.83009970  0.66366557  1
  I  I108  1  -0.00445382  0.16048400  0.16762860  1
  I  I109  1  -0.00020699  0.16960810  0.49766449  1
  I  I110  1  -0.00018449  0.16826994  0.83558503  1
  I  I111  1  0.00134907  0.50155553  0.16591695  1
  I  I112  1  -0.00308470  0.50321333  0.50048555  1
  I  I113  1  -0.00255767  0.50336749  0.83327735  1
  I  I114  1  -0.00291820  0.83374080  0.16787134  1
  I  I115  1  -0.00152453  0.82613685  0.49619042  1
  I  I116  1  0.00270174  0.82907698  0.83571334  1
  I  I117  1  0.33354501  0.16315002  0.16651743  1
  I  I118  1  0.33803677  0.17325170  0.50185217  1
  I  I119  1  0.33777472  0.17508767  0.83164012  1
  I  I120  1  0.33597225  0.50705022  0.16633688  1
  I  I121  1  0.33670319  0.49843507  0.50161415  1
  I  I122  1  0.33688883  0.49786150  0.83194340  1
  I  I123  1  0.33548880  0.83080403  0.16692428  1
  I  I124  1  0.33172359  0.83314968  0.50154845  1
  I  I125  1  0.33072932  0.83071933  0.82823976  1
  I  I126  1  0.66899339  0.16723248  0.16716736  1
  I  I127  1  0.66330715  0.16642028  0.50202451  1
  I  I128  1  0.66309081  0.16676195  0.83012531  1
  I  I129  1  0.66384717  0.50091348  0.16634965  1
  I  I130  1  0.66608353  0.50262962  0.49746524  1
  I  I131  1  0.66535143  0.49802530  0.83646716  1
  I  I132  1  0.66715102  0.83023750  0.17197283  1
  I  I133  1  0.66930843  0.83148277  0.49612681  1
  I  I134  1  0.66649762  0.83457359  0.83209626  1
