# generated using pymatgen
data_Cs27Sn13Pb14I81
_symmetry_space_group_name_H-M   'P 1'
_cell_length_a   18.97362026
_cell_length_b   18.97801266
_cell_length_c   18.97897746
_cell_angle_alpha   89.99752370
_cell_angle_beta   90.00009978
_cell_angle_gamma   90.00165638
_symmetry_Int_Tables_number   1
_chemical_formula_structural   Cs27Sn13Pb14I81
_chemical_formula_sum   'Cs27 Sn13 Pb14 I81'
_cell_volume   6833.98066440
_cell_formula_units_Z   1
loop_
 _symmetry_equiv_pos_site_id
 _symmetry_equiv_pos_as_xyz
  1  'x, y, z'
loop_
 _atom_site_type_symbol
 _atom_site_label
 _atom_site_symmetry_multiplicity
 _atom_site_fract_x
 _atom_site_fract_y
 _atom_site_fract_z
 _atom_site_occupancy
  Cs  Cs0  1  0.00034959  -0.00149214  0.00103823  1
  Cs  Cs1  1  0.00242426  0.00066080  0.33092035  1
  Cs  Cs2  1  -0.00165790  -0.00224407  0.66735367  1
  Cs  Cs3  1  0.00025938  0.33445278  -0.00238318  1
  Cs  Cs4  1  0.00486951  0.33149297  0.33690670  1
  Cs  Cs5  1  0.00102594  0.33564824  0.66649610  1
  Cs  Cs6  1  -0.00264050  0.66546741  0.00221741  1
  Cs  Cs7  1  -0.00953367  0.66738996  0.33423109  1
  Cs  Cs8  1  -0.00456136  0.66845648  0.66379423  1
  Cs  Cs9  1  0.33314423  -0.00128392  -0.00036520  1
  Cs  Cs10  1  0.33141816  0.00019984  0.33255122  1
  Cs  Cs11  1  0.33536145  -0.00191998  0.66722180  1
  Cs  Cs12  1  0.33201376  0.33405068  -0.00255276  1
  Cs  Cs13  1  0.33118315  0.33409340  0.33726981  1
  Cs  Cs14  1  0.33278140  0.33441263  0.66706505  1
  Cs  Cs15  1  0.33289686  0.66646610  -0.00150197  1
  Cs  Cs16  1  0.33702598  0.66534672  0.33177798  1
  Cs  Cs17  1  0.33328270  0.66907561  0.66948425  1
  Cs  Cs18  1  0.66658596  0.00248187  -0.00008336  1
  Cs  Cs19  1  0.66620815  0.00153371  0.33541625  1
  Cs  Cs20  1  0.66496692  0.00087113  0.66544802  1
  Cs  Cs21  1  0.66903624  0.33124572  0.00089007  1
  Cs  Cs22  1  0.66528460  0.33407120  0.33197131  1
  Cs  Cs23  1  0.66641117  0.33132380  0.66698468  1
  Cs  Cs24  1  0.67244432  0.66421744  0.00919692  1
  Cs  Cs25  1  0.67259361  0.65890257  0.32603312  1
  Cs  Cs26  1  0.67228109  0.66866317  0.66363228  1
  Sn  Sn27  1  0.16726047  0.83314696  0.83258149  1
  Sn  Sn28  1  0.50000193  0.16655302  0.16672351  1
  Sn  Sn29  1  0.83276196  0.16645389  0.49923672  1
  Sn  Sn30  1  0.16719048  0.50017849  0.16642613  1
  Sn  Sn31  1  0.83304347  0.16659107  0.16769463  1
  Sn  Sn32  1  0.49998578  0.50052249  0.83309938  1
  Sn  Sn33  1  0.16774009  0.83319487  0.50048675  1
  Sn  Sn34  1  0.16748645  0.50048670  0.83397573  1
  Sn  Sn35  1  0.50002286  0.83277515  0.83297116  1
  Sn  Sn36  1  0.50027832  0.16605540  0.50000219  1
  Sn  Sn37  1  0.49900767  0.16668907  0.83329000  1
  Sn  Sn38  1  0.49934368  0.83356961  0.50025390  1
  Sn  Sn39  1  0.16742645  0.16632937  0.83311180  1
  Pb  Pb40  1  0.16697491  0.16819676  0.16431935  1
  Pb  Pb41  1  0.49994999  0.83527317  0.16671666  1
  Pb  Pb42  1  0.16696147  0.50349546  0.50068948  1
  Pb  Pb43  1  0.83315775  0.50004131  0.83327914  1
  Pb  Pb44  1  0.83306696  0.49655422  0.50014550  1
  Pb  Pb45  1  0.16688585  0.83072310  0.16657726  1
  Pb  Pb46  1  0.83316939  0.83646492  0.16672079  1
  Pb  Pb47  1  0.49994658  0.50058859  0.50241880  1
  Pb  Pb48  1  0.16716380  0.16471060  0.50255307  1
  Pb  Pb49  1  0.49805350  0.49717811  0.16411025  1
  Pb  Pb50  1  0.83238147  0.83566474  0.49995770  1
  Pb  Pb51  1  0.83308870  0.16657607  0.83312124  1
  Pb  Pb52  1  0.83625348  0.49660661  0.16656599  1
  Pb  Pb53  1  0.83254744  0.83338006  0.83348681  1
  I  I54  1  0.16524993  0.00018115  0.16501747  1
  I  I55  1  0.16770367  -0.00302436  0.50552789  1
  I  I56  1  0.17193317  -0.00016154  0.82961752  1
  I  I57  1  0.16663236  0.33584409  0.15955878  1
  I  I58  1  0.16544949  0.33322162  0.50123701  1
  I  I59  1  0.17209012  0.33317898  0.83797420  1
  I  I60  1  0.16820518  0.66320227  0.15939203  1
  I  I61  1  0.17351999  0.67126153  0.50601070  1
  I  I62  1  0.17362475  0.66695282  0.83377809  1
  I  I63  1  0.50251372  0.00398170  0.16163696  1
  I  I64  1  0.50036616  0.00110762  0.50517248  1
  I  I65  1  0.49456397  0.00073648  0.83283322  1
  I  I66  1  0.50356756  0.32887406  0.16693234  1
  I  I67  1  0.50426931  0.32992301  0.50098694  1
  I  I68  1  0.49422885  0.33211464  0.83355813  1
  I  I69  1  0.49886279  0.66629539  0.16690171  1
  I  I70  1  0.49380689  0.67041788  0.50600605  1
  I  I71  1  0.49146983  0.66745899  0.82742964  1
  I  I72  1  0.83083971  0.00469620  0.16937028  1
  I  I73  1  0.83124367  0.00366839  0.49674318  1
  I  I74  1  0.83548860  0.00028654  0.83467417  1
  I  I75  1  0.82769435  0.32908099  0.16971742  1
  I  I76  1  0.82770519  0.32819483  0.49740710  1
  I  I77  1  0.83436006  0.33298311  0.83246881  1
  I  I78  1  0.83393121  0.66613478  0.16635016  1
  I  I79  1  0.83391100  0.66700249  0.50070509  1
  I  I80  1  0.83345182  0.66672488  0.83307264  1
  I  I81  1  0.17030574  0.16254973  -0.00390825  1
  I  I82  1  0.16835609  0.16745702  0.33348476  1
  I  I83  1  0.16972836  0.17178433  0.67069476  1
  I  I84  1  0.17068470  0.50030197  -0.00233294  1
  I  I85  1  0.16558697  0.49830583  0.33106930  1
  I  I86  1  0.17083231  0.49672181  0.67056034  1
  I  I87  1  0.17145967  0.83590908  -0.00381019  1
  I  I88  1  0.17106852  0.83415852  0.33643772  1
  I  I89  1  0.17078640  0.83276812  0.66818662  1
  I  I90  1  0.50049475  0.16662854  -0.00124316  1
  I  I91  1  0.50483695  0.16187052  0.33403315  1
  I  I92  1  0.50073680  0.16621591  0.66723237  1
  I  I93  1  0.49714681  0.50044707  -0.00425377  1
  I  I94  1  0.49834355  0.49956920  0.33308442  1
  I  I95  1  0.49197746  0.49386744  0.67084069  1
  I  I96  1  0.49432892  0.83530309  -0.00369281  1
  I  I97  1  0.49466467  0.84022840  0.33688225  1
  I  I98  1  0.49506546  0.83947288  0.66749337  1
  I  I99  1  0.82971255  0.16750656  0.00241144  1
  I  I100  1  0.82491991  0.16635689  0.33357424  1
  I  I101  1  0.82953161  0.16557521  0.66397304  1
  I  I102  1  0.83149002  0.49664130  0.00003628  1
  I  I103  1  0.83545081  0.50202857  0.33311701  1
  I  I104  1  0.83631913  0.49738495  0.66680943  1
  I  I105  1  0.83412422  0.83609672  -0.00005763  1
  I  I106  1  0.83517723  0.83251356  0.33369053  1
  I  I107  1  0.83458328  0.83650177  0.66660688  1
  I  I108  1  -0.00223314  0.16852360  0.17032261  1
  I  I109  1  -0.00197509  0.16545016  0.49629054  1
  I  I110  1  0.00310711  0.16721724  0.83370916  1
  I  I111  1  0.00380635  0.49871174  0.15776584  1
  I  I112  1  0.00031923  0.49954798  0.50238204  1
  I  I113  1  0.00395031  0.49828570  0.83709017  1
  I  I114  1  0.00032965  0.83577686  0.16611285  1
  I  I115  1  0.00267130  0.83380610  0.50544991  1
  I  I116  1  0.00379022  0.83424177  0.82925430  1
  I  I117  1  0.33630031  0.16740956  0.16811034  1
  I  I118  1  0.33664709  0.16517234  0.49797459  1
  I  I119  1  0.33456925  0.16698200  0.83370446  1
  I  I120  1  0.33037814  0.49743464  0.16344102  1
  I  I121  1  0.33333715  0.49304473  0.49717166  1
  I  I122  1  0.33294339  0.49862660  0.83694689  1
  I  I123  1  0.33336593  0.83725391  0.16722151  1
  I  I124  1  0.33431883  0.84017953  0.50528375  1
  I  I125  1  0.33341936  0.83442158  0.82947710  1
  I  I126  1  0.66540818  0.16636633  0.16428682  1
  I  I127  1  0.66468540  0.16138992  0.50204340  1
  I  I128  1  0.66286958  0.16650537  0.83347401  1
  I  I129  1  0.66660736  0.50133878  0.16528449  1
  I  I130  1  0.66629258  0.50441701  0.50251785  1
  I  I131  1  0.66286829  0.49743774  0.83157158  1
  I  I132  1  0.66629133  0.83059388  0.16517802  1
  I  I133  1  0.66278310  0.83762010  0.50738391  1
  I  I134  1  0.66214671  0.83615737  0.82802178  1
