# generated using pymatgen
data_Cs27Sn13Pb14I81
_symmetry_space_group_name_H-M   'P 1'
_cell_length_a   18.97745301
_cell_length_b   18.97674130
_cell_length_c   18.97739714
_cell_angle_alpha   89.99942618
_cell_angle_beta   89.99899448
_cell_angle_gamma   89.99938811
_symmetry_Int_Tables_number   1
_chemical_formula_structural   Cs27Sn13Pb14I81
_chemical_formula_sum   'Cs27 Sn13 Pb14 I81'
_cell_volume   6834.33413498
_cell_formula_units_Z   1
loop_
 _symmetry_equiv_pos_site_id
 _symmetry_equiv_pos_as_xyz
  1  'x, y, z'
loop_
 _atom_site_type_symbol
 _atom_site_label
 _atom_site_symmetry_multiplicity
 _atom_site_fract_x
 _atom_site_fract_y
 _atom_site_fract_z
 _atom_site_occupancy
  Cs  Cs0  1  0.00210449  0.00069910  0.00086912  1
  Cs  Cs1  1  -0.00163997  -0.00127435  0.33182518  1
  Cs  Cs2  1  0.00008130  0.00014039  0.66674933  1
  Cs  Cs3  1  0.00063995  0.33295034  0.00125910  1
  Cs  Cs4  1  0.00181509  0.33595129  0.33055700  1
  Cs  Cs5  1  0.00074129  0.33095401  0.66706673  1
  Cs  Cs6  1  -0.00245234  0.66697515  0.00074784  1
  Cs  Cs7  1  0.00213516  0.66643593  0.33192444  1
  Cs  Cs8  1  -0.00200072  0.67151710  0.66733067  1
  Cs  Cs9  1  0.33146424  -0.00161931  0.00055407  1
  Cs  Cs10  1  0.34007889  0.00033861  0.33775196  1
  Cs  Cs11  1  0.33242322  -0.00506222  0.66050639  1
  Cs  Cs12  1  0.33247101  0.33314625  -0.00342320  1
  Cs  Cs13  1  0.33147278  0.33500022  0.33725873  1
  Cs  Cs14  1  0.33395596  0.33242959  0.66948270  1
  Cs  Cs15  1  0.33539123  0.66687446  0.00021429  1
  Cs  Cs16  1  0.33139872  0.66486238  0.33396036  1
  Cs  Cs17  1  0.33183610  0.67136454  0.66614245  1
  Cs  Cs18  1  0.66315747  -0.00024935  0.00377967  1
  Cs  Cs19  1  0.66339733  0.00071663  0.33088730  1
  Cs  Cs20  1  0.66837855  -0.00104719  0.66588720  1
  Cs  Cs21  1  0.66787498  0.33363564  0.00047941  1
  Cs  Cs22  1  0.66676669  0.33145044  0.33208829  1
  Cs  Cs23  1  0.66606300  0.33510996  0.66734094  1
  Cs  Cs24  1  0.66645690  0.66647843  -0.00360778  1
  Cs  Cs25  1  0.66624617  0.66742870  0.33536544  1
  Cs  Cs26  1  0.66851318  0.66524484  0.66770443  1
  Sn  Sn27  1  0.83378522  0.83329816  0.16716872  1
  Sn  Sn28  1  0.83336900  0.83333826  0.49895119  1
  Sn  Sn29  1  0.50053111  0.49972091  0.50032175  1
  Sn  Sn30  1  0.83348550  0.16704026  0.50026242  1
  Sn  Sn31  1  0.50010131  0.49957384  0.16649079  1
  Sn  Sn32  1  0.83309307  0.49970068  0.49999583  1
  Sn  Sn33  1  0.49912290  0.49922291  0.83324097  1
  Sn  Sn34  1  0.83318424  0.16676581  0.83310553  1
  Sn  Sn35  1  0.16694268  0.16600216  0.16651133  1
  Sn  Sn36  1  0.16631685  0.83431144  0.16664163  1
  Sn  Sn37  1  0.16693394  0.49969665  0.83318332  1
  Sn  Sn38  1  0.16708120  0.16712836  0.83378833  1
  Sn  Sn39  1  0.49971570  0.16685669  0.83324456  1
  Pb  Pb40  1  0.83130851  0.50221523  0.16896492  1
  Pb  Pb41  1  0.16657843  0.49996283  0.50308970  1
  Pb  Pb42  1  0.83328657  0.83635041  0.83366757  1
  Pb  Pb43  1  0.50266396  0.83073975  0.50006083  1
  Pb  Pb44  1  0.49983782  0.83119115  0.16670587  1
  Pb  Pb45  1  0.50238812  0.16882720  0.50237164  1
  Pb  Pb46  1  0.16661914  0.83361639  0.83543751  1
  Pb  Pb47  1  0.16462902  0.16670958  0.50021130  1
  Pb  Pb48  1  0.49991391  0.83337326  0.83320883  1
  Pb  Pb49  1  0.49709942  0.16892729  0.16458135  1
  Pb  Pb50  1  0.83346584  0.49796351  0.83154957  1
  Pb  Pb51  1  0.83490099  0.16505023  0.16667792  1
  Pb  Pb52  1  0.16848978  0.49994319  0.16438324  1
  Pb  Pb53  1  0.16432399  0.83339166  0.49701694  1
  I  I54  1  0.16151461  0.00047510  0.15929517  1
  I  I55  1  0.16464059  0.00009377  0.50528022  1
  I  I56  1  0.16622130  0.00366628  0.83576592  1
  I  I57  1  0.16737492  0.33083639  0.16358142  1
  I  I58  1  0.16261342  0.33341738  0.49455675  1
  I  I59  1  0.16712964  0.33221557  0.83861324  1
  I  I60  1  0.16356675  0.66898485  0.16588803  1
  I  I61  1  0.16468148  0.66650972  0.50036638  1
  I  I62  1  0.17227087  0.66374775  0.83371023  1
  I  I63  1  0.50156285  0.00028201  0.16451587  1
  I  I64  1  0.50093810  0.00026018  0.50151449  1
  I  I65  1  0.50014012  0.00375902  0.83439258  1
  I  I66  1  0.49972632  0.33688939  0.16853445  1
  I  I67  1  0.50629717  0.33703947  0.49835476  1
  I  I68  1  0.49915461  0.33402083  0.83292142  1
  I  I69  1  0.49865475  0.66298151  0.16379943  1
  I  I70  1  0.50545049  0.66228270  0.50310556  1
  I  I71  1  0.49574163  0.66258788  0.83343633  1
  I  I72  1  0.83460721  -0.00291063  0.17148007  1
  I  I73  1  0.83599720  0.00021682  0.50126504  1
  I  I74  1  0.83430082  0.00461150  0.82758307  1
  I  I75  1  0.83433377  0.33332169  0.16784840  1
  I  I76  1  0.82933008  0.33332377  0.50590953  1
  I  I77  1  0.83360527  0.32982657  0.82837615  1
  I  I78  1  0.83970397  0.67018303  0.17123930  1
  I  I79  1  0.82890160  0.66647959  0.49583099  1
  I  I80  1  0.83327757  0.66656151  0.83219193  1
  I  I81  1  0.16389541  0.16696586  -0.00133226  1
  I  I82  1  0.16379480  0.16308463  0.33038780  1
  I  I83  1  0.16749717  0.17216914  0.67027808  1
  I  I84  1  0.17194416  0.49806939  -0.00349677  1
  I  I85  1  0.16808843  0.49975250  0.33322178  1
  I  I86  1  0.17132453  0.49257716  0.67093338  1
  I  I87  1  0.15923933  0.83441494  0.00327410  1
  I  I88  1  0.16469583  0.83795509  0.32903026  1
  I  I89  1  0.16573935  0.83312857  0.66661499  1
  I  I90  1  0.50579289  0.17289755  -0.00372295  1
  I  I91  1  0.50017395  0.16850047  0.33338431  1
  I  I92  1  0.49561349  0.17298639  0.67067039  1
  I  I93  1  0.49500569  0.49714092  -0.00130152  1
  I  I94  1  0.50524029  0.50214402  0.33394343  1
  I  I95  1  0.50131477  0.49551871  0.66730956  1
  I  I96  1  0.50401770  0.82973431  0.00015290  1
  I  I97  1  0.49814061  0.83142333  0.33333610  1
  I  I98  1  0.50176821  0.83138407  0.66653318  1
  I  I99  1  0.83227128  0.16565266  -0.00285712  1
  I  I100  1  0.83532654  0.16834061  0.33609327  1
  I  I101  1  0.83510069  0.16539737  0.66686451  1
  I  I102  1  0.83200382  0.50057773  -0.00009740  1
  I  I103  1  0.82845278  0.49485637  0.33727896  1
  I  I104  1  0.82829483  0.50432481  0.66339472  1
  I  I105  1  0.83726000  0.83439964  0.00294116  1
  I  I106  1  0.83777245  0.83434501  0.33400821  1
  I  I107  1  0.83161441  0.83115402  0.66362648  1
  I  I108  1  0.00281864  0.16641702  0.16083512  1
  I  I109  1  -0.00396910  0.16893609  0.50599321  1
  I  I110  1  0.00045667  0.17042767  0.83287489  1
  I  I111  1  0.00010001  0.49912552  0.16660102  1
  I  I112  1  -0.00329598  0.50024650  0.50145701  1
  I  I113  1  0.00239009  0.49536200  0.83254865  1
  I  I114  1  -0.00014270  0.83627659  0.17050269  1
  I  I115  1  -0.00420003  0.83009560  0.49967174  1
  I  I116  1  -0.00016187  0.83173371  0.83125960  1
  I  I117  1  0.32919062  0.16064859  0.16086957  1
  I  I118  1  0.33357186  0.16867551  0.50016456  1
  I  I119  1  0.33300554  0.17331213  0.83971366  1
  I  I120  1  0.33644906  0.50181722  0.17096194  1
  I  I121  1  0.33646169  0.49916729  0.49813366  1
  I  I122  1  0.33431168  0.49196607  0.83218723  1
  I  I123  1  0.33032827  0.83587568  0.16317831  1
  I  I124  1  0.33343587  0.83192573  0.49945664  1
  I  I125  1  0.33317029  0.83601044  0.83597643  1
  I  I126  1  0.66649287  0.16547415  0.16537863  1
  I  I127  1  0.67066286  0.16464932  0.50470428  1
  I  I128  1  0.66660111  0.17091872  0.82812431  1
  I  I129  1  0.66334523  0.50116105  0.16079154  1
  I  I130  1  0.66675414  0.50059027  0.50256611  1
  I  I131  1  0.66371513  0.49616886  0.83448682  1
  I  I132  1  0.66956032  0.83233470  0.17121628  1
  I  I133  1  0.67098696  0.83621796  0.49325315  1
  I  I134  1  0.66690133  0.83253733  0.83573097  1
