# generated using pymatgen
data_VFe(PbO3)2
_symmetry_space_group_name_H-M   'P 1'
_cell_length_a   15.21360000
_cell_length_b   15.21360000
_cell_length_c   18.03880000
_cell_angle_alpha   90.00000000
_cell_angle_beta   90.00000000
_cell_angle_gamma   90.00000000
_symmetry_Int_Tables_number   1
_chemical_formula_structural   VFe(PbO3)2
_chemical_formula_sum   'V32 Fe32 Pb64 O192'
_cell_volume   4175.14564993
_cell_formula_units_Z   32
loop_
 _symmetry_equiv_pos_site_id
 _symmetry_equiv_pos_as_xyz
  1  'x, y, z'
loop_
 _atom_site_type_symbol
 _atom_site_label
 _atom_site_symmetry_multiplicity
 _atom_site_fract_x
 _atom_site_fract_y
 _atom_site_fract_z
 _atom_site_occupancy
  V  FeV  1  0.62500000  0.12500000  0.13575000  1.0
  V  FeV  1  0.12500000  0.62500000  0.13575000  1.0
  V  FeV  1  0.62500000  0.87500000  0.63575000  1.0
  V  FeV  1  0.37500000  0.62500000  0.38575000  1.0
  V  FeV  1  0.62500000  0.12500000  0.63575000  1.0
  V  FeV  1  0.37500000  0.37500000  0.63575000  1.0
  V  FeV  1  0.87500000  0.37500000  0.88575000  1.0
  V  FeV  1  0.62500000  0.62500000  0.88575000  1.0
  V  FeV  1  0.37500000  0.37500000  0.13575000  1.0
  V  FeV  1  0.87500000  0.12500000  0.13575000  1.0
  V  FeV  1  0.87500000  0.12500000  0.38575000  1.0
  V  FeV  1  0.37500000  0.12500000  0.13575000  1.0
  V  FeV  1  0.62500000  0.62500000  0.63575000  1.0
  V  FeV  1  0.37500000  0.87500000  0.38575000  1.0
  V  FeV  1  0.62500000  0.12500000  0.88575000  1.0
  V  FeV  1  0.62500000  0.62500000  0.13575000  1.0
  V  FeV  1  0.12500000  0.87500000  0.13575000  1.0
  V  FeV  1  0.37500000  0.12500000  0.88575000  1.0
  V  FeV  1  0.87500000  0.62500000  0.63575000  1.0
  V  FeV  1  0.12500000  0.37500000  0.38575000  1.0
  V  FeV  1  0.12500000  0.37500000  0.13575000  1.0
  V  FeV  1  0.37500000  0.37500000  0.38575000  1.0
  V  FeV  1  0.37500000  0.37500000  0.88575000  1.0
  V  FeV  1  0.37500000  0.62500000  0.63575000  1.0
  V  FeV  1  0.37500000  0.62500000  0.88575000  1.0
  V  FeV  1  0.37500000  0.62500000  0.13575000  1.0
  V  FeV  1  0.12500000  0.62500000  0.38575000  1.0
  V  FeV  1  0.12500000  0.12500000  0.13575000  1.0
  V  FeV  1  0.62500000  0.87500000  0.13575000  1.0
  V  FeV  1  0.62500000  0.37500000  0.63575000  1.0
  V  FeV  1  0.87500000  0.12500000  0.88575000  1.0
  V  FeV  1  0.12500000  0.12500000  0.88575000  1.0
  Fe  FeV  1  0.12500000  0.12500000  0.38575000  1.0
  Fe  FeV  1  0.87500000  0.87500000  0.88575000  1.0
  Fe  FeV  1  0.87500000  0.87500000  0.13575000  1.0
  Fe  FeV  1  0.37500000  0.12500000  0.63575000  1.0
  Fe  FeV  1  0.62500000  0.37500000  0.13575000  1.0
  Fe  FeV  1  0.87500000  0.37500000  0.13575000  1.0
  Fe  FeV  1  0.87500000  0.62500000  0.88575000  1.0
  Fe  FeV  1  0.37500000  0.87500000  0.63575000  1.0
  Fe  FeV  1  0.12500000  0.37500000  0.88575000  1.0
  Fe  FeV  1  0.62500000  0.37500000  0.38575000  1.0
  Fe  FeV  1  0.12500000  0.87500000  0.63575000  1.0
  Fe  FeV  1  0.62500000  0.37500000  0.88575000  1.0
  Fe  FeV  1  0.87500000  0.87500000  0.63575000  1.0
  Fe  FeV  1  0.37500000  0.87500000  0.88575000  1.0
  Fe  FeV  1  0.12500000  0.87500000  0.88575000  1.0
  Fe  FeV  1  0.62500000  0.62500000  0.38575000  1.0
  Fe  FeV  1  0.87500000  0.62500000  0.38575000  1.0
  Fe  FeV  1  0.87500000  0.37500000  0.38575000  1.0
  Fe  FeV  1  0.62500000  0.87500000  0.88575000  1.0
  Fe  FeV  1  0.62500000  0.12500000  0.38575000  1.0
  Fe  FeV  1  0.37500000  0.87500000  0.13575000  1.0
  Fe  FeV  1  0.12500000  0.62500000  0.63575000  1.0
  Fe  FeV  1  0.12500000  0.12500000  0.63575000  1.0
  Fe  FeV  1  0.87500000  0.12500000  0.63575000  1.0
  Fe  FeV  1  0.62500000  0.87500000  0.38575000  1.0
  Fe  FeV  1  0.12500000  0.87500000  0.38575000  1.0
  Fe  FeV  1  0.87500000  0.37500000  0.63575000  1.0
  Fe  FeV  1  0.12500000  0.62500000  0.88575000  1.0
  Fe  FeV  1  0.87500000  0.62500000  0.13575000  1.0
  Fe  FeV  1  0.37500000  0.12500000  0.38575000  1.0
  Fe  FeV  1  0.12500000  0.37500000  0.63575000  1.0
  Fe  FeV  1  0.87500000  0.87500000  0.38575000  1.0
  Pb  Pb128  1  0.00000000  0.00000000  0.00000000  1.0
  Pb  Pb129  1  0.00000000  0.00000000  0.25000000  1.0
  Pb  Pb130  1  0.00000000  0.00000000  0.50000000  1.0
  Pb  Pb131  1  0.00000000  0.00000000  0.75000000  1.0
  Pb  Pb132  1  0.00000000  0.25000000  0.00000000  1.0
  Pb  Pb133  1  0.00000000  0.25000000  0.25000000  1.0
  Pb  Pb134  1  0.00000000  0.25000000  0.50000000  1.0
  Pb  Pb135  1  0.00000000  0.25000000  0.75000000  1.0
  Pb  Pb136  1  0.00000000  0.50000000  0.00000000  1.0
  Pb  Pb137  1  0.00000000  0.50000000  0.25000000  1.0
  Pb  Pb138  1  0.00000000  0.50000000  0.50000000  1.0
  Pb  Pb139  1  0.00000000  0.50000000  0.75000000  1.0
  Pb  Pb140  1  0.00000000  0.75000000  0.00000000  1.0
  Pb  Pb141  1  0.00000000  0.75000000  0.25000000  1.0
  Pb  Pb142  1  0.00000000  0.75000000  0.50000000  1.0
  Pb  Pb143  1  0.00000000  0.75000000  0.75000000  1.0
  Pb  Pb144  1  0.25000000  0.00000000  0.00000000  1.0
  Pb  Pb145  1  0.25000000  0.00000000  0.25000000  1.0
  Pb  Pb146  1  0.25000000  0.00000000  0.50000000  1.0
  Pb  Pb147  1  0.25000000  0.00000000  0.75000000  1.0
  Pb  Pb148  1  0.25000000  0.25000000  0.00000000  1.0
  Pb  Pb149  1  0.25000000  0.25000000  0.25000000  1.0
  Pb  Pb150  1  0.25000000  0.25000000  0.50000000  1.0
  Pb  Pb151  1  0.25000000  0.25000000  0.75000000  1.0
  Pb  Pb152  1  0.25000000  0.50000000  0.00000000  1.0
  Pb  Pb153  1  0.25000000  0.50000000  0.25000000  1.0
  Pb  Pb154  1  0.25000000  0.50000000  0.50000000  1.0
  Pb  Pb155  1  0.25000000  0.50000000  0.75000000  1.0
  Pb  Pb156  1  0.25000000  0.75000000  0.00000000  1.0
  Pb  Pb157  1  0.25000000  0.75000000  0.25000000  1.0
  Pb  Pb158  1  0.25000000  0.75000000  0.50000000  1.0
  Pb  Pb159  1  0.25000000  0.75000000  0.75000000  1.0
  Pb  Pb160  1  0.50000000  0.00000000  0.00000000  1.0
  Pb  Pb161  1  0.50000000  0.00000000  0.25000000  1.0
  Pb  Pb162  1  0.50000000  0.00000000  0.50000000  1.0
  Pb  Pb163  1  0.50000000  0.00000000  0.75000000  1.0
  Pb  Pb164  1  0.50000000  0.25000000  0.00000000  1.0
  Pb  Pb165  1  0.50000000  0.25000000  0.25000000  1.0
  Pb  Pb166  1  0.50000000  0.25000000  0.50000000  1.0
  Pb  Pb167  1  0.50000000  0.25000000  0.75000000  1.0
  Pb  Pb168  1  0.50000000  0.50000000  0.00000000  1.0
  Pb  Pb169  1  0.50000000  0.50000000  0.25000000  1.0
  Pb  Pb170  1  0.50000000  0.50000000  0.50000000  1.0
  Pb  Pb171  1  0.50000000  0.50000000  0.75000000  1.0
  Pb  Pb172  1  0.50000000  0.75000000  0.00000000  1.0
  Pb  Pb173  1  0.50000000  0.75000000  0.25000000  1.0
  Pb  Pb174  1  0.50000000  0.75000000  0.50000000  1.0
  Pb  Pb175  1  0.50000000  0.75000000  0.75000000  1.0
  Pb  Pb176  1  0.75000000  0.00000000  0.00000000  1.0
  Pb  Pb177  1  0.75000000  0.00000000  0.25000000  1.0
  Pb  Pb178  1  0.75000000  0.00000000  0.50000000  1.0
  Pb  Pb179  1  0.75000000  0.00000000  0.75000000  1.0
  Pb  Pb180  1  0.75000000  0.25000000  0.00000000  1.0
  Pb  Pb181  1  0.75000000  0.25000000  0.25000000  1.0
  Pb  Pb182  1  0.75000000  0.25000000  0.50000000  1.0
  Pb  Pb183  1  0.75000000  0.25000000  0.75000000  1.0
  Pb  Pb184  1  0.75000000  0.50000000  0.00000000  1.0
  Pb  Pb185  1  0.75000000  0.50000000  0.25000000  1.0
  Pb  Pb186  1  0.75000000  0.50000000  0.50000000  1.0
  Pb  Pb187  1  0.75000000  0.50000000  0.75000000  1.0
  Pb  Pb188  1  0.75000000  0.75000000  0.00000000  1.0
  Pb  Pb189  1  0.75000000  0.75000000  0.25000000  1.0
  Pb  Pb190  1  0.75000000  0.75000000  0.50000000  1.0
  Pb  Pb191  1  0.75000000  0.75000000  0.75000000  1.0
  O  O1  1  0.12500000  0.00000000  0.16250000  1.0
  O  O1  1  0.12500000  0.00000000  0.41250000  1.0
  O  O1  1  0.12500000  0.00000000  0.66250000  1.0
  O  O1  1  0.12500000  0.00000000  0.91250000  1.0
  O  O1  1  0.12500000  0.25000000  0.16250000  1.0
  O  O1  1  0.12500000  0.25000000  0.41250000  1.0
  O  O1  1  0.12500000  0.25000000  0.66250000  1.0
  O  O1  1  0.12500000  0.25000000  0.91250000  1.0
  O  O1  1  0.12500000  0.50000000  0.16250000  1.0
  O  O1  1  0.12500000  0.50000000  0.41250000  1.0
  O  O1  1  0.12500000  0.50000000  0.66250000  1.0
  O  O1  1  0.12500000  0.50000000  0.91250000  1.0
  O  O1  1  0.12500000  0.75000000  0.16250000  1.0
  O  O1  1  0.12500000  0.75000000  0.41250000  1.0
  O  O1  1  0.12500000  0.75000000  0.66250000  1.0
  O  O1  1  0.12500000  0.75000000  0.91250000  1.0
  O  O1  1  0.37500000  0.00000000  0.16250000  1.0
  O  O1  1  0.37500000  0.00000000  0.41250000  1.0
  O  O1  1  0.37500000  0.00000000  0.66250000  1.0
  O  O1  1  0.37500000  0.00000000  0.91250000  1.0
  O  O1  1  0.37500000  0.25000000  0.16250000  1.0
  O  O1  1  0.37500000  0.25000000  0.41250000  1.0
  O  O1  1  0.37500000  0.25000000  0.66250000  1.0
  O  O1  1  0.37500000  0.25000000  0.91250000  1.0
  O  O1  1  0.37500000  0.50000000  0.16250000  1.0
  O  O1  1  0.37500000  0.50000000  0.41250000  1.0
  O  O1  1  0.37500000  0.50000000  0.66250000  1.0
  O  O1  1  0.37500000  0.50000000  0.91250000  1.0
  O  O1  1  0.37500000  0.75000000  0.16250000  1.0
  O  O1  1  0.37500000  0.75000000  0.41250000  1.0
  O  O1  1  0.37500000  0.75000000  0.66250000  1.0
  O  O1  1  0.37500000  0.75000000  0.91250000  1.0
  O  O1  1  0.62500000  0.00000000  0.16250000  1.0
  O  O1  1  0.62500000  0.00000000  0.41250000  1.0
  O  O1  1  0.62500000  0.00000000  0.66250000  1.0
  O  O1  1  0.62500000  0.00000000  0.91250000  1.0
  O  O1  1  0.62500000  0.25000000  0.16250000  1.0
  O  O1  1  0.62500000  0.25000000  0.41250000  1.0
  O  O1  1  0.62500000  0.25000000  0.66250000  1.0
  O  O1  1  0.62500000  0.25000000  0.91250000  1.0
  O  O1  1  0.62500000  0.50000000  0.16250000  1.0
  O  O1  1  0.62500000  0.50000000  0.41250000  1.0
  O  O1  1  0.62500000  0.50000000  0.66250000  1.0
  O  O1  1  0.62500000  0.50000000  0.91250000  1.0
  O  O1  1  0.62500000  0.75000000  0.16250000  1.0
  O  O1  1  0.62500000  0.75000000  0.41250000  1.0
  O  O1  1  0.62500000  0.75000000  0.66250000  1.0
  O  O1  1  0.62500000  0.75000000  0.91250000  1.0
  O  O1  1  0.87500000  0.00000000  0.16250000  1.0
  O  O1  1  0.87500000  0.00000000  0.41250000  1.0
  O  O1  1  0.87500000  0.00000000  0.66250000  1.0
  O  O1  1  0.87500000  0.00000000  0.91250000  1.0
  O  O1  1  0.87500000  0.25000000  0.16250000  1.0
  O  O1  1  0.87500000  0.25000000  0.41250000  1.0
  O  O1  1  0.87500000  0.25000000  0.66250000  1.0
  O  O1  1  0.87500000  0.25000000  0.91250000  1.0
  O  O1  1  0.87500000  0.50000000  0.16250000  1.0
  O  O1  1  0.87500000  0.50000000  0.41250000  1.0
  O  O1  1  0.87500000  0.50000000  0.66250000  1.0
  O  O1  1  0.87500000  0.50000000  0.91250000  1.0
  O  O1  1  0.87500000  0.75000000  0.16250000  1.0
  O  O1  1  0.87500000  0.75000000  0.41250000  1.0
  O  O1  1  0.87500000  0.75000000  0.66250000  1.0
  O  O1  1  0.87500000  0.75000000  0.91250000  1.0
  O  O1  1  0.00000000  0.12500000  0.16250000  1.0
  O  O1  1  0.00000000  0.12500000  0.41250000  1.0
  O  O1  1  0.00000000  0.12500000  0.66250000  1.0
  O  O1  1  0.00000000  0.12500000  0.91250000  1.0
  O  O1  1  0.00000000  0.37500000  0.16250000  1.0
  O  O1  1  0.00000000  0.37500000  0.41250000  1.0
  O  O1  1  0.00000000  0.37500000  0.66250000  1.0
  O  O1  1  0.00000000  0.37500000  0.91250000  1.0
  O  O1  1  0.00000000  0.62500000  0.16250000  1.0
  O  O1  1  0.00000000  0.62500000  0.41250000  1.0
  O  O1  1  0.00000000  0.62500000  0.66250000  1.0
  O  O1  1  0.00000000  0.62500000  0.91250000  1.0
  O  O1  1  0.00000000  0.87500000  0.16250000  1.0
  O  O1  1  0.00000000  0.87500000  0.41250000  1.0
  O  O1  1  0.00000000  0.87500000  0.66250000  1.0
  O  O1  1  0.00000000  0.87500000  0.91250000  1.0
  O  O1  1  0.25000000  0.12500000  0.16250000  1.0
  O  O1  1  0.25000000  0.12500000  0.41250000  1.0
  O  O1  1  0.25000000  0.12500000  0.66250000  1.0
  O  O1  1  0.25000000  0.12500000  0.91250000  1.0
  O  O1  1  0.25000000  0.37500000  0.16250000  1.0
  O  O1  1  0.25000000  0.37500000  0.41250000  1.0
  O  O1  1  0.25000000  0.37500000  0.66250000  1.0
  O  O1  1  0.25000000  0.37500000  0.91250000  1.0
  O  O1  1  0.25000000  0.62500000  0.16250000  1.0
  O  O1  1  0.25000000  0.62500000  0.41250000  1.0
  O  O1  1  0.25000000  0.62500000  0.66250000  1.0
  O  O1  1  0.25000000  0.62500000  0.91250000  1.0
  O  O1  1  0.25000000  0.87500000  0.16250000  1.0
  O  O1  1  0.25000000  0.87500000  0.41250000  1.0
  O  O1  1  0.25000000  0.87500000  0.66250000  1.0
  O  O1  1  0.25000000  0.87500000  0.91250000  1.0
  O  O1  1  0.50000000  0.12500000  0.16250000  1.0
  O  O1  1  0.50000000  0.12500000  0.41250000  1.0
  O  O1  1  0.50000000  0.12500000  0.66250000  1.0
  O  O1  1  0.50000000  0.12500000  0.91250000  1.0
  O  O1  1  0.50000000  0.37500000  0.16250000  1.0
  O  O1  1  0.50000000  0.37500000  0.41250000  1.0
  O  O1  1  0.50000000  0.37500000  0.66250000  1.0
  O  O1  1  0.50000000  0.37500000  0.91250000  1.0
  O  O1  1  0.50000000  0.62500000  0.16250000  1.0
  O  O1  1  0.50000000  0.62500000  0.41250000  1.0
  O  O1  1  0.50000000  0.62500000  0.66250000  1.0
  O  O1  1  0.50000000  0.62500000  0.91250000  1.0
  O  O1  1  0.50000000  0.87500000  0.16250000  1.0
  O  O1  1  0.50000000  0.87500000  0.41250000  1.0
  O  O1  1  0.50000000  0.87500000  0.66250000  1.0
  O  O1  1  0.50000000  0.87500000  0.91250000  1.0
  O  O1  1  0.75000000  0.12500000  0.16250000  1.0
  O  O1  1  0.75000000  0.12500000  0.41250000  1.0
  O  O1  1  0.75000000  0.12500000  0.66250000  1.0
  O  O1  1  0.75000000  0.12500000  0.91250000  1.0
  O  O1  1  0.75000000  0.37500000  0.16250000  1.0
  O  O1  1  0.75000000  0.37500000  0.41250000  1.0
  O  O1  1  0.75000000  0.37500000  0.66250000  1.0
  O  O1  1  0.75000000  0.37500000  0.91250000  1.0
  O  O1  1  0.75000000  0.62500000  0.16250000  1.0
  O  O1  1  0.75000000  0.62500000  0.41250000  1.0
  O  O1  1  0.75000000  0.62500000  0.66250000  1.0
  O  O1  1  0.75000000  0.62500000  0.91250000  1.0
  O  O1  1  0.75000000  0.87500000  0.16250000  1.0
  O  O1  1  0.75000000  0.87500000  0.41250000  1.0
  O  O1  1  0.75000000  0.87500000  0.66250000  1.0
  O  O1  1  0.75000000  0.87500000  0.91250000  1.0
  O  O2  1  0.12500000  0.12500000  0.04550000  1.0
  O  O2  1  0.12500000  0.12500000  0.29550000  1.0
  O  O2  1  0.12500000  0.12500000  0.54550000  1.0
  O  O2  1  0.12500000  0.12500000  0.79550000  1.0
  O  O2  1  0.12500000  0.37500000  0.04550000  1.0
  O  O2  1  0.12500000  0.37500000  0.29550000  1.0
  O  O2  1  0.12500000  0.37500000  0.54550000  1.0
  O  O2  1  0.12500000  0.37500000  0.79550000  1.0
  O  O2  1  0.12500000  0.62500000  0.04550000  1.0
  O  O2  1  0.12500000  0.62500000  0.29550000  1.0
  O  O2  1  0.12500000  0.62500000  0.54550000  1.0
  O  O2  1  0.12500000  0.62500000  0.79550000  1.0
  O  O2  1  0.12500000  0.87500000  0.04550000  1.0
  O  O2  1  0.12500000  0.87500000  0.29550000  1.0
  O  O2  1  0.12500000  0.87500000  0.54550000  1.0
  O  O2  1  0.12500000  0.87500000  0.79550000  1.0
  O  O2  1  0.37500000  0.12500000  0.04550000  1.0
  O  O2  1  0.37500000  0.12500000  0.29550000  1.0
  O  O2  1  0.37500000  0.12500000  0.54550000  1.0
  O  O2  1  0.37500000  0.12500000  0.79550000  1.0
  O  O2  1  0.37500000  0.37500000  0.04550000  1.0
  O  O2  1  0.37500000  0.37500000  0.29550000  1.0
  O  O2  1  0.37500000  0.37500000  0.54550000  1.0
  O  O2  1  0.37500000  0.37500000  0.79550000  1.0
  O  O2  1  0.37500000  0.62500000  0.04550000  1.0
  O  O2  1  0.37500000  0.62500000  0.29550000  1.0
  O  O2  1  0.37500000  0.62500000  0.54550000  1.0
  O  O2  1  0.37500000  0.62500000  0.79550000  1.0
  O  O2  1  0.37500000  0.87500000  0.04550000  1.0
  O  O2  1  0.37500000  0.87500000  0.29550000  1.0
  O  O2  1  0.37500000  0.87500000  0.54550000  1.0
  O  O2  1  0.37500000  0.87500000  0.79550000  1.0
  O  O2  1  0.62500000  0.12500000  0.04550000  1.0
  O  O2  1  0.62500000  0.12500000  0.29550000  1.0
  O  O2  1  0.62500000  0.12500000  0.54550000  1.0
  O  O2  1  0.62500000  0.12500000  0.79550000  1.0
  O  O2  1  0.62500000  0.37500000  0.04550000  1.0
  O  O2  1  0.62500000  0.37500000  0.29550000  1.0
  O  O2  1  0.62500000  0.37500000  0.54550000  1.0
  O  O2  1  0.62500000  0.37500000  0.79550000  1.0
  O  O2  1  0.62500000  0.62500000  0.04550000  1.0
  O  O2  1  0.62500000  0.62500000  0.29550000  1.0
  O  O2  1  0.62500000  0.62500000  0.54550000  1.0
  O  O2  1  0.62500000  0.62500000  0.79550000  1.0
  O  O2  1  0.62500000  0.87500000  0.04550000  1.0
  O  O2  1  0.62500000  0.87500000  0.29550000  1.0
  O  O2  1  0.62500000  0.87500000  0.54550000  1.0
  O  O2  1  0.62500000  0.87500000  0.79550000  1.0
  O  O2  1  0.87500000  0.12500000  0.04550000  1.0
  O  O2  1  0.87500000  0.12500000  0.29550000  1.0
  O  O2  1  0.87500000  0.12500000  0.54550000  1.0
  O  O2  1  0.87500000  0.12500000  0.79550000  1.0
  O  O2  1  0.87500000  0.37500000  0.04550000  1.0
  O  O2  1  0.87500000  0.37500000  0.29550000  1.0
  O  O2  1  0.87500000  0.37500000  0.54550000  1.0
  O  O2  1  0.87500000  0.37500000  0.79550000  1.0
  O  O2  1  0.87500000  0.62500000  0.04550000  1.0
  O  O2  1  0.87500000  0.62500000  0.29550000  1.0
  O  O2  1  0.87500000  0.62500000  0.54550000  1.0
  O  O2  1  0.87500000  0.62500000  0.79550000  1.0
  O  O2  1  0.87500000  0.87500000  0.04550000  1.0
  O  O2  1  0.87500000  0.87500000  0.29550000  1.0
  O  O2  1  0.87500000  0.87500000  0.54550000  1.0
  O  O2  1  0.87500000  0.87500000  0.79550000  1.0
