# generated using pymatgen
data_La7(Ru4O13)2
_symmetry_space_group_name_H-M   'P 1'
_cell_length_a   23.98800000
_cell_length_b   16.82700000
_cell_length_c   15.42400000
_cell_angle_alpha   90.00000000
_cell_angle_beta   90.00000000
_cell_angle_gamma   90.00000000
_symmetry_Int_Tables_number   1
_chemical_formula_structural   La7(Ru4O13)2
_chemical_formula_sum   'La84 Ru96 O312'
_cell_volume   6225.83707622
_cell_formula_units_Z   12
loop_
 _symmetry_equiv_pos_site_id
 _symmetry_equiv_pos_as_xyz
  1  'x, y, z'
loop_
 _atom_type_symbol
 _atom_type_oxidation_number
  La3+  3.0
  Ru4+  4.0
  O2-  -2.0
loop_
 _atom_site_type_symbol
 _atom_site_label
 _atom_site_symmetry_multiplicity
 _atom_site_fract_x
 _atom_site_fract_y
 _atom_site_fract_z
 _atom_site_occupancy
  La3+  La2  1  0.13851000  0.00000000  0.12500000  1.0
  La3+  La2  1  0.13851000  0.00000000  0.37500000  1.0
  La3+  La2  1  0.13851000  0.00000000  0.62500000  1.0
  La3+  La2  1  0.13851000  0.00000000  0.87500000  1.0
  La3+  La2  1  0.13851000  0.33333333  0.12500000  1.0
  La3+  La2  1  0.13851000  0.33333333  0.37500000  1.0
  La3+  La2  1  0.13851000  0.33333333  0.62500000  1.0
  La3+  La2  1  0.13851000  0.33333333  0.87500000  1.0
  La3+  La2  1  0.13851000  0.66666667  0.12500000  1.0
  La3+  La2  1  0.13851000  0.66666667  0.37500000  1.0
  La3+  La2  1  0.13851000  0.66666667  0.62500000  1.0
  La3+  La2  1  0.13851000  0.66666667  0.87500000  1.0
  La3+  La2  1  0.63851000  0.00000000  0.12500000  1.0
  La3+  La2  1  0.63851000  0.00000000  0.37500000  1.0
  La3+  La2  1  0.63851000  0.00000000  0.62500000  1.0
  La3+  La2  1  0.63851000  0.00000000  0.87500000  1.0
  La3+  La2  1  0.63851000  0.33333333  0.12500000  1.0
  La3+  La2  1  0.63851000  0.33333333  0.37500000  1.0
  La3+  La2  1  0.63851000  0.33333333  0.62500000  1.0
  La3+  La2  1  0.63851000  0.33333333  0.87500000  1.0
  La3+  La2  1  0.63851000  0.66666667  0.12500000  1.0
  La3+  La2  1  0.63851000  0.66666667  0.37500000  1.0
  La3+  La2  1  0.63851000  0.66666667  0.62500000  1.0
  La3+  La2  1  0.63851000  0.66666667  0.87500000  1.0
  La3+  La2  1  0.36149000  0.00000000  0.12500000  1.0
  La3+  La2  1  0.36149000  0.00000000  0.37500000  1.0
  La3+  La2  1  0.36149000  0.00000000  0.62500000  1.0
  La3+  La2  1  0.36149000  0.00000000  0.87500000  1.0
  La3+  La2  1  0.36149000  0.33333333  0.12500000  1.0
  La3+  La2  1  0.36149000  0.33333333  0.37500000  1.0
  La3+  La2  1  0.36149000  0.33333333  0.62500000  1.0
  La3+  La2  1  0.36149000  0.33333333  0.87500000  1.0
  La3+  La2  1  0.36149000  0.66666667  0.12500000  1.0
  La3+  La2  1  0.36149000  0.66666667  0.37500000  1.0
  La3+  La2  1  0.36149000  0.66666667  0.62500000  1.0
  La3+  La2  1  0.36149000  0.66666667  0.87500000  1.0
  La3+  La2  1  0.86149000  0.00000000  0.12500000  1.0
  La3+  La2  1  0.86149000  0.00000000  0.37500000  1.0
  La3+  La2  1  0.86149000  0.00000000  0.62500000  1.0
  La3+  La2  1  0.86149000  0.00000000  0.87500000  1.0
  La3+  La2  1  0.86149000  0.33333333  0.12500000  1.0
  La3+  La2  1  0.86149000  0.33333333  0.37500000  1.0
  La3+  La2  1  0.86149000  0.33333333  0.62500000  1.0
  La3+  La2  1  0.86149000  0.33333333  0.87500000  1.0
  La3+  La2  1  0.86149000  0.66666667  0.12500000  1.0
  La3+  La2  1  0.86149000  0.66666667  0.37500000  1.0
  La3+  La2  1  0.86149000  0.66666667  0.62500000  1.0
  La3+  La2  1  0.86149000  0.66666667  0.87500000  1.0
  La3+  La1  1  0.00000000  0.50000000  0.36425000  1.0
  La3+  La1  1  0.00000000  0.83333333  0.36425000  1.0
  La3+  La1  1  0.00000000  0.16666667  0.36425000  1.0
  La3+  La1  1  0.50000000  0.16666667  0.88575000  1.0
  La3+  La1  1  0.50000000  0.83333333  0.63575000  1.0
  La3+  La1  1  0.50000000  0.50000000  0.11425000  1.0
  La3+  La1  1  0.50000000  0.83333333  0.13575000  1.0
  La3+  La1  1  0.50000000  0.16666667  0.61425000  1.0
  La3+  La1  1  0.50000000  0.83333333  0.86425000  1.0
  La3+  La1  1  0.00000000  0.83333333  0.88575000  1.0
  La3+  La1  1  0.00000000  0.50000000  0.11425000  1.0
  La3+  La1  1  0.00000000  0.16666667  0.13575000  1.0
  La3+  La1  1  0.00000000  0.50000000  0.13575000  1.0
  La3+  La1  1  0.50000000  0.83333333  0.38575000  1.0
  La3+  La1  1  0.00000000  0.16666667  0.86425000  1.0
  La3+  La1  1  0.50000000  0.50000000  0.38575000  1.0
  La3+  La1  1  0.00000000  0.16666667  0.11425000  1.0
  La3+  La1  1  0.50000000  0.50000000  0.36425000  1.0
  La3+  La1  1  0.00000000  0.83333333  0.61425000  1.0
  La3+  La1  1  0.50000000  0.83333333  0.61425000  1.0
  La3+  La1  1  0.00000000  0.83333333  0.86425000  1.0
  La3+  La1  1  0.50000000  0.16666667  0.11425000  1.0
  La3+  La1  1  0.00000000  0.83333333  0.63575000  1.0
  La3+  La1  1  0.00000000  0.83333333  0.13575000  1.0
  La3+  La3  1  0.75000000  0.83333333  0.75000000  1.0
  La3+  La3  1  0.25000000  0.50000000  0.75000000  1.0
  La3+  La3  1  0.25000000  0.50000000  0.00000000  1.0
  La3+  La3  1  0.25000000  0.83333333  0.00000000  1.0
  La3+  La3  1  0.75000000  0.50000000  0.00000000  1.0
  La3+  La3  1  0.25000000  0.16666667  0.75000000  1.0
  La3+  La3  1  0.75000000  0.16666667  0.25000000  1.0
  La3+  La3  1  0.25000000  0.50000000  0.25000000  1.0
  La3+  La3  1  0.75000000  0.50000000  0.50000000  1.0
  La3+  La3  1  0.75000000  0.50000000  0.25000000  1.0
  La3+  La3  1  0.75000000  0.50000000  0.75000000  1.0
  La3+  La3  1  0.25000000  0.16666667  0.50000000  1.0
  Ru4+  Ru1  1  0.00000000  0.00000000  0.00000000  1.0
  Ru4+  Ru1  1  0.00000000  0.00000000  0.25000000  1.0
  Ru4+  Ru1  1  0.00000000  0.00000000  0.50000000  1.0
  Ru4+  Ru1  1  0.00000000  0.00000000  0.75000000  1.0
  Ru4+  Ru1  1  0.00000000  0.33333333  0.00000000  1.0
  Ru4+  Ru1  1  0.00000000  0.33333333  0.25000000  1.0
  Ru4+  Ru1  1  0.00000000  0.33333333  0.50000000  1.0
  Ru4+  Ru1  1  0.00000000  0.33333333  0.75000000  1.0
  Ru4+  Ru1  1  0.00000000  0.66666667  0.00000000  1.0
  Ru4+  Ru1  1  0.00000000  0.66666667  0.25000000  1.0
  Ru4+  Ru1  1  0.00000000  0.66666667  0.50000000  1.0
  Ru4+  Ru1  1  0.00000000  0.66666667  0.75000000  1.0
  Ru4+  Ru1  1  0.50000000  0.00000000  0.00000000  1.0
  Ru4+  Ru1  1  0.50000000  0.00000000  0.25000000  1.0
  Ru4+  Ru1  1  0.50000000  0.00000000  0.50000000  1.0
  Ru4+  Ru1  1  0.50000000  0.00000000  0.75000000  1.0
  Ru4+  Ru1  1  0.50000000  0.33333333  0.00000000  1.0
  Ru4+  Ru1  1  0.50000000  0.33333333  0.25000000  1.0
  Ru4+  Ru1  1  0.50000000  0.33333333  0.50000000  1.0
  Ru4+  Ru1  1  0.50000000  0.33333333  0.75000000  1.0
  Ru4+  Ru1  1  0.50000000  0.66666667  0.00000000  1.0
  Ru4+  Ru1  1  0.50000000  0.66666667  0.25000000  1.0
  Ru4+  Ru1  1  0.50000000  0.66666667  0.50000000  1.0
  Ru4+  Ru1  1  0.50000000  0.66666667  0.75000000  1.0
  Ru4+  Ru2  1  0.11282500  0.16666667  0.00000000  1.0
  Ru4+  Ru2  1  0.11282500  0.16666667  0.25000000  1.0
  Ru4+  Ru2  1  0.11282500  0.16666667  0.50000000  1.0
  Ru4+  Ru2  1  0.11282500  0.16666667  0.75000000  1.0
  Ru4+  Ru2  1  0.11282500  0.50000000  0.00000000  1.0
  Ru4+  Ru2  1  0.11282500  0.50000000  0.25000000  1.0
  Ru4+  Ru2  1  0.11282500  0.50000000  0.50000000  1.0
  Ru4+  Ru2  1  0.11282500  0.50000000  0.75000000  1.0
  Ru4+  Ru2  1  0.11282500  0.83333333  0.00000000  1.0
  Ru4+  Ru2  1  0.11282500  0.83333333  0.25000000  1.0
  Ru4+  Ru2  1  0.11282500  0.83333333  0.50000000  1.0
  Ru4+  Ru2  1  0.11282500  0.83333333  0.75000000  1.0
  Ru4+  Ru2  1  0.61282500  0.16666667  0.00000000  1.0
  Ru4+  Ru2  1  0.61282500  0.16666667  0.25000000  1.0
  Ru4+  Ru2  1  0.61282500  0.16666667  0.50000000  1.0
  Ru4+  Ru2  1  0.61282500  0.16666667  0.75000000  1.0
  Ru4+  Ru2  1  0.61282500  0.50000000  0.00000000  1.0
  Ru4+  Ru2  1  0.61282500  0.50000000  0.25000000  1.0
  Ru4+  Ru2  1  0.61282500  0.50000000  0.50000000  1.0
  Ru4+  Ru2  1  0.61282500  0.50000000  0.75000000  1.0
  Ru4+  Ru2  1  0.61282500  0.83333333  0.00000000  1.0
  Ru4+  Ru2  1  0.61282500  0.83333333  0.25000000  1.0
  Ru4+  Ru2  1  0.61282500  0.83333333  0.50000000  1.0
  Ru4+  Ru2  1  0.61282500  0.83333333  0.75000000  1.0
  Ru4+  Ru2  1  0.38717500  0.16666667  0.00000000  1.0
  Ru4+  Ru2  1  0.38717500  0.16666667  0.25000000  1.0
  Ru4+  Ru2  1  0.38717500  0.16666667  0.50000000  1.0
  Ru4+  Ru2  1  0.38717500  0.16666667  0.75000000  1.0
  Ru4+  Ru2  1  0.38717500  0.50000000  0.00000000  1.0
  Ru4+  Ru2  1  0.38717500  0.50000000  0.25000000  1.0
  Ru4+  Ru2  1  0.38717500  0.50000000  0.50000000  1.0
  Ru4+  Ru2  1  0.38717500  0.50000000  0.75000000  1.0
  Ru4+  Ru2  1  0.38717500  0.83333333  0.00000000  1.0
  Ru4+  Ru2  1  0.38717500  0.83333333  0.25000000  1.0
  Ru4+  Ru2  1  0.38717500  0.83333333  0.50000000  1.0
  Ru4+  Ru2  1  0.38717500  0.83333333  0.75000000  1.0
  Ru4+  Ru2  1  0.88717500  0.16666667  0.00000000  1.0
  Ru4+  Ru2  1  0.88717500  0.16666667  0.25000000  1.0
  Ru4+  Ru2  1  0.88717500  0.16666667  0.50000000  1.0
  Ru4+  Ru2  1  0.88717500  0.16666667  0.75000000  1.0
  Ru4+  Ru2  1  0.88717500  0.50000000  0.00000000  1.0
  Ru4+  Ru2  1  0.88717500  0.50000000  0.25000000  1.0
  Ru4+  Ru2  1  0.88717500  0.50000000  0.50000000  1.0
  Ru4+  Ru2  1  0.88717500  0.50000000  0.75000000  1.0
  Ru4+  Ru2  1  0.88717500  0.83333333  0.00000000  1.0
  Ru4+  Ru2  1  0.88717500  0.83333333  0.25000000  1.0
  Ru4+  Ru2  1  0.88717500  0.83333333  0.50000000  1.0
  Ru4+  Ru2  1  0.88717500  0.83333333  0.75000000  1.0
  Ru4+  Ru3  1  0.25000000  0.91455667  0.50000000  1.0
  Ru4+  Ru3  1  0.25000000  0.58122333  0.75000000  1.0
  Ru4+  Ru3  1  0.75000000  0.08544333  0.50000000  1.0
  Ru4+  Ru3  1  0.75000000  0.24789000  0.00000000  1.0
  Ru4+  Ru3  1  0.75000000  0.75211000  0.75000000  1.0
  Ru4+  Ru3  1  0.75000000  0.24789000  0.25000000  1.0
  Ru4+  Ru3  1  0.25000000  0.75211000  0.75000000  1.0
  Ru4+  Ru3  1  0.75000000  0.41877667  0.75000000  1.0
  Ru4+  Ru3  1  0.25000000  0.41877667  0.50000000  1.0
  Ru4+  Ru3  1  0.75000000  0.58122333  0.00000000  1.0
  Ru4+  Ru3  1  0.25000000  0.75211000  0.00000000  1.0
  Ru4+  Ru3  1  0.25000000  0.58122333  0.50000000  1.0
  Ru4+  Ru3  1  0.75000000  0.91455667  0.25000000  1.0
  Ru4+  Ru3  1  0.25000000  0.91455667  0.25000000  1.0
  Ru4+  Ru3  1  0.75000000  0.24789000  0.75000000  1.0
  Ru4+  Ru3  1  0.75000000  0.91455667  0.50000000  1.0
  Ru4+  Ru3  1  0.75000000  0.58122333  0.75000000  1.0
  Ru4+  Ru3  1  0.75000000  0.41877667  0.00000000  1.0
  Ru4+  Ru3  1  0.75000000  0.41877667  0.25000000  1.0
  Ru4+  Ru3  1  0.75000000  0.08544333  0.75000000  1.0
  Ru4+  Ru3  1  0.25000000  0.24789000  0.25000000  1.0
  Ru4+  Ru3  1  0.75000000  0.75211000  0.50000000  1.0
  Ru4+  Ru3  1  0.25000000  0.75211000  0.50000000  1.0
  Ru4+  Ru3  1  0.25000000  0.08544333  0.50000000  1.0
  O2-  O1  1  0.16831000  0.08079667  0.00000000  1.0
  O2-  O1  1  0.16831000  0.08079667  0.25000000  1.0
  O2-  O1  1  0.16831000  0.08079667  0.50000000  1.0
  O2-  O1  1  0.16831000  0.08079667  0.75000000  1.0
  O2-  O1  1  0.16831000  0.41413000  0.00000000  1.0
  O2-  O1  1  0.16831000  0.41413000  0.25000000  1.0
  O2-  O1  1  0.16831000  0.41413000  0.50000000  1.0
  O2-  O1  1  0.16831000  0.41413000  0.75000000  1.0
  O2-  O1  1  0.16831000  0.74746333  0.00000000  1.0
  O2-  O1  1  0.16831000  0.74746333  0.25000000  1.0
  O2-  O1  1  0.16831000  0.74746333  0.50000000  1.0
  O2-  O1  1  0.16831000  0.74746333  0.75000000  1.0
  O2-  O1  1  0.66831000  0.08079667  0.00000000  1.0
  O2-  O1  1  0.66831000  0.08079667  0.25000000  1.0
  O2-  O1  1  0.66831000  0.08079667  0.50000000  1.0
  O2-  O1  1  0.66831000  0.08079667  0.75000000  1.0
  O2-  O1  1  0.66831000  0.41413000  0.00000000  1.0
  O2-  O1  1  0.66831000  0.41413000  0.25000000  1.0
  O2-  O1  1  0.66831000  0.41413000  0.50000000  1.0
  O2-  O1  1  0.66831000  0.41413000  0.75000000  1.0
  O2-  O1  1  0.66831000  0.74746333  0.00000000  1.0
  O2-  O1  1  0.66831000  0.74746333  0.25000000  1.0
  O2-  O1  1  0.66831000  0.74746333  0.50000000  1.0
  O2-  O1  1  0.66831000  0.74746333  0.75000000  1.0
  O2-  O1  1  0.33169000  0.25253667  0.00000000  1.0
  O2-  O1  1  0.33169000  0.25253667  0.25000000  1.0
  O2-  O1  1  0.33169000  0.25253667  0.50000000  1.0
  O2-  O1  1  0.33169000  0.25253667  0.75000000  1.0
  O2-  O1  1  0.33169000  0.58587000  0.00000000  1.0
  O2-  O1  1  0.33169000  0.58587000  0.25000000  1.0
  O2-  O1  1  0.33169000  0.58587000  0.50000000  1.0
  O2-  O1  1  0.33169000  0.58587000  0.75000000  1.0
  O2-  O1  1  0.33169000  0.91920333  0.00000000  1.0
  O2-  O1  1  0.33169000  0.91920333  0.25000000  1.0
  O2-  O1  1  0.33169000  0.91920333  0.50000000  1.0
  O2-  O1  1  0.33169000  0.91920333  0.75000000  1.0
  O2-  O1  1  0.83169000  0.25253667  0.00000000  1.0
  O2-  O1  1  0.83169000  0.25253667  0.25000000  1.0
  O2-  O1  1  0.83169000  0.25253667  0.50000000  1.0
  O2-  O1  1  0.83169000  0.25253667  0.75000000  1.0
  O2-  O1  1  0.83169000  0.58587000  0.00000000  1.0
  O2-  O1  1  0.83169000  0.58587000  0.25000000  1.0
  O2-  O1  1  0.83169000  0.58587000  0.50000000  1.0
  O2-  O1  1  0.83169000  0.58587000  0.75000000  1.0
  O2-  O1  1  0.83169000  0.91920333  0.00000000  1.0
  O2-  O1  1  0.83169000  0.91920333  0.25000000  1.0
  O2-  O1  1  0.83169000  0.91920333  0.50000000  1.0
  O2-  O1  1  0.83169000  0.91920333  0.75000000  1.0
  O2-  O1  1  0.16831000  0.25253667  0.00000000  1.0
  O2-  O1  1  0.16831000  0.25253667  0.25000000  1.0
  O2-  O1  1  0.16831000  0.25253667  0.50000000  1.0
  O2-  O1  1  0.16831000  0.25253667  0.75000000  1.0
  O2-  O1  1  0.16831000  0.58587000  0.00000000  1.0
  O2-  O1  1  0.16831000  0.58587000  0.25000000  1.0
  O2-  O1  1  0.16831000  0.58587000  0.50000000  1.0
  O2-  O1  1  0.16831000  0.58587000  0.75000000  1.0
  O2-  O1  1  0.16831000  0.91920333  0.00000000  1.0
  O2-  O1  1  0.16831000  0.91920333  0.25000000  1.0
  O2-  O1  1  0.16831000  0.91920333  0.50000000  1.0
  O2-  O1  1  0.16831000  0.91920333  0.75000000  1.0
  O2-  O1  1  0.66831000  0.25253667  0.00000000  1.0
  O2-  O1  1  0.66831000  0.25253667  0.25000000  1.0
  O2-  O1  1  0.66831000  0.25253667  0.50000000  1.0
  O2-  O1  1  0.66831000  0.25253667  0.75000000  1.0
  O2-  O1  1  0.66831000  0.58587000  0.00000000  1.0
  O2-  O1  1  0.66831000  0.58587000  0.25000000  1.0
  O2-  O1  1  0.66831000  0.58587000  0.50000000  1.0
  O2-  O1  1  0.66831000  0.58587000  0.75000000  1.0
  O2-  O1  1  0.66831000  0.91920333  0.00000000  1.0
  O2-  O1  1  0.66831000  0.91920333  0.25000000  1.0
  O2-  O1  1  0.66831000  0.91920333  0.50000000  1.0
  O2-  O1  1  0.66831000  0.91920333  0.75000000  1.0
  O2-  O1  1  0.33169000  0.08079667  0.00000000  1.0
  O2-  O1  1  0.33169000  0.08079667  0.25000000  1.0
  O2-  O1  1  0.33169000  0.08079667  0.50000000  1.0
  O2-  O1  1  0.33169000  0.08079667  0.75000000  1.0
  O2-  O1  1  0.33169000  0.41413000  0.00000000  1.0
  O2-  O1  1  0.33169000  0.41413000  0.25000000  1.0
  O2-  O1  1  0.33169000  0.41413000  0.50000000  1.0
  O2-  O1  1  0.33169000  0.41413000  0.75000000  1.0
  O2-  O1  1  0.33169000  0.74746333  0.00000000  1.0
  O2-  O1  1  0.33169000  0.74746333  0.25000000  1.0
  O2-  O1  1  0.33169000  0.74746333  0.50000000  1.0
  O2-  O1  1  0.33169000  0.74746333  0.75000000  1.0
  O2-  O1  1  0.83169000  0.08079667  0.00000000  1.0
  O2-  O1  1  0.83169000  0.08079667  0.25000000  1.0
  O2-  O1  1  0.83169000  0.08079667  0.50000000  1.0
  O2-  O1  1  0.83169000  0.08079667  0.75000000  1.0
  O2-  O1  1  0.83169000  0.41413000  0.00000000  1.0
  O2-  O1  1  0.83169000  0.41413000  0.25000000  1.0
  O2-  O1  1  0.83169000  0.41413000  0.50000000  1.0
  O2-  O1  1  0.83169000  0.41413000  0.75000000  1.0
  O2-  O1  1  0.83169000  0.74746333  0.00000000  1.0
  O2-  O1  1  0.83169000  0.74746333  0.25000000  1.0
  O2-  O1  1  0.83169000  0.74746333  0.50000000  1.0
  O2-  O1  1  0.83169000  0.74746333  0.75000000  1.0
  O2-  O6  1  0.04467000  0.76543667  0.73473000  1.0
  O2-  O6  1  0.95533000  0.43210333  0.73473000  1.0
  O2-  O6  1  0.45533000  0.56789667  0.26527000  1.0
  O2-  O6  1  0.04467000  0.90123000  0.01527000  1.0
  O2-  O6  1  0.45533000  0.43210333  0.98473000  1.0
  O2-  O6  1  0.54467000  0.90123000  0.76527000  1.0
  O2-  O6  1  0.04467000  0.09877000  0.51527000  1.0
  O2-  O6  1  0.04467000  0.76543667  0.48473000  1.0
  O2-  O6  1  0.45533000  0.90123000  0.01527000  1.0
  O2-  O6  1  0.54467000  0.09877000  0.76527000  1.0
  O2-  O6  1  0.45533000  0.09877000  0.01527000  1.0
  O2-  O6  1  0.04467000  0.09877000  0.73473000  1.0
  O2-  O6  1  0.54467000  0.90123000  0.48473000  1.0
  O2-  O6  1  0.54467000  0.76543667  0.23473000  1.0
  O2-  O6  1  0.54467000  0.09877000  0.51527000  1.0
  O2-  O6  1  0.54467000  0.43210333  0.01527000  1.0
  O2-  O6  1  0.04467000  0.90123000  0.76527000  1.0
  O2-  O6  1  0.04467000  0.09877000  0.26527000  1.0
  O2-  O6  1  0.04467000  0.76543667  0.26527000  1.0
  O2-  O6  1  0.95533000  0.90123000  0.98473000  1.0
  O2-  O6  1  0.45533000  0.43210333  0.48473000  1.0
  O2-  O6  1  0.54467000  0.43210333  0.26527000  1.0
  O2-  O6  1  0.45533000  0.43210333  0.01527000  1.0
  O2-  O6  1  0.04467000  0.23456333  0.76527000  1.0
  O2-  O6  1  0.95533000  0.76543667  0.48473000  1.0
  O2-  O6  1  0.54467000  0.76543667  0.48473000  1.0
  O2-  O6  1  0.95533000  0.56789667  0.73473000  1.0
  O2-  O6  1  0.04467000  0.76543667  0.76527000  1.0
  O2-  O6  1  0.95533000  0.90123000  0.48473000  1.0
  O2-  O6  1  0.95533000  0.56789667  0.01527000  1.0
  O2-  O6  1  0.04467000  0.09877000  0.01527000  1.0
  O2-  O6  1  0.54467000  0.76543667  0.73473000  1.0
  O2-  O6  1  0.95533000  0.23456333  0.76527000  1.0
  O2-  O6  1  0.04467000  0.23456333  0.01527000  1.0
  O2-  O6  1  0.95533000  0.56789667  0.48473000  1.0
  O2-  O6  1  0.95533000  0.43210333  0.51527000  1.0
  O2-  O6  1  0.04467000  0.43210333  0.23473000  1.0
  O2-  O6  1  0.04467000  0.43210333  0.51527000  1.0
  O2-  O6  1  0.95533000  0.90123000  0.76527000  1.0
  O2-  O6  1  0.04467000  0.09877000  0.76527000  1.0
  O2-  O6  1  0.54467000  0.56789667  0.73473000  1.0
  O2-  O6  1  0.95533000  0.43210333  0.48473000  1.0
  O2-  O6  1  0.54467000  0.56789667  0.98473000  1.0
  O2-  O6  1  0.95533000  0.09877000  0.01527000  1.0
  O2-  O6  1  0.54467000  0.90123000  0.51527000  1.0
  O2-  O6  1  0.95533000  0.43210333  0.01527000  1.0
  O2-  O6  1  0.45533000  0.09877000  0.73473000  1.0
  O2-  O6  1  0.54467000  0.76543667  0.98473000  1.0
  O2-  O7  1  0.56421500  0.73494333  0.96770250  1.0
  O2-  O7  1  0.06421500  0.06827667  0.28229750  1.0
  O2-  O7  1  0.43578500  0.73494333  0.53229750  1.0
  O2-  O7  1  0.56421500  0.26505667  0.28229750  1.0
  O2-  O7  1  0.93578500  0.06827667  0.03229750  1.0
  O2-  O7  1  0.43578500  0.40161000  0.46770250  1.0
  O2-  O7  1  0.06421500  0.26505667  0.03229750  1.0
  O2-  O7  1  0.06421500  0.40161000  0.28229750  1.0
  O2-  O7  1  0.06421500  0.26505667  0.21770250  1.0
  O2-  O7  1  0.56421500  0.93172333  0.46770250  1.0
  O2-  O7  1  0.43578500  0.73494333  0.96770250  1.0
  O2-  O7  1  0.43578500  0.26505667  0.46770250  1.0
  O2-  O7  1  0.43578500  0.73494333  0.71770250  1.0
  O2-  O7  1  0.93578500  0.73494333  0.03229750  1.0
  O2-  O7  1  0.93578500  0.40161000  0.21770250  1.0
  O2-  O7  1  0.93578500  0.26505667  0.71770250  1.0
  O2-  O7  1  0.93578500  0.06827667  0.46770250  1.0
  O2-  O7  1  0.06421500  0.59839000  0.03229750  1.0
  O2-  O7  1  0.56421500  0.40161000  0.28229750  1.0
  O2-  O7  1  0.43578500  0.93172333  0.78229750  1.0
  O2-  O7  1  0.56421500  0.26505667  0.46770250  1.0
  O2-  O7  1  0.93578500  0.59839000  0.03229750  1.0
  O2-  O7  1  0.43578500  0.93172333  0.96770250  1.0
  O2-  O7  1  0.56421500  0.93172333  0.21770250  1.0
  O2-  O7  1  0.43578500  0.93172333  0.21770250  1.0
  O2-  O7  1  0.43578500  0.59839000  0.78229750  1.0
  O2-  O7  1  0.56421500  0.73494333  0.21770250  1.0
  O2-  O7  1  0.06421500  0.73494333  0.96770250  1.0
  O2-  O7  1  0.43578500  0.40161000  0.78229750  1.0
  O2-  O7  1  0.43578500  0.73494333  0.46770250  1.0
  O2-  O7  1  0.43578500  0.06827667  0.71770250  1.0
  O2-  O7  1  0.43578500  0.93172333  0.71770250  1.0
  O2-  O7  1  0.93578500  0.93172333  0.21770250  1.0
  O2-  O7  1  0.56421500  0.59839000  0.21770250  1.0
  O2-  O7  1  0.06421500  0.59839000  0.46770250  1.0
  O2-  O7  1  0.56421500  0.40161000  0.96770250  1.0
  O2-  O7  1  0.93578500  0.73494333  0.53229750  1.0
  O2-  O7  1  0.56421500  0.93172333  0.28229750  1.0
  O2-  O7  1  0.56421500  0.59839000  0.46770250  1.0
  O2-  O7  1  0.43578500  0.26505667  0.71770250  1.0
  O2-  O7  1  0.06421500  0.40161000  0.78229750  1.0
  O2-  O7  1  0.43578500  0.59839000  0.96770250  1.0
  O2-  O7  1  0.56421500  0.26505667  0.96770250  1.0
  O2-  O7  1  0.93578500  0.26505667  0.03229750  1.0
  O2-  O7  1  0.43578500  0.40161000  0.71770250  1.0
  O2-  O7  1  0.56421500  0.06827667  0.71770250  1.0
  O2-  O7  1  0.56421500  0.73494333  0.03229750  1.0
  O2-  O7  1  0.43578500  0.40161000  0.53229750  1.0
  O2-  O2  1  0.75000000  0.00000000  0.65818750  1.0
  O2-  O2  1  0.25000000  0.33333333  0.09181250  1.0
  O2-  O2  1  0.75000000  0.66666667  0.34181250  1.0
  O2-  O2  1  0.25000000  0.66666667  0.90818750  1.0
  O2-  O2  1  0.25000000  0.00000000  0.59181250  1.0
  O2-  O2  1  0.25000000  0.33333333  0.90818750  1.0
  O2-  O2  1  0.25000000  0.00000000  0.34181250  1.0
  O2-  O2  1  0.75000000  0.33333333  0.34181250  1.0
  O2-  O2  1  0.25000000  0.66666667  0.09181250  1.0
  O2-  O2  1  0.75000000  0.00000000  0.40818750  1.0
  O2-  O2  1  0.25000000  0.00000000  0.15818750  1.0
  O2-  O2  1  0.75000000  0.00000000  0.84181250  1.0
  O2-  O2  1  0.25000000  0.00000000  0.84181250  1.0
  O2-  O2  1  0.25000000  0.33333333  0.40818750  1.0
  O2-  O2  1  0.75000000  0.66666667  0.59181250  1.0
  O2-  O2  1  0.75000000  0.33333333  0.59181250  1.0
  O2-  O2  1  0.25000000  0.33333333  0.65818750  1.0
  O2-  O2  1  0.75000000  0.33333333  0.40818750  1.0
  O2-  O2  1  0.25000000  0.66666667  0.84181250  1.0
  O2-  O2  1  0.25000000  0.66666667  0.34181250  1.0
  O2-  O2  1  0.25000000  0.66666667  0.15818750  1.0
  O2-  O2  1  0.25000000  0.33333333  0.34181250  1.0
  O2-  O2  1  0.25000000  0.00000000  0.40818750  1.0
  O2-  O2  1  0.75000000  0.66666667  0.15818750  1.0
  O2-  O3  1  0.25000000  0.50000000  0.16032500  1.0
  O2-  O3  1  0.75000000  0.50000000  0.41032500  1.0
  O2-  O3  1  0.25000000  0.50000000  0.66032500  1.0
  O2-  O3  1  0.25000000  0.16666667  0.41032500  1.0
  O2-  O3  1  0.25000000  0.50000000  0.91032500  1.0
  O2-  O3  1  0.25000000  0.16666667  0.16032500  1.0
  O2-  O3  1  0.75000000  0.83333333  0.33967500  1.0
  O2-  O3  1  0.75000000  0.50000000  0.16032500  1.0
  O2-  O3  1  0.25000000  0.16666667  0.66032500  1.0
  O2-  O3  1  0.75000000  0.50000000  0.33967500  1.0
  O2-  O3  1  0.25000000  0.50000000  0.83967500  1.0
  O2-  O3  1  0.25000000  0.83333333  0.16032500  1.0
  O2-  O3  1  0.75000000  0.83333333  0.83967500  1.0
  O2-  O3  1  0.25000000  0.50000000  0.41032500  1.0
  O2-  O3  1  0.25000000  0.83333333  0.41032500  1.0
  O2-  O3  1  0.25000000  0.83333333  0.66032500  1.0
  O2-  O3  1  0.25000000  0.16666667  0.91032500  1.0
  O2-  O3  1  0.75000000  0.16666667  0.08967500  1.0
  O2-  O3  1  0.75000000  0.16666667  0.58967500  1.0
  O2-  O3  1  0.75000000  0.83333333  0.41032500  1.0
  O2-  O3  1  0.25000000  0.50000000  0.58967500  1.0
  O2-  O3  1  0.25000000  0.16666667  0.58967500  1.0
  O2-  O3  1  0.25000000  0.50000000  0.33967500  1.0
  O2-  O3  1  0.75000000  0.83333333  0.16032500  1.0
  O2-  O4  1  0.47211500  0.00000000  0.12500000  1.0
  O2-  O4  1  0.52788500  0.00000000  0.12500000  1.0
  O2-  O4  1  0.52788500  0.00000000  0.62500000  1.0
  O2-  O4  1  0.97211500  0.33333333  0.62500000  1.0
  O2-  O4  1  0.97211500  0.00000000  0.62500000  1.0
  O2-  O4  1  0.02788500  0.66666667  0.87500000  1.0
  O2-  O4  1  0.47211500  0.33333333  0.12500000  1.0
  O2-  O4  1  0.52788500  0.66666667  0.37500000  1.0
  O2-  O4  1  0.47211500  0.66666667  0.12500000  1.0
  O2-  O4  1  0.52788500  0.66666667  0.87500000  1.0
  O2-  O4  1  0.47211500  0.66666667  0.87500000  1.0
  O2-  O4  1  0.47211500  0.00000000  0.37500000  1.0
  O2-  O4  1  0.97211500  0.33333333  0.87500000  1.0
  O2-  O4  1  0.97211500  0.33333333  0.12500000  1.0
  O2-  O4  1  0.97211500  0.66666667  0.62500000  1.0
  O2-  O4  1  0.02788500  0.66666667  0.37500000  1.0
  O2-  O4  1  0.02788500  0.33333333  0.12500000  1.0
  O2-  O4  1  0.52788500  0.66666667  0.12500000  1.0
  O2-  O4  1  0.97211500  0.33333333  0.37500000  1.0
  O2-  O4  1  0.02788500  0.66666667  0.62500000  1.0
  O2-  O4  1  0.52788500  0.33333333  0.62500000  1.0
  O2-  O4  1  0.02788500  0.33333333  0.37500000  1.0
  O2-  O4  1  0.02788500  0.33333333  0.62500000  1.0
  O2-  O4  1  0.02788500  0.33333333  0.87500000  1.0
