# generated using pymatgen
data_H2O
_symmetry_space_group_name_H-M   'P 1'
_cell_length_a   17.97920000
_cell_length_b   17.97920000
_cell_length_c   21.98484000
_cell_angle_alpha   90.00000000
_cell_angle_beta   90.00000000
_cell_angle_gamma   120.00000000
_symmetry_Int_Tables_number   1
_chemical_formula_structural   H2O
_chemical_formula_sum   'H384 O192'
_cell_volume   6154.52681204
_cell_formula_units_Z   192
loop_
 _symmetry_equiv_pos_site_id
 _symmetry_equiv_pos_as_xyz
  1  'x, y, z'
loop_
 _atom_type_symbol
 _atom_type_oxidation_number
  H+  1.0
  O2-  -2.0
loop_
 _atom_site_type_symbol
 _atom_site_label
 _atom_site_symmetry_multiplicity
 _atom_site_fract_x
 _atom_site_fract_y
 _atom_site_fract_z
 _atom_site_occupancy
  H+  H1  1  0.02452500  0.63725000  0.33930000  1.0
  H+  H1  1  0.63725000  0.36272500  0.66070000  1.0
  H+  H1  1  0.02452500  0.88725000  0.33930000  1.0
  H+  H1  1  0.36272500  0.97547500  0.33930000  1.0
  H+  H1  1  0.47547500  0.86275000  0.50596667  1.0
  H+  H1  1  0.36275000  0.13727500  0.82736667  1.0
  H+  H1  1  0.11275000  0.88727500  0.16070000  1.0
  H+  H1  1  0.36275000  0.38727500  0.33930000  1.0
  H+  H1  1  0.77452500  0.38725000  0.00596667  1.0
  H+  H1  1  0.97547500  0.86275000  0.50596667  1.0
  H+  H1  1  0.86272500  0.22547500  0.33930000  1.0
  H+  H1  1  0.11275000  0.38727500  0.16070000  1.0
  H+  H1  1  0.72547500  0.61275000  0.50596667  1.0
  H+  H1  1  0.63727500  0.02452500  0.17263333  1.0
  H+  H1  1  0.97547500  0.61275000  0.17263333  1.0
  H+  H1  1  0.13725000  0.36272500  0.50596667  1.0
  H+  H1  1  0.61272500  0.22547500  0.82736667  1.0
  H+  H1  1  0.22547500  0.36275000  0.17263333  1.0
  H+  H1  1  0.63725000  0.86272500  0.66070000  1.0
  H+  H1  1  0.22547500  0.11275000  0.99403333  1.0
  H+  H1  1  0.13725000  0.11272500  0.83930000  1.0
  H+  H1  1  0.52452500  0.38725000  0.00596667  1.0
  H+  H1  1  0.47547500  0.11275000  0.83930000  1.0
  H+  H1  1  0.86272500  0.97547500  0.33930000  1.0
  H+  H1  1  0.22547500  0.61275000  0.32736667  1.0
  H+  H1  1  0.88725000  0.61272500  0.17263333  1.0
  H+  H1  1  0.11275000  0.63727500  0.67263333  1.0
  H+  H1  1  0.27452500  0.88725000  0.49403333  1.0
  H+  H1  1  0.61272500  0.72547500  0.67263333  1.0
  H+  H1  1  0.63727500  0.02452500  0.83930000  1.0
  H+  H1  1  0.63727500  0.02452500  0.50596667  1.0
  H+  H1  1  0.63725000  0.36272500  0.32736667  1.0
  H+  H1  1  0.86272500  0.47547500  0.16070000  1.0
  H+  H1  1  0.36275000  0.13727500  0.16070000  1.0
  H+  H1  1  0.36272500  0.22547500  0.00596667  1.0
  H+  H1  1  0.38727500  0.27452500  0.17263333  1.0
  H+  H1  1  0.02452500  0.38725000  0.33930000  1.0
  H+  H1  1  0.88727500  0.77452500  0.66070000  1.0
  H+  H1  1  0.36272500  0.47547500  0.16070000  1.0
  H+  H1  1  0.63725000  0.36272500  0.83930000  1.0
  H+  H1  1  0.47547500  0.36275000  0.50596667  1.0
  H+  H1  1  0.22547500  0.86275000  0.17263333  1.0
  H+  H1  1  0.47547500  0.11275000  0.50596667  1.0
  H+  H1  1  0.38727500  0.02452500  0.99403333  1.0
  H+  H1  1  0.72547500  0.61275000  0.83930000  1.0
  H+  H1  1  0.86275000  0.88727500  0.00596667  1.0
  H+  H1  1  0.86275000  0.13727500  0.33930000  1.0
  H+  H1  1  0.52452500  0.88725000  0.67263333  1.0
  H+  H1  1  0.02452500  0.63725000  0.16070000  1.0
  H+  H1  1  0.27452500  0.13725000  0.16070000  1.0
  H+  H1  1  0.97547500  0.86275000  0.83930000  1.0
  H+  H1  1  0.52452500  0.88725000  0.00596667  1.0
  H+  H1  1  0.36275000  0.88727500  0.49403333  1.0
  H+  H1  1  0.38727500  0.77452500  0.32736667  1.0
  H+  H1  1  0.88725000  0.11272500  0.99403333  1.0
  H+  H1  1  0.88727500  0.27452500  0.99403333  1.0
  H+  H1  1  0.36272500  0.22547500  0.67263333  1.0
  H+  H1  1  0.02452500  0.63725000  0.49403333  1.0
  H+  H1  1  0.86275000  0.13727500  0.82736667  1.0
  H+  H1  1  0.52452500  0.63725000  0.16070000  1.0
  H+  H1  1  0.38727500  0.02452500  0.83930000  1.0
  H+  H1  1  0.63725000  0.36272500  0.17263333  1.0
  H+  H1  1  0.38727500  0.02452500  0.32736667  1.0
  H+  H1  1  0.77452500  0.38725000  0.82736667  1.0
  H+  H1  1  0.13725000  0.86272500  0.50596667  1.0
  H+  H1  1  0.38727500  0.52452500  0.66070000  1.0
  H+  H1  1  0.61275000  0.13727500  0.00596667  1.0
  H+  H1  1  0.36275000  0.13727500  0.49403333  1.0
  H+  H1  1  0.11272500  0.47547500  0.82736667  1.0
  H+  H1  1  0.61272500  0.72547500  0.82736667  1.0
  H+  H1  1  0.36272500  0.97547500  0.82736667  1.0
  H+  H1  1  0.63725000  0.61272500  0.83930000  1.0
  H+  H1  1  0.36272500  0.47547500  0.33930000  1.0
  H+  H1  1  0.61272500  0.97547500  0.67263333  1.0
  H+  H1  1  0.63725000  0.11272500  0.50596667  1.0
  H+  H1  1  0.11272500  0.97547500  0.33930000  1.0
  H+  H1  1  0.63725000  0.36272500  0.99403333  1.0
  H+  H1  1  0.77452500  0.13725000  0.00596667  1.0
  H+  H1  1  0.88727500  0.77452500  0.17263333  1.0
  H+  H1  1  0.36275000  0.88727500  0.33930000  1.0
  H+  H1  1  0.36275000  0.38727500  0.16070000  1.0
  H+  H1  1  0.86275000  0.63727500  0.67263333  1.0
  H+  H1  1  0.13727500  0.02452500  0.99403333  1.0
  H+  H1  1  0.61272500  0.72547500  0.16070000  1.0
  H+  H1  1  0.77452500  0.63725000  0.67263333  1.0
  H+  H1  1  0.86275000  0.88727500  0.16070000  1.0
  H+  H1  1  0.11275000  0.38727500  0.00596667  1.0
  H+  H1  1  0.11275000  0.13727500  0.33930000  1.0
  H+  H1  1  0.36272500  0.72547500  0.67263333  1.0
  H+  H1  1  0.13727500  0.02452500  0.50596667  1.0
  H+  H1  1  0.88727500  0.77452500  0.83930000  1.0
  H+  H1  1  0.11272500  0.22547500  0.82736667  1.0
  H+  H1  1  0.11272500  0.97547500  0.49403333  1.0
  H+  H1  1  0.88727500  0.02452500  0.83930000  1.0
  H+  H1  1  0.52452500  0.63725000  0.00596667  1.0
  H+  H1  1  0.72547500  0.86275000  0.66070000  1.0
  H+  H1  1  0.47547500  0.86275000  0.83930000  1.0
  H+  H1  1  0.72547500  0.36275000  0.66070000  1.0
  H+  H1  1  0.38725000  0.61272500  0.83930000  1.0
  H+  H1  1  0.47547500  0.61275000  0.66070000  1.0
  H+  H1  1  0.63725000  0.36272500  0.50596667  1.0
  H+  H1  1  0.86272500  0.72547500  0.49403333  1.0
  H+  H1  1  0.13725000  0.11272500  0.32736667  1.0
  H+  H1  1  0.02452500  0.13725000  0.33930000  1.0
  H+  H1  1  0.88727500  0.52452500  0.83930000  1.0
  H+  H1  1  0.38725000  0.11272500  0.99403333  1.0
  H+  H1  1  0.52452500  0.88725000  0.82736667  1.0
  H+  H1  1  0.11272500  0.47547500  0.67263333  1.0
  H+  H1  1  0.36275000  0.63727500  0.82736667  1.0
  H+  H1  1  0.88727500  0.02452500  0.17263333  1.0
  H+  H1  1  0.13725000  0.11272500  0.99403333  1.0
  H+  H1  1  0.22547500  0.61275000  0.99403333  1.0
  H+  H1  1  0.97547500  0.11275000  0.32736667  1.0
  H+  H1  1  0.22547500  0.11275000  0.32736667  1.0
  H+  H1  1  0.22547500  0.11275000  0.83930000  1.0
  H+  H1  1  0.63725000  0.11272500  0.99403333  1.0
  H+  H1  1  0.36272500  0.72547500  0.82736667  1.0
  H+  H1  1  0.77452500  0.88725000  0.16070000  1.0
  H+  H1  1  0.11275000  0.88727500  0.49403333  1.0
  H+  H1  1  0.11272500  0.22547500  0.16070000  1.0
  H+  H1  1  0.22547500  0.86275000  0.32736667  1.0
  H+  H1  1  0.63727500  0.77452500  0.99403333  1.0
  H+  H1  1  0.11275000  0.63727500  0.33930000  1.0
  H+  H1  1  0.11272500  0.72547500  0.49403333  1.0
  H+  H1  1  0.13727500  0.77452500  0.17263333  1.0
  H+  H1  1  0.97547500  0.61275000  0.66070000  1.0
  H+  H1  1  0.77452500  0.88725000  0.49403333  1.0
  H+  H1  1  0.36272500  0.97547500  0.67263333  1.0
  H+  H1  1  0.77452500  0.38725000  0.67263333  1.0
  H+  H1  1  0.86275000  0.38727500  0.33930000  1.0
  H+  H1  1  0.47547500  0.61275000  0.17263333  1.0
  H+  H1  1  0.47547500  0.36275000  0.66070000  1.0
  H+  H1  1  0.38727500  0.27452500  0.83930000  1.0
  H+  H1  1  0.38727500  0.02452500  0.50596667  1.0
  H+  H1  1  0.97547500  0.86275000  0.99403333  1.0
  H+  H1  1  0.13727500  0.52452500  0.17263333  1.0
  H+  H1  1  0.86275000  0.38727500  0.49403333  1.0
  H+  H1  1  0.13727500  0.02452500  0.32736667  1.0
  H+  H1  1  0.61272500  0.22547500  0.33930000  1.0
  H+  H1  1  0.63727500  0.02452500  0.99403333  1.0
  H+  H1  1  0.36272500  0.97547500  0.00596667  1.0
  H+  H1  1  0.36272500  0.22547500  0.49403333  1.0
  H+  H1  1  0.11275000  0.63727500  0.00596667  1.0
  H+  H1  1  0.22547500  0.61275000  0.50596667  1.0
  H+  H1  1  0.27452500  0.13725000  0.00596667  1.0
  H+  H1  1  0.61272500  0.97547500  0.00596667  1.0
  H+  H1  1  0.61275000  0.13727500  0.33930000  1.0
  H+  H1  1  0.22547500  0.11275000  0.66070000  1.0
  H+  H1  1  0.97547500  0.36275000  0.17263333  1.0
  H+  H1  1  0.13727500  0.02452500  0.83930000  1.0
  H+  H1  1  0.88725000  0.11272500  0.83930000  1.0
  H+  H1  1  0.13725000  0.86272500  0.83930000  1.0
  H+  H1  1  0.13725000  0.61272500  0.99403333  1.0
  H+  H1  1  0.47547500  0.86275000  0.32736667  1.0
  H+  H1  1  0.02452500  0.88725000  0.16070000  1.0
  H+  H1  1  0.52452500  0.13725000  0.33930000  1.0
  H+  H1  1  0.38727500  0.27452500  0.99403333  1.0
  H+  H1  1  0.52452500  0.38725000  0.67263333  1.0
  H+  H1  1  0.72547500  0.11275000  0.83930000  1.0
  H+  H1  1  0.61275000  0.13727500  0.67263333  1.0
  H+  H1  1  0.61272500  0.97547500  0.33930000  1.0
  H+  H1  1  0.86275000  0.63727500  0.16070000  1.0
  H+  H1  1  0.47547500  0.61275000  0.32736667  1.0
  H+  H1  1  0.27452500  0.88725000  0.00596667  1.0
  H+  H1  1  0.72547500  0.61275000  0.66070000  1.0
  H+  H1  1  0.77452500  0.63725000  0.33930000  1.0
  H+  H1  1  0.11275000  0.13727500  0.49403333  1.0
  H+  H1  1  0.36275000  0.38727500  0.00596667  1.0
  H+  H1  1  0.02452500  0.13725000  0.00596667  1.0
  H+  H1  1  0.72547500  0.36275000  0.17263333  1.0
  H+  H1  1  0.88725000  0.11272500  0.32736667  1.0
  H+  H1  1  0.86272500  0.22547500  0.82736667  1.0
  H+  H1  1  0.27452500  0.63725000  0.16070000  1.0
  H+  H1  1  0.88725000  0.61272500  0.66070000  1.0
  H+  H1  1  0.38727500  0.77452500  0.17263333  1.0
  H+  H1  1  0.63727500  0.52452500  0.66070000  1.0
  H+  H1  1  0.97547500  0.11275000  0.99403333  1.0
  H+  H1  1  0.13727500  0.27452500  0.99403333  1.0
  H+  H1  1  0.52452500  0.63725000  0.49403333  1.0
  H+  H1  1  0.61272500  0.97547500  0.16070000  1.0
  H+  H1  1  0.72547500  0.86275000  0.83930000  1.0
  H+  H1  1  0.88725000  0.36272500  0.32736667  1.0
  H+  H1  1  0.13725000  0.61272500  0.83930000  1.0
  H+  H1  1  0.61275000  0.38727500  0.82736667  1.0
  H+  H1  1  0.63725000  0.11272500  0.32736667  1.0
  H+  H1  1  0.72547500  0.11275000  0.99403333  1.0
  H+  H1  1  0.02452500  0.63725000  0.82736667  1.0
  H+  H1  1  0.13725000  0.11272500  0.17263333  1.0
  H+  H1  1  0.63727500  0.77452500  0.66070000  1.0
  H+  H1  1  0.97547500  0.36275000  0.50596667  1.0
  H+  H1  1  0.02452500  0.13725000  0.82736667  1.0
  H+  H1  1  0.86275000  0.38727500  0.16070000  1.0
  H+  H1  1  0.97547500  0.86275000  0.66070000  1.0
  H+  H1  1  0.27452500  0.38725000  0.82736667  1.0
  H+  H1  1  0.63725000  0.86272500  0.99403333  1.0
  H+  H1  1  0.38727500  0.02452500  0.66070000  1.0
  H+  H1  1  0.88725000  0.86272500  0.17263333  1.0
  H+  H1  1  0.88725000  0.61272500  0.83930000  1.0
  H+  H1  1  0.72547500  0.86275000  0.50596667  1.0
  H+  H1  1  0.38725000  0.11272500  0.50596667  1.0
  H+  H1  1  0.22547500  0.11275000  0.50596667  1.0
  H+  H1  1  0.47547500  0.36275000  0.32736667  1.0
  H+  H1  1  0.02452500  0.63725000  0.00596667  1.0
  H+  H1  1  0.86272500  0.97547500  0.49403333  1.0
  H+  H1  1  0.86275000  0.63727500  0.82736667  1.0
  H+  H1  1  0.61275000  0.38727500  0.00596667  1.0
  H+  H1  1  0.13727500  0.27452500  0.83930000  1.0
  H+  H1  1  0.52452500  0.63725000  0.82736667  1.0
  H+  H1  1  0.13725000  0.36272500  0.99403333  1.0
  H+  H1  1  0.86275000  0.63727500  0.33930000  1.0
  H+  H1  1  0.86275000  0.88727500  0.82736667  1.0
  H+  H1  1  0.61275000  0.88727500  0.49403333  1.0
  H+  H1  1  0.86272500  0.97547500  0.67263333  1.0
  H+  H1  1  0.02452500  0.38725000  0.00596667  1.0
  H+  H1  1  0.88727500  0.52452500  0.50596667  1.0
  H+  H1  1  0.88727500  0.27452500  0.83930000  1.0
  H+  H1  1  0.36272500  0.72547500  0.00596667  1.0
  H+  H1  1  0.38725000  0.11272500  0.32736667  1.0
  H+  H1  1  0.61275000  0.63727500  0.33930000  1.0
  H+  H1  1  0.47547500  0.11275000  0.66070000  1.0
  H+  H1  1  0.13725000  0.36272500  0.17263333  1.0
  H+  H1  1  0.77452500  0.63725000  0.16070000  1.0
  H+  H1  1  0.13727500  0.52452500  0.50596667  1.0
  H+  H1  1  0.72547500  0.36275000  0.50596667  1.0
  H+  H1  1  0.36275000  0.13727500  0.00596667  1.0
  H+  H1  1  0.36272500  0.22547500  0.82736667  1.0
  H+  H1  1  0.97547500  0.11275000  0.83930000  1.0
  H+  H1  1  0.13725000  0.86272500  0.32736667  1.0
  H+  H1  1  0.63727500  0.77452500  0.17263333  1.0
  H+  H1  1  0.63725000  0.61272500  0.66070000  1.0
  H+  H1  1  0.02452500  0.88725000  0.49403333  1.0
  H+  H1  1  0.97547500  0.36275000  0.32736667  1.0
  H+  H1  1  0.61272500  0.47547500  0.67263333  1.0
  H+  H1  1  0.86272500  0.72547500  0.82736667  1.0
  H+  H1  1  0.77452500  0.63725000  0.00596667  1.0
  H+  H1  1  0.88725000  0.86272500  0.99403333  1.0
  H+  H1  1  0.38725000  0.86272500  0.83930000  1.0
  H+  H1  1  0.13725000  0.11272500  0.50596667  1.0
  H+  H1  1  0.11275000  0.63727500  0.16070000  1.0
  H+  H1  1  0.86272500  0.97547500  0.16070000  1.0
  H+  H1  1  0.13725000  0.36272500  0.83930000  1.0
  H+  H1  1  0.22547500  0.36275000  0.66070000  1.0
  H+  H1  1  0.47547500  0.86275000  0.99403333  1.0
  H+  H1  1  0.61272500  0.47547500  0.33930000  1.0
  H+  H1  1  0.13727500  0.52452500  0.83930000  1.0
  H+  H1  1  0.38725000  0.36272500  0.32736667  1.0
  H+  H1  1  0.72547500  0.36275000  0.32736667  1.0
  H+  H1  1  0.88725000  0.61272500  0.99403333  1.0
  H+  H1  1  0.86272500  0.47547500  0.67263333  1.0
  H+  H1  1  0.02452500  0.38725000  0.16070000  1.0
  H+  H1  1  0.36272500  0.47547500  0.49403333  1.0
  H+  H1  1  0.63725000  0.11272500  0.83930000  1.0
  H+  H1  1  0.88725000  0.36272500  0.50596667  1.0
  H+  H1  1  0.63727500  0.52452500  0.83930000  1.0
  H+  H1  1  0.38725000  0.61272500  0.32736667  1.0
  H+  H1  1  0.72547500  0.86275000  0.32736667  1.0
  H+  H1  1  0.52452500  0.13725000  0.82736667  1.0
  H+  H1  1  0.88727500  0.27452500  0.32736667  1.0
  H+  H1  1  0.88725000  0.36272500  0.17263333  1.0
  H+  H1  1  0.13727500  0.52452500  0.66070000  1.0
  H+  H1  1  0.61275000  0.88727500  0.82736667  1.0
  H+  H1  1  0.77452500  0.88725000  0.67263333  1.0
  H+  H1  1  0.11275000  0.38727500  0.49403333  1.0
  H+  H1  1  0.13727500  0.27452500  0.66070000  1.0
  H+  H1  1  0.47547500  0.61275000  0.99403333  1.0
  H+  H1  1  0.13725000  0.36272500  0.32736667  1.0
  H+  H1  1  0.63727500  0.52452500  0.99403333  1.0
  H+  H1  1  0.11272500  0.72547500  0.82736667  1.0
  H+  H1  1  0.13727500  0.77452500  0.83930000  1.0
  H+  H1  1  0.97547500  0.11275000  0.66070000  1.0
  H+  H1  1  0.11275000  0.13727500  0.16070000  1.0
  H+  H1  1  0.63727500  0.27452500  0.17263333  1.0
  H+  H1  1  0.38725000  0.11272500  0.17263333  1.0
  H+  H1  1  0.38727500  0.52452500  0.32736667  1.0
  H+  H1  1  0.27452500  0.38725000  0.67263333  1.0
  H+  H1  1  0.61272500  0.22547500  0.49403333  1.0
  H+  H1  1  0.38727500  0.77452500  0.83930000  1.0
  H+  H1  1  0.38725000  0.86272500  0.32736667  1.0
  H+  H1  1  0.86272500  0.22547500  0.67263333  1.0
  H+  H1  1  0.11275000  0.88727500  0.33930000  1.0
  H+  H1  1  0.77452500  0.13725000  0.49403333  1.0
  H+  H1  1  0.63725000  0.61272500  0.50596667  1.0
  H+  H1  1  0.11272500  0.47547500  0.33930000  1.0
  H+  H1  1  0.38727500  0.77452500  0.50596667  1.0
  H+  H1  1  0.61272500  0.22547500  0.67263333  1.0
  H+  H1  1  0.61275000  0.63727500  0.16070000  1.0
  H+  H1  1  0.13727500  0.77452500  0.50596667  1.0
  H+  H1  1  0.61272500  0.47547500  0.49403333  1.0
  H+  H2  1  0.41666667  0.83333333  0.89880000  1.0
  H+  H2  1  0.41666667  0.33333333  0.56546667  1.0
  H+  H2  1  0.66666667  0.08333333  0.60120000  1.0
  H+  H2  1  0.33333333  0.91666667  0.06546667  1.0
  H+  H2  1  0.58333333  0.41666667  0.39880000  1.0
  H+  H2  1  0.08333333  0.91666667  0.10120000  1.0
  H+  H2  1  0.66666667  0.83333333  0.60120000  1.0
  H+  H2  1  0.41666667  0.33333333  0.89880000  1.0
  H+  H2  1  0.41666667  0.83333333  0.60120000  1.0
  H+  H2  1  0.16666667  0.33333333  0.26786667  1.0
  H+  H2  1  0.08333333  0.16666667  0.43453333  1.0
  H+  H2  1  0.08333333  0.16666667  0.73213333  1.0
  H+  H2  1  0.16666667  0.58333333  0.60120000  1.0
  H+  H2  1  0.58333333  0.66666667  0.76786667  1.0
  H+  H2  1  0.91666667  0.33333333  0.23213333  1.0
  H+  H2  1  0.41666667  0.33333333  0.23213333  1.0
  H+  H2  1  0.66666667  0.58333333  0.26786667  1.0
  H+  H2  1  0.33333333  0.91666667  0.39880000  1.0
  H+  H2  1  0.66666667  0.83333333  0.23213333  1.0
  H+  H2  1  0.91666667  0.83333333  0.26786667  1.0
  H+  H2  1  0.83333333  0.66666667  0.76786667  1.0
  H+  H2  1  0.41666667  0.08333333  0.26786667  1.0
  H+  H2  1  0.83333333  0.91666667  0.06546667  1.0
  H+  H2  1  0.58333333  0.66666667  0.73213333  1.0
  H+  H2  1  0.08333333  0.66666667  0.76786667  1.0
  H+  H2  1  0.41666667  0.33333333  0.60120000  1.0
  H+  H2  1  0.58333333  0.41666667  0.10120000  1.0
  H+  H2  1  0.58333333  0.41666667  0.76786667  1.0
  H+  H2  1  0.66666667  0.58333333  0.56546667  1.0
  H+  H2  1  0.33333333  0.41666667  0.10120000  1.0
  H+  H2  1  0.58333333  0.16666667  0.10120000  1.0
  H+  H2  1  0.66666667  0.83333333  0.56546667  1.0
  H+  H2  1  0.83333333  0.16666667  0.43453333  1.0
  H+  H2  1  0.66666667  0.33333333  0.89880000  1.0
  H+  H2  1  0.08333333  0.66666667  0.10120000  1.0
  H+  H2  1  0.16666667  0.33333333  0.89880000  1.0
  H+  H2  1  0.41666667  0.33333333  0.93453333  1.0
  H+  H2  1  0.58333333  0.66666667  0.43453333  1.0
  H+  H2  1  0.58333333  0.91666667  0.10120000  1.0
  H+  H2  1  0.91666667  0.58333333  0.23213333  1.0
  H+  H2  1  0.91666667  0.58333333  0.89880000  1.0
  H+  H2  1  0.58333333  0.41666667  0.06546667  1.0
  H+  H2  1  0.58333333  0.66666667  0.39880000  1.0
  H+  H2  1  0.16666667  0.33333333  0.23213333  1.0
  H+  H2  1  0.83333333  0.91666667  0.39880000  1.0
  H+  H2  1  0.66666667  0.08333333  0.56546667  1.0
  H+  H2  1  0.66666667  0.83333333  0.93453333  1.0
  H+  H2  1  0.41666667  0.83333333  0.56546667  1.0
  H+  H2  1  0.08333333  0.66666667  0.43453333  1.0
  H+  H2  1  0.16666667  0.08333333  0.23213333  1.0
  H+  H2  1  0.66666667  0.33333333  0.26786667  1.0
  H+  H2  1  0.83333333  0.16666667  0.06546667  1.0
  H+  H2  1  0.16666667  0.83333333  0.56546667  1.0
  H+  H2  1  0.33333333  0.91666667  0.73213333  1.0
  H+  H2  1  0.58333333  0.91666667  0.73213333  1.0
  H+  H2  1  0.83333333  0.66666667  0.39880000  1.0
  H+  H2  1  0.33333333  0.91666667  0.76786667  1.0
  H+  H2  1  0.91666667  0.08333333  0.56546667  1.0
  H+  H2  1  0.58333333  0.16666667  0.06546667  1.0
  H+  H2  1  0.33333333  0.91666667  0.43453333  1.0
  H+  H2  1  0.91666667  0.83333333  0.60120000  1.0
  H+  H2  1  0.16666667  0.58333333  0.56546667  1.0
  H+  H2  1  0.33333333  0.16666667  0.39880000  1.0
  H+  H2  1  0.08333333  0.91666667  0.06546667  1.0
  H+  H2  1  0.16666667  0.08333333  0.89880000  1.0
  H+  H2  1  0.41666667  0.58333333  0.60120000  1.0
  H+  H2  1  0.91666667  0.83333333  0.89880000  1.0
  H+  H2  1  0.41666667  0.58333333  0.93453333  1.0
  H+  H2  1  0.91666667  0.83333333  0.93453333  1.0
  H+  H2  1  0.66666667  0.83333333  0.89880000  1.0
  H+  H2  1  0.58333333  0.16666667  0.39880000  1.0
  H+  H2  1  0.16666667  0.83333333  0.23213333  1.0
  H+  H2  1  0.66666667  0.33333333  0.93453333  1.0
  H+  H2  1  0.66666667  0.33333333  0.56546667  1.0
  H+  H2  1  0.83333333  0.66666667  0.10120000  1.0
  H+  H2  1  0.16666667  0.33333333  0.56546667  1.0
  H+  H2  1  0.58333333  0.91666667  0.39880000  1.0
  H+  H2  1  0.16666667  0.58333333  0.93453333  1.0
  H+  H2  1  0.41666667  0.83333333  0.26786667  1.0
  H+  H2  1  0.41666667  0.83333333  0.23213333  1.0
  H+  H2  1  0.66666667  0.08333333  0.89880000  1.0
  H+  H2  1  0.33333333  0.66666667  0.76786667  1.0
  H+  H2  1  0.41666667  0.33333333  0.26786667  1.0
  H+  H2  1  0.08333333  0.41666667  0.06546667  1.0
  H+  H2  1  0.33333333  0.41666667  0.06546667  1.0
  H+  H2  1  0.58333333  0.91666667  0.76786667  1.0
  H+  H2  1  0.08333333  0.91666667  0.43453333  1.0
  H+  H2  1  0.83333333  0.16666667  0.39880000  1.0
  H+  H2  1  0.83333333  0.91666667  0.43453333  1.0
  H+  H2  1  0.91666667  0.58333333  0.26786667  1.0
  H+  H2  1  0.41666667  0.08333333  0.93453333  1.0
  H+  H2  1  0.66666667  0.58333333  0.23213333  1.0
  H+  H2  1  0.33333333  0.66666667  0.39880000  1.0
  H+  H2  1  0.91666667  0.33333333  0.60120000  1.0
  H+  H2  1  0.08333333  0.66666667  0.73213333  1.0
  H+  H2  1  0.16666667  0.08333333  0.26786667  1.0
  O2-  O1  1  0.08333333  0.16666667  0.14620000  1.0
  O2-  O1  1  0.08333333  0.16666667  0.47953333  1.0
  O2-  O1  1  0.08333333  0.16666667  0.81286667  1.0
  O2-  O1  1  0.08333333  0.41666667  0.14620000  1.0
  O2-  O1  1  0.08333333  0.41666667  0.47953333  1.0
  O2-  O1  1  0.08333333  0.41666667  0.81286667  1.0
  O2-  O1  1  0.08333333  0.66666667  0.14620000  1.0
  O2-  O1  1  0.08333333  0.66666667  0.47953333  1.0
  O2-  O1  1  0.08333333  0.66666667  0.81286667  1.0
  O2-  O1  1  0.08333333  0.91666667  0.14620000  1.0
  O2-  O1  1  0.08333333  0.91666667  0.47953333  1.0
  O2-  O1  1  0.08333333  0.91666667  0.81286667  1.0
  O2-  O1  1  0.33333333  0.16666667  0.14620000  1.0
  O2-  O1  1  0.33333333  0.16666667  0.47953333  1.0
  O2-  O1  1  0.33333333  0.16666667  0.81286667  1.0
  O2-  O1  1  0.33333333  0.41666667  0.14620000  1.0
  O2-  O1  1  0.33333333  0.41666667  0.47953333  1.0
  O2-  O1  1  0.33333333  0.41666667  0.81286667  1.0
  O2-  O1  1  0.33333333  0.66666667  0.14620000  1.0
  O2-  O1  1  0.33333333  0.66666667  0.47953333  1.0
  O2-  O1  1  0.33333333  0.66666667  0.81286667  1.0
  O2-  O1  1  0.33333333  0.91666667  0.14620000  1.0
  O2-  O1  1  0.33333333  0.91666667  0.47953333  1.0
  O2-  O1  1  0.33333333  0.91666667  0.81286667  1.0
  O2-  O1  1  0.58333333  0.16666667  0.14620000  1.0
  O2-  O1  1  0.58333333  0.16666667  0.47953333  1.0
  O2-  O1  1  0.58333333  0.16666667  0.81286667  1.0
  O2-  O1  1  0.58333333  0.41666667  0.14620000  1.0
  O2-  O1  1  0.58333333  0.41666667  0.47953333  1.0
  O2-  O1  1  0.58333333  0.41666667  0.81286667  1.0
  O2-  O1  1  0.58333333  0.66666667  0.14620000  1.0
  O2-  O1  1  0.58333333  0.66666667  0.47953333  1.0
  O2-  O1  1  0.58333333  0.66666667  0.81286667  1.0
  O2-  O1  1  0.58333333  0.91666667  0.14620000  1.0
  O2-  O1  1  0.58333333  0.91666667  0.47953333  1.0
  O2-  O1  1  0.58333333  0.91666667  0.81286667  1.0
  O2-  O1  1  0.83333333  0.16666667  0.14620000  1.0
  O2-  O1  1  0.83333333  0.16666667  0.47953333  1.0
  O2-  O1  1  0.83333333  0.16666667  0.81286667  1.0
  O2-  O1  1  0.83333333  0.41666667  0.14620000  1.0
  O2-  O1  1  0.83333333  0.41666667  0.47953333  1.0
  O2-  O1  1  0.83333333  0.41666667  0.81286667  1.0
  O2-  O1  1  0.83333333  0.66666667  0.14620000  1.0
  O2-  O1  1  0.83333333  0.66666667  0.47953333  1.0
  O2-  O1  1  0.83333333  0.66666667  0.81286667  1.0
  O2-  O1  1  0.83333333  0.91666667  0.14620000  1.0
  O2-  O1  1  0.83333333  0.91666667  0.47953333  1.0
  O2-  O1  1  0.83333333  0.91666667  0.81286667  1.0
  O2-  O1  1  0.16666667  0.08333333  0.18713333  1.0
  O2-  O1  1  0.16666667  0.08333333  0.52046667  1.0
  O2-  O1  1  0.16666667  0.08333333  0.85380000  1.0
  O2-  O1  1  0.16666667  0.33333333  0.18713333  1.0
  O2-  O1  1  0.16666667  0.33333333  0.52046667  1.0
  O2-  O1  1  0.16666667  0.33333333  0.85380000  1.0
  O2-  O1  1  0.16666667  0.58333333  0.18713333  1.0
  O2-  O1  1  0.16666667  0.58333333  0.52046667  1.0
  O2-  O1  1  0.16666667  0.58333333  0.85380000  1.0
  O2-  O1  1  0.16666667  0.83333333  0.18713333  1.0
  O2-  O1  1  0.16666667  0.83333333  0.52046667  1.0
  O2-  O1  1  0.16666667  0.83333333  0.85380000  1.0
  O2-  O1  1  0.41666667  0.08333333  0.18713333  1.0
  O2-  O1  1  0.41666667  0.08333333  0.52046667  1.0
  O2-  O1  1  0.41666667  0.08333333  0.85380000  1.0
  O2-  O1  1  0.41666667  0.33333333  0.18713333  1.0
  O2-  O1  1  0.41666667  0.33333333  0.52046667  1.0
  O2-  O1  1  0.41666667  0.33333333  0.85380000  1.0
  O2-  O1  1  0.41666667  0.58333333  0.18713333  1.0
  O2-  O1  1  0.41666667  0.58333333  0.52046667  1.0
  O2-  O1  1  0.41666667  0.58333333  0.85380000  1.0
  O2-  O1  1  0.41666667  0.83333333  0.18713333  1.0
  O2-  O1  1  0.41666667  0.83333333  0.52046667  1.0
  O2-  O1  1  0.41666667  0.83333333  0.85380000  1.0
  O2-  O1  1  0.66666667  0.08333333  0.18713333  1.0
  O2-  O1  1  0.66666667  0.08333333  0.52046667  1.0
  O2-  O1  1  0.66666667  0.08333333  0.85380000  1.0
  O2-  O1  1  0.66666667  0.33333333  0.18713333  1.0
  O2-  O1  1  0.66666667  0.33333333  0.52046667  1.0
  O2-  O1  1  0.66666667  0.33333333  0.85380000  1.0
  O2-  O1  1  0.66666667  0.58333333  0.18713333  1.0
  O2-  O1  1  0.66666667  0.58333333  0.52046667  1.0
  O2-  O1  1  0.66666667  0.58333333  0.85380000  1.0
  O2-  O1  1  0.66666667  0.83333333  0.18713333  1.0
  O2-  O1  1  0.66666667  0.83333333  0.52046667  1.0
  O2-  O1  1  0.66666667  0.83333333  0.85380000  1.0
  O2-  O1  1  0.91666667  0.08333333  0.18713333  1.0
  O2-  O1  1  0.91666667  0.08333333  0.52046667  1.0
  O2-  O1  1  0.91666667  0.08333333  0.85380000  1.0
  O2-  O1  1  0.91666667  0.33333333  0.18713333  1.0
  O2-  O1  1  0.91666667  0.33333333  0.52046667  1.0
  O2-  O1  1  0.91666667  0.33333333  0.85380000  1.0
  O2-  O1  1  0.91666667  0.58333333  0.18713333  1.0
  O2-  O1  1  0.91666667  0.58333333  0.52046667  1.0
  O2-  O1  1  0.91666667  0.58333333  0.85380000  1.0
  O2-  O1  1  0.91666667  0.83333333  0.18713333  1.0
  O2-  O1  1  0.91666667  0.83333333  0.52046667  1.0
  O2-  O1  1  0.91666667  0.83333333  0.85380000  1.0
  O2-  O1  1  0.16666667  0.08333333  0.31286667  1.0
  O2-  O1  1  0.16666667  0.08333333  0.64620000  1.0
  O2-  O1  1  0.16666667  0.08333333  0.97953333  1.0
  O2-  O1  1  0.16666667  0.33333333  0.31286667  1.0
  O2-  O1  1  0.16666667  0.33333333  0.64620000  1.0
  O2-  O1  1  0.16666667  0.33333333  0.97953333  1.0
  O2-  O1  1  0.16666667  0.58333333  0.31286667  1.0
  O2-  O1  1  0.16666667  0.58333333  0.64620000  1.0
  O2-  O1  1  0.16666667  0.58333333  0.97953333  1.0
  O2-  O1  1  0.16666667  0.83333333  0.31286667  1.0
  O2-  O1  1  0.16666667  0.83333333  0.64620000  1.0
  O2-  O1  1  0.16666667  0.83333333  0.97953333  1.0
  O2-  O1  1  0.41666667  0.08333333  0.31286667  1.0
  O2-  O1  1  0.41666667  0.08333333  0.64620000  1.0
  O2-  O1  1  0.41666667  0.08333333  0.97953333  1.0
  O2-  O1  1  0.41666667  0.33333333  0.31286667  1.0
  O2-  O1  1  0.41666667  0.33333333  0.64620000  1.0
  O2-  O1  1  0.41666667  0.33333333  0.97953333  1.0
  O2-  O1  1  0.41666667  0.58333333  0.31286667  1.0
  O2-  O1  1  0.41666667  0.58333333  0.64620000  1.0
  O2-  O1  1  0.41666667  0.58333333  0.97953333  1.0
  O2-  O1  1  0.41666667  0.83333333  0.31286667  1.0
  O2-  O1  1  0.41666667  0.83333333  0.64620000  1.0
  O2-  O1  1  0.41666667  0.83333333  0.97953333  1.0
  O2-  O1  1  0.66666667  0.08333333  0.31286667  1.0
  O2-  O1  1  0.66666667  0.08333333  0.64620000  1.0
  O2-  O1  1  0.66666667  0.08333333  0.97953333  1.0
  O2-  O1  1  0.66666667  0.33333333  0.31286667  1.0
  O2-  O1  1  0.66666667  0.33333333  0.64620000  1.0
  O2-  O1  1  0.66666667  0.33333333  0.97953333  1.0
  O2-  O1  1  0.66666667  0.58333333  0.31286667  1.0
  O2-  O1  1  0.66666667  0.58333333  0.64620000  1.0
  O2-  O1  1  0.66666667  0.58333333  0.97953333  1.0
  O2-  O1  1  0.66666667  0.83333333  0.31286667  1.0
  O2-  O1  1  0.66666667  0.83333333  0.64620000  1.0
  O2-  O1  1  0.66666667  0.83333333  0.97953333  1.0
  O2-  O1  1  0.91666667  0.08333333  0.31286667  1.0
  O2-  O1  1  0.91666667  0.08333333  0.64620000  1.0
  O2-  O1  1  0.91666667  0.08333333  0.97953333  1.0
  O2-  O1  1  0.91666667  0.33333333  0.31286667  1.0
  O2-  O1  1  0.91666667  0.33333333  0.64620000  1.0
  O2-  O1  1  0.91666667  0.33333333  0.97953333  1.0
  O2-  O1  1  0.91666667  0.58333333  0.31286667  1.0
  O2-  O1  1  0.91666667  0.58333333  0.64620000  1.0
  O2-  O1  1  0.91666667  0.58333333  0.97953333  1.0
  O2-  O1  1  0.91666667  0.83333333  0.31286667  1.0
  O2-  O1  1  0.91666667  0.83333333  0.64620000  1.0
  O2-  O1  1  0.91666667  0.83333333  0.97953333  1.0
  O2-  O1  1  0.08333333  0.16666667  0.02046667  1.0
  O2-  O1  1  0.08333333  0.16666667  0.35380000  1.0
  O2-  O1  1  0.08333333  0.16666667  0.68713333  1.0
  O2-  O1  1  0.08333333  0.41666667  0.02046667  1.0
  O2-  O1  1  0.08333333  0.41666667  0.35380000  1.0
  O2-  O1  1  0.08333333  0.41666667  0.68713333  1.0
  O2-  O1  1  0.08333333  0.66666667  0.02046667  1.0
  O2-  O1  1  0.08333333  0.66666667  0.35380000  1.0
  O2-  O1  1  0.08333333  0.66666667  0.68713333  1.0
  O2-  O1  1  0.08333333  0.91666667  0.02046667  1.0
  O2-  O1  1  0.08333333  0.91666667  0.35380000  1.0
  O2-  O1  1  0.08333333  0.91666667  0.68713333  1.0
  O2-  O1  1  0.33333333  0.16666667  0.02046667  1.0
  O2-  O1  1  0.33333333  0.16666667  0.35380000  1.0
  O2-  O1  1  0.33333333  0.16666667  0.68713333  1.0
  O2-  O1  1  0.33333333  0.41666667  0.02046667  1.0
  O2-  O1  1  0.33333333  0.41666667  0.35380000  1.0
  O2-  O1  1  0.33333333  0.41666667  0.68713333  1.0
  O2-  O1  1  0.33333333  0.66666667  0.02046667  1.0
  O2-  O1  1  0.33333333  0.66666667  0.35380000  1.0
  O2-  O1  1  0.33333333  0.66666667  0.68713333  1.0
  O2-  O1  1  0.33333333  0.91666667  0.02046667  1.0
  O2-  O1  1  0.33333333  0.91666667  0.35380000  1.0
  O2-  O1  1  0.33333333  0.91666667  0.68713333  1.0
  O2-  O1  1  0.58333333  0.16666667  0.02046667  1.0
  O2-  O1  1  0.58333333  0.16666667  0.35380000  1.0
  O2-  O1  1  0.58333333  0.16666667  0.68713333  1.0
  O2-  O1  1  0.58333333  0.41666667  0.02046667  1.0
  O2-  O1  1  0.58333333  0.41666667  0.35380000  1.0
  O2-  O1  1  0.58333333  0.41666667  0.68713333  1.0
  O2-  O1  1  0.58333333  0.66666667  0.02046667  1.0
  O2-  O1  1  0.58333333  0.66666667  0.35380000  1.0
  O2-  O1  1  0.58333333  0.66666667  0.68713333  1.0
  O2-  O1  1  0.58333333  0.91666667  0.02046667  1.0
  O2-  O1  1  0.58333333  0.91666667  0.35380000  1.0
  O2-  O1  1  0.58333333  0.91666667  0.68713333  1.0
  O2-  O1  1  0.83333333  0.16666667  0.02046667  1.0
  O2-  O1  1  0.83333333  0.16666667  0.35380000  1.0
  O2-  O1  1  0.83333333  0.16666667  0.68713333  1.0
  O2-  O1  1  0.83333333  0.41666667  0.02046667  1.0
  O2-  O1  1  0.83333333  0.41666667  0.35380000  1.0
  O2-  O1  1  0.83333333  0.41666667  0.68713333  1.0
  O2-  O1  1  0.83333333  0.66666667  0.02046667  1.0
  O2-  O1  1  0.83333333  0.66666667  0.35380000  1.0
  O2-  O1  1  0.83333333  0.66666667  0.68713333  1.0
  O2-  O1  1  0.83333333  0.91666667  0.02046667  1.0
  O2-  O1  1  0.83333333  0.91666667  0.35380000  1.0
  O2-  O1  1  0.83333333  0.91666667  0.68713333  1.0
