# generated using pymatgen
data_HfZrTaTiMo
_symmetry_space_group_name_H-M   'P 1'
_cell_length_a   16.89703197
_cell_length_b   16.87989817
_cell_length_c   16.88861888
_cell_angle_alpha   90.03024697
_cell_angle_beta   90.01310044
_cell_angle_gamma   90.10385409
_symmetry_Int_Tables_number   1
_chemical_formula_structural   HfZrTaTiMo
_chemical_formula_sum   'Hf50 Zr50 Ta50 Ti50 Mo50'
_cell_volume   4816.96618898
_cell_formula_units_Z   50
loop_
 _symmetry_equiv_pos_site_id
 _symmetry_equiv_pos_as_xyz
  1  'x, y, z'
loop_
 _atom_site_type_symbol
 _atom_site_label
 _atom_site_symmetry_multiplicity
 _atom_site_fract_x
 _atom_site_fract_y
 _atom_site_fract_z
 _atom_site_occupancy
  Hf  Hf0  1  0.81681854  0.60463958  0.19469578  1
  Hf  Hf1  1  0.69657318  0.29445700  0.89192405  1
  Hf  Hf2  1  0.29540987  0.69755623  0.10091743  1
  Hf  Hf3  1  0.69097321  0.90087874  0.90338470  1
  Hf  Hf4  1  0.39759046  -0.00265727  0.00120008  1
  Hf  Hf5  1  0.39704931  -0.00068853  0.40288387  1
  Hf  Hf6  1  0.80806764  0.19528546  -0.00449482  1
  Hf  Hf7  1  0.80161999  0.79293789  -0.00001796  1
  Hf  Hf8  1  0.19511240  0.19914605  -0.00383891  1
  Hf  Hf9  1  0.59813344  -0.00445710  0.60426270  1
  Hf  Hf10  1  0.00400086  0.20062279  -0.00473310  1
  Hf  Hf11  1  0.59139599  0.40131484  -0.00660938  1
  Hf  Hf12  1  0.09540819  0.49957715  0.10564058  1
  Hf  Hf13  1  0.38464867  0.80190409  0.60010949  1
  Hf  Hf14  1  0.91149939  0.90178218  0.89647817  1
  Hf  Hf15  1  0.69825461  0.89945370  0.30094964  1
  Hf  Hf16  1  0.80290865  0.40376761  0.60584346  1
  Hf  Hf17  1  0.69314160  0.10994919  0.70226920  1
  Hf  Hf18  1  0.09947988  0.29857983  0.30806622  1
  Hf  Hf19  1  0.00389297  0.17108992  0.22460287  1
  Hf  Hf20  1  0.10884506  0.09257644  0.10729996  1
  Hf  Hf21  1  0.19414092  0.39362140  -0.00078132  1
  Hf  Hf22  1  -0.00682884  0.59727769  0.00098317  1
  Hf  Hf23  1  0.70202628  0.69468663  0.69337723  1
  Hf  Hf24  1  0.42069830  0.20468274  0.81293907  1
  Hf  Hf25  1  0.80931184  -0.00303340  0.59903318  1
  Hf  Hf26  1  0.49525757  0.28756092  0.09932615  1
  Hf  Hf27  1  0.80403074  0.00445615  -0.00056365  1
  Hf  Hf28  1  0.70044157  0.29737975  0.30031383  1
  Hf  Hf29  1  0.30311087  0.30042783  0.30200846  1
  Hf  Hf30  1  0.69096078  0.29991436  0.70438778  1
  Hf  Hf31  1  0.91028691  0.70858133  0.89353108  1
  Hf  Hf32  1  0.80543168  0.40651325  0.40218441  1
  Hf  Hf33  1  0.30134190  0.09750408  0.89817488  1
  Hf  Hf34  1  0.80902148  0.40057752  -0.00530423  1
  Hf  Hf35  1  0.69428167  0.49981179  0.88805504  1
  Hf  Hf36  1  0.59230281  0.79244693  0.20278960  1
  Hf  Hf37  1  0.20189255  0.40224879  0.20289790  1
  Hf  Hf38  1  0.49864363  0.50889742  0.09850090  1
  Hf  Hf39  1  0.90838304  0.10879466  0.48548227  1
  Hf  Hf40  1  0.39348322  0.79639894  -0.00342392  1
  Hf  Hf41  1  0.90522957  0.50956293  0.50453055  1
  Hf  Hf42  1  0.80629871  0.79467988  0.18896894  1
  Hf  Hf43  1  0.00267332  0.59532559  0.80169134  1
  Hf  Hf44  1  0.49609072  0.51049329  0.71150938  1
  Hf  Hf45  1  0.80604365  0.59798717  0.79935829  1
  Hf  Hf46  1  0.00790671  0.20580110  0.60889213  1
  Hf  Hf47  1  0.18912436  0.39412318  0.79737148  1
  Hf  Hf48  1  0.80639580  0.20407533  0.60039725  1
  Hf  Hf49  1  0.09751171  0.31093454  0.49794309  1
  Zr  Zr50  1  0.09549866  0.10048245  0.49611695  1
  Zr  Zr51  1  0.38569928  0.60225101  0.60301408  1
  Zr  Zr52  1  0.70721808  0.50602257  0.30043735  1
  Zr  Zr53  1  0.29862463  0.50719825  0.89247243  1
  Zr  Zr54  1  0.50402543  0.70242389  0.69963669  1
  Zr  Zr55  1  0.67862473  0.10320762  0.09075204  1
  Zr  Zr56  1  0.59581298  0.79272780  0.39269235  1
  Zr  Zr57  1  0.00404403  0.79655425  0.20501835  1
  Zr  Zr58  1  0.30522548  0.89335789  0.29461064  1
  Zr  Zr59  1  0.09214356  0.29962564  0.11414184  1
  Zr  Zr60  1  0.59330560  0.59784161  0.39760085  1
  Zr  Zr61  1  0.39743042  0.59942375  0.40068917  1
  Zr  Zr62  1  0.30174730  0.29568110  0.89875934  1
  Zr  Zr63  1  0.00164269  0.80586437  0.59772584  1
  Zr  Zr64  1  0.09693634  0.68990364  0.50260528  1
  Zr  Zr65  1  0.49649245  0.31405372  0.50401964  1
  Zr  Zr66  1  0.40298516  0.20621028  0.61024003  1
  Zr  Zr67  1  0.69745479  0.10420664  0.49650201  1
  Zr  Zr68  1  0.89990961  0.90107613  0.29693247  1
  Zr  Zr69  1  0.20097999  -0.00276681  0.60344738  1
  Zr  Zr70  1  -0.00336901  0.60123662  0.39362789  1
  Zr  Zr71  1  0.69334611  0.29313966  0.09809166  1
  Zr  Zr72  1  0.50205018  0.89795953  0.50001347  1
  Zr  Zr73  1  0.80504653  0.60107124  -0.00052066  1
  Zr  Zr74  1  0.50670346  0.10117423  0.50426556  1
  Zr  Zr75  1  0.19879502  0.20291167  0.61185354  1
  Zr  Zr76  1  0.79885019  -0.00101994  0.80048718  1
  Zr  Zr77  1  0.20731827  -0.00182936  0.39851894  1
  Zr  Zr78  1  0.69319807  0.30276855  0.50364192  1
  Zr  Zr79  1  0.91302170  0.10023728  0.71238187  1
  Zr  Zr80  1  0.50404756  0.89614326  0.09125286  1
  Zr  Zr81  1  0.81224104  0.80172838  0.59206370  1
  Zr  Zr82  1  0.69447584  0.89033372  0.69702346  1
  Zr  Zr83  1  0.69219277  0.89922839  0.09418433  1
  Zr  Zr84  1  0.90557500  0.29697518  0.31053894  1
  Zr  Zr85  1  0.39494125  0.19416114  0.40280584  1
  Zr  Zr86  1  0.80018369  0.00171732  0.39779203  1
  Zr  Zr87  1  0.50263521  0.70270388  0.50598480  1
  Zr  Zr88  1  0.19849161  0.80419755  0.59886945  1
  Zr  Zr89  1  0.30228264  0.31491917  0.50217602  1
  Zr  Zr90  1  0.00139684  0.40321527  0.79881191  1
  Zr  Zr91  1  0.80003893  0.19005499  0.20068346  1
  Zr  Zr92  1  0.39481299  0.40475740  0.19798336  1
  Zr  Zr93  1  0.90846620  0.30453054  0.11208863  1
  Zr  Zr94  1  0.29392020  0.51111061  0.09705323  1
  Zr  Zr95  1  0.70123424  0.49994366  0.10602739  1
  Zr  Zr96  1  0.18693171  -0.00600320  0.79805227  1
  Zr  Zr97  1  0.49794151  0.68682845  0.88726142  1
  Zr  Zr98  1  0.59500821  0.40003550  0.20431339  1
  Zr  Zr99  1  -0.00298883  0.60726773  0.20405754  1
  Ta  Ta100  1  0.80127320  0.79522527  0.79997833  1
  Ta  Ta101  1  0.20197710  0.19445008  0.39800063  1
  Ta  Ta102  1  0.10615761  0.69937650  0.09875697  1
  Ta  Ta103  1  0.10233593  0.69422394  0.70278059  1
  Ta  Ta104  1  0.56902466  0.19579152  -0.02905993  1
  Ta  Ta105  1  0.50149149  0.09935656  0.29607497  1
  Ta  Ta106  1  0.49633527  0.29803262  0.30454960  1
  Ta  Ta107  1  0.68996940  0.09959478  0.30099286  1
  Ta  Ta108  1  0.10296035  0.90045115  0.10197225  1
  Ta  Ta109  1  0.68854520  0.69244225  0.10123317  1
  Ta  Ta110  1  0.19856783  0.80424375  -0.00128129  1
  Ta  Ta111  1  0.00972977  0.01101547  0.36737294  1
  Ta  Ta112  1  0.91138369  0.30367366  0.49750685  1
  Ta  Ta113  1  0.60043246  0.60058088  -0.00986547  1
  Ta  Ta114  1  0.70229663  0.50650350  0.50551898  1
  Ta  Ta115  1  0.49945533  0.89387844  0.89429289  1
  Ta  Ta116  1  0.30509151  0.30539659  0.70755292  1
  Ta  Ta117  1  0.29886217  0.90035634  0.70766093  1
  Ta  Ta118  1  0.50275176  0.10270105  0.70302673  1
  Ta  Ta119  1  0.90628629  0.69581109  0.69335382  1
  Ta  Ta120  1  0.90635568  0.29892576  0.89267773  1
  Ta  Ta121  1  0.59130821  -0.00088440  0.80087415  1
  Ta  Ta122  1  0.19477024  0.80473222  0.39907975  1
  Ta  Ta123  1  0.09926938  0.50452361  0.68636291  1
  Ta  Ta124  1  0.59617365  0.20170479  0.39756391  1
  Ta  Ta125  1  0.68795877  0.10219909  0.89476118  1
  Ta  Ta126  1  0.39500592  -0.00331530  0.60881647  1
  Ta  Ta127  1  0.49782227  0.69368807  0.09740847  1
  Ta  Ta128  1  0.71141346  0.69909836  0.30298230  1
  Ta  Ta129  1  0.30384580  0.10310887  0.71190693  1
  Ta  Ta130  1  0.69625312  0.89264072  0.49507376  1
  Ta  Ta131  1  0.71128279  0.69535846  0.49639090  1
  Ta  Ta132  1  0.29967685  0.10081748  0.10211158  1
  Ta  Ta133  1  0.39201649  0.79760049  0.79719061  1
  Ta  Ta134  1  0.40019329  -0.00089684  0.19401509  1
  Ta  Ta135  1  0.91264184  0.08936310  0.10155373  1
  Ta  Ta136  1  0.00397662  0.80164173  0.39772761  1
  Ta  Ta137  1  0.01273419  -0.00228491  -0.00441558  1
  Ta  Ta138  1  0.59394297  0.00148185  0.20027499  1
  Ta  Ta139  1  0.40039615  0.60622548  0.20669851  1
  Ta  Ta140  1  0.19886812  0.80106411  0.19795115  1
  Ta  Ta141  1  0.29098456  0.69756905  0.89218631  1
  Ta  Ta142  1  0.90642737  0.30427444  0.70182522  1
  Ta  Ta143  1  0.09221558  0.90760760  0.49042143  1
  Ta  Ta144  1  0.29832567  0.89599735  0.89631177  1
  Ta  Ta145  1  0.29294868  0.69925372  0.29908979  1
  Ta  Ta146  1  0.60335533  0.59470747  0.59763599  1
  Ta  Ta147  1  0.10137221  0.49932741  0.50339740  1
  Ta  Ta148  1  0.79923656  0.00288873  0.19395602  1
  Ta  Ta149  1  0.40150364  0.39863114  -0.00409333  1
  Ti  Ti150  1  0.40028042  0.19328073  0.20015838  1
  Ti  Ti151  1  0.30347103  0.28722452  0.09976681  1
  Ti  Ti152  1  0.60008787  0.78311367  -0.00815651  1
  Ti  Ti153  1  0.20424185  -0.01015474  0.19971196  1
  Ti  Ti154  1  0.90998510  0.48200587  0.10853785  1
  Ti  Ti155  1  0.01055938  0.80217864  0.00305705  1
  Ti  Ti156  1  0.01144839  -0.00281512  0.61758243  1
  Ti  Ti157  1  0.50027777  0.89125292  0.70156150  1
  Ti  Ti158  1  0.49620905  0.10202882  0.09820185  1
  Ti  Ti159  1  0.49138233  0.49488556  0.30455731  1
  Ti  Ti160  1  0.91179721  0.90552586  0.09814206  1
  Ti  Ti161  1  0.29693401  0.49739739  0.50130103  1
  Ti  Ti162  1  0.40155156  0.59792812  -0.00789147  1
  Ti  Ti163  1  0.80658449  0.20081747  0.80223791  1
  Ti  Ti164  1  0.29113303  0.51150021  0.30448544  1
  Ti  Ti165  1  0.60479654  0.79287500  0.80425709  1
  Ti  Ti166  1  0.20121896  -0.01012446  -0.00101564  1
  Ti  Ti167  1  0.01512197  0.80717164  0.79426779  1
  Ti  Ti168  1  0.59647287  0.40520358  0.40173941  1
  Ti  Ti169  1  0.02241456  0.20864290  0.79822141  1
  Ti  Ti170  1  0.10362554  0.70296914  0.89763587  1
  Ti  Ti171  1  0.69643387  0.50234138  0.69982679  1
  Ti  Ti172  1  0.39330652  0.79908385  0.40109836  1
  Ti  Ti173  1  0.90819513  0.89898376  0.70944172  1
  Ti  Ti174  1  0.49071578  0.49366782  0.50662327  1
  Ti  Ti175  1  0.20290319  0.40826356  0.39988273  1
  Ti  Ti176  1  0.20433011  0.60215063  0.60439346  1
  Ti  Ti177  1  0.40031425  0.79883566  0.19509204  1
  Ti  Ti178  1  0.91222625  0.09825549  0.89502241  1
  Ti  Ti179  1  0.19196562  0.60495083  -0.00627185  1
  Ti  Ti180  1  0.58448873  0.39684098  0.80157832  1
  Ti  Ti181  1  0.10256422  0.50109665  0.30532439  1
  Ti  Ti182  1  0.29485067  0.50268257  0.70626801  1
  Ti  Ti183  1  0.40398462  -0.00664461  0.79643410  1
  Ti  Ti184  1  0.91196537  0.90705329  0.48777071  1
  Ti  Ti185  1  0.49859190  0.90442731  0.29968140  1
  Ti  Ti186  1  0.19736887  0.79956222  0.79903274  1
  Ti  Ti187  1  0.30095121  0.10047460  0.51131241  1
  Ti  Ti188  1  0.59210708  0.40588019  0.60839103  1
  Ti  Ti189  1  0.90648508  0.50503353  0.69053152  1
  Ti  Ti190  1  0.09862679  0.09755565  0.89308409  1
  Ti  Ti191  1  0.88688359  0.70483506  0.32083898  1
  Ti  Ti192  1  0.20199050  0.40261938  0.60743495  1
  Ti  Ti193  1  0.09763032  0.49832774  0.90417715  1
  Ti  Ti194  1  0.40362835  0.40298753  0.80234342  1
  Ti  Ti195  1  0.28693443  0.69711368  0.48642721  1
  Ti  Ti196  1  0.58951679  0.60741755  0.21037422  1
  Ti  Ti197  1  0.29840764  0.10186110  0.28737575  1
  Ti  Ti198  1  0.80909312  0.40379326  0.79790494  1
  Ti  Ti199  1  0.11541121  0.69507079  0.30193456  1
  Mo  Mo200  1  0.58941528  0.19530776  0.21027856  1
  Mo  Mo201  1  0.81168372  0.40582138  0.20465641  1
  Mo  Mo202  1  0.89950539  0.49309244  0.89829896  1
  Mo  Mo203  1  0.79275297  0.20289480  0.40263511  1
  Mo  Mo204  1  -0.00036396  0.60302862  0.60421411  1
  Mo  Mo205  1  0.48215299  0.70692825  0.29299732  1
  Mo  Mo206  1  0.38170595  0.60540766  0.79694057  1
  Mo  Mo207  1  0.49496793  0.08021938  0.89545390  1
  Mo  Mo208  1  0.80434541  0.80088882  0.40608518  1
  Mo  Mo209  1  0.10301698  0.89220360  0.90551082  1
  Mo  Mo210  1  0.28874493  0.70118522  0.71156722  1
  Mo  Mo211  1  0.88302967  0.09669887  0.29857843  1
  Mo  Mo212  1  0.19942612  0.60475732  0.20752849  1
  Mo  Mo213  1  0.61160171  0.59554684  0.79547370  1
  Mo  Mo214  1  0.89790851  0.70234809  0.49748859  1
  Mo  Mo215  1  -0.00071072  0.40070164  -0.01149351  1
  Mo  Mo216  1  0.00502119  0.40766484  0.40677767  1
  Mo  Mo217  1  0.91353504  0.71191888  0.08741026  1
  Mo  Mo218  1  0.00071020  0.40418108  0.60216272  1
  Mo  Mo219  1  0.20084920  0.59551924  0.40273340  1
  Mo  Mo220  1  0.00227817  -0.00611949  0.19381147  1
  Mo  Mo221  1  0.39168677  0.40953373  0.61457277  1
  Mo  Mo222  1  0.39623173  0.19539607  0.00533382  1
  Mo  Mo223  1  0.12589285  0.09619872  0.29591599  1
  Mo  Mo224  1  0.79969874  0.59824756  0.60123694  1
  Mo  Mo225  1  0.90015663  0.49434982  0.29866568  1
  Mo  Mo226  1  0.70011471  0.69973089  0.89666931  1
  Mo  Mo227  1  0.10391810  0.30743624  0.69771898  1
  Mo  Mo228  1  0.29903328  0.89665671  0.50004581  1
  Mo  Mo229  1  0.49467753  0.50306721  0.89800742  1
  Mo  Mo230  1  0.49601456  0.31496315  0.89958776  1
  Mo  Mo231  1  0.59408729  0.20564534  0.60427261  1
  Mo  Mo232  1  0.09625495  0.29861218  0.90002295  1
  Mo  Mo233  1  0.29449244  0.90105089  0.09714990  1
  Mo  Mo234  1  0.49971737  0.31093161  0.70256704  1
  Mo  Mo235  1  0.18886573  0.59852147  0.79838685  1
  Mo  Mo236  1  0.00829002  0.19640940  0.40184417  1
  Mo  Mo237  1  0.19631266  0.19762893  0.79820308  1
  Mo  Mo238  1  0.80074096  0.60306051  0.40374761  1
  Mo  Mo239  1  0.39713204  0.41145880  0.39635134  1
  Mo  Mo240  1  0.20933342  0.19824529  0.20213580  1
  Mo  Mo241  1  0.10440738  0.89785310  0.29747956  1
  Mo  Mo242  1  0.59412244  0.19828456  0.79892677  1
  Mo  Mo243  1  0.60627810  0.79646191  0.59536262  1
  Mo  Mo244  1  0.59065430  0.00630610  -0.00644882  1
  Mo  Mo245  1  0.59735126  0.00003583  0.39119192  1
  Mo  Mo246  1  0.10496720  0.10313574  0.70834990  1
  Mo  Mo247  1  0.00598336  -0.00327392  0.80521826  1
  Mo  Mo248  1  0.09949293  0.89537193  0.70121324  1
  Mo  Mo249  1  0.00293863  0.41460888  0.22310910  1
