# generated using pymatgen
data_HfZrTaTiMo
_symmetry_space_group_name_H-M   'P 1'
_cell_length_a   16.89547378
_cell_length_b   16.87918072
_cell_length_c   16.88697399
_cell_angle_alpha   90.02771231
_cell_angle_beta   89.97588482
_cell_angle_gamma   89.94981839
_symmetry_Int_Tables_number   1
_chemical_formula_structural   HfZrTaTiMo
_chemical_formula_sum   'Hf50 Zr50 Ta50 Ti50 Mo50'
_cell_volume   4815.85404624
_cell_formula_units_Z   50
loop_
 _symmetry_equiv_pos_site_id
 _symmetry_equiv_pos_as_xyz
  1  'x, y, z'
loop_
 _atom_site_type_symbol
 _atom_site_label
 _atom_site_symmetry_multiplicity
 _atom_site_fract_x
 _atom_site_fract_y
 _atom_site_fract_z
 _atom_site_occupancy
  Hf  Hf0  1  0.28954545  0.28951412  0.10107592  1
  Hf  Hf1  1  0.09770198  0.89567892  0.90084246  1
  Hf  Hf2  1  0.50676581  0.50363958  0.10449368  1
  Hf  Hf3  1  0.70373711  0.89711070  0.30566907  1
  Hf  Hf4  1  0.69716767  0.29373073  0.29889994  1
  Hf  Hf5  1  0.09951485  0.29990244  0.30173262  1
  Hf  Hf6  1  0.79969224  0.19419575  0.20250345  1
  Hf  Hf7  1  0.80543163  0.79304295  0.19452720  1
  Hf  Hf8  1  0.17395125  0.59713356  0.80159138  1
  Hf  Hf9  1  0.40612461  0.79855065  0.80073528  1
  Hf  Hf10  1  -0.00834392  0.80071442  0.19927788  1
  Hf  Hf11  1  0.29830519  0.90075045  0.89632019  1
  Hf  Hf12  1  0.20285718  -0.00089618  0.39737410  1
  Hf  Hf13  1  0.19049035  0.79333058  0.78722685  1
  Hf  Hf14  1  0.28177493  0.52046155  0.09410463  1
  Hf  Hf15  1  0.29126408  0.29745853  0.89771675  1
  Hf  Hf16  1  0.09698889  0.09426315  0.49832762  1
  Hf  Hf17  1  0.38540865  0.60835912  0.20804041  1
  Hf  Hf18  1  0.59932340  0.24019128  0.02077059  1
  Hf  Hf19  1  0.61124364  0.38939874  0.18232671  1
  Hf  Hf20  1  0.49845116  0.10908200  0.10430916  1
  Hf  Hf21  1  0.39977401  0.00665666  0.00165876  1
  Hf  Hf22  1  0.28848377  0.70517768  0.09156838  1
  Hf  Hf23  1  0.80173071  0.79517990  0.40307438  1
  Hf  Hf24  1  0.89171143  0.49584677  0.90733477  1
  Hf  Hf25  1  0.29114280  0.50585859  0.30941653  1
  Hf  Hf26  1  0.10066787  0.28816705  0.09769744  1
  Hf  Hf27  1  0.49758767  0.68859714  0.69718472  1
  Hf  Hf28  1  0.20555795  0.00372225  0.00340821  1
  Hf  Hf29  1  0.90302562  0.30364174  0.10115257  1
  Hf  Hf30  1  0.20014798  0.79929073  0.21200878  1
  Hf  Hf31  1  0.10678036  0.69652166  0.09252110  1
  Hf  Hf32  1  0.10419524  0.09884507  0.10489007  1
  Hf  Hf33  1  0.80463847  0.59803320  0.79040933  1
  Hf  Hf34  1  0.79930491  0.00274702  0.60132654  1
  Hf  Hf35  1  0.60322829  0.00913941  0.79732169  1
  Hf  Hf36  1  0.30743057  0.90570495  0.69728674  1
  Hf  Hf37  1  0.10395266  0.89894024  0.10143846  1
  Hf  Hf38  1  0.60297824  0.79670219  -0.00320680  1
  Hf  Hf39  1  -0.00172945  0.40127559  0.79700849  1
  Hf  Hf40  1  0.60626297  0.01185765  0.20484767  1
  Hf  Hf41  1  0.49609259  0.29315086  0.29720272  1
  Hf  Hf42  1  0.40432959  0.80589355  -0.00169890  1
  Hf  Hf43  1  0.09900629  0.10141103  0.89768024  1
  Hf  Hf44  1  0.09177525  0.49259561  0.49647519  1
  Hf  Hf45  1  -0.00339512  0.79332699  0.60592229  1
  Hf  Hf46  1  0.90667850  0.30636236  0.30716828  1
  Hf  Hf47  1  0.50818046  0.50018491  0.29917607  1
  Hf  Hf48  1  0.01454974  0.59525165  -0.01653331  1
  Hf  Hf49  1  0.40733464  0.40558656  0.80844359  1
  Zr  Zr50  1  0.71622709  0.50551553  0.09148536  1
  Zr  Zr51  1  0.50666613  0.69964677  0.30130136  1
  Zr  Zr52  1  0.90591226  0.09665528  0.50363561  1
  Zr  Zr53  1  0.30621237  0.09621303  0.50456182  1
  Zr  Zr54  1  0.60195789  0.39827633  0.40154322  1
  Zr  Zr55  1  0.40636123  0.59319362  -0.01409628  1
  Zr  Zr56  1  0.90343066  0.50102686  0.09860075  1
  Zr  Zr57  1  0.40614911  0.79447654  0.59435180  1
  Zr  Zr58  1  0.59818565  0.38948120  0.59615561  1
  Zr  Zr59  1  0.50632423  0.90860107  0.69213373  1
  Zr  Zr60  1  0.68741747  0.30165888  0.88591672  1
  Zr  Zr61  1  0.40117002  0.20604930  0.60127618  1
  Zr  Zr62  1  0.80715993  0.00238256  -0.00507932  1
  Zr  Zr63  1  0.50707864  0.11894195  0.90112732  1
  Zr  Zr64  1  0.79910506  0.19108975  0.40143198  1
  Zr  Zr65  1  0.80116523  0.60561486  0.59820187  1
  Zr  Zr66  1  0.69663096  0.10864724  0.09476905  1
  Zr  Zr67  1  0.80206238  0.78962234  0.78830406  1
  Zr  Zr68  1  0.39395761  0.80599137  0.20483439  1
  Zr  Zr69  1  0.29653306  0.69741807  0.51174810  1
  Zr  Zr70  1  0.20570377  0.80285521  0.40218739  1
  Zr  Zr71  1  0.18516655  0.41317142  -0.00318114  1
  Zr  Zr72  1  0.80860144  0.39075548  0.79251652  1
  Zr  Zr73  1  0.69895249  0.90283657  0.69857939  1
  Zr  Zr74  1  0.20083986  0.39170143  0.40452333  1
  Zr  Zr75  1  -0.01250676  0.20641524  0.80374405  1
  Zr  Zr76  1  0.30166626  0.49870999  0.51087260  1
  Zr  Zr77  1  0.29681103  0.11225084  0.88968396  1
  Zr  Zr78  1  0.40355421  0.60833513  0.40766412  1
  Zr  Zr79  1  0.81058816  -0.00313443  0.20468290  1
  Zr  Zr80  1  0.69476871  0.90329253  0.50685579  1
  Zr  Zr81  1  -0.00238027  0.18970499  0.20802273  1
  Zr  Zr82  1  0.29860307  0.29873908  0.70921395  1
  Zr  Zr83  1  0.69665722  0.10936318  0.90150319  1
  Zr  Zr84  1  0.89922248  0.89692719  0.89456521  1
  Zr  Zr85  1  0.69879289  0.48749726  0.69543177  1
  Zr  Zr86  1  0.18420359  0.59606844  0.61133887  1
  Zr  Zr87  1  0.40962576  0.39939535  -0.00305414  1
  Zr  Zr88  1  0.60621587  0.60275043  -0.00236960  1
  Zr  Zr89  1  0.28900833  0.69746781  0.90053659  1
  Zr  Zr90  1  0.70374803  0.90160110  0.08871804  1
  Zr  Zr91  1  0.61068726  0.79617146  0.19875777  1
  Zr  Zr92  1  0.09646855  0.09967570  0.70303775  1
  Zr  Zr93  1  0.50046087  0.69792891  0.10444366  1
  Zr  Zr94  1  0.79404047  0.59909581  0.39390467  1
  Zr  Zr95  1  0.19676757  -0.00849846  0.60085247  1
  Zr  Zr96  1  0.60244065  0.01031748  0.39834642  1
  Zr  Zr97  1  0.49805546  0.90584884  0.30042963  1
  Zr  Zr98  1  0.18908295  0.41180917  0.20077712  1
  Zr  Zr99  1  0.38838312  0.40618851  0.20417470  1
  Ta  Ta100  1  0.59817840  0.79080253  0.41170564  1
  Ta  Ta101  1  -0.00029297  0.59830372  0.39963200  1
  Ta  Ta102  1  0.30532040  0.68616952  0.70399474  1
  Ta  Ta103  1  0.69845095  0.49618437  0.89807315  1
  Ta  Ta104  1  0.90460987  0.49981790  0.30241333  1
  Ta  Ta105  1  0.60443678  0.59768132  0.79724594  1
  Ta  Ta106  1  0.90008620  0.09830341  0.70394773  1
  Ta  Ta107  1  0.70804881  0.69810723  0.89992943  1
  Ta  Ta108  1  -0.00404102  0.00044633  -0.00119551  1
  Ta  Ta109  1  0.49957723  0.50255615  0.50607015  1
  Ta  Ta110  1  0.79955487  0.40655478  0.20886904  1
  Ta  Ta111  1  0.79894082  0.40147949  0.40034073  1
  Ta  Ta112  1  0.40182357  0.80344270  0.40370758  1
  Ta  Ta113  1  0.59870449  0.19585642  0.40372776  1
  Ta  Ta114  1  0.70199581  0.49645102  0.50031659  1
  Ta  Ta115  1  0.00613762  0.19707174  0.40203849  1
  Ta  Ta116  1  0.08784113  0.89475494  0.49394684  1
  Ta  Ta117  1  0.00692662  0.59874596  0.20337807  1
  Ta  Ta118  1  0.60305244  0.79196184  0.79950853  1
  Ta  Ta119  1  0.90278029  0.90433792  0.70040305  1
  Ta  Ta120  1  0.50180000  0.90873328  0.50505325  1
  Ta  Ta121  1  0.50354454  0.91224428  0.09773861  1
  Ta  Ta122  1  0.89631622  0.29621028  0.68276702  1
  Ta  Ta123  1  0.18997061  0.60624228  0.39859609  1
  Ta  Ta124  1  0.20094463  0.19659878  0.39975685  1
  Ta  Ta125  1  0.60873371  0.60323527  0.40571474  1
  Ta  Ta126  1  0.39987194  0.39450197  0.40520161  1
  Ta  Ta127  1  0.09223023  0.70218057  0.49837014  1
  Ta  Ta128  1  0.30170633  0.10468196  0.70457889  1
  Ta  Ta129  1  0.28972719  0.50478602  0.89108915  1
  Ta  Ta130  1  -0.00681704  0.59617791  0.60354489  1
  Ta  Ta131  1  0.90683865  0.90008359  0.49501523  1
  Ta  Ta132  1  0.49958684  0.50039176  0.69937870  1
  Ta  Ta133  1  -0.00104286  0.78602355  0.79618914  1
  Ta  Ta134  1  0.19416966  0.39579055  0.60804857  1
  Ta  Ta135  1  0.50589073  0.29848338  0.71156211  1
  Ta  Ta136  1  0.89967242  0.49082916  0.49893875  1
  Ta  Ta137  1  0.90552197  0.30343803  0.49994348  1
  Ta  Ta138  1  0.09037766  0.90560842  0.30355191  1
  Ta  Ta139  1  0.49910789  0.09745592  0.50484487  1
  Ta  Ta140  1  0.90511457  0.09949675  0.09465521  1
  Ta  Ta141  1  0.69925515  0.89656375  0.89706047  1
  Ta  Ta142  1  0.19608067  0.20655529  0.59768118  1
  Ta  Ta143  1  0.10467660  0.29244994  0.89877294  1
  Ta  Ta144  1  0.90310799  0.69440798  0.29918586  1
  Ta  Ta145  1  -0.00601069  0.59839782  0.78748209  1
  Ta  Ta146  1  0.63222036  0.60393584  0.20896608  1
  Ta  Ta147  1  0.50883192  0.90720077  0.89959850  1
  Ta  Ta148  1  0.60324941  0.60185833  0.59416522  1
  Ta  Ta149  1  0.80381017  0.79346655  0.59735492  1
  Ti  Ti150  1  0.29932088  0.29916456  0.50250143  1
  Ti  Ti151  1  0.18873584  0.40633044  0.79298423  1
  Ti  Ti152  1  0.10704147  0.09205823  0.29557365  1
  Ti  Ti153  1  0.39861349  0.20652686  -0.00187778  1
  Ti  Ti154  1  0.00523669  0.39752380  -0.00414658  1
  Ti  Ti155  1  0.39539830  0.19874334  0.39980026  1
  Ti  Ti156  1  0.49601999  0.29610103  0.49752082  1
  Ti  Ti157  1  0.00591985  0.41091083  0.20159148  1
  Ti  Ti158  1  0.29232915  0.11106513  0.11493602  1
  Ti  Ti159  1  0.08871200  0.90291261  0.70451423  1
  Ti  Ti160  1  0.09396617  0.29909139  0.50068909  1
  Ti  Ti161  1  0.49258132  0.11030444  0.29723633  1
  Ti  Ti162  1  0.30643599  0.50490446  0.70447986  1
  Ti  Ti163  1  0.50353440  0.69419193  0.89154156  1
  Ti  Ti164  1  0.89778101  0.69832359  0.90392344  1
  Ti  Ti165  1  0.09903724  0.29637657  0.69992958  1
  Ti  Ti166  1  0.40064554  0.00215498  0.39929547  1
  Ti  Ti167  1  0.29767147  0.90362507  0.10398933  1
  Ti  Ti168  1  0.30971061  0.90376161  0.50490180  1
  Ti  Ti169  1  0.47919094  0.29469247  0.11851660  1
  Ti  Ti170  1  0.49648955  0.10603823  0.69709422  1
  Ti  Ti171  1  0.80826293  0.20621798  -0.00627923  1
  Ti  Ti172  1  0.80774146  0.20065179  0.80336689  1
  Ti  Ti173  1  -0.00853090  0.19720143  -0.00708884  1
  Ti  Ti174  1  -0.00903006  0.80011157  0.00382804  1
  Ti  Ti175  1  0.39238219  0.00918080  0.20097576  1
  Ti  Ti176  1  0.59909903  0.19886269  0.59890314  1
  Ti  Ti177  1  0.70166794  0.11085216  0.70031437  1
  Ti  Ti178  1  0.78980396  0.38476020  -0.00074267  1
  Ti  Ti179  1  -0.00642513  -0.00865466  0.19843577  1
  Ti  Ti180  1  0.40084870  0.39855010  0.60217751  1
  Ti  Ti181  1  0.89366837  0.68730953  0.09208673  1
  Ti  Ti182  1  0.09299168  0.70307535  0.30633365  1
  Ti  Ti183  1  0.70815630  0.29790037  0.50333330  1
  Ti  Ti184  1  0.29914770  0.28619543  0.29391913  1
  Ti  Ti185  1  0.40611766  0.00786881  0.80014654  1
  Ti  Ti186  1  0.29996969  0.91105222  0.29776159  1
  Ti  Ti187  1  0.90745070  0.69837397  0.49381325  1
  Ti  Ti188  1  -0.00052949  0.40090414  0.60621153  1
  Ti  Ti189  1  0.70127630  0.29283337  0.69664850  1
  Ti  Ti190  1  0.80352382  0.00856455  0.80128833  1
  Ti  Ti191  1  0.80399773  -0.00077130  0.39933896  1
  Ti  Ti192  1  0.91053280  0.08756730  0.30873032  1
  Ti  Ti193  1  0.60708444  0.78455837  0.59783913  1
  Ti  Ti194  1  0.00175287  0.20090025  0.59920306  1
  Ti  Ti195  1  0.19338345  0.80012419  0.60391678  1
  Ti  Ti196  1  0.19741240  -0.00064083  0.79559263  1
  Ti  Ti197  1  0.69500245  0.10188528  0.50528816  1
  Ti  Ti198  1  0.80115078  0.19798748  0.59862300  1
  Ti  Ti199  1  -0.00230132  -0.00499313  0.60305933  1
  Mo  Mo200  1  0.60253998  0.20127038  0.78169559  1
  Mo  Mo201  1  0.19964073  0.19188541  0.21172580  1
  Mo  Mo202  1  0.40460524  0.59043760  0.60573281  1
  Mo  Mo203  1  0.70668511  0.70070486  0.30540206  1
  Mo  Mo204  1  -0.00324593  0.79690394  0.39940324  1
  Mo  Mo205  1  0.79997723  0.38921198  0.59027091  1
  Mo  Mo206  1  0.59527792  0.20096918  0.20725741  1
  Mo  Mo207  1  0.89991977  0.10234836  0.89935927  1
  Mo  Mo208  1  0.49831738  0.30170180  0.89404931  1
  Mo  Mo209  1  0.81128069  0.60064557  0.20248096  1
  Mo  Mo210  1  0.09447418  0.50711776  0.10575395  1
  Mo  Mo211  1  0.50569233  0.69887454  0.50236501  1
  Mo  Mo212  1  0.90032272  0.69749275  0.69523615  1
  Mo  Mo213  1  -0.00533733  -0.00505187  0.79940652  1
  Mo  Mo214  1  0.70459024  0.49712121  0.30110209  1
  Mo  Mo215  1  0.90431836  0.89729409  0.30685912  1
  Mo  Mo216  1  0.19661153  0.19836890  -0.00002357  1
  Mo  Mo217  1  0.09361780  0.69914028  0.69419024  1
  Mo  Mo218  1  0.19128202  0.60234075  -0.01804888  1
  Mo  Mo219  1  0.09115008  0.49132211  0.69493565  1
  Mo  Mo220  1  0.08878509  0.71150275  0.89934043  1
  Mo  Mo221  1  0.69435430  0.69828736  0.69962129  1
  Mo  Mo222  1  0.90187848  0.49352167  0.68703113  1
  Mo  Mo223  1  0.18886939  0.60919476  0.22025593  1
  Mo  Mo224  1  0.70286125  0.10151077  0.30775201  1
  Mo  Mo225  1  0.00204173  -0.00250013  0.39493961  1
  Mo  Mo226  1  -0.00367608  0.39918102  0.40393691  1
  Mo  Mo227  1  0.90796897  0.90184312  0.09469186  1
  Mo  Mo228  1  0.29378262  0.70466505  0.31027268  1
  Mo  Mo229  1  0.60050056  0.40698022  -0.00523755  1
  Mo  Mo230  1  0.69913083  0.69971541  0.50318166  1
  Mo  Mo231  1  0.19183499  0.20347539  0.79220152  1
  Mo  Mo232  1  0.59677612  -0.00748255  -0.00437458  1
  Mo  Mo233  1  0.09373405  0.50615613  0.30351923  1
  Mo  Mo234  1  0.60053210  0.02171079  0.60053496  1
  Mo  Mo235  1  0.71888151  0.30259298  0.10495228  1
  Mo  Mo236  1  0.09252082  0.48847832  0.88962781  1
  Mo  Mo237  1  0.71909225  0.69829290  0.09163453  1
  Mo  Mo238  1  0.80599164  0.60492740  -0.01073429  1
  Mo  Mo239  1  0.20554312  -0.00344236  0.20541262  1
  Mo  Mo240  1  0.90151150  0.30008833  0.91068642  1
  Mo  Mo241  1  0.40542104  0.00422581  0.60224672  1
  Mo  Mo242  1  0.40746310  0.20266893  0.80001965  1
  Mo  Mo243  1  0.80361345  0.79249348  -0.00255072  1
  Mo  Mo244  1  0.39208435  0.19507637  0.20527649  1
  Mo  Mo245  1  0.51719626  0.49579931  0.89344776  1
  Mo  Mo246  1  0.19982040  0.80727838  0.00123847  1
  Mo  Mo247  1  0.59828032  0.40173370  0.79647324  1
  Mo  Mo248  1  0.30391643  0.10098144  0.30271093  1
  Mo  Mo249  1  0.40421253  0.59362710  0.79884498  1
