# generated using pymatgen
data_HfZrTaTiMo
_symmetry_space_group_name_H-M   'P 1'
_cell_length_a   16.88947394
_cell_length_b   16.88035396
_cell_length_c   16.88202846
_cell_angle_alpha   90.04673631
_cell_angle_beta   89.96790473
_cell_angle_gamma   90.07598855
_symmetry_Int_Tables_number   1
_chemical_formula_structural   HfZrTaTiMo
_chemical_formula_sum   'Hf50 Zr50 Ta50 Ti50 Mo50'
_cell_volume   4813.06476557
_cell_formula_units_Z   50
loop_
 _symmetry_equiv_pos_site_id
 _symmetry_equiv_pos_as_xyz
  1  'x, y, z'
loop_
 _atom_site_type_symbol
 _atom_site_label
 _atom_site_symmetry_multiplicity
 _atom_site_fract_x
 _atom_site_fract_y
 _atom_site_fract_z
 _atom_site_occupancy
  Hf  Hf0  1  -0.00773279  0.39990014  0.80670832  1
  Hf  Hf1  1  0.70816224  0.10269762  0.09639610  1
  Hf  Hf2  1  0.29280923  0.90137808  0.70084115  1
  Hf  Hf3  1  0.79816891  -0.00088244  0.80607313  1
  Hf  Hf4  1  0.49794012  0.09609717  0.09100295  1
  Hf  Hf5  1  0.91347150  0.89336248  0.90925821  1
  Hf  Hf6  1  0.09059943  0.49581292  0.10191388  1
  Hf  Hf7  1  0.39849272  0.79498145  0.60151797  1
  Hf  Hf8  1  0.19110240  0.60967405  0.00190708  1
  Hf  Hf9  1  0.59981489  0.80259391  0.20138420  1
  Hf  Hf10  1  0.39397102  0.20633318  0.40045558  1
  Hf  Hf11  1  0.30092144  0.51320342  0.10941263  1
  Hf  Hf12  1  0.49779188  0.91151344  0.69935588  1
  Hf  Hf13  1  0.00295363  0.20893745  0.01020760  1
  Hf  Hf14  1  0.29572349  0.09593436  0.29464726  1
  Hf  Hf15  1  0.50190041  0.30787708  0.69899432  1
  Hf  Hf16  1  0.21246528  0.00916826  0.00299279  1
  Hf  Hf17  1  0.48980757  0.09108296  0.50804771  1
  Hf  Hf18  1  -0.00361895  0.00340247  0.59291321  1
  Hf  Hf19  1  0.08502302  0.50280923  0.68890689  1
  Hf  Hf20  1  0.81295689  -0.00725020  0.40308508  1
  Hf  Hf21  1  0.19367497  0.20820111  0.59930787  1
  Hf  Hf22  1  0.10301550  0.88519566  0.89757713  1
  Hf  Hf23  1  -0.00899811  -0.00265141  0.39606964  1
  Hf  Hf24  1  0.19373736  0.59984595  0.79961618  1
  Hf  Hf25  1  0.18899794  0.40173299  0.79458345  1
  Hf  Hf26  1  0.89630168  0.51096185  0.70427566  1
  Hf  Hf27  1  0.79870795  0.21118643  0.60676965  1
  Hf  Hf28  1  0.70407037  0.11257598  0.50199367  1
  Hf  Hf29  1  0.19324162  0.78750732  0.40023536  1
  Hf  Hf30  1  0.39665547  0.39487748  0.39793188  1
  Hf  Hf31  1  0.79450422  0.41316227  0.40442607  1
  Hf  Hf32  1  0.90309484  0.49685275  0.29655150  1
  Hf  Hf33  1  0.89912513  0.10142498  0.70291110  1
  Hf  Hf34  1  0.60117562  0.80564284  -0.00332551  1
  Hf  Hf35  1  0.30176437  0.90313488  0.49718331  1
  Hf  Hf36  1  0.90842364  0.89090353  0.09428188  1
  Hf  Hf37  1  0.80429034  -0.00916407  0.59185737  1
  Hf  Hf38  1  0.71339193  0.90147232  0.09722282  1
  Hf  Hf39  1  0.79598405  0.21179128  0.80530768  1
  Hf  Hf40  1  0.48542859  0.08127804  0.30223522  1
  Hf  Hf41  1  0.19813178  0.40285556  0.40104999  1
  Hf  Hf42  1  0.80875905  0.79639067  0.20891185  1
  Hf  Hf43  1  0.89748819  0.09655480  0.09577553  1
  Hf  Hf44  1  0.70944476  0.49177080  0.09904786  1
  Hf  Hf45  1  0.90199530  0.30619217  0.49787763  1
  Hf  Hf46  1  0.19306173  0.00724128  0.60020339  1
  Hf  Hf47  1  0.80931534  0.80000966  0.40408887  1
  Hf  Hf48  1  0.90043712  0.30347856  0.30333675  1
  Hf  Hf49  1  0.60034316  0.19742008  0.20178300  1
  Zr  Zr50  1  0.09668615  0.88949845  0.09116661  1
  Zr  Zr51  1  0.70574213  0.89285456  0.70145577  1
  Zr  Zr52  1  0.39951634  0.20407199  0.20324005  1
  Zr  Zr53  1  0.70814173  0.29915977  0.30878705  1
  Zr  Zr54  1  0.71382683  0.09930302  0.30196634  1
  Zr  Zr55  1  0.09533908  0.89007377  0.29229199  1
  Zr  Zr56  1  0.60361119  0.80031886  0.39516850  1
  Zr  Zr57  1  0.61113808  0.40286483  0.21074383  1
  Zr  Zr58  1  0.40195201  0.79760802  0.80065244  1
  Zr  Zr59  1  0.39842585  0.81364056  0.00987519  1
  Zr  Zr60  1  0.30277080  0.89683740  0.29706705  1
  Zr  Zr61  1  0.29456353  0.11240646  0.70454929  1
  Zr  Zr62  1  0.39357689  0.19344628  -0.00565387  1
  Zr  Zr63  1  0.60477668  -0.01362041  0.40450078  1
  Zr  Zr64  1  0.51142177  0.31351367  0.89590546  1
  Zr  Zr65  1  -0.00401826  0.20789223  0.79804380  1
  Zr  Zr66  1  0.91249873  0.88528356  0.70570724  1
  Zr  Zr67  1  0.60561411  -0.00301652  0.59692064  1
  Zr  Zr68  1  0.51234503  0.70218635  0.70768339  1
  Zr  Zr69  1  0.39808659  0.01572163  0.80614529  1
  Zr  Zr70  1  0.60060745  0.59649269  0.60175012  1
  Zr  Zr71  1  0.59692491  -0.00868977  0.19758586  1
  Zr  Zr72  1  0.49652920  0.69302134  0.48980737  1
  Zr  Zr73  1  0.30098328  0.49950952  0.50725407  1
  Zr  Zr74  1  0.30021352  0.50001086  0.89453827  1
  Zr  Zr75  1  0.60776667  0.80569826  0.58526067  1
  Zr  Zr76  1  0.40206229  0.40382088  -0.00303246  1
  Zr  Zr77  1  0.40002147  0.20366662  0.60118656  1
  Zr  Zr78  1  0.59766931  0.59445404  -0.01260030  1
  Zr  Zr79  1  0.39929423  0.57774469  0.37794141  1
  Zr  Zr80  1  0.39796520  0.40866681  0.21594623  1
  Zr  Zr81  1  0.30348574  0.69710726  0.28564535  1
  Zr  Zr82  1  0.71099978  0.69464907  0.70639272  1
  Zr  Zr83  1  0.29490887  0.29572744  0.10822094  1
  Zr  Zr84  1  0.10000909  0.89582300  0.70944014  1
  Zr  Zr85  1  0.59266901  0.19665524  0.40281245  1
  Zr  Zr86  1  0.50268933  0.49869478  0.09887529  1
  Zr  Zr87  1  0.71051151  0.69744210  0.09209665  1
  Zr  Zr88  1  0.30583500  0.69530383  0.49204314  1
  Zr  Zr89  1  0.09347446  0.30017442  0.30141130  1
  Zr  Zr90  1  0.49051732  0.69916949  0.10722777  1
  Zr  Zr91  1  0.19189299  0.39736856  0.00550221  1
  Zr  Zr92  1  0.09686550  0.89216657  0.50255530  1
  Zr  Zr93  1  0.10270406  0.10271276  0.29858135  1
  Zr  Zr94  1  0.60416267  0.59878106  0.20974660  1
  Zr  Zr95  1  0.29554538  0.29661886  0.88595825  1
  Zr  Zr96  1  0.89978866  0.69856812  0.90240583  1
  Zr  Zr97  1  0.29305616  0.89947067  0.89836352  1
  Zr  Zr98  1  0.08584717  0.70534668  0.70363097  1
  Zr  Zr99  1  0.90096442  0.69655017  0.09375527  1
  Ta  Ta100  1  0.30193686  0.49739845  0.69813851  1
  Ta  Ta101  1  0.71196957  0.89974014  0.29880695  1
  Ta  Ta102  1  0.79744279  0.39594964  -0.00899923  1
  Ta  Ta103  1  0.20419459  0.20880444  0.40262538  1
  Ta  Ta104  1  0.19820170  0.19723391  0.00333976  1
  Ta  Ta105  1  0.90240664  0.10398423  0.90577729  1
  Ta  Ta106  1  0.80563893  0.59851983  0.59307897  1
  Ta  Ta107  1  0.09833907  0.11037533  0.49389188  1
  Ta  Ta108  1  0.20004755  -0.00054250  0.18916964  1
  Ta  Ta109  1  0.50752887  0.30614985  0.30640882  1
  Ta  Ta110  1  0.08870764  0.30752190  0.50054327  1
  Ta  Ta111  1  -0.00091557  0.60056884  0.19760117  1
  Ta  Ta112  1  0.79791732  0.39825371  0.80214340  1
  Ta  Ta113  1  0.19582057  0.39745851  0.20664702  1
  Ta  Ta114  1  0.39868192  0.60585138  -0.00910369  1
  Ta  Ta115  1  0.08870671  0.49767734  0.30014900  1
  Ta  Ta116  1  0.29695029  0.09526255  0.49562524  1
  Ta  Ta117  1  0.69389414  0.30529948  0.50605846  1
  Ta  Ta118  1  0.70955005  0.69111334  0.49464228  1
  Ta  Ta119  1  0.90645095  0.69190414  0.30453775  1
  Ta  Ta120  1  0.70342599  0.50090429  0.70680170  1
  Ta  Ta121  1  0.51156141  0.30278808  0.09783244  1
  Ta  Ta122  1  -0.00357202  0.19867876  0.19643018  1
  Ta  Ta123  1  0.10231606  0.10985006  0.89794386  1
  Ta  Ta124  1  0.19695424  0.78694126  0.59925306  1
  Ta  Ta125  1  0.80045677  -0.00104010  -0.01025354  1
  Ta  Ta126  1  0.89777617  0.49493871  0.09459826  1
  Ta  Ta127  1  0.40225715  0.59618238  0.61207944  1
  Ta  Ta128  1  0.18629520  0.59625418  0.39906838  1
  Ta  Ta129  1  0.60501834  0.20091878  0.79999729  1
  Ta  Ta130  1  0.69701106  0.10570907  0.69920393  1
  Ta  Ta131  1  -0.00218455  0.00125854  0.20066369  1
  Ta  Ta132  1  0.09742945  0.29952950  0.90468590  1
  Ta  Ta133  1  0.29398446  0.70464498  0.89875709  1
  Ta  Ta134  1  0.80945268  0.20291421  0.19861697  1
  Ta  Ta135  1  0.60617385  0.00055565  -0.00590086  1
  Ta  Ta136  1  0.19404453  0.60121671  0.59478612  1
  Ta  Ta137  1  0.19131520  0.40316488  0.59863174  1
  Ta  Ta138  1  0.40306366  0.59772091  0.80113127  1
  Ta  Ta139  1  0.50210442  0.49230928  0.50257675  1
  Ta  Ta140  1  0.79708229  0.40798074  0.60234818  1
  Ta  Ta141  1  0.50790520  0.30941707  0.50632823  1
  Ta  Ta142  1  0.50082142  0.91272989  0.90294922  1
  Ta  Ta143  1  0.70579687  0.29875236  0.09350352  1
  Ta  Ta144  1  0.50827769  0.10422733  0.90057766  1
  Ta  Ta145  1  0.49167424  0.70076689  0.29842051  1
  Ta  Ta146  1  0.30324118  0.31357205  0.69974540  1
  Ta  Ta147  1  0.80028814  0.79946150  0.81192871  1
  Ta  Ta148  1  0.60666009  0.00699974  0.80546147  1
  Ta  Ta149  1  0.60684452  0.58952783  0.39581645  1
  Ti  Ti150  1  0.10476918  0.10585321  0.10519382  1
  Ti  Ti151  1  0.49836008  0.49128563  0.70659628  1
  Ti  Ti152  1  0.48046901  0.90322639  0.49242114  1
  Ti  Ti153  1  0.40618166  0.20193252  0.80076611  1
  Ti  Ti154  1  0.60461325  0.40620206  0.60236902  1
  Ti  Ti155  1  0.49844979  0.70202744  0.89816324  1
  Ti  Ti156  1  0.70275905  0.69875459  0.89493593  1
  Ti  Ti157  1  0.89743456  0.30011319  0.91145922  1
  Ti  Ti158  1  0.89751307  0.49977208  0.90432489  1
  Ti  Ti159  1  0.19803263  0.79549066  0.18825246  1
  Ti  Ti160  1  0.48290202  0.89296564  0.29832696  1
  Ti  Ti161  1  0.09659759  0.10769254  0.70528356  1
  Ti  Ti162  1  -0.00308744  0.61117777  0.58631167  1
  Ti  Ti163  1  0.29931817  0.30601851  0.51029277  1
  Ti  Ti164  1  0.89154703  0.30747607  0.09781854  1
  Ti  Ti165  1  0.60739413  0.20580881  -0.00475538  1
  Ti  Ti166  1  0.19454775  0.00119197  0.39935582  1
  Ti  Ti167  1  0.60536899  0.81092082  0.81076424  1
  Ti  Ti168  1  0.69093345  0.30816643  0.70176964  1
  Ti  Ti169  1  0.90380999  0.31343812  0.69125430  1
  Ti  Ti170  1  0.29537013  0.69553133  0.70370840  1
  Ti  Ti171  1  0.89874031  0.69666715  0.70658460  1
  Ti  Ti172  1  0.18941975  0.59894599  0.20432404  1
  Ti  Ti173  1  -0.00306469  0.19714890  0.39678554  1
  Ti  Ti174  1  0.09324842  0.30460677  0.69527466  1
  Ti  Ti175  1  0.89785687  0.11505456  0.49551581  1
  Ti  Ti176  1  0.08999222  0.49634069  0.90672947  1
  Ti  Ti177  1  0.00074268  0.20224951  0.59907727  1
  Ti  Ti178  1  0.80144699  0.59349874  0.20740109  1
  Ti  Ti179  1  0.00041902  0.60114554  0.81243579  1
  Ti  Ti180  1  0.08994558  0.69862220  0.29403986  1
  Ti  Ti181  1  0.70961474  0.69226965  0.30801405  1
  Ti  Ti182  1  0.00354349  0.59965149  0.40395558  1
  Ti  Ti183  1  0.90914982  0.49952291  0.50167385  1
  Ti  Ti184  1  0.69180901  0.48512235  0.89340496  1
  Ti  Ti185  1  0.69831664  0.50295009  0.50258146  1
  Ti  Ti186  1  0.79449753  0.58963567  -0.01384116  1
  Ti  Ti187  1  0.00355631  0.00585625  0.80651837  1
  Ti  Ti188  1  -0.00565414  0.79135605  0.40747019  1
  Ti  Ti189  1  0.39124036  -0.01669181  0.17075126  1
  Ti  Ti190  1  0.30022970  0.70266139  0.10086987  1
  Ti  Ti191  1  -0.00147322  0.39170849  0.18946719  1
  Ti  Ti192  1  0.00953393  0.01065966  -0.00117603  1
  Ti  Ti193  1  0.59686399  0.59025339  0.80526554  1
  Ti  Ti194  1  0.19762901  0.01574845  0.80661184  1
  Ti  Ti195  1  0.50739370  0.10417101  0.69798978  1
  Ti  Ti196  1  0.70427273  0.10795262  0.90373049  1
  Ti  Ti197  1  0.00391382  0.60086175  0.00081685  1
  Ti  Ti198  1  0.81638705  0.79160084  0.59031700  1
  Ti  Ti199  1  0.81814152  -0.00254890  0.21042174  1
  Mo  Mo200  1  0.39388605  -0.00157075  0.40255155  1
  Mo  Mo201  1  0.60276461  0.20661621  0.60706042  1
  Mo  Mo202  1  0.29201000  0.29749311  0.30296433  1
  Mo  Mo203  1  0.40439786  0.00373867  -0.00185230  1
  Mo  Mo204  1  -0.00013798  0.78960745  0.20320398  1
  Mo  Mo205  1  0.40104504  0.80292602  0.19779847  1
  Mo  Mo206  1  0.71085026  0.50477045  0.30321831  1
  Mo  Mo207  1  0.09647682  0.69456984  0.49955331  1
  Mo  Mo208  1  0.90864182  0.88608698  0.50382568  1
  Mo  Mo209  1  0.40231285  0.40693581  0.79283008  1
  Mo  Mo210  1  -0.01046490  0.39948338  -0.00125142  1
  Mo  Mo211  1  0.29160239  0.89406617  0.10010747  1
  Mo  Mo212  1  0.60585899  0.40314174  0.79513277  1
  Mo  Mo213  1  0.39472054  0.00202932  0.60040795  1
  Mo  Mo214  1  0.80202508  0.59841795  0.40365267  1
  Mo  Mo215  1  0.20171208  0.78803317  0.79719080  1
  Mo  Mo216  1  0.70125926  0.30044833  0.90027445  1
  Mo  Mo217  1  0.50065273  0.50523616  0.89243549  1
  Mo  Mo218  1  0.60152839  0.40478047  0.40924632  1
  Mo  Mo219  1  0.50571243  0.90558412  0.09565566  1
  Mo  Mo220  1  0.90222014  0.68970860  0.49551968  1
  Mo  Mo221  1  0.01747757  0.77802672  0.00218813  1
  Mo  Mo222  1  0.60772160  0.39517891  -0.00208250  1
  Mo  Mo223  1  0.79437675  0.59466295  0.80732263  1
  Mo  Mo224  1  0.51558953  0.49715507  0.30693658  1
  Mo  Mo225  1  0.29562904  0.10887336  0.89808078  1
  Mo  Mo226  1  0.00094373  0.41022680  0.40660258  1
  Mo  Mo227  1  0.69794140  0.90163171  0.89961911  1
  Mo  Mo228  1  0.71384507  0.88719237  0.49829085  1
  Mo  Mo229  1  0.20471660  0.79168786  0.00315000  1
  Mo  Mo230  1  -0.00500710  0.40225417  0.60020860  1
  Mo  Mo231  1  -0.00593065  0.78865912  0.59429138  1
  Mo  Mo232  1  0.39965077  0.60070270  0.19628789  1
  Mo  Mo233  1  0.19442230  0.19874443  0.19823236  1
  Mo  Mo234  1  0.80378386  0.20226868  0.00035103  1
  Mo  Mo235  1  0.90472583  0.10605684  0.29447945  1
  Mo  Mo236  1  0.09860143  0.69536727  0.10745845  1
  Mo  Mo237  1  0.40119058  0.40407494  0.60034750  1
  Mo  Mo238  1  0.09810432  0.29801978  0.10398792  1
  Mo  Mo239  1  0.40173314  0.80223509  0.39460877  1
  Mo  Mo240  1  0.79097803  0.80586999  -0.00853894  1
  Mo  Mo241  1  0.90873969  0.89091238  0.29536195  1
  Mo  Mo242  1  0.09328353  0.50258989  0.49911989  1
  Mo  Mo243  1  0.80643528  0.39641006  0.19183366  1
  Mo  Mo244  1  0.29734179  0.09758290  0.10221518  1
  Mo  Mo245  1  0.09901386  0.69856830  0.90154343  1
  Mo  Mo246  1  0.27468435  0.50077317  0.29604534  1
  Mo  Mo247  1  0.80682119  0.20444802  0.40396743  1
  Mo  Mo248  1  -0.00317203  0.79069320  0.80652868  1
  Mo  Mo249  1  0.18907243  0.20831962  0.79771934  1
