# generated using pymatgen
data_HfZrTaTiMo
_symmetry_space_group_name_H-M   'P 1'
_cell_length_a   16.88974942
_cell_length_b   16.88316968
_cell_length_c   16.89050130
_cell_angle_alpha   90.01776868
_cell_angle_beta   89.95687788
_cell_angle_gamma   89.98924029
_symmetry_Int_Tables_number   1
_chemical_formula_structural   HfZrTaTiMo
_chemical_formula_sum   'Hf50 Zr50 Ta50 Ti50 Mo50'
_cell_volume   4816.36707987
_cell_formula_units_Z   50
loop_
 _symmetry_equiv_pos_site_id
 _symmetry_equiv_pos_as_xyz
  1  'x, y, z'
loop_
 _atom_site_type_symbol
 _atom_site_label
 _atom_site_symmetry_multiplicity
 _atom_site_fract_x
 _atom_site_fract_y
 _atom_site_fract_z
 _atom_site_occupancy
  Hf  Hf0  1  0.09724593  0.89523876  0.49150553  1
  Hf  Hf1  1  0.50414897  0.10076935  0.49344254  1
  Hf  Hf2  1  0.70885015  0.70993953  0.49969534  1
  Hf  Hf3  1  0.88910948  0.89467806  0.92681268  1
  Hf  Hf4  1  0.50277779  0.89808248  0.89870496  1
  Hf  Hf5  1  0.31448283  0.89293737  0.89777588  1
  Hf  Hf6  1  0.39991341  0.20854419  0.60438404  1
  Hf  Hf7  1  0.50128825  0.50427389  0.90251280  1
  Hf  Hf8  1  0.00467785  0.79726937  0.00921746  1
  Hf  Hf9  1  0.50184822  0.50386343  0.29564990  1
  Hf  Hf10  1  0.01076294  0.39429868  0.80532791  1
  Hf  Hf11  1  0.60582707  0.61077856  0.00966746  1
  Hf  Hf12  1  0.60444748  0.40075935  0.60327897  1
  Hf  Hf13  1  0.31317782  0.89195116  0.10611659  1
  Hf  Hf14  1  0.88550926  0.30010299  0.89697095  1
  Hf  Hf15  1  0.29363492  0.09913387  0.49522261  1
  Hf  Hf16  1  0.79174695  0.21115565  0.59223937  1
  Hf  Hf17  1  0.60129286  0.78619471  0.19473362  1
  Hf  Hf18  1  0.89253199  0.09695417  0.50400387  1
  Hf  Hf19  1  0.89671044  0.49794120  0.90071991  1
  Hf  Hf20  1  -0.00763898  0.19713405  0.80104308  1
  Hf  Hf21  1  0.00314197  0.80613054  0.19494216  1
  Hf  Hf22  1  0.89955997  0.49998694  0.09705020  1
  Hf  Hf23  1  0.69428763  0.50615256  0.88983790  1
  Hf  Hf24  1  0.89019451  0.70548201  0.10185596  1
  Hf  Hf25  1  0.29933882  0.30248101  0.49332624  1
  Hf  Hf26  1  0.50168187  0.70744965  0.70821751  1
  Hf  Hf27  1  -0.00302761  0.79415499  0.80720536  1
  Hf  Hf28  1  0.30624216  0.69916350  0.29490950  1
  Hf  Hf29  1  0.89875914  0.70208182  0.49371552  1
  Hf  Hf30  1  0.59919990  0.20376660  0.80343780  1
  Hf  Hf31  1  0.09420122  0.30835358  0.49544875  1
  Hf  Hf32  1  0.40069432  -0.00164239  0.39168424  1
  Hf  Hf33  1  0.40739221  0.20616895  -0.00070462  1
  Hf  Hf34  1  0.70911292  0.10790657  0.89853993  1
  Hf  Hf35  1  0.09828732  0.31016774  0.30502330  1
  Hf  Hf36  1  0.69710023  0.89723070  0.91260222  1
  Hf  Hf37  1  0.39009567  0.40818301  0.00940619  1
  Hf  Hf38  1  0.80134670  0.58536029  0.61160744  1
  Hf  Hf39  1  0.79615101  0.38966500  0.40013798  1
  Hf  Hf40  1  0.70295557  0.09569816  0.69628571  1
  Hf  Hf41  1  0.49408821  0.50489105  0.49022472  1
  Hf  Hf42  1  0.30492866  0.69025224  0.49557739  1
  Hf  Hf43  1  0.60338673  0.39331760  0.39947873  1
  Hf  Hf44  1  0.11150662  0.68733833  0.69091010  1
  Hf  Hf45  1  -0.00414885  0.59990713  0.80695028  1
  Hf  Hf46  1  0.89503564  0.09418487  0.29887934  1
  Hf  Hf47  1  0.29751986  0.31394421  0.89202912  1
  Hf  Hf48  1  0.00851866  0.60058996  0.39783334  1
  Hf  Hf49  1  0.19337272  0.20409329  0.60401634  1
  Zr  Zr50  1  0.20284891  0.78926249  0.81100895  1
  Zr  Zr51  1  0.10190462  0.10100409  0.89717724  1
  Zr  Zr52  1  0.90694344  0.49156108  0.49001058  1
  Zr  Zr53  1  0.29930986  0.10144332  0.89160873  1
  Zr  Zr54  1  0.50340462  0.29874732  0.29501166  1
  Zr  Zr55  1  0.09607758  0.90163542  0.90773271  1
  Zr  Zr56  1  0.89999165  0.30711772  0.09709145  1
  Zr  Zr57  1  0.10067858  0.09581756  0.69817430  1
  Zr  Zr58  1  0.60118273  0.60099149  0.60310469  1
  Zr  Zr59  1  0.60337479  0.00900419  0.00975602  1
  Zr  Zr60  1  0.40439899  0.80385234  0.59208189  1
  Zr  Zr61  1  0.20943130  0.79947092  0.59063379  1
  Zr  Zr62  1  0.59597443  0.20692249  0.60293915  1
  Zr  Zr63  1  0.79442826  0.39454515  0.59764015  1
  Zr  Zr64  1  0.00054916  0.79715642  0.59856465  1
  Zr  Zr65  1  0.50634189  0.30568075  0.10199499  1
  Zr  Zr66  1  0.69532011  0.29695371  0.09643096  1
  Zr  Zr67  1  0.09397396  0.31418629  0.09391508  1
  Zr  Zr68  1  0.79030288  0.20365658  0.40081939  1
  Zr  Zr69  1  0.41343118  0.01131087  -0.00103836  1
  Zr  Zr70  1  0.79890561  0.19725055  0.20256415  1
  Zr  Zr71  1  0.89543603  0.70517308  0.30106812  1
  Zr  Zr72  1  0.78347383  -0.00361042  0.39815761  1
  Zr  Zr73  1  0.10127341  0.09829713  0.09967220  1
  Zr  Zr74  1  0.80478302  0.79893671  0.80471339  1
  Zr  Zr75  1  -0.00078099  0.19719428  0.20160335  1
  Zr  Zr76  1  -0.01304604  -0.00442869  0.79916540  1
  Zr  Zr77  1  0.10529363  0.50192259  0.70577793  1
  Zr  Zr78  1  0.20460753  0.21078727  0.20384240  1
  Zr  Zr79  1  -0.00113519  -0.00850067  0.19202275  1
  Zr  Zr80  1  0.40811052  0.20073571  0.80023767  1
  Zr  Zr81  1  0.10841002  0.50238055  0.50867338  1
  Zr  Zr82  1  0.89480978  0.69713953  0.69876025  1
  Zr  Zr83  1  0.40025877  0.59624490  0.19539364  1
  Zr  Zr84  1  0.39806221  -0.00475355  0.59662159  1
  Zr  Zr85  1  0.10498968  0.70349148  0.30129022  1
  Zr  Zr86  1  0.51386240  0.90370049  0.49164462  1
  Zr  Zr87  1  0.10355061  0.89802578  0.69855568  1
  Zr  Zr88  1  0.20260810  -0.00982732  0.00519206  1
  Zr  Zr89  1  0.40958505  0.00765057  0.20239220  1
  Zr  Zr90  1  0.20063119  0.21517971  -0.00303186  1
  Zr  Zr91  1  0.80659030  -0.00206673  0.79998988  1
  Zr  Zr92  1  0.88425845  0.88964256  0.49713375  1
  Zr  Zr93  1  0.69777339  0.50823488  0.48916428  1
  Zr  Zr94  1  0.00119686  -0.00032456  0.39641818  1
  Zr  Zr95  1  0.40612263  0.59569349  0.60727774  1
  Zr  Zr96  1  0.29987124  0.10371727  0.10529142  1
  Zr  Zr97  1  0.29639212  0.09641436  0.70310579  1
  Zr  Zr98  1  0.50391870  0.70209116  0.90027389  1
  Zr  Zr99  1  0.20523788  0.38804675  0.61962581  1
  Ta  Ta100  1  -0.00809503  0.19792260  -0.00604646  1
  Ta  Ta101  1  0.60714285  0.80474732  0.79845527  1
  Ta  Ta102  1  0.20694536  0.41017007  0.19562830  1
  Ta  Ta103  1  0.40282607  0.40198386  0.60410491  1
  Ta  Ta104  1  0.38791911  0.40153086  0.19785833  1
  Ta  Ta105  1  0.89299558  0.29778013  0.70369808  1
  Ta  Ta106  1  0.20197337  0.59808710  0.40152463  1
  Ta  Ta107  1  0.00048636  0.60094452  -0.00075817  1
  Ta  Ta108  1  0.10072386  0.50433032  0.09418415  1
  Ta  Ta109  1  0.20530629  -0.01096568  0.79967616  1
  Ta  Ta110  1  0.69669447  0.89503103  0.29523905  1
  Ta  Ta111  1  0.00081058  0.41158016  0.20311141  1
  Ta  Ta112  1  0.70478602  0.69981744  0.29427399  1
  Ta  Ta113  1  0.50007865  0.31620471  0.70957714  1
  Ta  Ta114  1  0.59710674  0.61335490  0.38786287  1
  Ta  Ta115  1  -0.00241656  0.19993597  0.40461642  1
  Ta  Ta116  1  0.30194147  0.49948232  0.50207919  1
  Ta  Ta117  1  0.78901736  0.40334678  -0.00226239  1
  Ta  Ta118  1  0.39555747  0.60136671  0.80758495  1
  Ta  Ta119  1  0.39904944  0.19763415  0.38960132  1
  Ta  Ta120  1  0.39861992  0.20584467  0.20457382  1
  Ta  Ta121  1  0.29950534  0.68952282  0.09485354  1
  Ta  Ta122  1  0.50520515  0.50248636  0.10037098  1
  Ta  Ta123  1  0.70378681  0.89675159  0.69147261  1
  Ta  Ta124  1  0.88931618  0.89010004  0.29857110  1
  Ta  Ta125  1  -0.00501311  0.20330129  0.59857885  1
  Ta  Ta126  1  0.68859576  0.08969598  0.49928083  1
  Ta  Ta127  1  0.79854507  0.40269434  0.20412237  1
  Ta  Ta128  1  0.20257376  0.79916282  0.19402332  1
  Ta  Ta129  1  0.69878644  0.50644792  0.29328758  1
  Ta  Ta130  1  0.31147856  0.89424765  0.71045764  1
  Ta  Ta131  1  0.50598466  0.88857820  0.09829197  1
  Ta  Ta132  1  0.79843481  0.60500983  -0.00466854  1
  Ta  Ta133  1  0.20519821  0.79106150  0.00466449  1
  Ta  Ta134  1  0.90766795  0.30819425  0.30511812  1
  Ta  Ta135  1  0.00265490  0.59670552  0.19753748  1
  Ta  Ta136  1  0.60115675  0.79789073  0.39318834  1
  Ta  Ta137  1  -0.01061551  -0.00113473  0.60202234  1
  Ta  Ta138  1  0.50580671  0.31609721  0.89680667  1
  Ta  Ta139  1  0.70015471  0.69762612  0.70755690  1
  Ta  Ta140  1  0.40636016  0.79832044  0.39261664  1
  Ta  Ta141  1  0.10725659  0.69160025  0.10135724  1
  Ta  Ta142  1  0.30353673  0.69726417  0.70716682  1
  Ta  Ta143  1  0.39635160  0.40025313  0.39677191  1
  Ta  Ta144  1  0.29738345  0.50545295  0.70625128  1
  Ta  Ta145  1  0.70075337  0.50297937  0.10293182  1
  Ta  Ta146  1  -0.00840149  0.39597199  0.60928103  1
  Ta  Ta147  1  0.50355086  0.89349977  0.29045574  1
  Ta  Ta148  1  0.30233176  0.89183212  0.29639691  1
  Ta  Ta149  1  0.40146684  0.78758911  0.00212366  1
  Ti  Ti150  1  0.59844355  0.20248444  -0.00921792  1
  Ti  Ti151  1  0.70127444  0.30398035  0.71863729  1
  Ti  Ti152  1  0.20450897  0.79743981  0.40049327  1
  Ti  Ti153  1  0.19450859  0.40986511  -0.00508769  1
  Ti  Ti154  1  0.29893133  0.30486449  0.30271884  1
  Ti  Ti155  1  0.29385744  0.09931849  0.29891007  1
  Ti  Ti156  1  0.70166844  0.70265321  0.89932464  1
  Ti  Ti157  1  0.60611946  0.40182590  -0.00375375  1
  Ti  Ti158  1  0.60625091  0.40679225  0.19788955  1
  Ti  Ti159  1  0.80421947  0.19585942  0.00213176  1
  Ti  Ti160  1  0.49715161  0.29873647  0.49462925  1
  Ti  Ti161  1  0.79637421  -0.00404477  0.19301172  1
  Ti  Ti162  1  0.18783782  0.23134337  0.78899706  1
  Ti  Ti163  1  0.20460348  -0.01099382  0.59551807  1
  Ti  Ti164  1  0.69607230  0.10790857  0.10736264  1
  Ti  Ti165  1  0.29568599  0.50948171  0.90688972  1
  Ti  Ti166  1  0.50033691  0.90031332  0.70799013  1
  Ti  Ti167  1  0.59993381  0.00041325  0.80148400  1
  Ti  Ti168  1  0.30318771  0.50518349  0.30690780  1
  Ti  Ti169  1  0.20089274  0.59314719  0.19809147  1
  Ti  Ti170  1  0.49460769  0.69823880  0.10171104  1
  Ti  Ti171  1  0.10180948  0.49886299  0.29799364  1
  Ti  Ti172  1  0.39563508  0.41124268  0.79713254  1
  Ti  Ti173  1  0.60091030  0.18704630  0.38477186  1
  Ti  Ti174  1  0.20310725  -0.00683207  0.39578044  1
  Ti  Ti175  1  0.60443229  0.80285510  0.60007976  1
  Ti  Ti176  1  0.19534226  0.19716852  0.39736472  1
  Ti  Ti177  1  0.79823687  0.59943771  0.39156446  1
  Ti  Ti178  1  0.80217569  0.01162117  0.01558520  1
  Ti  Ti179  1  0.49825424  0.08778500  0.70543922  1
  Ti  Ti180  1  0.10288592  0.89300924  0.30275065  1
  Ti  Ti181  1  0.51012545  0.11388193  0.11078660  1
  Ti  Ti182  1  0.89845151  0.49818280  0.29833366  1
  Ti  Ti183  1  0.79653317  0.40996096  0.79166609  1
  Ti  Ti184  1  0.79695877  0.59835909  0.19780792  1
  Ti  Ti185  1  0.88890329  0.10291030  0.69389842  1
  Ti  Ti186  1  0.20388233  0.41004672  0.39576739  1
  Ti  Ti187  1  0.20337694  0.59661674  0.81304998  1
  Ti  Ti188  1  0.10428624  0.09800761  0.30283915  1
  Ti  Ti189  1  -0.01210146  0.00496813  0.01162392  1
  Ti  Ti190  1  -0.00431328  0.59317022  0.60109260  1
  Ti  Ti191  1  0.51089391  0.50181195  0.71621651  1
  Ti  Ti192  1  0.69464095  0.29623070  0.29136725  1
  Ti  Ti193  1  0.60330995  0.00279801  0.20401306  1
  Ti  Ti194  1  0.10707900  0.68835661  0.91174249  1
  Ti  Ti195  1  0.19734430  -0.01068454  0.20388154  1
  Ti  Ti196  1  0.70589520  0.88645490  0.09846629  1
  Ti  Ti197  1  0.60275309  -0.00616484  0.60257176  1
  Ti  Ti198  1  0.09897300  0.09522857  0.50095999  1
  Ti  Ti199  1  0.50101562  0.69918974  0.49159047  1
  Mo  Mo200  1  0.59852834  -0.00282196  0.38691150  1
  Mo  Mo201  1  0.89506838  0.09822436  0.09898169  1
  Mo  Mo202  1  0.51073604  0.10344435  0.89622074  1
  Mo  Mo203  1  0.89800313  0.69551410  0.90864384  1
  Mo  Mo204  1  0.69335543  0.08951660  0.29386904  1
  Mo  Mo205  1  0.70072011  0.30517195  0.90121117  1
  Mo  Mo206  1  0.00064837  0.40398530  0.39404943  1
  Mo  Mo207  1  0.89089604  0.90082514  0.68686901  1
  Mo  Mo208  1  0.79400867  0.80495928  0.19829872  1
  Mo  Mo209  1  0.79454426  -0.00181575  0.59895270  1
  Mo  Mo210  1  0.40332736  0.79532038  0.19661071  1
  Mo  Mo211  1  0.70446649  0.69406069  0.10287923  1
  Mo  Mo212  1  0.78840783  0.80015612  0.39304942  1
  Mo  Mo213  1  0.00114952  0.40422833  -0.00186139  1
  Mo  Mo214  1  0.19999134  0.59763199  -0.00043258  1
  Mo  Mo215  1  0.69085063  0.89743140  0.50203980  1
  Mo  Mo216  1  0.59936172  0.79689520  0.00431528  1
  Mo  Mo217  1  0.60215264  0.59969413  0.19788305  1
  Mo  Mo218  1  0.79020403  0.78801089  0.00552691  1
  Mo  Mo219  1  0.79725784  0.60029610  0.80313622  1
  Mo  Mo220  1  0.20997400  0.59929400  0.59924293  1
  Mo  Mo221  1  0.10535119  0.69631640  0.49642717  1
  Mo  Mo222  1  0.00552884  0.80083864  0.39455139  1
  Mo  Mo223  1  0.89954530  0.49356723  0.70543211  1
  Mo  Mo224  1  0.60129918  0.40220339  0.79946717  1
  Mo  Mo225  1  0.40499312  0.79593119  0.80069550  1
  Mo  Mo226  1  0.91076032  0.29662607  0.49942910  1
  Mo  Mo227  1  0.40826769  -0.00288936  0.79561826  1
  Mo  Mo228  1  0.79816440  0.20276594  0.79436116  1
  Mo  Mo229  1  0.29516515  0.89831216  0.48035234  1
  Mo  Mo230  1  0.11483222  0.89254676  0.10319810  1
  Mo  Mo231  1  0.10267211  0.50099062  0.90796991  1
  Mo  Mo232  1  0.09805947  0.30430108  0.90159167  1
  Mo  Mo233  1  0.30427152  0.69292767  0.90467418  1
  Mo  Mo234  1  0.29155992  0.50275472  0.09844483  1
  Mo  Mo235  1  0.67643924  0.28697307  0.48898760  1
  Mo  Mo236  1  0.69996881  0.50342991  0.70948130  1
  Mo  Mo237  1  0.50206080  0.10033960  0.29749380  1
  Mo  Mo238  1  0.88189923  0.90120085  0.10400412  1
  Mo  Mo239  1  0.08485119  0.29726401  0.70048450  1
  Mo  Mo240  1  0.79265844  0.80044553  0.60366444  1
  Mo  Mo241  1  0.40109366  0.59792943  0.39712188  1
  Mo  Mo242  1  0.29987249  0.30889774  0.10368418  1
  Mo  Mo243  1  0.60162940  0.19168163  0.20400020  1
  Mo  Mo244  1  0.60106917  0.60714150  0.80083910  1
  Mo  Mo245  1  0.39893377  0.59947054  0.00222584  1
  Mo  Mo246  1  0.89540861  0.10304502  0.91146637  1
  Mo  Mo247  1  0.20176676  0.40752490  0.80855613  1
  Mo  Mo248  1  0.31225814  0.31062573  0.70625746  1
  Mo  Mo249  1  0.50123204  0.70192965  0.30016395  1
