# generated using pymatgen
data_HfZrTaTiMo
_symmetry_space_group_name_H-M   'P 1'
_cell_length_a   16.87114318
_cell_length_b   16.89353384
_cell_length_c   16.87892375
_cell_angle_alpha   89.97502615
_cell_angle_beta   90.09027035
_cell_angle_gamma   89.96448890
_symmetry_Int_Tables_number   1
_chemical_formula_structural   HfZrTaTiMo
_chemical_formula_sum   'Hf50 Zr50 Ta50 Ti50 Mo50'
_cell_volume   4810.70919182
_cell_formula_units_Z   50
loop_
 _symmetry_equiv_pos_site_id
 _symmetry_equiv_pos_as_xyz
  1  'x, y, z'
loop_
 _atom_site_type_symbol
 _atom_site_label
 _atom_site_symmetry_multiplicity
 _atom_site_fract_x
 _atom_site_fract_y
 _atom_site_fract_z
 _atom_site_occupancy
  Hf  Hf0  1  0.89982214  0.50413969  0.69926709  1
  Hf  Hf1  1  -0.01073768  0.00026774  -0.00194805  1
  Hf  Hf2  1  0.29554062  0.30045874  0.68760306  1
  Hf  Hf3  1  0.69813738  0.49689093  0.29428284  1
  Hf  Hf4  1  0.40300092  0.79316543  0.39378779  1
  Hf  Hf5  1  0.30411101  0.09858765  0.50519087  1
  Hf  Hf6  1  0.49908813  0.29663080  0.50775662  1
  Hf  Hf7  1  0.29580117  0.70214878  0.89495139  1
  Hf  Hf8  1  0.70199040  0.30274076  0.90267423  1
  Hf  Hf9  1  0.30456305  0.30455424  0.89331269  1
  Hf  Hf10  1  0.70082021  0.49766798  0.90723041  1
  Hf  Hf11  1  0.90710459  0.49797164  0.30084953  1
  Hf  Hf12  1  0.10578809  0.11031727  0.50402628  1
  Hf  Hf13  1  0.30326455  0.90409869  0.49952551  1
  Hf  Hf14  1  0.69429856  0.69312799  0.30570324  1
  Hf  Hf15  1  0.30183483  0.10664090  0.69240512  1
  Hf  Hf16  1  0.00124731  -0.00188937  0.60367413  1
  Hf  Hf17  1  0.20205535  0.20339658  0.19695132  1
  Hf  Hf18  1  0.70360981  0.89573617  0.50680406  1
  Hf  Hf19  1  0.19906555  0.59968865  0.19996840  1
  Hf  Hf20  1  0.19900748  0.20913881  -0.00445181  1
  Hf  Hf21  1  0.69605837  0.50978967  0.50673125  1
  Hf  Hf22  1  0.40034108  0.40546630  -0.00047763  1
  Hf  Hf23  1  0.40173718  -0.00394700  0.80468807  1
  Hf  Hf24  1  0.51296998  0.68407391  0.49986307  1
  Hf  Hf25  1  0.79515657  0.79797487  -0.00124266  1
  Hf  Hf26  1  0.90466483  0.10938247  0.29062194  1
  Hf  Hf27  1  0.20883180  0.40651335  0.39386007  1
  Hf  Hf28  1  0.79606969  0.80065851  0.20250219  1
  Hf  Hf29  1  0.80018935  0.80135721  0.40629469  1
  Hf  Hf30  1  0.70362239  0.29656858  0.70378230  1
  Hf  Hf31  1  0.49888876  0.09046561  0.09561491  1
  Hf  Hf32  1  0.90329173  0.69625888  0.30380587  1
  Hf  Hf33  1  0.60458687  0.00171490  0.60317197  1
  Hf  Hf34  1  0.49835497  0.49506889  0.29474807  1
  Hf  Hf35  1  0.18026936  0.80746091  0.19312889  1
  Hf  Hf36  1  0.01142749  -0.01894219  0.19823625  1
  Hf  Hf37  1  0.91099945  0.11008428  0.49849100  1
  Hf  Hf38  1  0.40019608  0.41452394  0.60360782  1
  Hf  Hf39  1  0.39890201  0.59701726  0.60748547  1
  Hf  Hf40  1  0.00190841  0.00741905  0.79085286  1
  Hf  Hf41  1  0.59587008  0.80077204  0.39833960  1
  Hf  Hf42  1  0.09595884  0.10134701  0.09747476  1
  Hf  Hf43  1  0.09323537  0.30736940  0.30139185  1
  Hf  Hf44  1  0.20789639  0.20289628  0.39473576  1
  Hf  Hf45  1  -0.00510179  0.39746038  -0.01002271  1
  Hf  Hf46  1  0.89392047  0.88700842  0.88867732  1
  Hf  Hf47  1  0.79757493  0.59935554  0.80360152  1
  Hf  Hf48  1  0.60035147  0.18636900  0.60157564  1
  Hf  Hf49  1  0.80435278  0.39992003  0.40035638  1
  Zr  Zr50  1  0.31169180  0.09213867  0.29833308  1
  Zr  Zr51  1  0.59641456  0.39815331  0.40275776  1
  Zr  Zr52  1  0.79826044  0.01002648  0.79518492  1
  Zr  Zr53  1  0.08797070  0.70583937  0.30651748  1
  Zr  Zr54  1  0.89516755  0.49743035  0.09750918  1
  Zr  Zr55  1  0.30789158  0.89564569  0.69610638  1
  Zr  Zr56  1  0.39511197  0.79521322  0.20601904  1
  Zr  Zr57  1  0.19668848  -0.00554039  -0.00412107  1
  Zr  Zr58  1  0.50076236  0.69965986  0.09944200  1
  Zr  Zr59  1  0.28288302  0.70464358  0.08558110  1
  Zr  Zr60  1  0.00565085  -0.00610027  0.40005063  1
  Zr  Zr61  1  0.40812688  0.80721500  -0.00787338  1
  Zr  Zr62  1  0.31132967  0.09262736  0.09458325  1
  Zr  Zr63  1  0.89702829  0.88240533  0.69829822  1
  Zr  Zr64  1  0.19798452  0.58995778  0.60936707  1
  Zr  Zr65  1  0.70312060  0.29540374  0.28213235  1
  Zr  Zr66  1  0.89553571  0.70075994  0.51319991  1
  Zr  Zr67  1  0.50673378  0.70411485  0.71026146  1
  Zr  Zr68  1  0.18596903  0.20356860  0.79449100  1
  Zr  Zr69  1  0.50715004  0.29986892  0.28851734  1
  Zr  Zr70  1  0.18982845  0.40668984  0.78909802  1
  Zr  Zr71  1  0.79866771  0.40387780  0.60424587  1
  Zr  Zr72  1  0.69464533  0.29645736  0.50261094  1
  Zr  Zr73  1  0.09477064  0.70537808  0.71146129  1
  Zr  Zr74  1  0.49459562  0.29870878  0.70016931  1
  Zr  Zr75  1  0.70204842  0.88604738  0.70649449  1
  Zr  Zr76  1  0.40873823  0.19830994  0.40401532  1
  Zr  Zr77  1  0.80247057  -0.00309601  0.19488533  1
  Zr  Zr78  1  0.50642193  0.09598916  0.29315900  1
  Zr  Zr79  1  0.29979369  0.70470636  0.50467177  1
  Zr  Zr80  1  0.38730682  0.59449567  0.20196657  1
  Zr  Zr81  1  0.79747394  0.19736273  0.00504859  1
  Zr  Zr82  1  0.39891801  0.59539820  0.00057672  1
  Zr  Zr83  1  0.60169096  -0.00758872  -0.00552074  1
  Zr  Zr84  1  0.00472560  0.79151626  0.00641102  1
  Zr  Zr85  1  0.69666462  0.69968350  0.10146710  1
  Zr  Zr86  1  0.00415337  0.60165647  0.60596433  1
  Zr  Zr87  1  0.80191182  0.20120414  0.39760145  1
  Zr  Zr88  1  0.80604207  -0.00303215  0.40182475  1
  Zr  Zr89  1  0.19676889  -0.00000253  0.79408352  1
  Zr  Zr90  1  0.20617197  0.60348256  0.39535063  1
  Zr  Zr91  1  0.19469424  -0.00552213  0.20444050  1
  Zr  Zr92  1  0.88622366  0.30454097  0.11556758  1
  Zr  Zr93  1  0.69837191  0.10225226  0.89866151  1
  Zr  Zr94  1  0.09300070  0.89047444  0.89108455  1
  Zr  Zr95  1  -0.00251649  0.21024326  -0.00467364  1
  Zr  Zr96  1  0.31283907  0.31382586  0.28515532  1
  Zr  Zr97  1  0.60227713  0.41398335  0.78656068  1
  Zr  Zr98  1  0.91928153  0.30405562  0.50023674  1
  Zr  Zr99  1  0.10771836  0.30522929  0.50688361  1
  Ta  Ta100  1  0.50350727  0.89521996  0.70343642  1
  Ta  Ta101  1  0.81090880  0.40179471  0.80830341  1
  Ta  Ta102  1  0.49746492  0.09882401  0.70500023  1
  Ta  Ta103  1  0.80061279  0.59796572  0.19858339  1
  Ta  Ta104  1  0.69137645  0.90781875  0.29812403  1
  Ta  Ta105  1  0.29314786  0.50511902  0.90010304  1
  Ta  Ta106  1  0.59921563  0.19470230  0.80097834  1
  Ta  Ta107  1  0.00970699  0.20102733  0.61998514  1
  Ta  Ta108  1  0.90836126  0.50280350  0.49857563  1
  Ta  Ta109  1  0.80240454  0.19280406  0.60516247  1
  Ta  Ta110  1  0.29733959  0.89714143  0.30490670  1
  Ta  Ta111  1  0.60042503  0.59575739  0.19421809  1
  Ta  Ta112  1  0.10208010  0.50340432  0.09461366  1
  Ta  Ta113  1  0.90110740  0.29879230  0.70520315  1
  Ta  Ta114  1  -0.00603667  0.59896030  0.81265792  1
  Ta  Ta115  1  0.80419190  0.00615371  0.60000178  1
  Ta  Ta116  1  0.00440028  0.60336307  0.19259658  1
  Ta  Ta117  1  0.59386018  0.00006590  0.40270704  1
  Ta  Ta118  1  0.19755578  -0.00305041  0.39804728  1
  Ta  Ta119  1  0.59338363  0.20528049  0.00138481  1
  Ta  Ta120  1  0.09515010  0.10547665  0.89812221  1
  Ta  Ta121  1  0.39929831  0.59601805  0.79882742  1
  Ta  Ta122  1  0.80221801  -0.00468560  0.00183376  1
  Ta  Ta123  1  0.40515081  0.20615622  -0.00233547  1
  Ta  Ta124  1  0.39711620  0.40860911  0.40613709  1
  Ta  Ta125  1  -0.00015651  0.40022340  0.80457298  1
  Ta  Ta126  1  0.49651446  0.10289941  0.90079961  1
  Ta  Ta127  1  0.19265192  0.80285267  0.60362160  1
  Ta  Ta128  1  0.30217361  0.70505681  0.70640061  1
  Ta  Ta129  1  0.49914062  0.89949362  0.50117852  1
  Ta  Ta130  1  0.50243537  0.30304523  0.89662208  1
  Ta  Ta131  1  0.80106498  0.59808102  0.40559817  1
  Ta  Ta132  1  0.69228559  0.09972983  0.29479038  1
  Ta  Ta133  1  0.50362826  0.50481813  0.89686090  1
  Ta  Ta134  1  0.09270584  0.49582562  0.49283432  1
  Ta  Ta135  1  0.41385489  0.00267480  0.59763761  1
  Ta  Ta136  1  0.60119421  0.59930240  -0.00146408  1
  Ta  Ta137  1  0.58948962  0.80743286  0.20576493  1
  Ta  Ta138  1  0.19905252  0.80262420  0.79809036  1
  Ta  Ta139  1  0.89952101  0.69705385  0.10330274  1
  Ta  Ta140  1  0.30113399  0.90009670  0.09392791  1
  Ta  Ta141  1  0.90910104  0.88701015  0.29994406  1
  Ta  Ta142  1  0.09912317  0.50571608  0.90297472  1
  Ta  Ta143  1  0.69872783  0.69190635  0.51212370  1
  Ta  Ta144  1  0.30644389  0.10246817  0.90216000  1
  Ta  Ta145  1  0.80235788  0.60239480  -0.00284915  1
  Ta  Ta146  1  0.60053619  0.80124206  -0.00401215  1
  Ta  Ta147  1  0.09472771  0.49954482  0.29907835  1
  Ta  Ta148  1  0.19719243  0.40250627  -0.00330746  1
  Ta  Ta149  1  0.30230198  0.31017147  0.09868765  1
  Ti  Ti150  1  0.29423545  0.49835727  0.50332235  1
  Ti  Ti151  1  0.59595078  0.40044232  0.00240755  1
  Ti  Ti152  1  0.19816692  0.80246823  0.39957272  1
  Ti  Ti153  1  0.89780721  0.11172085  0.70503303  1
  Ti  Ti154  1  0.50684524  0.89384023  0.88790179  1
  Ti  Ti155  1  0.10708179  0.69569701  0.90608430  1
  Ti  Ti156  1  0.90507600  0.30132721  0.29607645  1
  Ti  Ti157  1  0.10563557  0.89893867  0.50180111  1
  Ti  Ti158  1  0.70020364  0.89296574  0.89109305  1
  Ti  Ti159  1  0.89336132  0.70501813  0.70647292  1
  Ti  Ti160  1  0.69207655  0.70219377  0.89381887  1
  Ti  Ti161  1  -0.00284770  0.60183475  -0.00184274  1
  Ti  Ti162  1  0.40611491  -0.01791565  0.20673316  1
  Ti  Ti163  1  0.00461569  0.20614389  0.19556044  1
  Ti  Ti164  1  0.19030745  -0.00238595  0.60671308  1
  Ti  Ti165  1  0.60227734  0.58250872  0.62803077  1
  Ti  Ti166  1  0.69784506  0.09405895  0.10384073  1
  Ti  Ti167  1  0.70173599  0.69821293  0.70112998  1
  Ti  Ti168  1  0.30098150  0.89565068  0.90143427  1
  Ti  Ti169  1  0.69181813  0.90177936  0.10454811  1
  Ti  Ti170  1  0.89711107  0.11059850  0.89456853  1
  Ti  Ti171  1  0.40287763  0.19875481  0.80276997  1
  Ti  Ti172  1  0.30250953  0.29884686  0.50962109  1
  Ti  Ti173  1  0.00590181  0.80590260  0.59938799  1
  Ti  Ti174  1  0.60398315  0.19910896  0.18200706  1
  Ti  Ti175  1  0.70046051  0.09963153  0.49274777  1
  Ti  Ti176  1  0.89876605  0.10260637  0.10517452  1
  Ti  Ti177  1  0.39228105  0.59384822  0.39576463  1
  Ti  Ti178  1  0.39829984  0.41380507  0.79586782  1
  Ti  Ti179  1  0.09778701  0.69830017  0.49913925  1
  Ti  Ti180  1  0.00511366  0.40597797  0.19544670  1
  Ti  Ti181  1  0.40326323  0.20361310  0.18843471  1
  Ti  Ti182  1  0.90252238  0.89084498  0.10257910  1
  Ti  Ti183  1  0.60036408  0.00322045  0.79588963  1
  Ti  Ti184  1  0.59989784  0.79703004  0.60094228  1
  Ti  Ti185  1  0.50542833  0.49645457  0.10205597  1
  Ti  Ti186  1  0.19838889  0.59705140  0.79798665  1
  Ti  Ti187  1  0.50562388  0.69853579  0.89339109  1
  Ti  Ti188  1  0.40733876  0.79867262  0.59992007  1
  Ti  Ti189  1  -0.00266406  0.80673766  0.41519331  1
  Ti  Ti190  1  0.70255033  0.49280283  0.09944990  1
  Ti  Ti191  1  0.01402884  0.40348709  0.61689651  1
  Ti  Ti192  1  0.70118009  0.31202538  0.09940564  1
  Ti  Ti193  1  0.50456687  0.68462805  0.30196777  1
  Ti  Ti194  1  0.10576434  0.31169902  0.10310433  1
  Ti  Ti195  1  0.00156067  0.21062353  0.80268262  1
  Ti  Ti196  1  0.49974892  0.90313953  0.09987390  1
  Ti  Ti197  1  0.50006344  0.30732484  0.10111937  1
  Ti  Ti198  1  0.09463036  0.10777368  0.30341108  1
  Ti  Ti199  1  0.50824990  0.50442338  0.50169567  1
  Mo  Mo200  1  0.49816248  0.90381091  0.30508829  1
  Mo  Mo201  1  0.79422433  0.79370227  0.60330891  1
  Mo  Mo202  1  0.40198460  0.19329410  0.60156780  1
  Mo  Mo203  1  0.60104727  -0.00641913  0.19791165  1
  Mo  Mo204  1  0.60164123  0.79861947  0.80662345  1
  Mo  Mo205  1  0.10085606  0.89745305  0.08620773  1
  Mo  Mo206  1  0.59549239  0.41041195  0.60211797  1
  Mo  Mo207  1  0.78982453  0.19329610  0.19573683  1
  Mo  Mo208  1  0.60320326  0.18494056  0.40423566  1
  Mo  Mo209  1  0.79778779  0.40444560  0.20030726  1
  Mo  Mo210  1  0.29433573  0.70445558  0.30461732  1
  Mo  Mo211  1  0.89559916  0.30052110  0.89225675  1
  Mo  Mo212  1  0.70093271  0.10109157  0.69928263  1
  Mo  Mo213  1  0.28846631  0.49256327  0.09768420  1
  Mo  Mo214  1  0.19987765  0.40560175  0.59438852  1
  Mo  Mo215  1  0.89987246  0.89849909  0.50549483  1
  Mo  Mo216  1  0.90044623  0.50154453  0.90182880  1
  Mo  Mo217  1  0.60138676  0.60417028  0.80747718  1
  Mo  Mo218  1  0.09480505  0.30481470  0.70018934  1
  Mo  Mo219  1  0.09302190  0.69261421  0.09592424  1
  Mo  Mo220  1  0.19995244  0.20426218  0.59838370  1
  Mo  Mo221  1  0.00114221  0.40278151  0.39510482  1
  Mo  Mo222  1  0.09850558  0.10282656  0.70088684  1
  Mo  Mo223  1  0.60053169  0.59950730  0.39345730  1
  Mo  Mo224  1  0.19864700  0.80168037  -0.00522688  1
  Mo  Mo225  1  0.00023979  0.59783502  0.40463044  1
  Mo  Mo226  1  0.40073424  0.79922720  0.80153551  1
  Mo  Mo227  1  0.80296342  0.20621926  0.79718769  1
  Mo  Mo228  1  0.79655115  0.78291343  0.80413291  1
  Mo  Mo229  1  -0.00437123  0.79715910  0.19549632  1
  Mo  Mo230  1  0.09353044  0.50290134  0.70851858  1
  Mo  Mo231  1  0.00563814  0.20387888  0.38867430  1
  Mo  Mo232  1  0.09540285  0.30597137  0.89931340  1
  Mo  Mo233  1  0.40129791  0.40420646  0.18748841  1
  Mo  Mo234  1  0.49711049  0.50449538  0.70621316  1
  Mo  Mo235  1  0.50249013  0.09363133  0.50012390  1
  Mo  Mo236  1  -0.00253462  0.78367003  0.80597234  1
  Mo  Mo237  1  0.10009010  0.89295906  0.31853065  1
  Mo  Mo238  1  0.59975108  0.40325165  0.18266510  1
  Mo  Mo239  1  0.40196893  -0.00428942  -0.00901795  1
  Mo  Mo240  1  0.30319173  0.50036033  0.29966457  1
  Mo  Mo241  1  0.19238737  0.59556620  -0.00555729  1
  Mo  Mo242  1  0.09879609  0.89527246  0.69512032  1
  Mo  Mo243  1  0.70648737  0.50234494  0.70375927  1
  Mo  Mo244  1  0.29860208  0.50565709  0.70685727  1
  Mo  Mo245  1  0.89750136  0.69464946  0.90521680  1
  Mo  Mo246  1  0.79653899  0.40289647  -0.00029732  1
  Mo  Mo247  1  0.79702903  0.60323768  0.60531322  1
  Mo  Mo248  1  0.40157169  -0.00964159  0.40308948  1
  Mo  Mo249  1  0.19813875  0.40887210  0.19245330  1
