# generated using pymatgen
data_HfZrTaTiMo
_symmetry_space_group_name_H-M   'P 1'
_cell_length_a   16.89304774
_cell_length_b   16.89003057
_cell_length_c   16.87755933
_cell_angle_alpha   89.97826877
_cell_angle_beta   89.99885013
_cell_angle_gamma   90.00895533
_symmetry_Int_Tables_number   1
_chemical_formula_structural   HfZrTaTiMo
_chemical_formula_sum   'Hf50 Zr50 Ta50 Ti50 Mo50'
_cell_volume   4815.57389615
_cell_formula_units_Z   50
loop_
 _symmetry_equiv_pos_site_id
 _symmetry_equiv_pos_as_xyz
  1  'x, y, z'
loop_
 _atom_site_type_symbol
 _atom_site_label
 _atom_site_symmetry_multiplicity
 _atom_site_fract_x
 _atom_site_fract_y
 _atom_site_fract_z
 _atom_site_occupancy
  Hf  Hf0  1  0.19835056  0.40779589  0.59547756  1
  Hf  Hf1  1  0.39087426  0.79619164  0.60781642  1
  Hf  Hf2  1  0.50140932  0.31026442  0.69802749  1
  Hf  Hf3  1  0.50741138  0.50370315  0.30344257  1
  Hf  Hf4  1  0.88838150  0.49053348  0.49755052  1
  Hf  Hf5  1  0.79012283  0.60230860  0.39647885  1
  Hf  Hf6  1  0.80160323  0.59999678  0.79334482  1
  Hf  Hf7  1  0.90289563  0.29859786  0.89271460  1
  Hf  Hf8  1  -0.01058467  0.78842563  0.60771195  1
  Hf  Hf9  1  0.20759574  -0.00706269  0.39940389  1
  Hf  Hf10  1  0.30789685  0.10445049  0.30039141  1
  Hf  Hf11  1  0.89077665  0.30631826  0.29987921  1
  Hf  Hf12  1  0.50495680  0.30484230  0.89893264  1
  Hf  Hf13  1  0.61189419  0.60127624  0.58998928  1
  Hf  Hf14  1  -0.00025328  0.01230193  0.60570863  1
  Hf  Hf15  1  0.30663197  0.30124654  0.30627441  1
  Hf  Hf16  1  0.60502570  0.79205632  0.21131531  1
  Hf  Hf17  1  0.10764468  0.09887967  0.10179995  1
  Hf  Hf18  1  0.00601316  0.20525135  0.59729159  1
  Hf  Hf19  1  0.49917111  0.89198986  0.09467019  1
  Hf  Hf20  1  0.21091753  0.78934146  0.80226003  1
  Hf  Hf21  1  0.20639776  -0.00218991  0.80265143  1
  Hf  Hf22  1  0.00136693  0.19704042  0.00434003  1
  Hf  Hf23  1  0.79863382  0.19774933  0.00395257  1
  Hf  Hf24  1  -0.00452727  0.79646382  0.20517073  1
  Hf  Hf25  1  0.59772331  0.40367298  0.00974389  1
  Hf  Hf26  1  0.30544965  0.69290716  0.30240611  1
  Hf  Hf27  1  0.19504512  0.21225269  0.40519740  1
  Hf  Hf28  1  0.39761025  -0.00702333  0.60130472  1
  Hf  Hf29  1  0.69612757  0.30096853  0.89918238  1
  Hf  Hf30  1  0.10429428  0.89693929  0.70024222  1
  Hf  Hf31  1  0.60563672  0.79728900  0.59243806  1
  Hf  Hf32  1  -0.00510804  0.59474033  0.60349406  1
  Hf  Hf33  1  0.57924315  0.19807854  0.38830102  1
  Hf  Hf34  1  0.90693566  0.69717447  0.90016189  1
  Hf  Hf35  1  0.49665264  0.69616874  0.70329445  1
  Hf  Hf36  1  0.41360196  0.20802712  0.20354003  1
  Hf  Hf37  1  0.10190623  0.09968596  0.29846166  1
  Hf  Hf38  1  0.69055193  0.90028373  0.09739247  1
  Hf  Hf39  1  0.90172611  0.90102063  0.89854859  1
  Hf  Hf40  1  0.39909745  -0.00254078  0.80398982  1
  Hf  Hf41  1  0.00683662  0.39909157  0.59849633  1
  Hf  Hf42  1  0.60678657  0.60371245  0.80558946  1
  Hf  Hf43  1  -0.00523510  0.20079898  0.19955594  1
  Hf  Hf44  1  0.79295854  0.79581678  -0.00242843  1
  Hf  Hf45  1  0.78713546  0.79228585  0.39319500  1
  Hf  Hf46  1  0.49216215  0.69122060  0.49438868  1
  Hf  Hf47  1  0.31245684  0.11227628  0.50011461  1
  Hf  Hf48  1  0.39273603  -0.00241327  0.00776771  1
  Hf  Hf49  1  0.21065866  0.80064224  0.59850730  1
  Zr  Zr50  1  0.59977838  0.19700153  0.59538307  1
  Zr  Zr51  1  0.39750426  0.20268035  0.80861597  1
  Zr  Zr52  1  0.01495875  0.19115112  0.78604462  1
  Zr  Zr53  1  0.78970597  0.00243883  -0.00748242  1
  Zr  Zr54  1  -0.00187775  0.40556495  -0.00045404  1
  Zr  Zr55  1  0.49489691  0.10609092  0.69818885  1
  Zr  Zr56  1  0.49797978  0.30684481  0.50183985  1
  Zr  Zr57  1  0.50578621  0.09226034  0.10191814  1
  Zr  Zr58  1  0.70170129  0.10523382  0.49164743  1
  Zr  Zr59  1  0.49810580  0.69761745  0.09089096  1
  Zr  Zr60  1  0.10411427  0.31027127  0.89899696  1
  Zr  Zr61  1  0.31391685  0.88507149  0.90449958  1
  Zr  Zr62  1  0.89100136  0.49314423  0.29711207  1
  Zr  Zr63  1  0.20816962  0.40347871  0.20786733  1
  Zr  Zr64  1  0.20122250  0.59401771  0.20592668  1
  Zr  Zr65  1  0.11294034  0.68877995  0.70150495  1
  Zr  Zr66  1  0.89253166  0.90879481  0.49695121  1
  Zr  Zr67  1  0.10658293  0.49506478  0.09648272  1
  Zr  Zr68  1  0.10402464  0.70010139  0.10366257  1
  Zr  Zr69  1  0.69790859  0.30133623  0.11020726  1
  Zr  Zr70  1  0.79995525  0.40669964  0.80412662  1
  Zr  Zr71  1  0.50063275  0.89515561  0.49095948  1
  Zr  Zr72  1  0.10406079  0.69522612  0.30754325  1
  Zr  Zr73  1  0.89071597  0.90438682  0.30341335  1
  Zr  Zr74  1  0.01388794  0.00240550  0.80138471  1
  Zr  Zr75  1  0.69531708  0.31013914  0.30029135  1
  Zr  Zr76  1  0.09401207  0.89558951  0.49614711  1
  Zr  Zr77  1  0.30055915  0.11260532  0.69481078  1
  Zr  Zr78  1  0.50500670  0.88948670  0.71797373  1
  Zr  Zr79  1  0.39327026  0.41218467  0.80063460  1
  Zr  Zr80  1  0.89769828  0.09703856  0.89175197  1
  Zr  Zr81  1  0.89380527  0.90710036  0.70676950  1
  Zr  Zr82  1  0.21040115  -0.01557820  0.19646187  1
  Zr  Zr83  1  0.01122057  0.59091006  0.79970207  1
  Zr  Zr84  1  0.10556951  0.09523632  0.50037567  1
  Zr  Zr85  1  0.79562897  0.79292035  0.80099517  1
  Zr  Zr86  1  0.69846283  0.30283981  0.69335350  1
  Zr  Zr87  1  0.89720172  0.69531434  0.10315457  1
  Zr  Zr88  1  0.79659275  0.59180447  -0.00633549  1
  Zr  Zr89  1  0.10336316  0.69397601  0.49509469  1
  Zr  Zr90  1  0.89212844  0.29766174  0.69725926  1
  Zr  Zr91  1  0.40172568  0.40101529  0.00699210  1
  Zr  Zr92  1  -0.00049249  -0.00426248  0.19920834  1
  Zr  Zr93  1  0.50288200  0.50084718  0.69614366  1
  Zr  Zr94  1  0.79709934  0.79124779  0.59808338  1
  Zr  Zr95  1  -0.00272225  0.20531432  0.40551703  1
  Zr  Zr96  1  0.79339611  -0.00248862  0.19854111  1
  Zr  Zr97  1  0.28947544  0.30795225  0.90101977  1
  Zr  Zr98  1  0.59694396  0.00266843  0.59838067  1
  Zr  Zr99  1  0.40298218  0.40388301  0.39950024  1
  Ta  Ta100  1  0.49898599  0.89516717  0.29861666  1
  Ta  Ta101  1  0.19217917  0.21205102  0.60224673  1
  Ta  Ta102  1  0.19910785  0.60340833  -0.00902528  1
  Ta  Ta103  1  0.88433749  0.30315731  0.50011287  1
  Ta  Ta104  1  0.60546674  0.00840611  0.80778731  1
  Ta  Ta105  1  0.60695008  0.60954177  0.39539057  1
  Ta  Ta106  1  0.90117697  0.89486718  0.09319990  1
  Ta  Ta107  1  0.00912490  0.59870865  -0.00332013  1
  Ta  Ta108  1  -0.01309055  0.78971749  0.39651877  1
  Ta  Ta109  1  0.40249105  0.79476515  0.39322590  1
  Ta  Ta110  1  0.69685262  0.90360867  0.70512778  1
  Ta  Ta111  1  0.49845592  0.51168690  0.90402830  1
  Ta  Ta112  1  0.30536119  0.50873409  0.09393886  1
  Ta  Ta113  1  0.21081402  0.80070892  0.39825778  1
  Ta  Ta114  1  0.89687327  0.30840151  0.10674355  1
  Ta  Ta115  1  0.70016644  0.31397296  0.49689474  1
  Ta  Ta116  1  0.59829414  0.00076235  0.39042829  1
  Ta  Ta117  1  -0.00442935  0.59375865  0.20519780  1
  Ta  Ta118  1  0.20268340  -0.00875354  0.00227375  1
  Ta  Ta119  1  0.30521467  0.69991376  0.09451863  1
  Ta  Ta120  1  0.00950437  0.79367841  0.80460918  1
  Ta  Ta121  1  0.01116167  0.80132771  -0.00624658  1
  Ta  Ta122  1  0.70139375  0.49991396  0.11090700  1
  Ta  Ta123  1  0.09755587  0.30750364  0.29714276  1
  Ta  Ta124  1  0.20125538  0.79882974  0.00048699  1
  Ta  Ta125  1  0.60152322  0.19383511  0.80279613  1
  Ta  Ta126  1  0.10538733  0.30249162  0.10239991  1
  Ta  Ta127  1  0.20910115  -0.00421792  0.60365584  1
  Ta  Ta128  1  0.20566257  0.20178245  0.00794497  1
  Ta  Ta129  1  0.60366924  0.60312227  0.20405087  1
  Ta  Ta130  1  0.88166396  0.10411593  0.69615350  1
  Ta  Ta131  1  0.49435583  0.70464593  0.89893761  1
  Ta  Ta132  1  0.41023660  0.40286775  0.19543085  1
  Ta  Ta133  1  0.80138095  0.40273184  0.00311903  1
  Ta  Ta134  1  0.40587719  0.59846169  0.19939998  1
  Ta  Ta135  1  0.69741514  0.10175833  0.29481119  1
  Ta  Ta136  1  0.11333429  0.09999220  0.90773960  1
  Ta  Ta137  1  0.50249924  0.09779644  0.90924720  1
  Ta  Ta138  1  0.30286824  0.30236612  0.50546259  1
  Ta  Ta139  1  0.68902222  0.09886889  0.10107050  1
  Ta  Ta140  1  0.88813521  0.10067044  0.30833548  1
  Ta  Ta141  1  0.78892561  0.00501678  0.60157422  1
  Ta  Ta142  1  0.10097286  0.50711549  0.48827207  1
  Ta  Ta143  1  0.40006073  0.20290825  0.00925222  1
  Ta  Ta144  1  0.29635134  0.30747392  0.69791480  1
  Ta  Ta145  1  0.69863799  0.90351955  0.48960946  1
  Ta  Ta146  1  0.39104822  0.60363255  0.80134306  1
  Ta  Ta147  1  0.69781854  0.49133699  0.69173117  1
  Ta  Ta148  1  0.30323299  0.68864876  0.49473794  1
  Ta  Ta149  1  0.01024973  -0.00683822  -0.00058240  1
  Ti  Ti150  1  0.78316309  0.18704265  0.79979265  1
  Ti  Ti151  1  0.59806370  -0.00377967  0.20910531  1
  Ti  Ti152  1  0.89608136  0.69284279  0.49690546  1
  Ti  Ti153  1  0.20836566  0.80363660  0.20068048  1
  Ti  Ti154  1  0.60712169  0.78983851  -0.01049685  1
  Ti  Ti155  1  0.69124160  0.49394884  0.90031694  1
  Ti  Ti156  1  0.79707602  0.60117630  0.60026508  1
  Ti  Ti157  1  0.29819891  0.10453762  0.91013522  1
  Ti  Ti158  1  0.39187175  0.41232044  0.59925200  1
  Ti  Ti159  1  0.69087559  0.89967939  0.89317730  1
  Ti  Ti160  1  0.70339231  0.69093831  0.10469844  1
  Ti  Ti161  1  0.30381894  0.51034187  0.49281140  1
  Ti  Ti162  1  0.20223796  0.20702765  0.20011673  1
  Ti  Ti163  1  0.10155532  0.89434483  0.09836263  1
  Ti  Ti164  1  0.29931451  0.10363056  0.10530920  1
  Ti  Ti165  1  0.80019843  0.19437635  0.19719750  1
  Ti  Ti166  1  0.50350627  0.50334784  0.49894441  1
  Ti  Ti167  1  0.50300918  0.50835115  0.10044549  1
  Ti  Ti168  1  0.89739109  0.49171745  0.69669838  1
  Ti  Ti169  1  0.69873975  0.49538144  0.29563392  1
  Ti  Ti170  1  0.89407270  0.49927931  0.10551763  1
  Ti  Ti171  1  0.19654441  0.40711100  0.39999594  1
  Ti  Ti172  1  0.88843493  0.10418130  0.49968171  1
  Ti  Ti173  1  0.69678277  0.70299436  0.70238028  1
  Ti  Ti174  1  0.29269360  0.50255418  0.90461184  1
  Ti  Ti175  1  0.29126698  0.50932643  0.70397794  1
  Ti  Ti176  1  0.30859429  0.69455259  0.90695526  1
  Ti  Ti177  1  0.30749338  0.89714929  0.49247194  1
  Ti  Ti178  1  0.00294169  0.40394447  0.20179353  1
  Ti  Ti179  1  0.79522862  0.79456550  0.20536709  1
  Ti  Ti180  1  0.09819270  0.89344810  0.30651684  1
  Ti  Ti181  1  0.60511496  0.60180490  -0.00070331  1
  Ti  Ti182  1  0.59053517  0.20314150  0.20316294  1
  Ti  Ti183  1  0.19848840  0.19827089  0.79867279  1
  Ti  Ti184  1  0.29780059  0.30604446  0.10137548  1
  Ti  Ti185  1  0.59615896  0.19836774  0.00269301  1
  Ti  Ti186  1  0.89840496  0.09203422  0.10021142  1
  Ti  Ti187  1  0.40070561  0.79544478  0.20030394  1
  Ti  Ti188  1  0.41124597  0.00612626  0.39589006  1
  Ti  Ti189  1  0.20531627  0.59494514  0.59798907  1
  Ti  Ti190  1  0.79458298  0.20417652  0.39783861  1
  Ti  Ti191  1  0.90885588  0.49656748  0.89656216  1
  Ti  Ti192  1  0.40052237  -0.00523089  0.20032751  1
  Ti  Ti193  1  -0.00422918  0.00236914  0.39928540  1
  Ti  Ti194  1  0.31187010  0.89575497  0.30106960  1
  Ti  Ti195  1  0.10759559  0.31574139  0.71148814  1
  Ti  Ti196  1  0.00578917  0.39748262  0.40258141  1
  Ti  Ti197  1  -0.00769143  0.59871326  0.39207557  1
  Ti  Ti198  1  0.30770691  0.50583893  0.30533873  1
  Ti  Ti199  1  0.50535256  0.89259239  0.90422585  1
  Mo  Mo200  1  0.10843000  0.49799391  0.69715727  1
  Mo  Mo201  1  0.11510405  0.10139990  0.69837585  1
  Mo  Mo202  1  0.30173689  0.88644184  0.10550857  1
  Mo  Mo203  1  0.20921996  0.59683087  0.80887190  1
  Mo  Mo204  1  0.30407099  0.68675398  0.69618023  1
  Mo  Mo205  1  0.59646802  -0.00478898  -0.00629299  1
  Mo  Mo206  1  0.19758322  0.41421516  0.79539756  1
  Mo  Mo207  1  0.69799298  0.70007483  0.49626482  1
  Mo  Mo208  1  0.39702054  0.59841613  -0.00315513  1
  Mo  Mo209  1  0.69706502  0.49873443  0.49767627  1
  Mo  Mo210  1  0.79844318  0.40388668  0.19536527  1
  Mo  Mo211  1  0.59505970  0.40969527  0.19936427  1
  Mo  Mo212  1  0.39408775  0.21609149  0.59925297  1
  Mo  Mo213  1  0.60310216  0.41362248  0.40364325  1
  Mo  Mo214  1  0.89703535  0.69437701  0.29842495  1
  Mo  Mo215  1  0.69880040  0.69581276  0.29485546  1
  Mo  Mo216  1  0.78336022  0.00376868  0.79564196  1
  Mo  Mo217  1  0.59829932  0.80082313  0.39530817  1
  Mo  Mo218  1  0.79164674  0.40243037  0.40061072  1
  Mo  Mo219  1  0.10361771  0.31209709  0.49398345  1
  Mo  Mo220  1  0.40282518  0.20170885  0.40015319  1
  Mo  Mo221  1  0.60260266  0.79963427  0.80630885  1
  Mo  Mo222  1  0.79508287  0.59880638  0.19999386  1
  Mo  Mo223  1  0.20484771  0.40320811  0.00485749  1
  Mo  Mo224  1  0.68892022  0.10495360  0.90588286  1
  Mo  Mo225  1  0.50435785  0.31712903  0.29327291  1
  Mo  Mo226  1  0.20638710  0.59103823  0.40252192  1
  Mo  Mo227  1  0.10507906  0.69941418  0.90362080  1
  Mo  Mo228  1  0.79777454  0.40310331  0.59763178  1
  Mo  Mo229  1  0.40179693  0.79401512  0.00158453  1
  Mo  Mo230  1  0.39206844  0.59283148  0.59922737  1
  Mo  Mo231  1  0.50019743  0.08560864  0.29418357  1
  Mo  Mo232  1  0.50214410  0.29843110  0.10133786  1
  Mo  Mo233  1  0.60318252  0.40799151  0.59257411  1
  Mo  Mo234  1  0.79023528  0.00724124  0.39992721  1
  Mo  Mo235  1  0.00392380  0.40862689  0.79364466  1
  Mo  Mo236  1  0.08878669  0.49560547  0.30828978  1
  Mo  Mo237  1  0.69991338  0.09812091  0.70300300  1
  Mo  Mo238  1  0.10715041  0.89726077  0.90421632  1
  Mo  Mo239  1  0.30073690  0.89677722  0.70205404  1
  Mo  Mo240  1  0.40373073  0.59888377  0.39901570  1
  Mo  Mo241  1  0.49872887  0.69845720  0.29976841  1
  Mo  Mo242  1  0.69181039  0.90150751  0.30128090  1
  Mo  Mo243  1  0.79966766  0.19932387  0.59195122  1
  Mo  Mo244  1  0.89786090  0.69018920  0.70169532  1
  Mo  Mo245  1  0.49150181  0.10092231  0.48910316  1
  Mo  Mo246  1  0.59951854  0.40830603  0.80542497  1
  Mo  Mo247  1  0.11111006  0.50136228  0.89676935  1
  Mo  Mo248  1  0.40230304  0.79058708  0.80467004  1
  Mo  Mo249  1  0.69336912  0.69526908  0.90258067  1
