# generated using pymatgen
data_HfZrTaTiMo
_symmetry_space_group_name_H-M   'P 1'
_cell_length_a   16.88358063
_cell_length_b   16.87417060
_cell_length_c   16.88617374
_cell_angle_alpha   90.02682480
_cell_angle_beta   90.04922976
_cell_angle_gamma   89.99701804
_symmetry_Int_Tables_number   1
_chemical_formula_structural   HfZrTaTiMo
_chemical_formula_sum   'Hf50 Zr50 Ta50 Ti50 Mo50'
_cell_volume   4810.80813444
_cell_formula_units_Z   50
loop_
 _symmetry_equiv_pos_site_id
 _symmetry_equiv_pos_as_xyz
  1  'x, y, z'
loop_
 _atom_site_type_symbol
 _atom_site_label
 _atom_site_symmetry_multiplicity
 _atom_site_fract_x
 _atom_site_fract_y
 _atom_site_fract_z
 _atom_site_occupancy
  Hf  Hf0  1  0.10122384  0.09810304  0.10253238  1
  Hf  Hf1  1  0.79577518  0.39975716  0.39451657  1
  Hf  Hf2  1  0.59796338  0.39570897  0.78829456  1
  Hf  Hf3  1  0.80398907  0.79733894  0.60376285  1
  Hf  Hf4  1  0.69766239  0.70425391  0.10268122  1
  Hf  Hf5  1  0.39961978  0.00568596  0.59738040  1
  Hf  Hf6  1  0.20437117  0.59946174  0.80221681  1
  Hf  Hf7  1  0.59800132  0.18623154  0.00513981  1
  Hf  Hf8  1  0.40517824  0.00644620  0.40730851  1
  Hf  Hf9  1  0.50991119  0.89940873  0.69017481  1
  Hf  Hf10  1  0.50450165  0.09375803  0.29475332  1
  Hf  Hf11  1  0.40421569  0.60312590  0.40721865  1
  Hf  Hf12  1  0.30342768  0.90450552  0.30043647  1
  Hf  Hf13  1  0.80122673  0.60534965  0.39909584  1
  Hf  Hf14  1  -0.00387411  0.40220230  -0.00084285  1
  Hf  Hf15  1  0.10357352  0.89668249  0.90665137  1
  Hf  Hf16  1  0.21128996  0.00527117  0.19575575  1
  Hf  Hf17  1  0.29990252  0.30150723  0.69675439  1
  Hf  Hf18  1  0.39154046  0.39443289  0.20113425  1
  Hf  Hf19  1  -0.00275232  0.19285111  0.59714681  1
  Hf  Hf20  1  0.49584341  0.28773719  0.30281269  1
  Hf  Hf21  1  0.69234785  0.09617722  0.30840126  1
  Hf  Hf22  1  -0.00727827  0.20456043  -0.00518318  1
  Hf  Hf23  1  0.59476570  0.80349233  0.80731015  1
  Hf  Hf24  1  0.89241244  0.09822637  0.90251899  1
  Hf  Hf25  1  0.40215986  0.79994241  0.39870422  1
  Hf  Hf26  1  0.59226917  0.59541741  0.60617291  1
  Hf  Hf27  1  0.21169457  0.79586056  0.80813151  1
  Hf  Hf28  1  0.59444627  0.20153497  0.79256374  1
  Hf  Hf29  1  0.00122320  0.60751397  0.20325368  1
  Hf  Hf30  1  0.40003251  0.40156736  0.00235978  1
  Hf  Hf31  1  0.00010250  0.00564759  0.39724790  1
  Hf  Hf32  1  0.68972193  0.90325169  0.30859344  1
  Hf  Hf33  1  -0.00000223  0.00883035  0.60163798  1
  Hf  Hf34  1  0.00299476  0.60057511  0.79774658  1
  Hf  Hf35  1  0.80649859  0.60804834  0.60293156  1
  Hf  Hf36  1  0.10867794  0.70164043  0.91523428  1
  Hf  Hf37  1  0.10102750  0.70287291  0.69092888  1
  Hf  Hf38  1  0.89522519  0.09469244  0.09989495  1
  Hf  Hf39  1  -0.00285013  0.19809257  0.79387347  1
  Hf  Hf40  1  -0.00364843  0.19672335  0.20558858  1
  Hf  Hf41  1  0.49652365  0.49543645  0.89281272  1
  Hf  Hf42  1  0.09885991  0.49752050  0.68268384  1
  Hf  Hf43  1  0.80165971  0.60041604  0.20939644  1
  Hf  Hf44  1  0.20185623  0.40571131  0.79855832  1
  Hf  Hf45  1  0.58988913  0.19686851  0.41788038  1
  Hf  Hf46  1  0.49874856  0.69320067  0.90180497  1
  Hf  Hf47  1  0.10271666  0.30471392  0.89545876  1
  Hf  Hf48  1  0.59291787  0.80650148  0.19604364  1
  Hf  Hf49  1  0.80257066  0.39369601  -0.00252724  1
  Zr  Zr50  1  0.40307579  0.79929937  0.80084971  1
  Zr  Zr51  1  0.20883466  0.40457510  0.19772401  1
  Zr  Zr52  1  0.59781673  0.39707266  0.40758198  1
  Zr  Zr53  1  0.01219888  0.80422077  0.20436919  1
  Zr  Zr54  1  0.50506047  0.29466291  0.10243662  1
  Zr  Zr55  1  0.90143976  0.89991345  0.49523605  1
  Zr  Zr56  1  0.89478946  0.90482408  0.29513955  1
  Zr  Zr57  1  0.90170661  0.89946318  0.90469311  1
  Zr  Zr58  1  0.79686964  0.19470836  0.20152775  1
  Zr  Zr59  1  0.90705569  0.49127561  0.50669536  1
  Zr  Zr60  1  0.10360046  0.90093174  0.49563485  1
  Zr  Zr61  1  0.80250692  0.20064593  0.79412930  1
  Zr  Zr62  1  -0.00287367  0.60519772  0.39225455  1
  Zr  Zr63  1  0.10172126  0.90141194  0.69876489  1
  Zr  Zr64  1  0.49894577  0.50371933  0.29912176  1
  Zr  Zr65  1  0.70535676  0.49733138  0.50895552  1
  Zr  Zr66  1  0.91109235  0.70735150  0.90452361  1
  Zr  Zr67  1  0.39123575  0.60907093  0.19264784  1
  Zr  Zr68  1  0.19977783  0.40055013  0.40473866  1
  Zr  Zr69  1  0.78923806  -0.00019675  0.19702374  1
  Zr  Zr70  1  0.40416541  0.80509831  0.00175102  1
  Zr  Zr71  1  0.39147956  0.18468401  0.19116447  1
  Zr  Zr72  1  0.80770372  0.00699938  0.60797665  1
  Zr  Zr73  1  0.10111825  0.30511744  0.09684936  1
  Zr  Zr74  1  0.68680298  0.70672979  0.69847363  1
  Zr  Zr75  1  0.00460039  -0.00717215  0.00966137  1
  Zr  Zr76  1  0.80485996  0.59628791  -0.00033967  1
  Zr  Zr77  1  0.09849498  0.30130045  0.30162449  1
  Zr  Zr78  1  0.29806452  0.50755607  0.30721465  1
  Zr  Zr79  1  0.69864084  0.49280596  0.10130700  1
  Zr  Zr80  1  0.40164854  0.79859121  0.59704583  1
  Zr  Zr81  1  0.69538915  0.90380048  0.50048560  1
  Zr  Zr82  1  0.59949907  0.00643802  0.80211628  1
  Zr  Zr83  1  0.90295861  0.49242081  0.88794844  1
  Zr  Zr84  1  0.29070986  0.91517594  0.69853723  1
  Zr  Zr85  1  0.59767348  0.20167895  0.60775940  1
  Zr  Zr86  1  0.29979748  0.68924877  0.68964004  1
  Zr  Zr87  1  0.09935622  0.30631720  0.69177623  1
  Zr  Zr88  1  0.29804532  0.50043663  0.90711329  1
  Zr  Zr89  1  0.30113774  0.29780626  0.51140432  1
  Zr  Zr90  1  0.21056611  0.20222374  0.20211304  1
  Zr  Zr91  1  0.48686769  0.10014766  0.89953468  1
  Zr  Zr92  1  0.30500034  0.91567818  0.90317423  1
  Zr  Zr93  1  0.79321475  0.79870358  -0.00338832  1
  Zr  Zr94  1  0.10229162  0.69895194  0.50050972  1
  Zr  Zr95  1  0.60257844  0.59448995  -0.00343602  1
  Zr  Zr96  1  0.59824196  0.39409839  0.60507243  1
  Zr  Zr97  1  0.69955189  0.29656223  0.90339771  1
  Zr  Zr98  1  0.80273212  0.60884308  0.79303756  1
  Zr  Zr99  1  0.60805167  0.40187969  0.21024012  1
  Ta  Ta100  1  0.90705704  0.48738210  0.69499130  1
  Ta  Ta101  1  0.20304332  0.19444652  0.79651469  1
  Ta  Ta102  1  0.69941587  0.49554249  0.88850898  1
  Ta  Ta103  1  0.29526600  0.30032847  0.08117051  1
  Ta  Ta104  1  0.09727802  0.50258658  0.29650885  1
  Ta  Ta105  1  0.69726881  0.90248964  0.69826249  1
  Ta  Ta106  1  0.60390773  0.60023086  0.39898702  1
  Ta  Ta107  1  0.89281546  0.30055323  0.10412360  1
  Ta  Ta108  1  0.00097313  0.59898968  0.00954116  1
  Ta  Ta109  1  0.10360632  0.09783457  0.30344509  1
  Ta  Ta110  1  0.30298469  0.29574266  0.89493014  1
  Ta  Ta111  1  0.10736558  0.50445481  0.09682976  1
  Ta  Ta112  1  0.69304079  0.89909080  0.09691018  1
  Ta  Ta113  1  0.29489445  0.69861960  0.49648597  1
  Ta  Ta114  1  0.29862734  0.09944648  0.89453918  1
  Ta  Ta115  1  0.00138287  0.39628329  0.40036118  1
  Ta  Ta116  1  0.10405237  0.70529581  0.09578625  1
  Ta  Ta117  1  0.89762054  0.89360442  0.10416674  1
  Ta  Ta118  1  0.79883058  0.80577529  0.79631296  1
  Ta  Ta119  1  0.20018077  0.19955593  0.40423651  1
  Ta  Ta120  1  0.50530984  0.70540868  0.30079072  1
  Ta  Ta121  1  0.90364557  0.49063354  0.29790912  1
  Ta  Ta122  1  0.71668320  0.28995325  0.50371280  1
  Ta  Ta123  1  0.19900475  0.60706029  0.19669332  1
  Ta  Ta124  1  0.20182835  0.19546034  -0.00718042  1
  Ta  Ta125  1  0.90252691  0.70974392  0.10542612  1
  Ta  Ta126  1  0.39752076  0.39585450  0.40595440  1
  Ta  Ta127  1  0.69566033  0.90214376  0.90195870  1
  Ta  Ta128  1  0.89829289  0.29910532  0.30392023  1
  Ta  Ta129  1  0.47580367  0.30310085  0.70093648  1
  Ta  Ta130  1  0.50316664  0.70001725  0.09897268  1
  Ta  Ta131  1  0.49814183  0.50403748  0.10086584  1
  Ta  Ta132  1  0.59145094  -0.00602505  0.00360190  1
  Ta  Ta133  1  0.00044317  0.20055813  0.40454271  1
  Ta  Ta134  1  0.10458756  0.09491090  0.89685130  1
  Ta  Ta135  1  0.50952788  0.70449611  0.50058294  1
  Ta  Ta136  1  0.70663118  0.10004256  0.49755337  1
  Ta  Ta137  1  -0.00225487  0.00348996  0.79732427  1
  Ta  Ta138  1  0.20450291  0.80042360  0.19628779  1
  Ta  Ta139  1  0.80139337  0.79426945  0.39494493  1
  Ta  Ta140  1  0.69835793  0.28659576  0.30387652  1
  Ta  Ta141  1  0.79952959  -0.00396442  0.79806107  1
  Ta  Ta142  1  0.51147510  0.89895624  0.49490206  1
  Ta  Ta143  1  0.29062966  0.90387447  0.49384266  1
  Ta  Ta144  1  0.00242332  0.79444191  0.38707401  1
  Ta  Ta145  1  0.20392709  0.80175414  0.59409181  1
  Ta  Ta146  1  0.50130206  0.90684613  0.29807313  1
  Ta  Ta147  1  0.19832740  0.18815311  0.60134579  1
  Ta  Ta148  1  0.69485132  0.70612416  0.30068637  1
  Ta  Ta149  1  0.70081291  0.28989980  0.10336062  1
  Ti  Ti150  1  0.30028577  0.10117345  0.31371578  1
  Ti  Ti151  1  0.30551163  0.49453036  0.68885288  1
  Ti  Ti152  1  -0.00138334  0.40094996  0.20052768  1
  Ti  Ti153  1  0.28977483  0.70169291  0.08300539  1
  Ti  Ti154  1  0.49487253  0.49637658  0.50427065  1
  Ti  Ti155  1  0.39936123  0.18187413  0.60634245  1
  Ti  Ti156  1  0.10050071  0.30238652  0.50719316  1
  Ti  Ti157  1  0.19523098  0.60296670  0.39740230  1
  Ti  Ti158  1  0.70444256  0.09800402  0.90576227  1
  Ti  Ti159  1  0.10110845  0.50037556  0.90695424  1
  Ti  Ti160  1  0.48195835  0.29669206  0.51082627  1
  Ti  Ti161  1  0.11326232  0.09009468  0.70390649  1
  Ti  Ti162  1  0.88685526  0.10642452  0.48842793  1
  Ti  Ti163  1  0.59737750  0.39703152  -0.00273123  1
  Ti  Ti164  1  0.68969193  0.70923546  0.49656754  1
  Ti  Ti165  1  0.30229171  0.90121607  0.10077399  1
  Ti  Ti166  1  0.90178675  0.49700566  0.10797401  1
  Ti  Ti167  1  0.40125465  0.59892062  0.79182500  1
  Ti  Ti168  1  0.39585331  0.19464811  0.00189142  1
  Ti  Ti169  1  0.29514933  0.50456464  0.50983403  1
  Ti  Ti170  1  0.48692742  0.29807314  0.89208011  1
  Ti  Ti171  1  0.60138451  0.59975650  0.20522519  1
  Ti  Ti172  1  0.19508460  0.79830540  0.39036516  1
  Ti  Ti173  1  0.90955901  0.71101282  0.50026881  1
  Ti  Ti174  1  0.10103506  0.49997073  0.50339989  1
  Ti  Ti175  1  0.89810492  0.29848691  0.49892160  1
  Ti  Ti176  1  0.70317894  0.09915789  0.69849034  1
  Ti  Ti177  1  0.89629577  0.09890381  0.30584425  1
  Ti  Ti178  1  -0.00738621  0.60773399  0.60110090  1
  Ti  Ti179  1  0.80340656  0.38866373  0.79650960  1
  Ti  Ti180  1  0.59427322  0.01622724  0.59665466  1
  Ti  Ti181  1  0.78816478  -0.00082471  0.00353784  1
  Ti  Ti182  1  0.40596778  0.00374202  0.01616735  1
  Ti  Ti183  1  0.71495897  0.49168255  0.70062582  1
  Ti  Ti184  1  0.11042407  0.09584445  0.49477482  1
  Ti  Ti185  1  0.40033085  0.80134416  0.19561514  1
  Ti  Ti186  1  0.40649387  0.59925547  0.59949949  1
  Ti  Ti187  1  0.79699637  0.39803005  0.20651093  1
  Ti  Ti188  1  0.59505823  0.59216250  0.78980570  1
  Ti  Ti189  1  -0.00082046  0.79975742  0.79422264  1
  Ti  Ti190  1  0.39386304  0.60025834  0.00475526  1
  Ti  Ti191  1  0.90646236  0.31132167  0.69429790  1
  Ti  Ti192  1  0.29295065  0.09827169  0.49974435  1
  Ti  Ti193  1  0.80707684  0.20072554  0.60801228  1
  Ti  Ti194  1  0.90486919  0.89691425  0.70107615  1
  Ti  Ti195  1  0.69476313  0.69882135  0.89721048  1
  Ti  Ti196  1  0.40363665  0.00970525  0.78761106  1
  Ti  Ti197  1  0.20413465  0.00146323  0.00545382  1
  Ti  Ti198  1  0.29795730  0.70366569  0.30112773  1
  Ti  Ti199  1  0.10694795  0.91142490  0.29636063  1
  Mo  Mo200  1  0.00139768  0.39217149  0.58832742  1
  Mo  Mo201  1  0.39422918  0.19795437  0.40744475  1
  Mo  Mo202  1  0.20061856  0.00586002  0.59244773  1
  Mo  Mo203  1  0.20113389  0.40623122  0.59517119  1
  Mo  Mo204  1  -0.00033736  0.80103509  0.59947229  1
  Mo  Mo205  1  0.49500532  0.10343150  0.69946223  1
  Mo  Mo206  1  0.60410261  0.19410383  0.19706446  1
  Mo  Mo207  1  0.60063185  0.79699952  0.59790718  1
  Mo  Mo208  1  0.39960231  0.41242274  0.59716980  1
  Mo  Mo209  1  0.00688393  0.00097405  0.20556227  1
  Mo  Mo210  1  0.20611347  0.80596709  0.00825055  1
  Mo  Mo211  1  0.71402957  0.30009676  0.69455616  1
  Mo  Mo212  1  0.00430156  0.79900005  0.01443328  1
  Mo  Mo213  1  0.79918627  0.00513553  0.40185825  1
  Mo  Mo214  1  0.49619124  0.90133197  0.10507539  1
  Mo  Mo215  1  0.19593976  0.00680375  0.80603395  1
  Mo  Mo216  1  0.30818284  0.28994327  0.31781454  1
  Mo  Mo217  1  0.90936813  0.70975035  0.69837796  1
  Mo  Mo218  1  0.19977088  0.39957582  -0.00309164  1
  Mo  Mo219  1  0.39455021  0.20090785  0.79911272  1
  Mo  Mo220  1  0.59589074  0.80379765  -0.00206870  1
  Mo  Mo221  1  0.40036484  -0.00575827  0.19589776  1
  Mo  Mo222  1  0.30033755  0.09876885  0.08199983  1
  Mo  Mo223  1  0.49966793  0.09903801  0.50396431  1
  Mo  Mo224  1  0.69298272  0.09429004  0.09621050  1
  Mo  Mo225  1  0.50159231  0.90610367  0.90673791  1
  Mo  Mo226  1  0.19958675  0.59781637  0.00660718  1
  Mo  Mo227  1  0.59299546  -0.00005640  0.18712970  1
  Mo  Mo228  1  0.30501886  0.69109594  0.90664897  1
  Mo  Mo229  1  0.20431283  0.59782427  0.59127479  1
  Mo  Mo230  1  0.70484528  0.50796952  0.30242652  1
  Mo  Mo231  1  0.49747948  0.09284781  0.10210321  1
  Mo  Mo232  1  0.29764840  0.50188747  0.09816116  1
  Mo  Mo233  1  0.90157431  0.09582200  0.70353465  1
  Mo  Mo234  1  0.48430002  0.49848527  0.70125806  1
  Mo  Mo235  1  0.20286938  0.00698496  0.39586640  1
  Mo  Mo236  1  0.11623169  0.69973282  0.29742347  1
  Mo  Mo237  1  0.90148926  0.29838312  0.89988161  1
  Mo  Mo238  1  0.59671325  0.00227129  0.41173752  1
  Mo  Mo239  1  0.80387891  0.20220404  0.40091763  1
  Mo  Mo240  1  0.11127055  0.89833849  0.10346054  1
  Mo  Mo241  1  0.29723311  0.10427574  0.70180792  1
  Mo  Mo242  1  0.80521225  0.38890482  0.60416831  1
  Mo  Mo243  1  0.79626585  0.19898699  0.00445685  1
  Mo  Mo244  1  0.79266119  0.80019348  0.19966045  1
  Mo  Mo245  1  0.59865781  0.79735886  0.39736316  1
  Mo  Mo246  1  0.89162983  0.70947010  0.29713961  1
  Mo  Mo247  1  0.39655342  0.40003547  0.79848358  1
  Mo  Mo248  1  0.49666535  0.69264069  0.69828405  1
  Mo  Mo249  1  -0.00007850  0.40146825  0.79808458  1
