# generated using pymatgen
data_HfZrTaTiMo
_symmetry_space_group_name_H-M   'P 1'
_cell_length_a   16.88045148
_cell_length_b   16.88718846
_cell_length_c   16.88909587
_cell_angle_alpha   90.02923838
_cell_angle_beta   90.04285063
_cell_angle_gamma   90.02918003
_symmetry_Int_Tables_number   1
_chemical_formula_structural   HfZrTaTiMo
_chemical_formula_sum   'Hf50 Zr50 Ta50 Ti50 Mo50'
_cell_volume   4814.45991096
_cell_formula_units_Z   50
loop_
 _symmetry_equiv_pos_site_id
 _symmetry_equiv_pos_as_xyz
  1  'x, y, z'
loop_
 _atom_site_type_symbol
 _atom_site_label
 _atom_site_symmetry_multiplicity
 _atom_site_fract_x
 _atom_site_fract_y
 _atom_site_fract_z
 _atom_site_occupancy
  Hf  Hf0  1  0.18892609  0.39187950  0.80148277  1
  Hf  Hf1  1  0.09092153  0.30067938  0.11303111  1
  Hf  Hf2  1  0.68453040  0.49137258  0.29501978  1
  Hf  Hf3  1  0.49950090  0.90123490  0.50227856  1
  Hf  Hf4  1  0.10707324  0.29840303  0.29816658  1
  Hf  Hf5  1  0.70353759  0.10572376  0.89649955  1
  Hf  Hf6  1  0.90057571  0.69334357  0.69862787  1
  Hf  Hf7  1  0.51565506  0.48510512  0.10179880  1
  Hf  Hf8  1  0.40160101  0.19506601  0.59048304  1
  Hf  Hf9  1  0.50872922  0.30171628  0.70078473  1
  Hf  Hf10  1  0.50731972  0.90957838  0.30886832  1
  Hf  Hf11  1  0.18974858  0.00177565  -0.00233320  1
  Hf  Hf12  1  0.29057251  0.50554768  0.89495221  1
  Hf  Hf13  1  0.00133671  0.39308523  -0.00566481  1
  Hf  Hf14  1  0.29362422  0.69647366  0.70055990  1
  Hf  Hf15  1  0.39671359  0.00228704  0.20628419  1
  Hf  Hf16  1  0.20603640  0.19533285  0.40520353  1
  Hf  Hf17  1  0.90229004  0.69727038  0.89909173  1
  Hf  Hf18  1  0.29396259  0.89713427  0.10381475  1
  Hf  Hf19  1  0.80692308  0.38991747  0.00200069  1
  Hf  Hf20  1  0.29583186  0.51052241  0.69942836  1
  Hf  Hf21  1  0.90312591  0.09992206  0.49725887  1
  Hf  Hf22  1  0.80340067  -0.00112160  0.60286168  1
  Hf  Hf23  1  0.10402280  0.30139562  0.50083374  1
  Hf  Hf24  1  0.09658144  0.70121163  0.30867708  1
  Hf  Hf25  1  0.40058634  0.40160164  -0.00178958  1
  Hf  Hf26  1  0.09834170  0.70766832  0.09707191  1
  Hf  Hf27  1  0.90368787  0.11232754  0.70161305  1
  Hf  Hf28  1  0.80202517  0.80774145  0.80200099  1
  Hf  Hf29  1  0.00616292  0.39406106  0.79364826  1
  Hf  Hf30  1  0.29652577  0.90071214  0.51582033  1
  Hf  Hf31  1  0.09899045  0.90001893  0.50767912  1
  Hf  Hf32  1  0.41048519  0.40515347  0.80028694  1
  Hf  Hf33  1  0.90444456  0.29814495  0.50423384  1
  Hf  Hf34  1  0.39463455  -0.00575746  -0.00565391  1
  Hf  Hf35  1  0.70426272  0.09807697  0.48754111  1
  Hf  Hf36  1  0.40721839  0.40471215  0.59519124  1
  Hf  Hf37  1  0.70346327  0.70306920  0.68663696  1
  Hf  Hf38  1  0.19139700  0.60167690  -0.00255862  1
  Hf  Hf39  1  0.79961213  0.59483935  0.19765129  1
  Hf  Hf40  1  0.79618387  0.38643296  0.79741324  1
  Hf  Hf41  1  0.09173722  0.10671550  0.10861120  1
  Hf  Hf42  1  0.89451839  0.70254556  0.09178860  1
  Hf  Hf43  1  0.48916439  0.70139379  0.68637726  1
  Hf  Hf44  1  0.18934944  -0.00245925  0.20834367  1
  Hf  Hf45  1  0.30763635  0.11118507  0.90476339  1
  Hf  Hf46  1  0.10414265  0.69391272  0.50845221  1
  Hf  Hf47  1  0.29892666  0.11301835  0.10527822  1
  Hf  Hf48  1  0.40305346  0.59716579  0.20177766  1
  Hf  Hf49  1  0.90726385  0.89708325  0.48582312  1
  Zr  Zr50  1  0.89426461  0.09517697  0.30340455  1
  Zr  Zr51  1  0.80399606  0.20697228  0.19826002  1
  Zr  Zr52  1  0.07963124  0.89792585  0.32476192  1
  Zr  Zr53  1  0.41104654  0.60158599  0.80897266  1
  Zr  Zr54  1  0.50599610  0.69524898  0.30802954  1
  Zr  Zr55  1  0.60246814  0.00123597  0.79630678  1
  Zr  Zr56  1  0.49871981  0.10814301  0.09790464  1
  Zr  Zr57  1  0.40285544  0.79345922  0.20145100  1
  Zr  Zr58  1  0.41055549  0.60504529  0.00294194  1
  Zr  Zr59  1  -0.00283362  0.00022466  0.80281362  1
  Zr  Zr60  1  0.79918728  0.59095734  0.40115304  1
  Zr  Zr61  1  0.39105123  0.01430694  0.40817629  1
  Zr  Zr62  1  0.19508059  0.39941342  0.60944609  1
  Zr  Zr63  1  0.21367898  0.40076168  0.19476756  1
  Zr  Zr64  1  0.10548015  0.49354071  0.30676177  1
  Zr  Zr65  1  0.29688204  0.50278687  0.50194726  1
  Zr  Zr66  1  -0.00132467  0.81487284  0.19069866  1
  Zr  Zr67  1  0.59598399  0.59885041  0.80388066  1
  Zr  Zr68  1  0.50385505  0.90381862  0.10370304  1
  Zr  Zr69  1  0.59916090  0.60784073  0.19182551  1
  Zr  Zr70  1  0.69095674  0.48721307  0.90759280  1
  Zr  Zr71  1  0.80174570  0.39335038  0.39308951  1
  Zr  Zr72  1  0.60180964  0.19618287  0.59660836  1
  Zr  Zr73  1  0.18930515  0.19788413  0.79884117  1
  Zr  Zr74  1  0.19517526  0.80563984  -0.00501895  1
  Zr  Zr75  1  0.19766964  0.00921065  0.40554373  1
  Zr  Zr76  1  0.20135026  0.00192413  0.80350763  1
  Zr  Zr77  1  0.70855092  0.70277713  0.49703430  1
  Zr  Zr78  1  0.49143846  0.89515810  0.69042565  1
  Zr  Zr79  1  0.60115482  0.79358089  0.80275716  1
  Zr  Zr80  1  0.10351459  0.89737618  0.69899234  1
  Zr  Zr81  1  0.80451161  0.81771912  0.20259334  1
  Zr  Zr82  1  0.79320947  0.59500684  0.79703010  1
  Zr  Zr83  1  -0.00201133  0.59806614  0.19745610  1
  Zr  Zr84  1  0.49563566  0.90103078  0.89345989  1
  Zr  Zr85  1  0.70445279  0.09381865  0.10116385  1
  Zr  Zr86  1  0.68428890  0.30308684  0.09263787  1
  Zr  Zr87  1  0.80558042  0.20182763  -0.00209812  1
  Zr  Zr88  1  0.20447458  0.60221749  0.20028596  1
  Zr  Zr89  1  0.39375771  0.00767636  0.79179132  1
  Zr  Zr90  1  0.30870054  0.29807305  0.89680747  1
  Zr  Zr91  1  0.69673925  0.48684970  0.68897807  1
  Zr  Zr92  1  0.40333798  0.39954700  0.20619158  1
  Zr  Zr93  1  0.90217316  0.50209695  0.89358784  1
  Zr  Zr94  1  0.70524966  0.89900577  0.49580600  1
  Zr  Zr95  1  0.89991754  0.71136034  0.31301090  1
  Zr  Zr96  1  -0.00929368  0.00173417  0.20093956  1
  Zr  Zr97  1  0.59506224  0.79604950  0.00136889  1
  Zr  Zr98  1  0.39957836  0.79324741  0.40778261  1
  Zr  Zr99  1  0.18590964  0.21017962  -0.00530821  1
  Ta  Ta100  1  0.60173641  0.00218036  -0.00483667  1
  Ta  Ta101  1  -0.00478865  0.59296169  0.41057994  1
  Ta  Ta102  1  0.90587991  0.49273807  0.29974234  1
  Ta  Ta103  1  0.80391055  0.39765240  0.19689911  1
  Ta  Ta104  1  0.00375382  0.60063148  -0.00355081  1
  Ta  Ta105  1  0.90221620  0.49073362  0.50623302  1
  Ta  Ta106  1  0.30247224  0.11492749  0.29430389  1
  Ta  Ta107  1  0.00840775  0.19513641  0.39628348  1
  Ta  Ta108  1  0.30531758  0.69188798  0.51414165  1
  Ta  Ta109  1  -0.00976479  0.19761263  0.00298667  1
  Ta  Ta110  1  0.59240349  0.59508922  0.58541817  1
  Ta  Ta111  1  0.40759370  0.40286061  0.39800385  1
  Ta  Ta112  1  0.70808066  0.69806265  0.91140226  1
  Ta  Ta113  1  -0.00157321  0.59600435  0.60129217  1
  Ta  Ta114  1  0.29847309  0.70324435  0.09967932  1
  Ta  Ta115  1  0.49895275  0.29331132  0.09726346  1
  Ta  Ta116  1  0.19295749  0.40100091  -0.00244726  1
  Ta  Ta117  1  0.59719217  0.60477749  -0.00074147  1
  Ta  Ta118  1  0.59812002  0.20058718  0.20559445  1
  Ta  Ta119  1  0.30427231  0.30124514  0.49584419  1
  Ta  Ta120  1  0.79718799  0.20393443  0.59915087  1
  Ta  Ta121  1  0.70543451  0.70679500  0.09712763  1
  Ta  Ta122  1  0.30241630  0.29450927  0.69448999  1
  Ta  Ta123  1  0.39711143  0.79467171  -0.00476037  1
  Ta  Ta124  1  0.70293233  0.70545201  0.30164352  1
  Ta  Ta125  1  0.70134718  0.89788808  0.69073422  1
  Ta  Ta126  1  0.50365802  0.30029786  0.48767735  1
  Ta  Ta127  1  0.70727623  0.10204385  0.70213160  1
  Ta  Ta128  1  0.00269478  0.39956089  0.40180858  1
  Ta  Ta129  1  -0.00349622  0.81007310  -0.00637366  1
  Ta  Ta130  1  0.10081896  0.49957764  0.50240023  1
  Ta  Ta131  1  0.60863969  0.80337418  0.20193476  1
  Ta  Ta132  1  0.29497656  0.89736175  0.30742933  1
  Ta  Ta133  1  0.90213052  0.29603733  0.69340637  1
  Ta  Ta134  1  0.50083763  0.10864546  0.30334836  1
  Ta  Ta135  1  0.20500583  0.79397766  0.40588927  1
  Ta  Ta136  1  0.90055173  0.49277734  0.69230067  1
  Ta  Ta137  1  0.80367332  -0.00388000  0.79850548  1
  Ta  Ta138  1  0.19702233  0.80344941  0.20847938  1
  Ta  Ta139  1  0.51186109  0.29743037  0.90503911  1
  Ta  Ta140  1  0.69741183  0.09452874  0.30230036  1
  Ta  Ta141  1  0.89264317  0.92235598  0.07988599  1
  Ta  Ta142  1  0.60424676  0.79937846  0.39862408  1
  Ta  Ta143  1  0.69870484  0.30239824  0.49730141  1
  Ta  Ta144  1  -0.00122169  0.79239433  0.60456017  1
  Ta  Ta145  1  0.30306585  0.50187348  0.31361040  1
  Ta  Ta146  1  0.09166280  0.90163560  0.89936119  1
  Ta  Ta147  1  0.70389617  0.90714118  0.09676525  1
  Ta  Ta148  1  0.60066281  0.00436679  0.59905944  1
  Ta  Ta149  1  0.29353312  0.70035949  0.89742255  1
  Ti  Ti150  1  0.59666496  0.79622067  0.59026460  1
  Ti  Ti151  1  0.89607376  0.70305351  0.50487719  1
  Ti  Ti152  1  0.09610345  0.50961199  0.89094154  1
  Ti  Ti153  1  0.89963097  0.28714401  0.88599846  1
  Ti  Ti154  1  -0.00022363  0.00009508  0.60217149  1
  Ti  Ti155  1  0.79796505  0.59125138  0.00578313  1
  Ti  Ti156  1  0.00750740  0.19578091  0.81083658  1
  Ti  Ti157  1  0.69648699  0.49227581  0.09944651  1
  Ti  Ti158  1  0.91632621  0.30108937  0.29147972  1
  Ti  Ti159  1  0.50733789  0.10274764  0.70118853  1
  Ti  Ti160  1  0.30560450  0.29709740  0.30590426  1
  Ti  Ti161  1  0.80081841  0.20653708  0.39434372  1
  Ti  Ti162  1  0.70173184  0.29613274  0.69614070  1
  Ti  Ti163  1  0.09564585  0.49539676  0.10156492  1
  Ti  Ti164  1  0.50338688  0.30006507  0.29953478  1
  Ti  Ti165  1  0.70567034  0.90895936  0.30590400  1
  Ti  Ti166  1  0.10158972  0.10323678  0.51471405  1
  Ti  Ti167  1  0.09993308  0.10190867  0.68816058  1
  Ti  Ti168  1  0.69136572  0.30194643  0.29859750  1
  Ti  Ti169  1  0.60811528  0.20582247  0.80175161  1
  Ti  Ti170  1  0.70419980  0.90595193  0.90371345  1
  Ti  Ti171  1  0.30536128  0.29058360  0.10116877  1
  Ti  Ti172  1  0.50168161  0.11295091  0.90376791  1
  Ti  Ti173  1  0.60154340  0.20324026  0.39427347  1
  Ti  Ti174  1  0.69835194  0.48746654  0.49714738  1
  Ti  Ti175  1  0.89776826  0.09067481  0.90632639  1
  Ti  Ti176  1  0.09944794  0.51843585  0.70292064  1
  Ti  Ti177  1  0.60427161  0.00157214  0.20312347  1
  Ti  Ti178  1  0.19316719  0.79624461  0.80510198  1
  Ti  Ti179  1  0.19788740  0.79355633  0.60681981  1
  Ti  Ti180  1  0.09218810  0.28075848  0.68761099  1
  Ti  Ti181  1  0.39036561  0.80057750  0.80780135  1
  Ti  Ti182  1  0.29827953  0.89602628  0.69767343  1
  Ti  Ti183  1  0.50664052  0.10160415  0.48825198  1
  Ti  Ti184  1  0.59632561  0.59387093  0.40606922  1
  Ti  Ti185  1  0.40505462  0.20008127  0.79257959  1
  Ti  Ti186  1  0.29907216  0.69740127  0.30678649  1
  Ti  Ti187  1  0.50823020  0.49927405  0.69512266  1
  Ti  Ti188  1  0.80195834  0.81052469  -0.00546327  1
  Ti  Ti189  1  0.90115429  0.89312840  0.69474103  1
  Ti  Ti190  1  0.59769514  0.39921403  0.58840760  1
  Ti  Ti191  1  0.41196500  0.59408632  0.41169860  1
  Ti  Ti192  1  0.29927774  0.50380020  0.09476828  1
  Ti  Ti193  1  0.90737960  0.49229954  0.10247864  1
  Ti  Ti194  1  0.00426548  0.40267290  0.60352781  1
  Ti  Ti195  1  0.39900961  0.01129091  0.60060939  1
  Ti  Ti196  1  0.20269369  0.60102661  0.40471889  1
  Ti  Ti197  1  0.00377789  0.79576306  0.80164994  1
  Ti  Ti198  1  0.80050044  0.58793453  0.59348924  1
  Ti  Ti199  1  0.28789719  0.10650026  0.68580877  1
  Mo  Mo200  1  0.59676821  0.39569479  -0.00323404  1
  Mo  Mo201  1  0.60013764  0.00297100  0.39828249  1
  Mo  Mo202  1  0.49616022  0.70241804  0.90121265  1
  Mo  Mo203  1  0.89921621  0.10059935  0.09825832  1
  Mo  Mo204  1  0.80308741  0.19845394  0.79400822  1
  Mo  Mo205  1  -0.00348799  0.20058213  0.20326411  1
  Mo  Mo206  1  0.40568045  0.20585299  0.00155869  1
  Mo  Mo207  1  0.50355598  0.70496233  0.09922560  1
  Mo  Mo208  1  0.69541573  0.29450636  0.89199707  1
  Mo  Mo209  1  0.40407527  0.20744001  0.39855205  1
  Mo  Mo210  1  0.09634248  0.69861699  0.70323714  1
  Mo  Mo211  1  0.20866172  0.39750203  0.40210471  1
  Mo  Mo212  1  0.79894225  0.80291768  0.39805508  1
  Mo  Mo213  1  0.50823546  0.49327296  0.90493364  1
  Mo  Mo214  1  0.29424681  0.89072842  0.89335146  1
  Mo  Mo215  1  0.90041216  0.89825894  0.89562524  1
  Mo  Mo216  1  0.00159788  0.59723397  0.79586000  1
  Mo  Mo217  1  0.08914519  0.29895532  0.90443779  1
  Mo  Mo218  1  0.09174634  0.90411135  0.09312601  1
  Mo  Mo219  1  0.00068506  0.78189867  0.41690736  1
  Mo  Mo220  1  0.40765641  0.59722093  0.59824754  1
  Mo  Mo221  1  0.79773165  0.39290024  0.59827311  1
  Mo  Mo222  1  0.79447814  -0.00107210  0.20017090  1
  Mo  Mo223  1  0.20293128  0.20069775  0.59844947  1
  Mo  Mo224  1  0.19154051  0.60047912  0.60412113  1
  Mo  Mo225  1  0.20097492  0.00555500  0.60635957  1
  Mo  Mo226  1  -0.00571329  0.40169270  0.20218193  1
  Mo  Mo227  1  0.40395634  0.20691841  0.20593116  1
  Mo  Mo228  1  0.09283680  0.70390556  0.89532901  1
  Mo  Mo229  1  0.89182449  0.90527797  0.31534953  1
  Mo  Mo230  1  0.00141715  0.19957614  0.59549559  1
  Mo  Mo231  1  0.50545504  0.49746953  0.49536504  1
  Mo  Mo232  1  0.60062338  0.39044268  0.79866280  1
  Mo  Mo233  1  0.18822174  0.60949755  0.80261906  1
  Mo  Mo234  1  0.79692583  0.00018753  -0.01143011  1
  Mo  Mo235  1  0.80997502  0.80433630  0.60313516  1
  Mo  Mo236  1  0.90493551  0.30105135  0.10872786  1
  Mo  Mo237  1  0.59775869  0.39391314  0.39927975  1
  Mo  Mo238  1  0.39168627  0.79720693  0.60115833  1
  Mo  Mo239  1  0.20522433  0.20371599  0.20503876  1
  Mo  Mo240  1  0.79960716  -0.00208682  0.39494699  1
  Mo  Mo241  1  0.60084531  0.39049097  0.20432789  1
  Mo  Mo242  1  0.50289728  0.69686443  0.50074151  1
  Mo  Mo243  1  0.09840567  0.10830002  0.30023785  1
  Mo  Mo244  1  0.00529284  0.01844417  0.40563314  1
  Mo  Mo245  1  0.49837850  0.49789758  0.30661344  1
  Mo  Mo246  1  0.30035225  0.10530611  0.50761609  1
  Mo  Mo247  1  0.08564157  0.10029444  0.90761443  1
  Mo  Mo248  1  0.59741041  0.19631376  -0.00428691  1
  Mo  Mo249  1  -0.00337714  0.00532914  -0.00239336  1
