# generated using pymatgen
data_HfZrTaTiMo
_symmetry_space_group_name_H-M   'P 1'
_cell_length_a   16.89330719
_cell_length_b   16.88859793
_cell_length_c   16.88551448
_cell_angle_alpha   90.04362699
_cell_angle_beta   90.01744960
_cell_angle_gamma   89.94452958
_symmetry_Int_Tables_number   1
_chemical_formula_structural   HfZrTaTiMo
_chemical_formula_sum   'Hf50 Zr50 Ta50 Ti50 Mo50'
_cell_volume   4817.50555258
_cell_formula_units_Z   50
loop_
 _symmetry_equiv_pos_site_id
 _symmetry_equiv_pos_as_xyz
  1  'x, y, z'
loop_
 _atom_site_type_symbol
 _atom_site_label
 _atom_site_symmetry_multiplicity
 _atom_site_fract_x
 _atom_site_fract_y
 _atom_site_fract_z
 _atom_site_occupancy
  Hf  Hf0  1  0.39185474  0.60566877  0.19223958  1
  Hf  Hf1  1  0.70469356  0.29835521  0.49918188  1
  Hf  Hf2  1  0.29676978  0.89876078  0.09471141  1
  Hf  Hf3  1  0.70738342  0.28885964  0.30039069  1
  Hf  Hf4  1  0.69476344  0.49987381  0.09374127  1
  Hf  Hf5  1  0.89504376  0.49327094  0.48759618  1
  Hf  Hf6  1  0.40186082  0.40453012  0.00712653  1
  Hf  Hf7  1  0.70457153  0.69538489  0.29775363  1
  Hf  Hf8  1  0.09471863  0.69384169  0.70070655  1
  Hf  Hf9  1  0.20101909  -0.00560331  0.20641858  1
  Hf  Hf10  1  0.40789686  0.21395907  0.20161493  1
  Hf  Hf11  1  -0.00647558  0.19935361  0.00484983  1
  Hf  Hf12  1  -0.00032561  0.60083961  0.39949068  1
  Hf  Hf13  1  0.59863915  0.59820029  0.19946553  1
  Hf  Hf14  1  0.80099188  0.79412480  0.40890615  1
  Hf  Hf15  1  0.89152214  0.10184681  0.30867545  1
  Hf  Hf16  1  0.71157759  0.89105267  0.89890219  1
  Hf  Hf17  1  0.09671905  0.09709052  0.10155051  1
  Hf  Hf18  1  0.29679336  0.30950612  0.50587596  1
  Hf  Hf19  1  0.89943935  0.90947215  0.49808965  1
  Hf  Hf20  1  0.28124601  0.30978192  0.10474595  1
  Hf  Hf21  1  0.79634684  0.61216959  0.59033635  1
  Hf  Hf22  1  0.20478242  0.59944963  0.80486570  1
  Hf  Hf23  1  0.29845106  0.30538449  0.89915855  1
  Hf  Hf24  1  0.58870238  0.82109924  0.20299562  1
  Hf  Hf25  1  0.90089899  0.90658494  0.09459355  1
  Hf  Hf26  1  0.00093986  0.40485817  0.80428834  1
  Hf  Hf27  1  0.39834989  0.79609910  0.61225179  1
  Hf  Hf28  1  0.89319130  0.70263065  0.89820898  1
  Hf  Hf29  1  0.79777170  0.40036862  0.19771899  1
  Hf  Hf30  1  0.09475727  0.10207124  0.30369431  1
  Hf  Hf31  1  -0.00156774  0.39660996  0.20297828  1
  Hf  Hf32  1  -0.00434020  0.79282296  0.39403565  1
  Hf  Hf33  1  0.50099443  0.50172963  0.30625586  1
  Hf  Hf34  1  0.30158387  0.10529745  0.29713648  1
  Hf  Hf35  1  0.09904110  0.09948580  0.69252766  1
  Hf  Hf36  1  0.10663421  0.49229073  0.30356424  1
  Hf  Hf37  1  0.80663663  0.20316167  0.80303602  1
  Hf  Hf38  1  0.61217333  0.60071536  0.41121995  1
  Hf  Hf39  1  0.60309384  0.19608187  0.19498608  1
  Hf  Hf40  1  0.40637022  0.20564650  0.40273002  1
  Hf  Hf41  1  0.49939898  0.89846238  0.49649536  1
  Hf  Hf42  1  0.71135434  0.91073433  0.10404738  1
  Hf  Hf43  1  0.80857866  0.19709904  0.59385959  1
  Hf  Hf44  1  0.10475125  0.49220639  0.09459220  1
  Hf  Hf45  1  0.69946592  0.29531234  0.09085665  1
  Hf  Hf46  1  -0.00633409  0.20430066  0.80314294  1
  Hf  Hf47  1  0.80234330  -0.00152737  0.60285714  1
  Hf  Hf48  1  0.50711045  0.09391359  0.30198368  1
  Hf  Hf49  1  0.20177616  0.79801993  0.80144396  1
  Zr  Zr50  1  0.59504185  0.20102961  0.59976594  1
  Zr  Zr51  1  0.70486273  0.70315583  0.09421339  1
  Zr  Zr52  1  0.09054589  0.69530344  0.90021488  1
  Zr  Zr53  1  0.40079874  -0.00110232  0.79860810  1
  Zr  Zr54  1  -0.00925269  -0.00573281  0.79449947  1
  Zr  Zr55  1  0.29412243  0.49876340  0.30189849  1
  Zr  Zr56  1  0.20009819  0.19801979  0.80907365  1
  Zr  Zr57  1  0.59835823  -0.01175832  0.79051306  1
  Zr  Zr58  1  0.80203756  0.19700524  -0.00249760  1
  Zr  Zr59  1  0.20658160  0.01183626  0.58701658  1
  Zr  Zr60  1  0.39922732  0.59830612  0.60836587  1
  Zr  Zr61  1  0.69722742  0.49579418  0.90185751  1
  Zr  Zr62  1  0.60644607  0.80514448  0.39878481  1
  Zr  Zr63  1  0.20316465  0.00329635  -0.00355216  1
  Zr  Zr64  1  0.50185786  0.29913222  0.89486187  1
  Zr  Zr65  1  0.59401075  0.80296574  0.00081434  1
  Zr  Zr66  1  0.40942422  0.40054942  0.19947235  1
  Zr  Zr67  1  0.49986124  0.10544796  0.89804310  1
  Zr  Zr68  1  0.29824514  0.88610189  0.49157300  1
  Zr  Zr69  1  0.60601557  0.59184489  0.61215202  1
  Zr  Zr70  1  0.49772545  0.70137100  0.50324179  1
  Zr  Zr71  1  0.79320558  0.59104665  0.79270259  1
  Zr  Zr72  1  0.49227799  0.70131502  0.30939956  1
  Zr  Zr73  1  -0.00264883  0.39876561  0.59404212  1
  Zr  Zr74  1  0.40021463  0.79467632  0.00358475  1
  Zr  Zr75  1  0.39303117  0.79771043  0.20281009  1
  Zr  Zr76  1  0.29111860  0.49403016  0.69218475  1
  Zr  Zr77  1  0.40023434  0.79525156  0.80440038  1
  Zr  Zr78  1  0.60048892  -0.00261684  0.00457282  1
  Zr  Zr79  1  0.30113139  0.30050988  0.69791304  1
  Zr  Zr80  1  0.50071400  0.50882797  0.90239242  1
  Zr  Zr81  1  0.00537538  0.60625855  0.20004981  1
  Zr  Zr82  1  -0.01018668  0.79674862  0.59537940  1
  Zr  Zr83  1  -0.00694859  0.60080718  0.59102327  1
  Zr  Zr84  1  0.10075160  0.89898918  0.49736513  1
  Zr  Zr85  1  0.40696663  0.00497852  0.60012424  1
  Zr  Zr86  1  0.40913152  -0.01454433  0.20217577  1
  Zr  Zr87  1  0.29183491  0.90622251  0.70112670  1
  Zr  Zr88  1  0.19829106  0.19447558  0.40956652  1
  Zr  Zr89  1  0.50325627  0.09598426  0.09665927  1
  Zr  Zr90  1  0.10118598  0.50272228  0.69648401  1
  Zr  Zr91  1  0.70209744  0.48609289  0.50055759  1
  Zr  Zr92  1  0.59776853  0.40725120  0.77905292  1
  Zr  Zr93  1  0.09286904  0.89929915  0.90826435  1
  Zr  Zr94  1  0.80626013  0.80367880  0.20730601  1
  Zr  Zr95  1  0.10706319  0.30053256  0.69308140  1
  Zr  Zr96  1  0.09296253  0.09824367  0.90251798  1
  Zr  Zr97  1  0.69973255  0.10399652  0.69968374  1
  Zr  Zr98  1  0.40106289  0.20887887  0.00830389  1
  Zr  Zr99  1  0.80621539  -0.00213760  0.79539752  1
  Ta  Ta100  1  -0.00367952  0.00169124  0.20171767  1
  Ta  Ta101  1  0.89921782  0.29618818  0.30339643  1
  Ta  Ta102  1  0.50681775  0.09543742  0.49439071  1
  Ta  Ta103  1  0.70320032  0.71650028  0.70844187  1
  Ta  Ta104  1  0.60767794  0.21022855  0.80045881  1
  Ta  Ta105  1  0.60022774  -0.00405999  0.60104867  1
  Ta  Ta106  1  0.89342676  0.70451238  0.70441314  1
  Ta  Ta107  1  -0.00422747  0.20119705  0.20076975  1
  Ta  Ta108  1  0.80254504  0.59745727  -0.00072282  1
  Ta  Ta109  1  0.50826650  0.70274590  0.71100132  1
  Ta  Ta110  1  0.10966007  0.69791667  0.49673743  1
  Ta  Ta111  1  -0.00851092  0.80533843  0.79508723  1
  Ta  Ta112  1  0.39403105  -0.00247117  0.39781866  1
  Ta  Ta113  1  0.59701053  0.39180566  0.39460738  1
  Ta  Ta114  1  0.39412069  0.60230381  0.00569152  1
  Ta  Ta115  1  0.80336323  0.39919296  -0.00433109  1
  Ta  Ta116  1  0.70270208  0.09429376  0.48805558  1
  Ta  Ta117  1  0.20266965  0.00158334  0.39853333  1
  Ta  Ta118  1  0.89744338  0.91018641  0.30057144  1
  Ta  Ta119  1  0.30466545  0.11148723  0.70051386  1
  Ta  Ta120  1  0.69784496  0.10181194  0.90498356  1
  Ta  Ta121  1  0.09655169  0.90197267  0.69388266  1
  Ta  Ta122  1  0.20137356  0.78746793  0.60605037  1
  Ta  Ta123  1  0.19857945  0.79785440  0.20291768  1
  Ta  Ta124  1  0.89826967  0.29834037  0.48928026  1
  Ta  Ta125  1  0.60159242  0.19809514  0.39837920  1
  Ta  Ta126  1  0.09987866  0.31215439  0.91577592  1
  Ta  Ta127  1  0.90115810  0.49899549  0.09551841  1
  Ta  Ta128  1  0.28804101  0.50094812  0.10055833  1
  Ta  Ta129  1  0.09763509  0.30263941  0.09839730  1
  Ta  Ta130  1  0.29523470  0.49530751  0.49978372  1
  Ta  Ta131  1  0.07635970  0.10128382  0.50503082  1
  Ta  Ta132  1  0.60348087  0.60262285  0.79682142  1
  Ta  Ta133  1  0.70277852  0.90409080  0.50274144  1
  Ta  Ta134  1  0.29504964  0.69511915  0.49884038  1
  Ta  Ta135  1  0.28980748  0.30825335  0.30303421  1
  Ta  Ta136  1  -0.00020610  0.59595650  -0.00070577  1
  Ta  Ta137  1  0.40529303  0.39663805  0.40344505  1
  Ta  Ta138  1  0.60468780  0.80770640  0.60839932  1
  Ta  Ta139  1  0.09400726  0.89486132  0.10413755  1
  Ta  Ta140  1  0.70013412  0.70303102  0.89813367  1
  Ta  Ta141  1  0.90094605  0.69892737  0.09590792  1
  Ta  Ta142  1  0.90452287  0.50106094  0.90220610  1
  Ta  Ta143  1  0.89618173  0.49837574  0.30079730  1
  Ta  Ta144  1  0.70316140  0.30588440  0.69498866  1
  Ta  Ta145  1  0.30169694  0.10155547  0.10140336  1
  Ta  Ta146  1  0.40282017  0.40571761  0.79256912  1
  Ta  Ta147  1  0.41769051  0.40110658  0.60345179  1
  Ta  Ta148  1  0.09783857  0.89709851  0.30029716  1
  Ta  Ta149  1  0.90077133  0.30251255  0.10160691  1
  Ti  Ti150  1  0.31142156  0.10331389  0.90112719  1
  Ti  Ti151  1  0.90306246  0.31114120  0.90644131  1
  Ti  Ti152  1  0.59538952  0.39357088  0.20273915  1
  Ti  Ti153  1  -0.00468338  0.20414028  0.40234703  1
  Ti  Ti154  1  0.70491133  0.08932283  0.29586033  1
  Ti  Ti155  1  0.20064885  0.00384996  0.80193393  1
  Ti  Ti156  1  -0.00259048  0.79620261  0.00319134  1
  Ti  Ti157  1  0.80186329  0.40341633  0.60904171  1
  Ti  Ti158  1  0.50757645  0.69301758  0.90028295  1
  Ti  Ti159  1  0.50241399  0.49481776  0.50092066  1
  Ti  Ti160  1  0.10968304  0.49160799  0.49493479  1
  Ti  Ti161  1  0.10099843  0.30307398  0.30479804  1
  Ti  Ti162  1  0.19983248  0.19629001  0.59013487  1
  Ti  Ti163  1  0.50432898  0.69548601  0.09579646  1
  Ti  Ti164  1  0.10939019  0.70373415  0.30399630  1
  Ti  Ti165  1  0.49663585  0.11193732  0.70506170  1
  Ti  Ti166  1  0.50771154  0.50407873  0.09324269  1
  Ti  Ti167  1  0.60477116  -0.00651356  0.39338126  1
  Ti  Ti168  1  0.00023759  0.79889660  0.20411736  1
  Ti  Ti169  1  0.90171365  0.30110901  0.69415163  1
  Ti  Ti170  1  0.19489438  0.40800657  0.81172224  1
  Ti  Ti171  1  0.49627670  0.90082175  0.90200741  1
  Ti  Ti172  1  0.89289425  0.68920799  0.29962417  1
  Ti  Ti173  1  0.80007064  0.39619282  0.39035923  1
  Ti  Ti174  1  0.70409970  0.50035621  0.30222717  1
  Ti  Ti175  1  0.29545492  0.70836143  0.31582168  1
  Ti  Ti176  1  0.89499774  0.89608307  0.91097419  1
  Ti  Ti177  1  0.91764508  0.10150899  0.68007349  1
  Ti  Ti178  1  0.19891183  0.59923814  -0.00115851  1
  Ti  Ti179  1  0.80307375  0.59404916  0.19514237  1
  Ti  Ti180  1  0.80415222  0.19003881  0.19153880  1
  Ti  Ti181  1  0.80034908  0.39539751  0.79958866  1
  Ti  Ti182  1  0.30219464  0.90269037  0.90440870  1
  Ti  Ti183  1  0.39787201  0.60028467  0.79907564  1
  Ti  Ti184  1  0.20355514  0.61253827  0.19734176  1
  Ti  Ti185  1  0.30155524  0.69548157  0.90579851  1
  Ti  Ti186  1  0.50656164  0.30381285  0.50212685  1
  Ti  Ti187  1  0.39532112  0.59614431  0.40698417  1
  Ti  Ti188  1  0.40405847  0.20020359  0.59596003  1
  Ti  Ti189  1  0.59992111  0.38930111  -0.00377540  1
  Ti  Ti190  1  0.90133550  0.50424515  0.70330161  1
  Ti  Ti191  1  0.09979244  0.70318608  0.09890476  1
  Ti  Ti192  1  0.89924919  0.08143850  0.91736513  1
  Ti  Ti193  1  0.20009646  0.19863210  0.00112663  1
  Ti  Ti194  1  0.20090432  0.59975919  0.40299302  1
  Ti  Ti195  1  0.29930717  0.49874403  0.90683579  1
  Ti  Ti196  1  0.19916426  0.79219696  0.00308801  1
  Ti  Ti197  1  -0.00093495  0.00105878  0.39855934  1
  Ti  Ti198  1  0.19262755  0.20284588  0.20166058  1
  Ti  Ti199  1  0.09582383  0.30407857  0.49478877  1
  Mo  Mo200  1  0.80129728  0.59837601  0.39468982  1
  Mo  Mo201  1  0.50665311  0.89285932  0.70020522  1
  Mo  Mo202  1  0.59791953  0.60639482  -0.00372428  1
  Mo  Mo203  1  0.19243200  0.39376720  0.20272278  1
  Mo  Mo204  1  0.70538291  0.91307170  0.30309905  1
  Mo  Mo205  1  0.28284808  0.69547222  0.09349839  1
  Mo  Mo206  1  0.60854505  0.00031468  0.20719303  1
  Mo  Mo207  1  0.51565166  0.30716856  0.09926161  1
  Mo  Mo208  1  0.79487607  -0.00175812  0.39984262  1
  Mo  Mo209  1  -0.00447308  0.40006853  0.00186886  1
  Mo  Mo210  1  0.19881965  0.40740851  -0.00364874  1
  Mo  Mo211  1  0.40312744  0.20460853  0.79302103  1
  Mo  Mo212  1  0.80334470  0.00779131  0.20170376  1
  Mo  Mo213  1  -0.00026571  0.39296196  0.39562446  1
  Mo  Mo214  1  0.29299243  0.89715678  0.30356446  1
  Mo  Mo215  1  0.49662148  0.90350750  0.31036602  1
  Mo  Mo216  1  0.70706595  0.09766725  0.10001129  1
  Mo  Mo217  1  0.31511810  0.10686256  0.50016070  1
  Mo  Mo218  1  0.80404902  0.80394690  0.79829284  1
  Mo  Mo219  1  0.59889697  0.79710125  0.80353066  1
  Mo  Mo220  1  0.29731303  0.69446092  0.70140926  1
  Mo  Mo221  1  0.49816016  0.29748603  0.69756960  1
  Mo  Mo222  1  0.60792873  0.20117899  -0.00564856  1
  Mo  Mo223  1  0.79686142  0.19608609  0.40019278  1
  Mo  Mo224  1  0.79526748  0.80341163  0.60237390  1
  Mo  Mo225  1  0.39193560  0.79960137  0.39954208  1
  Mo  Mo226  1  0.19548242  0.79557709  0.39515271  1
  Mo  Mo227  1  0.50797421  0.30116597  0.30448671  1
  Mo  Mo228  1  -0.00315975  0.20615232  0.59261001  1
  Mo  Mo229  1  0.79867251  0.00476757  0.00069406  1
  Mo  Mo230  1  0.49527330  0.90059407  0.09542511  1
  Mo  Mo231  1  0.09755849  0.50153795  0.90398238  1
  Mo  Mo232  1  0.19938835  0.59948596  0.58941770  1
  Mo  Mo233  1  0.90128304  0.10238508  0.49387981  1
  Mo  Mo234  1  0.89744479  0.69689900  0.49543748  1
  Mo  Mo235  1  0.19479717  0.40047749  0.58778689  1
  Mo  Mo236  1  0.70862314  0.49217338  0.69644278  1
  Mo  Mo237  1  -0.00202921  -0.00214021  0.59806102  1
  Mo  Mo238  1  0.89975350  0.09906830  0.10850700  1
  Mo  Mo239  1  0.89877729  0.89180194  0.69392445  1
  Mo  Mo240  1  0.80566372  0.79367320  -0.00087835  1
  Mo  Mo241  1  0.59486417  0.39725604  0.59469370  1
  Mo  Mo242  1  0.70171833  0.71132688  0.51049722  1
  Mo  Mo243  1  0.49521107  0.50691256  0.70367754  1
  Mo  Mo244  1  0.19828641  0.39614231  0.40089747  1
  Mo  Mo245  1  0.70380349  0.30092557  0.89299535  1
  Mo  Mo246  1  -0.00421018  -0.00319119  0.00774588  1
  Mo  Mo247  1  -0.00864971  0.60025175  0.80246052  1
  Mo  Mo248  1  0.39611989  -0.00069047  -0.00189306  1
  Mo  Mo249  1  0.70281625  0.89543325  0.69753582  1
