# generated using pymatgen
data_HfZrTaTiMo
_symmetry_space_group_name_H-M   'P 1'
_cell_length_a   16.88747173
_cell_length_b   16.88181158
_cell_length_c   16.88130437
_cell_angle_alpha   90.03806143
_cell_angle_beta   89.96616692
_cell_angle_gamma   89.94126479
_symmetry_Int_Tables_number   1
_chemical_formula_structural   HfZrTaTiMo
_chemical_formula_sum   'Hf50 Zr50 Ta50 Ti50 Mo50'
_cell_volume   4812.70546932
_cell_formula_units_Z   50
loop_
 _symmetry_equiv_pos_site_id
 _symmetry_equiv_pos_as_xyz
  1  'x, y, z'
loop_
 _atom_site_type_symbol
 _atom_site_label
 _atom_site_symmetry_multiplicity
 _atom_site_fract_x
 _atom_site_fract_y
 _atom_site_fract_z
 _atom_site_occupancy
  Hf  Hf0  1  0.79932015  0.79054210  0.20135273  1
  Hf  Hf1  1  0.79541159  0.40770631  0.59353527  1
  Hf  Hf2  1  0.59308896  0.40830601  0.40052295  1
  Hf  Hf3  1  0.60259380  0.60432453  0.20586297  1
  Hf  Hf4  1  0.49619954  0.10240311  0.50003287  1
  Hf  Hf5  1  0.70813839  0.49548898  0.30422893  1
  Hf  Hf6  1  0.70215630  0.90471188  0.50555651  1
  Hf  Hf7  1  0.39416180  0.01170282  0.20522590  1
  Hf  Hf8  1  0.10537012  0.10034413  0.89427774  1
  Hf  Hf9  1  0.58566177  -0.00068079  0.39471697  1
  Hf  Hf10  1  0.29854026  0.89199536  0.29755393  1
  Hf  Hf11  1  0.49789274  0.30025394  0.50565092  1
  Hf  Hf12  1  0.20305326  0.00360963  0.60066199  1
  Hf  Hf13  1  0.90368939  0.89733132  0.10214400  1
  Hf  Hf14  1  0.30347657  0.49152104  0.09771873  1
  Hf  Hf15  1  0.29867606  0.89817873  0.10014112  1
  Hf  Hf16  1  0.09646388  0.69964617  0.10074248  1
  Hf  Hf17  1  0.89692196  0.09515692  0.70272267  1
  Hf  Hf18  1  0.10630151  0.89759403  0.29219448  1
  Hf  Hf19  1  0.09842400  0.10050764  0.29944941  1
  Hf  Hf20  1  0.68922613  0.31780985  0.70680935  1
  Hf  Hf21  1  0.82017399  0.20050010  0.37717621  1
  Hf  Hf22  1  0.10072928  0.49739211  0.29299991  1
  Hf  Hf23  1  0.79885730  0.00054409  0.20171258  1
  Hf  Hf24  1  0.59690743  0.79091484  0.80773041  1
  Hf  Hf25  1  0.20915496  0.38756590  0.60603871  1
  Hf  Hf26  1  0.31200313  0.49976861  0.50376318  1
  Hf  Hf27  1  0.00151525  -0.00574723  -0.00191988  1
  Hf  Hf28  1  0.70453385  0.89543115  0.69844392  1
  Hf  Hf29  1  -0.00101080  0.60694536  0.39868884  1
  Hf  Hf30  1  0.80015108  0.79845897  0.39336697  1
  Hf  Hf31  1  0.69970451  0.50582759  0.70572275  1
  Hf  Hf32  1  0.90059030  0.49025669  0.29667383  1
  Hf  Hf33  1  0.30603605  0.29531291  0.29014353  1
  Hf  Hf34  1  0.30241377  0.70533395  0.29509287  1
  Hf  Hf35  1  0.60028018  0.18958638  0.61085846  1
  Hf  Hf36  1  0.09254734  0.49832381  0.90232937  1
  Hf  Hf37  1  0.88382651  0.69952720  0.71049143  1
  Hf  Hf38  1  0.89066858  0.70318392  0.51630171  1
  Hf  Hf39  1  0.21331756  0.21178589  0.79655831  1
  Hf  Hf40  1  0.49469764  0.69771582  0.69459763  1
  Hf  Hf41  1  0.50061821  0.90343632  0.10308368  1
  Hf  Hf42  1  -0.00097954  0.80792811  0.60680317  1
  Hf  Hf43  1  0.80348000  0.39488824  0.00009393  1
  Hf  Hf44  1  0.20216772  0.59846985  -0.00163732  1
  Hf  Hf45  1  0.79287212  0.19857136  0.60785684  1
  Hf  Hf46  1  0.20484043  0.00197313  0.39854386  1
  Hf  Hf47  1  0.20798221  0.58672776  0.80198362  1
  Hf  Hf48  1  0.11167259  0.70479180  0.50520562  1
  Hf  Hf49  1  0.59998817  0.78851831  0.39698317  1
  Zr  Zr50  1  0.29915498  0.10344682  0.49842937  1
  Zr  Zr51  1  0.10054073  0.49586846  0.49946007  1
  Zr  Zr52  1  -0.00501399  0.60758647  0.20331165  1
  Zr  Zr53  1  0.50326431  0.31005231  0.90984643  1
  Zr  Zr54  1  0.59305494  0.40051345  0.20345091  1
  Zr  Zr55  1  0.09919961  0.09422688  0.10016495  1
  Zr  Zr56  1  0.09519347  0.29854032  0.30133725  1
  Zr  Zr57  1  0.89490408  0.50775494  0.89946671  1
  Zr  Zr58  1  0.69500895  0.90804400  0.29914079  1
  Zr  Zr59  1  0.70375142  0.09454782  0.48990614  1
  Zr  Zr60  1  0.30212598  0.71603125  0.88912510  1
  Zr  Zr61  1  0.68977369  0.10641047  0.29371991  1
  Zr  Zr62  1  0.50022196  0.89659850  0.69676949  1
  Zr  Zr63  1  0.79841533  -0.00092860  0.00021582  1
  Zr  Zr64  1  0.60120857  0.19643001  0.00745126  1
  Zr  Zr65  1  0.30178767  0.69958001  0.50219506  1
  Zr  Zr66  1  0.60258274  0.61171401  -0.00354226  1
  Zr  Zr67  1  -0.00774690  -0.00844046  0.79967258  1
  Zr  Zr68  1  0.90135281  0.30122914  0.48972179  1
  Zr  Zr69  1  -0.00632762  0.59023863  0.60682692  1
  Zr  Zr70  1  0.50050038  0.30869115  0.70334839  1
  Zr  Zr71  1  0.19393492  0.80025829  0.00395713  1
  Zr  Zr72  1  0.69756210  0.30524427  0.89642769  1
  Zr  Zr73  1  0.11969593  0.89663841  0.71118728  1
  Zr  Zr74  1  0.29984850  0.70600283  0.69352237  1
  Zr  Zr75  1  0.69887306  0.29484261  0.29724537  1
  Zr  Zr76  1  0.49575374  0.10291183  0.90296976  1
  Zr  Zr77  1  0.41312312  0.59790671  0.19985225  1
  Zr  Zr78  1  0.70170424  0.10074462  0.89993796  1
  Zr  Zr79  1  0.20761548  0.39287217  0.40404730  1
  Zr  Zr80  1  0.00460417  -0.00814720  0.59907546  1
  Zr  Zr81  1  0.89889139  0.10356541  0.10297486  1
  Zr  Zr82  1  0.70452596  0.49462042  0.09793345  1
  Zr  Zr83  1  0.69580106  0.29750155  0.48949925  1
  Zr  Zr84  1  0.69342371  0.89868383  0.90288036  1
  Zr  Zr85  1  0.10474414  0.69836884  0.70315880  1
  Zr  Zr86  1  0.29682510  0.90954187  0.89132759  1
  Zr  Zr87  1  0.50589095  0.49260175  0.69250366  1
  Zr  Zr88  1  0.11073768  0.90339921  0.90041302  1
  Zr  Zr89  1  0.49719519  0.71378253  0.09686798  1
  Zr  Zr90  1  0.40063211  0.59518803  -0.01107896  1
  Zr  Zr91  1  0.40555678  0.59489537  0.80615599  1
  Zr  Zr92  1  0.09412417  0.30059839  0.89232986  1
  Zr  Zr93  1  0.89888893  0.09207214  0.49541808  1
  Zr  Zr94  1  -0.00584361  0.40216614  0.60510280  1
  Zr  Zr95  1  -0.00357244  0.80265552  0.40207335  1
  Zr  Zr96  1  0.30158769  0.49888823  0.29571536  1
  Zr  Zr97  1  0.38841864  0.40490714  0.81622983  1
  Zr  Zr98  1  0.79598081  0.60766678  0.39642606  1
  Zr  Zr99  1  -0.00276618  0.20211004  0.60521249  1
  Ta  Ta100  1  0.40710966  0.79796102  0.39921277  1
  Ta  Ta101  1  0.11280329  0.70833689  0.30045145  1
  Ta  Ta102  1  -0.00223187  0.39706273  0.00250924  1
  Ta  Ta103  1  0.90133412  0.11002531  0.89596746  1
  Ta  Ta104  1  0.49668659  0.89880314  0.50105801  1
  Ta  Ta105  1  0.80120823  0.60959721  0.19826939  1
  Ta  Ta106  1  0.50236965  0.48425863  0.08255992  1
  Ta  Ta107  1  0.49907236  0.69771219  0.50387717  1
  Ta  Ta108  1  0.59828820  0.60395193  0.80716475  1
  Ta  Ta109  1  0.60521978  0.59976974  0.59304571  1
  Ta  Ta110  1  0.20249942  0.39230337  -0.00238943  1
  Ta  Ta111  1  0.39660183  0.19963416  0.39382444  1
  Ta  Ta112  1  0.89859103  0.29689211  0.89501764  1
  Ta  Ta113  1  0.19749689  0.39374727  0.18979395  1
  Ta  Ta114  1  0.09667210  0.29909663  0.70353434  1
  Ta  Ta115  1  0.90183047  0.29962513  0.10198351  1
  Ta  Ta116  1  0.40028120  0.00284311  0.60318951  1
  Ta  Ta117  1  0.68814447  0.89694796  0.10054200  1
  Ta  Ta118  1  0.20197178  0.20545464  0.00285859  1
  Ta  Ta119  1  0.09867311  0.10803829  0.49683376  1
  Ta  Ta120  1  0.30299776  0.89646881  0.70489953  1
  Ta  Ta121  1  0.79659561  0.20085508  0.79619204  1
  Ta  Ta122  1  0.89821228  0.69888637  0.90314571  1
  Ta  Ta123  1  0.70130715  0.49907615  0.89688298  1
  Ta  Ta124  1  0.70266375  0.28998140  0.10852293  1
  Ta  Ta125  1  0.49389619  0.29683611  0.10375698  1
  Ta  Ta126  1  -0.00655222  0.20444668  0.20429811  1
  Ta  Ta127  1  0.20443747  0.19886986  0.19412433  1
  Ta  Ta128  1  0.79364728  0.79247586  0.00590409  1
  Ta  Ta129  1  0.10012330  0.28870479  0.49813571  1
  Ta  Ta130  1  0.90489159  0.49984709  0.09988624  1
  Ta  Ta131  1  0.00507411  -0.00584109  0.40360967  1
  Ta  Ta132  1  0.39877655  0.00514753  0.00115482  1
  Ta  Ta133  1  0.20365974  0.60137804  0.39694395  1
  Ta  Ta134  1  0.39730058  0.20219213  0.79802073  1
  Ta  Ta135  1  0.41245675  0.59979472  0.39651836  1
  Ta  Ta136  1  0.49505105  0.89536991  0.29270542  1
  Ta  Ta137  1  -0.00443260  0.79795703  0.80618623  1
  Ta  Ta138  1  0.30476874  0.89587269  0.50132086  1
  Ta  Ta139  1  -0.00106151  0.20411392  -0.00119629  1
  Ta  Ta140  1  0.40634807  0.39791368  0.39675126  1
  Ta  Ta141  1  0.10273584  0.10772791  0.70476194  1
  Ta  Ta142  1  0.09504388  0.49568095  0.09811104  1
  Ta  Ta143  1  0.29824115  0.10100306  0.90388423  1
  Ta  Ta144  1  -0.00067038  0.80000110  0.20142136  1
  Ta  Ta145  1  0.39010703  0.20489393  0.60835871  1
  Ta  Ta146  1  0.09633908  0.29852356  0.10036933  1
  Ta  Ta147  1  0.59479850  0.00679872  0.79252362  1
  Ta  Ta148  1  0.40266282  0.00655888  0.79566218  1
  Ta  Ta149  1  0.60301530  0.79269138  0.20397902  1
  Ti  Ti150  1  0.49947606  0.10872201  0.29303974  1
  Ti  Ti151  1  0.39189668  0.20378748  -0.00079160  1
  Ti  Ti152  1  0.30413389  0.70875617  0.10583717  1
  Ti  Ti153  1  0.79575835  0.00202155  0.79991055  1
  Ti  Ti154  1  0.20441592  0.20592115  0.60248275  1
  Ti  Ti155  1  0.70659793  0.69824981  0.69885732  1
  Ti  Ti156  1  -0.00958048  0.40138124  0.79718955  1
  Ti  Ti157  1  0.30698211  0.30019374  0.10007170  1
  Ti  Ti158  1  0.69227884  0.09993143  0.11087719  1
  Ti  Ti159  1  0.40808024  0.40072576  0.20346029  1
  Ti  Ti160  1  0.80146700  0.20111694  0.00234649  1
  Ti  Ti161  1  0.80819547  0.38843693  0.20125664  1
  Ti  Ti162  1  0.88477158  0.90573184  0.50583244  1
  Ti  Ti163  1  0.09073479  0.69622637  0.89997522  1
  Ti  Ti164  1  0.49816626  0.50269915  0.50626603  1
  Ti  Ti165  1  0.88292433  0.89249938  0.70108293  1
  Ti  Ti166  1  0.29864889  0.10297703  0.09536579  1
  Ti  Ti167  1  0.40040266  0.80411436  0.59586797  1
  Ti  Ti168  1  -0.00271337  0.39675939  0.39948332  1
  Ti  Ti169  1  -0.00079742  0.80184587  -0.00230255  1
  Ti  Ti170  1  0.71080460  0.70034227  0.89772151  1
  Ti  Ti171  1  0.20120115  0.59997450  0.19597563  1
  Ti  Ti172  1  0.11655418  0.89182246  0.49739531  1
  Ti  Ti173  1  0.20905064  0.39876801  0.80034165  1
  Ti  Ti174  1  0.79857073  0.60591145  0.00633239  1
  Ti  Ti175  1  0.59415643  0.00254575  0.00377672  1
  Ti  Ti176  1  0.88199222  0.50562777  0.71147817  1
  Ti  Ti177  1  0.49930571  0.28803237  0.29603085  1
  Ti  Ti178  1  0.39771741  0.00114787  0.39600526  1
  Ti  Ti179  1  0.40606459  0.80538341  -0.01007803  1
  Ti  Ti180  1  0.90475897  0.90682818  0.30016633  1
  Ti  Ti181  1  -0.00237728  0.60002712  0.79955742  1
  Ti  Ti182  1  0.91324326  0.08802491  0.29657500  1
  Ti  Ti183  1  0.90453188  0.69757130  0.09061404  1
  Ti  Ti184  1  0.10023634  0.49147573  0.70556571  1
  Ti  Ti185  1  0.20104336  0.58816373  0.60328448  1
  Ti  Ti186  1  0.70381377  0.69787678  0.51023259  1
  Ti  Ti187  1  0.60194623  0.79392173  0.59652347  1
  Ti  Ti188  1  0.89495874  0.30271114  0.71066703  1
  Ti  Ti189  1  0.88805814  0.88770880  0.89633780  1
  Ti  Ti190  1  0.20646644  0.20015781  0.39676505  1
  Ti  Ti191  1  0.49932214  0.90170993  0.90086330  1
  Ti  Ti192  1  0.20207252  0.00332347  0.19448371  1
  Ti  Ti193  1  0.59872735  0.18900902  0.79277906  1
  Ti  Ti194  1  0.30089419  0.09871487  0.70324267  1
  Ti  Ti195  1  0.59734484  0.00625908  0.60735377  1
  Ti  Ti196  1  0.31451934  0.49597075  0.68862748  1
  Ti  Ti197  1  0.88820884  0.50151384  0.49163560  1
  Ti  Ti198  1  0.49727121  0.10653423  0.10743305  1
  Ti  Ti199  1  0.59859851  0.60161572  0.39968288  1
  Mo  Mo200  1  0.60237750  0.41161737  0.58707239  1
  Mo  Mo201  1  0.00154408  0.39798238  0.19113059  1
  Mo  Mo202  1  0.30337562  0.30162203  0.69932598  1
  Mo  Mo203  1  0.79163630  0.59804733  0.60125822  1
  Mo  Mo204  1  0.79851306  0.79721619  0.80769821  1
  Mo  Mo205  1  0.50013859  0.50167841  0.30790882  1
  Mo  Mo206  1  0.80577862  0.19787973  0.19458118  1
  Mo  Mo207  1  0.40017042  0.39673005  0.59120304  1
  Mo  Mo208  1  0.20755307  0.79902699  0.40326523  1
  Mo  Mo209  1  0.81302217  -0.00286591  0.39587531  1
  Mo  Mo210  1  0.30463865  0.29501835  0.49703486  1
  Mo  Mo211  1  0.40674479  0.81149511  0.79854401  1
  Mo  Mo212  1  0.09853751  0.89911754  0.10605473  1
  Mo  Mo213  1  0.70192678  0.09073778  0.70474790  1
  Mo  Mo214  1  0.60296003  0.80444844  -0.00087743  1
  Mo  Mo215  1  0.59114666  0.00159146  0.19538320  1
  Mo  Mo216  1  0.80354379  0.39933867  0.79978476  1
  Mo  Mo217  1  0.20705643  0.01037581  0.00446564  1
  Mo  Mo218  1  0.40819587  0.59732797  0.59359145  1
  Mo  Mo219  1  0.39453945  0.39437919  0.00582528  1
  Mo  Mo220  1  0.60839130  0.39591371  0.00715657  1
  Mo  Mo221  1  0.70216086  0.70301735  0.09856880  1
  Mo  Mo222  1  0.20697598  0.80918964  0.60008449  1
  Mo  Mo223  1  0.30068987  0.29521187  0.90786943  1
  Mo  Mo224  1  0.21032889  0.01801201  0.79520500  1
  Mo  Mo225  1  0.80241288  0.40112313  0.39766718  1
  Mo  Mo226  1  0.79931798  -0.00372071  0.60279830  1
  Mo  Mo227  1  0.50206207  0.70177593  0.30681284  1
  Mo  Mo228  1  0.69887826  0.69476639  0.29761782  1
  Mo  Mo229  1  0.79435489  0.80007075  0.60219708  1
  Mo  Mo230  1  0.58095089  0.19885332  0.39448292  1
  Mo  Mo231  1  0.39742558  0.19910087  0.19476483  1
  Mo  Mo232  1  0.00535087  0.19353648  0.39579126  1
  Mo  Mo233  1  0.29718091  0.10337060  0.29634080  1
  Mo  Mo234  1  -0.00254388  0.59981068  0.00188347  1
  Mo  Mo235  1  0.19837179  0.79561939  0.19476142  1
  Mo  Mo236  1  0.40304145  0.80253475  0.20342375  1
  Mo  Mo237  1  0.58960993  0.19842559  0.19694873  1
  Mo  Mo238  1  0.19385970  0.78747829  0.80171421  1
  Mo  Mo239  1  0.59781283  0.41603371  0.81310658  1
  Mo  Mo240  1  0.28541615  0.49098688  0.90628514  1
  Mo  Mo241  1  0.90420829  0.70460920  0.29622030  1
  Mo  Mo242  1  0.79133585  0.60434837  0.80698038  1
  Mo  Mo243  1  0.00057925  -0.00591493  0.20461593  1
  Mo  Mo244  1  -0.00614578  0.20279761  0.79891178  1
  Mo  Mo245  1  0.49939876  0.70915657  0.89846071  1
  Mo  Mo246  1  0.49150675  0.10036012  0.69962339  1
  Mo  Mo247  1  0.90507175  0.30544187  0.29238109  1
  Mo  Mo248  1  0.51440231  0.49924104  0.90727216  1
  Mo  Mo249  1  0.69502242  0.50601541  0.50038818  1
