# generated using pymatgen
data_HfZrTaTiMo
_symmetry_space_group_name_H-M   'P 1'
_cell_length_a   16.88572183
_cell_length_b   16.87858905
_cell_length_c   16.88444623
_cell_angle_alpha   90.00583919
_cell_angle_beta   90.00134082
_cell_angle_gamma   90.01604983
_symmetry_Int_Tables_number   1
_chemical_formula_structural   HfZrTaTiMo
_chemical_formula_sum   'Hf50 Zr50 Ta50 Ti50 Mo50'
_cell_volume   4812.18784627
_cell_formula_units_Z   50
loop_
 _symmetry_equiv_pos_site_id
 _symmetry_equiv_pos_as_xyz
  1  'x, y, z'
loop_
 _atom_site_type_symbol
 _atom_site_label
 _atom_site_symmetry_multiplicity
 _atom_site_fract_x
 _atom_site_fract_y
 _atom_site_fract_z
 _atom_site_occupancy
  Hf  Hf0  1  0.80271733  0.79087077  0.21084426  1
  Hf  Hf1  1  0.18955197  0.40567848  0.59416600  1
  Hf  Hf2  1  0.89742756  0.10538911  0.50568941  1
  Hf  Hf3  1  0.90001947  0.90441177  0.89157822  1
  Hf  Hf4  1  0.59526660  0.19710302  0.60169295  1
  Hf  Hf5  1  0.70157034  0.09580819  0.29647671  1
  Hf  Hf6  1  0.10069213  0.29375083  0.09189786  1
  Hf  Hf7  1  0.59770934  -0.00051948  0.00685934  1
  Hf  Hf8  1  -0.00164111  0.00458677  -0.00003175  1
  Hf  Hf9  1  0.90097547  0.89320166  0.10188236  1
  Hf  Hf10  1  0.20448562  -0.00500007  0.59803571  1
  Hf  Hf11  1  0.69987688  0.51248946  0.30672853  1
  Hf  Hf12  1  0.21261825  0.39702530  -0.01515971  1
  Hf  Hf13  1  0.29634058  0.90335914  0.09876772  1
  Hf  Hf14  1  0.30487880  0.30838701  0.49671808  1
  Hf  Hf15  1  0.21099620  0.60246898  -0.00396584  1
  Hf  Hf16  1  0.19352662  0.20454513  0.60020522  1
  Hf  Hf17  1  0.38960602  0.79840479  0.60170348  1
  Hf  Hf18  1  0.38723471  0.39943659  0.80867228  1
  Hf  Hf19  1  0.70441006  0.50574957  0.90627520  1
  Hf  Hf20  1  0.79951702  0.01028731  0.00088277  1
  Hf  Hf21  1  0.00340591  0.20175103  0.39704085  1
  Hf  Hf22  1  0.90669279  0.29849036  0.89644396  1
  Hf  Hf23  1  0.69843794  0.50274948  0.50143164  1
  Hf  Hf24  1  0.40306696  0.19604908  0.79773640  1
  Hf  Hf25  1  0.91028245  0.30793971  0.70349012  1
  Hf  Hf26  1  0.08549566  0.70054799  0.50384129  1
  Hf  Hf27  1  0.60902714  0.00289375  0.59541634  1
  Hf  Hf28  1  0.30950833  0.70159557  0.30133619  1
  Hf  Hf29  1  0.10079544  0.09446551  0.49750260  1
  Hf  Hf30  1  0.40754556  0.20102515  0.40550920  1
  Hf  Hf31  1  0.49590608  0.69885223  0.49579289  1
  Hf  Hf32  1  0.30302743  0.49795272  0.31329139  1
  Hf  Hf33  1  0.49503623  0.70036955  0.70393517  1
  Hf  Hf34  1  0.49454558  0.70676995  0.30733080  1
  Hf  Hf35  1  0.09474199  0.89542229  0.70276829  1
  Hf  Hf36  1  0.20018724  0.60209450  0.59874527  1
  Hf  Hf37  1  0.39666752  0.19305883  -0.00144621  1
  Hf  Hf38  1  0.50449419  0.29844660  0.90168685  1
  Hf  Hf39  1  0.39350780  0.41531914  0.00343920  1
  Hf  Hf40  1  0.00317379  0.00250328  0.19078489  1
  Hf  Hf41  1  0.70675999  0.69971109  0.49312931  1
  Hf  Hf42  1  0.50235163  0.90146839  0.70398625  1
  Hf  Hf43  1  -0.00397788  0.79426565  0.38816564  1
  Hf  Hf44  1  0.90181771  0.29674987  0.29771944  1
  Hf  Hf45  1  0.69984068  0.89842771  0.10817340  1
  Hf  Hf46  1  0.80342846  0.40351736  0.39876634  1
  Hf  Hf47  1  0.19047431  0.59980099  0.40289205  1
  Hf  Hf48  1  0.79643212  0.39905675  0.20703567  1
  Hf  Hf49  1  0.50278485  0.29823784  0.10004190  1
  Zr  Zr50  1  0.29984209  0.30425022  0.30560704  1
  Zr  Zr51  1  0.69910320  0.89184710  0.90187782  1
  Zr  Zr52  1  0.59853797  0.39350475  0.40048523  1
  Zr  Zr53  1  0.00931616  0.80141107  0.00462554  1
  Zr  Zr54  1  -0.00116314  -0.00460662  0.39858727  1
  Zr  Zr55  1  0.09702575  0.50231597  0.09683270  1
  Zr  Zr56  1  -0.01061315  0.79748939  0.78861986  1
  Zr  Zr57  1  0.90953036  0.09952288  0.71163912  1
  Zr  Zr58  1  0.20755617  0.40625847  0.18963717  1
  Zr  Zr59  1  0.50072619  0.50825349  0.90469163  1
  Zr  Zr60  1  0.29915499  0.30053653  0.69628581  1
  Zr  Zr61  1  0.81171955  0.60038932  0.21220731  1
  Zr  Zr62  1  0.70017616  0.30288606  0.90220050  1
  Zr  Zr63  1  0.60316230  0.59311108  0.60913578  1
  Zr  Zr64  1  0.50007998  0.09154766  0.30516638  1
  Zr  Zr65  1  -0.00300709  0.40333478  0.20174554  1
  Zr  Zr66  1  0.09456511  0.10106610  0.89192932  1
  Zr  Zr67  1  -0.00847480  -0.01341114  0.60342995  1
  Zr  Zr68  1  0.20058357  0.79853665  0.19755247  1
  Zr  Zr69  1  0.30554179  0.10181587  0.49922803  1
  Zr  Zr70  1  0.00386131  0.60659055  -0.00219220  1
  Zr  Zr71  1  0.79473118  0.19986045  0.80013958  1
  Zr  Zr72  1  0.50136777  0.89671097  0.89949435  1
  Zr  Zr73  1  0.60779043  0.18826763  0.00482609  1
  Zr  Zr74  1  0.49826242  0.29958682  0.30161948  1
  Zr  Zr75  1  0.79514915  0.00099685  0.41255609  1
  Zr  Zr76  1  0.60849417  0.60666869  0.79915693  1
  Zr  Zr77  1  0.49984809  0.89467684  0.48828490  1
  Zr  Zr78  1  0.38400701  0.79864451  0.80553919  1
  Zr  Zr79  1  0.70620734  0.29638734  0.10571709  1
  Zr  Zr80  1  0.40281714  0.40444257  0.19227254  1
  Zr  Zr81  1  0.60270486  0.40576133  0.78843618  1
  Zr  Zr82  1  0.89294100  0.90186009  0.29774105  1
  Zr  Zr83  1  0.20598922  0.19585630  0.19869963  1
  Zr  Zr84  1  0.01036294  0.20934372  0.60235847  1
  Zr  Zr85  1  0.38653561  0.60166823  0.80670636  1
  Zr  Zr86  1  0.79167847  0.20585909  0.40025734  1
  Zr  Zr87  1  0.19991001  0.79952176  0.39813534  1
  Zr  Zr88  1  0.20487567  -0.00861268  0.38984753  1
  Zr  Zr89  1  0.90132341  0.49649802  0.90024732  1
  Zr  Zr90  1  0.10195893  0.49449893  0.88473462  1
  Zr  Zr91  1  0.20734037  0.00228290  0.79666169  1
  Zr  Zr92  1  0.80084494  0.40881349  0.60563803  1
  Zr  Zr93  1  0.39885994  -0.00965119  0.20346282  1
  Zr  Zr94  1  0.19868511  0.79521542  -0.00396328  1
  Zr  Zr95  1  0.69727037  0.70220175  0.10613839  1
  Zr  Zr96  1  0.20654300  0.79886189  0.59776787  1
  Zr  Zr97  1  0.89324290  0.69975451  0.90114253  1
  Zr  Zr98  1  0.61004997  0.79831442  0.60504631  1
  Zr  Zr99  1  0.40196571  0.59245552  0.18857044  1
  Ta  Ta100  1  0.59612885  0.60359996  0.01216831  1
  Ta  Ta101  1  -0.00707310  0.59661963  0.39333010  1
  Ta  Ta102  1  0.49876669  0.70320233  0.91129397  1
  Ta  Ta103  1  0.09776384  0.49545188  0.30693993  1
  Ta  Ta104  1  0.49314129  0.49753847  0.50073008  1
  Ta  Ta105  1  0.09347805  0.49865805  0.69889594  1
  Ta  Ta106  1  0.10168106  0.30489784  0.30149952  1
  Ta  Ta107  1  0.40361754  0.40189007  0.60195714  1
  Ta  Ta108  1  0.28991485  0.49724330  0.70172716  1
  Ta  Ta109  1  0.09553214  0.69774050  0.69641253  1
  Ta  Ta110  1  0.79843154  -0.00152802  0.79609667  1
  Ta  Ta111  1  0.60526137  0.19876832  0.20551702  1
  Ta  Ta112  1  0.00128005  0.19534325  0.19291591  1
  Ta  Ta113  1  0.70175847  0.50422551  0.10423664  1
  Ta  Ta114  1  0.79985549  0.60295968  0.00917896  1
  Ta  Ta115  1  0.80762511  0.60065084  0.60450214  1
  Ta  Ta116  1  0.90398493  0.30737577  0.50404771  1
  Ta  Ta117  1  0.30591018  0.10464251  0.69433645  1
  Ta  Ta118  1  0.60373565  -0.00139136  0.40458140  1
  Ta  Ta119  1  0.60099377  0.40921697  0.01064263  1
  Ta  Ta120  1  -0.00700548  0.60079113  0.78754271  1
  Ta  Ta121  1  -0.00513731  0.19377156  0.00031910  1
  Ta  Ta122  1  0.40487869  0.00345039  0.60321163  1
  Ta  Ta123  1  0.19863250  0.60087673  0.20150265  1
  Ta  Ta124  1  0.69400187  0.89599682  0.30468714  1
  Ta  Ta125  1  0.11153110  0.09580024  0.09336118  1
  Ta  Ta126  1  0.10308412  0.09974502  0.29278722  1
  Ta  Ta127  1  -0.00744958  0.59628169  0.59918241  1
  Ta  Ta128  1  0.89850301  0.10382624  0.29169893  1
  Ta  Ta129  1  0.89880536  0.50012715  0.09991523  1
  Ta  Ta130  1  0.10074675  0.89775822  0.28362447  1
  Ta  Ta131  1  0.60436866  0.19598289  0.40934275  1
  Ta  Ta132  1  0.40236875  0.00005594  -0.00036296  1
  Ta  Ta133  1  0.39839410  0.19147297  0.19573889  1
  Ta  Ta134  1  0.79480353  0.20336001  0.60130021  1
  Ta  Ta135  1  0.20275984  0.20549514  0.80100436  1
  Ta  Ta136  1  0.58858176  0.80495057  0.20495620  1
  Ta  Ta137  1  0.60155689  0.40706300  0.20265757  1
  Ta  Ta138  1  0.69567096  0.30280084  0.50831404  1
  Ta  Ta139  1  0.79951413  0.40962882  0.79365336  1
  Ta  Ta140  1  0.50246455  0.09465765  0.89560216  1
  Ta  Ta141  1  0.10227096  0.90428710  0.89520278  1
  Ta  Ta142  1  0.79432958  0.79252376  0.78953873  1
  Ta  Ta143  1  0.80026254  0.60228111  0.78727145  1
  Ta  Ta144  1  0.19529502  0.20325476  0.39834973  1
  Ta  Ta145  1  0.30519846  0.49795874  0.49824332  1
  Ta  Ta146  1  0.59405557  0.60077110  0.20208443  1
  Ta  Ta147  1  0.60516858  0.00642984  0.79408337  1
  Ta  Ta148  1  0.80653729  0.18882225  0.00425074  1
  Ta  Ta149  1  0.89918939  0.29655115  0.09799478  1
  Ti  Ti150  1  0.49990505  0.09739111  0.10489057  1
  Ti  Ti151  1  0.59347689  0.60059210  0.40066285  1
  Ti  Ti152  1  0.80079857  0.00951899  0.19173171  1
  Ti  Ti153  1  0.09993816  0.70223157  0.88572194  1
  Ti  Ti154  1  0.09654816  0.30008009  0.89097707  1
  Ti  Ti155  1  -0.00012808  0.39638375  -0.00027080  1
  Ti  Ti156  1  0.30293806  0.90505386  0.70201725  1
  Ti  Ti157  1  0.09296079  0.89215909  0.50036364  1
  Ti  Ti158  1  0.89396817  0.69951978  0.49411920  1
  Ti  Ti159  1  0.09619339  0.31399190  0.71334276  1
  Ti  Ti160  1  0.70629844  0.88632604  0.49281640  1
  Ti  Ti161  1  0.30062467  0.09428613  0.30189512  1
  Ti  Ti162  1  0.90907192  0.49716220  0.49603023  1
  Ti  Ti163  1  0.80118340  0.79367761  0.00375441  1
  Ti  Ti164  1  0.79768932  -0.00250764  0.60212983  1
  Ti  Ti165  1  0.31458455  0.90419221  0.48665386  1
  Ti  Ti166  1  0.20417304  0.19955322  -0.01090403  1
  Ti  Ti167  1  0.80711594  0.79532389  0.60814762  1
  Ti  Ti168  1  0.69825259  0.70010206  0.90715256  1
  Ti  Ti169  1  0.49799101  0.30059586  0.69268477  1
  Ti  Ti170  1  0.69811783  0.09847489  0.89409475  1
  Ti  Ti171  1  0.59365914  0.79974228  0.00967117  1
  Ti  Ti172  1  0.49712005  0.09581803  0.50271247  1
  Ti  Ti173  1  0.69600554  0.30462710  0.69528833  1
  Ti  Ti174  1  0.70581684  0.89942088  0.70115873  1
  Ti  Ti175  1  0.60861437  0.79475076  0.79836134  1
  Ti  Ti176  1  0.31115192  0.69327235  0.48926219  1
  Ti  Ti177  1  0.49492583  0.50233611  0.30965810  1
  Ti  Ti178  1  0.20309362  0.60663144  0.79740993  1
  Ti  Ti179  1  0.20499015  0.79330363  0.79779491  1
  Ti  Ti180  1  0.39851315  0.80186493  0.00218148  1
  Ti  Ti181  1  0.89440911  0.88516904  0.50368642  1
  Ti  Ti182  1  0.29979487  0.09556584  0.89997632  1
  Ti  Ti183  1  0.29341825  0.09106505  0.09465312  1
  Ti  Ti184  1  0.30197101  0.29290969  0.09515731  1
  Ti  Ti185  1  0.09293174  0.31858456  0.48641132  1
  Ti  Ti186  1  0.49270282  0.49810997  0.69721213  1
  Ti  Ti187  1  0.59472235  -0.00628971  0.19995513  1
  Ti  Ti188  1  0.69691796  0.70400318  0.31319769  1
  Ti  Ti189  1  0.49342798  0.70620397  0.10144332  1
  Ti  Ti190  1  0.59659867  0.19376641  0.79199792  1
  Ti  Ti191  1  0.91027292  0.69711044  0.11072704  1
  Ti  Ti192  1  0.09797005  0.09872273  0.70568416  1
  Ti  Ti193  1  0.70336118  0.09989138  0.69795529  1
  Ti  Ti194  1  0.30893231  0.70075195  0.09906341  1
  Ti  Ti195  1  0.39088390  0.59736442  0.60454128  1
  Ti  Ti196  1  0.29504287  0.90641080  0.90598686  1
  Ti  Ti197  1  0.80061450  0.40125596  0.00434034  1
  Ti  Ti198  1  0.40275409  0.00540583  0.79881141  1
  Ti  Ti199  1  0.09322478  0.69808142  0.11491115  1
  Mo  Mo200  1  0.89942318  0.69938866  0.68867983  1
  Mo  Mo201  1  -0.00180068  0.40329766  0.39983232  1
  Mo  Mo202  1  0.29958354  0.70509821  0.90322866  1
  Mo  Mo203  1  0.50310484  0.89750125  0.30054199  1
  Mo  Mo204  1  0.69889520  0.10396845  0.50687796  1
  Mo  Mo205  1  0.29581660  0.50810514  0.89613622  1
  Mo  Mo206  1  0.00238718  0.40743443  0.59723566  1
  Mo  Mo207  1  -0.00936478  0.79400174  0.59384747  1
  Mo  Mo208  1  0.70603069  0.50264794  0.69885252  1
  Mo  Mo209  1  0.60492867  0.80187735  0.39489709  1
  Mo  Mo210  1  0.80250324  0.19619270  0.19725566  1
  Mo  Mo211  1  0.89994016  0.10518635  0.10229035  1
  Mo  Mo212  1  0.19727560  0.39895553  0.79599029  1
  Mo  Mo213  1  0.10325965  0.90675809  0.09743306  1
  Mo  Mo214  1  0.49893245  0.09511491  0.70310321  1
  Mo  Mo215  1  0.59111167  0.39667201  0.60114635  1
  Mo  Mo216  1  0.40110346  0.59703013  0.40675607  1
  Mo  Mo217  1  0.08901513  0.50192837  0.49945730  1
  Mo  Mo218  1  0.88530411  0.89911640  0.69592082  1
  Mo  Mo219  1  0.40155011  0.61213911  0.00143337  1
  Mo  Mo220  1  0.29719452  0.28844364  0.89952658  1
  Mo  Mo221  1  0.40481624  0.40231670  0.40973938  1
  Mo  Mo222  1  0.19300173  0.40277670  0.40248804  1
  Mo  Mo223  1  0.29027623  0.69418449  0.69947908  1
  Mo  Mo224  1  0.39575410  0.80684661  0.39496191  1
  Mo  Mo225  1  0.50170860  0.30158488  0.50984082  1
  Mo  Mo226  1  0.69523969  0.29497318  0.30231934  1
  Mo  Mo227  1  0.20248148  0.00019717  -0.00461904  1
  Mo  Mo228  1  -0.00375890  -0.00234729  0.80062201  1
  Mo  Mo229  1  0.40335779  -0.00010003  0.40062999  1
  Mo  Mo230  1  0.49767160  0.89365257  0.09987584  1
  Mo  Mo231  1  0.80947228  0.60218708  0.40693871  1
  Mo  Mo232  1  0.30495244  0.89664472  0.29931307  1
  Mo  Mo233  1  0.19930697  0.00079795  0.19699399  1
  Mo  Mo234  1  0.90488655  0.49997631  0.30383508  1
  Mo  Mo235  1  0.00336249  0.79590004  0.20021089  1
  Mo  Mo236  1  0.00017954  0.40350780  0.79690110  1
  Mo  Mo237  1  0.69999788  0.09659259  0.11085694  1
  Mo  Mo238  1  0.79966547  0.79835856  0.40177922  1
  Mo  Mo239  1  0.70689612  0.70145690  0.69618237  1
  Mo  Mo240  1  0.90405946  0.50340225  0.69959315  1
  Mo  Mo241  1  0.89731772  0.10172293  0.90007923  1
  Mo  Mo242  1  0.00415272  0.60089652  0.20734089  1
  Mo  Mo243  1  0.09476862  0.69288059  0.29312106  1
  Mo  Mo244  1  0.51017414  0.50342571  0.10075654  1
  Mo  Mo245  1  0.00998295  0.20530046  0.80401676  1
  Mo  Mo246  1  0.90248385  0.69601445  0.30688898  1
  Mo  Mo247  1  0.40870399  0.20027252  0.60139304  1
  Mo  Mo248  1  0.29726038  0.51033984  0.09529241  1
  Mo  Mo249  1  0.40270075  0.80117912  0.19500253  1
