# generated using pymatgen
data_HfZrTaTiMo
_symmetry_space_group_name_H-M   'P 1'
_cell_length_a   16.88462051
_cell_length_b   16.89254468
_cell_length_c   16.88490905
_cell_angle_alpha   89.95928375
_cell_angle_beta   90.05663245
_cell_angle_gamma   90.01239831
_symmetry_Int_Tables_number   1
_chemical_formula_structural   HfZrTaTiMo
_chemical_formula_sum   'Hf50 Zr50 Ta50 Ti50 Mo50'
_cell_volume   4815.98110188
_cell_formula_units_Z   50
loop_
 _symmetry_equiv_pos_site_id
 _symmetry_equiv_pos_as_xyz
  1  'x, y, z'
loop_
 _atom_site_type_symbol
 _atom_site_label
 _atom_site_symmetry_multiplicity
 _atom_site_fract_x
 _atom_site_fract_y
 _atom_site_fract_z
 _atom_site_occupancy
  Hf  Hf0  1  0.29810110  0.29046577  0.90254911  1
  Hf  Hf1  1  0.48942702  0.71026242  0.50065914  1
  Hf  Hf2  1  0.80270966  -0.01159900  0.20025829  1
  Hf  Hf3  1  0.69247274  0.70918139  0.30395473  1
  Hf  Hf4  1  0.00923706  0.39707131  0.20887070  1
  Hf  Hf5  1  0.10589133  0.09400283  0.11102633  1
  Hf  Hf6  1  0.30631653  0.88486483  0.49673605  1
  Hf  Hf7  1  0.19401133  0.59635286  0.79525390  1
  Hf  Hf8  1  0.29652988  0.29894645  0.70838353  1
  Hf  Hf9  1  0.20613071  0.79540090  0.60788146  1
  Hf  Hf10  1  0.09295395  0.70199880  0.89549589  1
  Hf  Hf11  1  0.89194360  0.09878467  0.90022601  1
  Hf  Hf12  1  0.39228378  0.80472756  0.78409998  1
  Hf  Hf13  1  0.90159922  0.89753502  0.89954971  1
  Hf  Hf14  1  0.51051222  0.09193600  0.69973189  1
  Hf  Hf15  1  0.19672334  0.62559500  0.19288637  1
  Hf  Hf16  1  0.59502417  0.40703127  -0.00460372  1
  Hf  Hf17  1  0.89752873  0.29990197  0.10186472  1
  Hf  Hf18  1  0.39679333  -0.00756684  0.61142704  1
  Hf  Hf19  1  0.30223579  0.90017965  0.90209225  1
  Hf  Hf20  1  0.20337960  0.39954396  0.38535292  1
  Hf  Hf21  1  0.60648328  -0.00298869  0.39963474  1
  Hf  Hf22  1  0.59746963  0.60137636  0.60443332  1
  Hf  Hf23  1  0.50288991  0.89609156  0.50199937  1
  Hf  Hf24  1  0.29079633  0.88974439  0.29499449  1
  Hf  Hf25  1  0.70021747  0.31247998  0.69806307  1
  Hf  Hf26  1  0.19294686  0.59993395  -0.00016296  1
  Hf  Hf27  1  -0.00135365  0.80249974  0.79281386  1
  Hf  Hf28  1  0.89571614  0.09649443  0.70105717  1
  Hf  Hf29  1  0.49722923  0.90026663  0.90232075  1
  Hf  Hf30  1  0.90666301  0.70191338  0.30378030  1
  Hf  Hf31  1  0.89863942  0.30628952  0.69997747  1
  Hf  Hf32  1  0.10462609  0.09673126  0.29731365  1
  Hf  Hf33  1  0.40877835  0.40155266  0.80769534  1
  Hf  Hf34  1  0.09305375  0.51075137  0.49073646  1
  Hf  Hf35  1  0.29958818  0.09899087  0.09837603  1
  Hf  Hf36  1  0.69027666  0.09227842  0.09834028  1
  Hf  Hf37  1  0.59229371  0.60341050  -0.00273117  1
  Hf  Hf38  1  0.40248411  0.18560917  0.79961353  1
  Hf  Hf39  1  0.00412060  0.20347299  0.00432410  1
  Hf  Hf40  1  -0.00161818  0.20204036  0.20506128  1
  Hf  Hf41  1  0.00283112  0.41149767  0.80386154  1
  Hf  Hf42  1  0.89311226  0.30614864  0.90691042  1
  Hf  Hf43  1  0.48299513  0.50834981  0.09655629  1
  Hf  Hf44  1  0.09823905  0.29475827  0.49395720  1
  Hf  Hf45  1  0.90948366  0.69603216  0.50038989  1
  Hf  Hf46  1  0.39901746  -0.00118308  0.39468207  1
  Hf  Hf47  1  0.70144851  0.69473190  0.70766024  1
  Hf  Hf48  1  0.20091538  -0.00342673  0.39947364  1
  Hf  Hf49  1  0.19835937  0.59996616  0.60268957  1
  Zr  Zr50  1  0.01059231  -0.00041513  0.59686212  1
  Zr  Zr51  1  0.10575057  0.89607656  0.90110586  1
  Zr  Zr52  1  0.39070625  0.79659922  0.18999938  1
  Zr  Zr53  1  0.29630702  0.51685384  0.29624401  1
  Zr  Zr54  1  0.48950707  0.70579772  0.30972813  1
  Zr  Zr55  1  0.49595351  0.28739683  0.09624293  1
  Zr  Zr56  1  0.38915205  0.60565850  0.60745550  1
  Zr  Zr57  1  0.69776327  0.28670180  0.09755575  1
  Zr  Zr58  1  0.49249068  0.29026047  0.30563097  1
  Zr  Zr59  1  0.69992669  0.49238773  0.50972813  1
  Zr  Zr60  1  0.38651414  0.38869054  0.20434070  1
  Zr  Zr61  1  0.59837907  0.40712053  0.19407972  1
  Zr  Zr62  1  -0.00136196  0.20491920  0.59861402  1
  Zr  Zr63  1  0.79657352  -0.00943901  0.00459632  1
  Zr  Zr64  1  0.50030969  0.30052312  0.50294199  1
  Zr  Zr65  1  0.29593183  0.50013922  0.10213794  1
  Zr  Zr66  1  0.00897969  0.80576565  0.59924259  1
  Zr  Zr67  1  0.80155142  0.80307049  0.60321230  1
  Zr  Zr68  1  0.70249547  0.50493475  0.30422207  1
  Zr  Zr69  1  0.70615430  0.51831918  0.88803118  1
  Zr  Zr70  1  0.80111628  0.60047923  0.19039832  1
  Zr  Zr71  1  0.30279407  0.29235896  0.48938641  1
  Zr  Zr72  1  0.69271834  0.70865379  0.09870559  1
  Zr  Zr73  1  0.80580079  0.80393750  0.19270423  1
  Zr  Zr74  1  0.40011951  0.60238451  0.79771723  1
  Zr  Zr75  1  0.00264327  -0.00063807  0.00411690  1
  Zr  Zr76  1  0.59530628  0.40044836  0.39844467  1
  Zr  Zr77  1  0.59825811  0.41099053  0.80482031  1
  Zr  Zr78  1  0.70399946  0.09591115  0.70221589  1
  Zr  Zr79  1  0.80414090  0.40318045  0.20205665  1
  Zr  Zr80  1  0.60683448  0.19768361  0.59821928  1
  Zr  Zr81  1  0.79684653  0.80208312  0.79963754  1
  Zr  Zr82  1  0.19919116  0.40628137  0.59856773  1
  Zr  Zr83  1  0.20212576  -0.00356912  0.59981592  1
  Zr  Zr84  1  0.70610779  0.29203799  0.30088437  1
  Zr  Zr85  1  0.80553869  0.60437468  0.00279273  1
  Zr  Zr86  1  0.20357767  0.79459434  0.01171077  1
  Zr  Zr87  1  0.71039578  0.09922949  0.29695893  1
  Zr  Zr88  1  0.11281656  0.10334891  0.89869519  1
  Zr  Zr89  1  0.59654495  0.60119173  0.40413223  1
  Zr  Zr90  1  0.79209211  0.41390522  0.00513304  1
  Zr  Zr91  1  -0.00156274  0.20254294  0.80355937  1
  Zr  Zr92  1  0.20512571  0.19359354  0.60477436  1
  Zr  Zr93  1  0.80005986  0.81214447  0.39862103  1
  Zr  Zr94  1  0.89847759  0.10545069  0.48660876  1
  Zr  Zr95  1  0.90665105  0.51193559  0.31096975  1
  Zr  Zr96  1  0.50586393  0.29951798  0.70080747  1
  Zr  Zr97  1  -0.00389231  0.39196496  0.39764182  1
  Zr  Zr98  1  0.30185127  0.49941551  0.90606046  1
  Zr  Zr99  1  0.40085280  0.00239796  0.19734833  1
  Ta  Ta100  1  0.58656120  0.60411668  0.79863349  1
  Ta  Ta101  1  0.60041016  0.80533674  0.60747858  1
  Ta  Ta102  1  0.69027500  0.89733078  0.90379272  1
  Ta  Ta103  1  0.30558680  0.10235776  0.49357715  1
  Ta  Ta104  1  0.50267639  0.09556347  0.30143677  1
  Ta  Ta105  1  0.69711809  0.70678213  0.50410538  1
  Ta  Ta106  1  0.50133834  0.09609339  0.50007584  1
  Ta  Ta107  1  0.39392507  0.40496961  0.39900266  1
  Ta  Ta108  1  0.19674458  0.39757287  0.00317415  1
  Ta  Ta109  1  0.00138600  0.59651643  -0.00068124  1
  Ta  Ta110  1  0.59695891  -0.00499287  0.80378348  1
  Ta  Ta111  1  0.00586010  -0.00002898  0.79580267  1
  Ta  Ta112  1  0.10429651  0.69939103  0.49154443  1
  Ta  Ta113  1  0.10891229  0.30236424  0.89978068  1
  Ta  Ta114  1  0.29760120  0.69997909  0.48157811  1
  Ta  Ta115  1  0.49740329  0.70804975  0.89739707  1
  Ta  Ta116  1  0.10584491  0.30156275  0.70879443  1
  Ta  Ta117  1  0.91781419  0.49991908  0.10061637  1
  Ta  Ta118  1  0.80359601  0.79766206  0.00051362  1
  Ta  Ta119  1  0.80241565  0.20641158  0.59449107  1
  Ta  Ta120  1  0.59148632  0.18626521  0.19931177  1
  Ta  Ta121  1  0.70542872  0.09689088  0.49899903  1
  Ta  Ta122  1  0.80648417  0.59639763  0.60343544  1
  Ta  Ta123  1  0.50249094  0.90734971  0.09343244  1
  Ta  Ta124  1  0.00683871  0.60684326  0.19558345  1
  Ta  Ta125  1  0.48944517  0.50093089  0.50038619  1
  Ta  Ta126  1  0.21241104  0.00058108  0.79303617  1
  Ta  Ta127  1  0.30383647  0.09324509  0.90385832  1
  Ta  Ta128  1  0.89813559  0.90907006  0.69848700  1
  Ta  Ta129  1  0.48610073  0.50930152  0.30056707  1
  Ta  Ta130  1  0.39541471  0.40244425  0.59765026  1
  Ta  Ta131  1  0.69613750  0.29097280  0.89779643  1
  Ta  Ta132  1  0.90183713  0.69556834  0.89769947  1
  Ta  Ta133  1  0.90565935  0.68920944  0.70176204  1
  Ta  Ta134  1  0.70749099  0.29932351  0.49861796  1
  Ta  Ta135  1  0.60265898  0.19203063  0.40241899  1
  Ta  Ta136  1  0.89662479  0.10034053  0.11002926  1
  Ta  Ta137  1  0.10181557  0.89920116  0.29073457  1
  Ta  Ta138  1  0.00516646  -0.00380538  0.39812379  1
  Ta  Ta139  1  0.58874899  0.60445246  0.19523214  1
  Ta  Ta140  1  0.10731087  0.10374840  0.70652747  1
  Ta  Ta141  1  0.50991286  0.27985497  0.90204148  1
  Ta  Ta142  1  0.00812228  0.80884019  0.40167777  1
  Ta  Ta143  1  0.10382483  0.10720389  0.48762388  1
  Ta  Ta144  1  0.90354363  0.90617928  0.49876514  1
  Ta  Ta145  1  0.39890415  0.19193265  0.60229220  1
  Ta  Ta146  1  0.50473609  0.89494248  0.29962621  1
  Ta  Ta147  1  0.40297317  0.39177187  -0.00549807  1
  Ta  Ta148  1  0.80839140  0.41334048  0.80019219  1
  Ta  Ta149  1  0.68859948  0.10030502  0.90142793  1
  Ti  Ti150  1  0.08495105  0.71263723  0.09478206  1
  Ti  Ti151  1  0.10305595  0.49524559  0.10691755  1
  Ti  Ti152  1  0.20208567  -0.00274388  0.00263677  1
  Ti  Ti153  1  0.79336691  -0.00538471  0.80350962  1
  Ti  Ti154  1  0.21212745  0.20450150  0.20797137  1
  Ti  Ti155  1  0.29869955  0.70429602  0.89668045  1
  Ti  Ti156  1  0.39570274  0.61792864  0.19280046  1
  Ti  Ti157  1  0.40914983  0.18447945  -0.00145532  1
  Ti  Ti158  1  -0.00255632  0.58618980  0.79990647  1
  Ti  Ti159  1  0.10481206  0.70835504  0.30699284  1
  Ti  Ti160  1  0.10890492  0.28624353  0.30519996  1
  Ti  Ti161  1  0.29642047  0.90488214  0.09938343  1
  Ti  Ti162  1  0.91662366  0.89291836  0.09952907  1
  Ti  Ti163  1  0.79746712  0.60401855  0.41087627  1
  Ti  Ti164  1  0.90771817  0.50805763  0.50335564  1
  Ti  Ti165  1  0.69754778  0.90060522  0.50496505  1
  Ti  Ti166  1  0.50152852  0.71243213  0.69888027  1
  Ti  Ti167  1  0.19962516  0.20125416  0.00328871  1
  Ti  Ti168  1  0.10368845  0.51333753  0.29852387  1
  Ti  Ti169  1  0.90080184  0.09866274  0.29992659  1
  Ti  Ti170  1  0.01048825  0.40695350  -0.00383006  1
  Ti  Ti171  1  0.09359520  0.69329416  0.69886753  1
  Ti  Ti172  1  0.10934290  0.30223908  0.10460750  1
  Ti  Ti173  1  0.50078475  0.49423398  0.69029549  1
  Ti  Ti174  1  0.70516479  0.50292749  0.70017214  1
  Ti  Ti175  1  0.39641323  0.19142581  0.20616935  1
  Ti  Ti176  1  0.68493044  0.89468328  0.29078874  1
  Ti  Ti177  1  0.29794899  0.29597355  0.09729325  1
  Ti  Ti178  1  0.30042601  0.50908349  0.48975603  1
  Ti  Ti179  1  0.69579661  0.70639022  0.89360775  1
  Ti  Ti180  1  0.79420783  0.20504069  0.79975670  1
  Ti  Ti181  1  0.80209094  -0.00781471  0.39711102  1
  Ti  Ti182  1  0.10900587  0.90115212  0.70922321  1
  Ti  Ti183  1  0.79762967  -0.00223133  0.59647668  1
  Ti  Ti184  1  0.40024375  0.79279490  0.00577877  1
  Ti  Ti185  1  0.68404745  0.90066992  0.09721237  1
  Ti  Ti186  1  0.00365807  0.79810056  0.20118411  1
  Ti  Ti187  1  0.19115284  0.40897317  0.80438871  1
  Ti  Ti188  1  0.69101716  0.90443680  0.70216374  1
  Ti  Ti189  1  0.29949956  0.49381239  0.70322693  1
  Ti  Ti190  1  0.89190103  0.27995420  0.31292240  1
  Ti  Ti191  1  0.10170391  0.90130131  0.11196857  1
  Ti  Ti192  1  0.40105621  -0.00172402  0.79710882  1
  Ti  Ti193  1  0.58518364  0.79805107  0.19115775  1
  Ti  Ti194  1  0.00180027  0.40977368  0.60596503  1
  Ti  Ti195  1  0.59593669  0.79874159  -0.00234377  1
  Ti  Ti196  1  0.81176307  0.40508444  0.59824622  1
  Ti  Ti197  1  0.91444879  0.90437157  0.29762739  1
  Ti  Ti198  1  0.79647815  0.19425220  0.00127151  1
  Ti  Ti199  1  0.80969356  0.39480396  0.40974360  1
  Mo  Mo200  1  0.59453919  -0.00311455  -0.00185124  1
  Mo  Mo201  1  0.60346013  0.19189397  0.80525515  1
  Mo  Mo202  1  0.39443949  0.59870413  0.40275784  1
  Mo  Mo203  1  0.40045018  0.79761121  0.60346608  1
  Mo  Mo204  1  0.30419749  0.09727242  0.70362841  1
  Mo  Mo205  1  0.68337196  0.50811363  0.10566623  1
  Mo  Mo206  1  -0.00631939  0.79506859  0.00160178  1
  Mo  Mo207  1  0.19976571  0.79629843  0.79425115  1
  Mo  Mo208  1  0.30199454  0.10439987  0.29937803  1
  Mo  Mo209  1  0.59652859  0.40841412  0.60033540  1
  Mo  Mo210  1  -0.00380985  -0.00340315  0.20378800  1
  Mo  Mo211  1  0.29904495  0.90002321  0.70161065  1
  Mo  Mo212  1  0.90580762  0.50385884  0.90541408  1
  Mo  Mo213  1  0.29912386  0.29102656  0.29952487  1
  Mo  Mo214  1  0.49778994  0.09552681  0.10129791  1
  Mo  Mo215  1  0.90081784  0.50218295  0.69561337  1
  Mo  Mo216  1  0.49360599  0.51175437  0.90430035  1
  Mo  Mo217  1  0.91214363  0.70245253  0.09637952  1
  Mo  Mo218  1  0.10219418  0.89804314  0.49003320  1
  Mo  Mo219  1  0.09940489  0.49746634  0.90467441  1
  Mo  Mo220  1  0.20368491  0.19551678  0.80369326  1
  Mo  Mo221  1  0.59625258  -0.00809568  0.20070620  1
  Mo  Mo222  1  0.49985862  0.09025978  0.90404618  1
  Mo  Mo223  1  0.60781857  -0.00563753  0.59896691  1
  Mo  Mo224  1  0.59650354  0.80087939  0.79945514  1
  Mo  Mo225  1  0.60314528  0.80663868  0.40757727  1
  Mo  Mo226  1  0.89609973  0.30694418  0.50342645  1
  Mo  Mo227  1  0.50784517  0.89947053  0.70198606  1
  Mo  Mo228  1  0.19466237  0.79793589  0.39672818  1
  Mo  Mo229  1  0.39889799  0.00035265  0.00078859  1
  Mo  Mo230  1  0.09541017  0.49826562  0.69653783  1
  Mo  Mo231  1  0.39618846  0.80145598  0.39403660  1
  Mo  Mo232  1  0.30333582  0.69707955  0.09090430  1
  Mo  Mo233  1  0.20534942  0.19535813  0.39371683  1
  Mo  Mo234  1  0.79934161  0.20024516  0.40435425  1
  Mo  Mo235  1  0.39708904  0.61463731  -0.00489898  1
  Mo  Mo236  1  0.19362441  0.38680449  0.19747616  1
  Mo  Mo237  1  0.19768037  0.60540125  0.39407121  1
  Mo  Mo238  1  0.00596992  0.60965588  0.39538077  1
  Mo  Mo239  1  0.40377181  0.18918141  0.40066021  1
  Mo  Mo240  1  -0.00086443  0.19520256  0.39448517  1
  Mo  Mo241  1  0.19076826  0.80155353  0.19546324  1
  Mo  Mo242  1  0.20143650  -0.00417015  0.19623106  1
  Mo  Mo243  1  0.29315882  0.70506701  0.30239732  1
  Mo  Mo244  1  0.59672345  0.18993368  -0.00114853  1
  Mo  Mo245  1  0.49620583  0.70699197  0.09228528  1
  Mo  Mo246  1  0.00221859  0.60026986  0.60196497  1
  Mo  Mo247  1  0.29183990  0.70249077  0.70326497  1
  Mo  Mo248  1  0.80346026  0.19031638  0.20010551  1
  Mo  Mo249  1  0.81200550  0.60042293  0.79589333  1
