# generated using pymatgen
data_HfZrTaTiMo
_symmetry_space_group_name_H-M   'P 1'
_cell_length_a   16.89306687
_cell_length_b   16.88671793
_cell_length_c   16.89167182
_cell_angle_alpha   90.02425647
_cell_angle_beta   89.99944834
_cell_angle_gamma   90.01362904
_symmetry_Int_Tables_number   1
_chemical_formula_structural   HfZrTaTiMo
_chemical_formula_sum   'Hf50 Zr50 Ta50 Ti50 Mo50'
_cell_volume   4818.66055745
_cell_formula_units_Z   50
loop_
 _symmetry_equiv_pos_site_id
 _symmetry_equiv_pos_as_xyz
  1  'x, y, z'
loop_
 _atom_site_type_symbol
 _atom_site_label
 _atom_site_symmetry_multiplicity
 _atom_site_fract_x
 _atom_site_fract_y
 _atom_site_fract_z
 _atom_site_occupancy
  Hf  Hf0  1  0.79739780  0.78727147  -0.00097123  1
  Hf  Hf1  1  0.39607835  0.40424214  0.39170121  1
  Hf  Hf2  1  0.82211771  -0.00130076  0.80531008  1
  Hf  Hf3  1  0.79882411  0.40050655  0.19997420  1
  Hf  Hf4  1  -0.00550219  0.59596476  -0.00096756  1
  Hf  Hf5  1  0.59882398  0.60815668  0.80259551  1
  Hf  Hf6  1  -0.00657962  0.20556308  -0.01167189  1
  Hf  Hf7  1  0.69008182  0.50465809  0.09565258  1
  Hf  Hf8  1  0.10865550  0.09378374  0.70750594  1
  Hf  Hf9  1  0.90456009  0.49970405  0.29783579  1
  Hf  Hf10  1  0.21476976  0.80893741  -0.01115147  1
  Hf  Hf11  1  0.37942614  0.20527588  -0.00061008  1
  Hf  Hf12  1  0.29183391  0.50598091  0.49807131  1
  Hf  Hf13  1  0.09376763  0.30047914  0.30355349  1
  Hf  Hf14  1  0.90149234  0.29350472  0.30641603  1
  Hf  Hf15  1  -0.00338443  0.19461411  0.79979384  1
  Hf  Hf16  1  0.69640907  0.50170533  0.30049197  1
  Hf  Hf17  1  0.29973831  0.89658316  0.70270029  1
  Hf  Hf18  1  0.30271986  0.70349722  0.10081953  1
  Hf  Hf19  1  0.10456467  0.69823787  0.89354506  1
  Hf  Hf20  1  0.59843253  0.80229563  0.79329950  1
  Hf  Hf21  1  0.80007371  0.40749033  0.59407198  1
  Hf  Hf22  1  0.20186589  0.20661391  0.18300395  1
  Hf  Hf23  1  0.10086052  0.50469191  0.50378138  1
  Hf  Hf24  1  0.10361950  0.09094539  0.90193629  1
  Hf  Hf25  1  0.70895858  0.51265520  0.69845671  1
  Hf  Hf26  1  0.90526121  0.30572792  0.69890503  1
  Hf  Hf27  1  0.39504512  0.60194759  0.60363675  1
  Hf  Hf28  1  0.49539107  0.70380821  0.49499004  1
  Hf  Hf29  1  0.39185430  0.40598794  0.60830446  1
  Hf  Hf30  1  0.80481197  0.19192522  0.61013873  1
  Hf  Hf31  1  0.19691905  0.59757752  0.20141089  1
  Hf  Hf32  1  0.09715244  0.89639117  0.09480844  1
  Hf  Hf33  1  0.09611663  0.49956218  0.30241950  1
  Hf  Hf34  1  0.69406122  0.09006569  0.49918361  1
  Hf  Hf35  1  0.09801582  0.90125001  0.89274365  1
  Hf  Hf36  1  0.60404902  0.40511036  0.59936778  1
  Hf  Hf37  1  0.00442741  0.40472945  0.60434704  1
  Hf  Hf38  1  0.19597619  -0.00282948  0.19962763  1
  Hf  Hf39  1  0.59969324  0.40646694  0.79831558  1
  Hf  Hf40  1  0.38810996  0.40607896  -0.00631317  1
  Hf  Hf41  1  0.90234733  0.10971935  0.48613053  1
  Hf  Hf42  1  0.59684994  0.39611078  0.19978517  1
  Hf  Hf43  1  0.81014686  0.40928517  -0.00330210  1
  Hf  Hf44  1  0.19982628  0.39770526  -0.00066333  1
  Hf  Hf45  1  0.49975305  0.30526407  0.90366370  1
  Hf  Hf46  1  0.89951500  0.10388799  0.29888984  1
  Hf  Hf47  1  0.79467347  -0.01758825  0.39498032  1
  Hf  Hf48  1  0.40182525  0.19538233  0.39468462  1
  Hf  Hf49  1  0.40563636  0.00253083  0.39821075  1
  Zr  Zr50  1  0.10316395  0.70703318  0.09688046  1
  Zr  Zr51  1  0.38925488  0.19281541  0.80028787  1
  Zr  Zr52  1  0.69510511  0.89989828  0.89968779  1
  Zr  Zr53  1  0.30113095  0.70184979  0.29845076  1
  Zr  Zr54  1  0.78467799  0.80056154  0.19878013  1
  Zr  Zr55  1  0.91133884  0.88834798  0.10094952  1
  Zr  Zr56  1  0.59077726  -0.00968901  0.62485681  1
  Zr  Zr57  1  0.50013827  0.49867728  0.49853743  1
  Zr  Zr58  1  0.90624587  0.88318106  0.50193633  1
  Zr  Zr59  1  0.70203764  0.28993129  0.49660842  1
  Zr  Zr60  1  0.89739072  0.29850544  0.10037816  1
  Zr  Zr61  1  0.80451168  0.60887204  0.17991970  1
  Zr  Zr62  1  0.50475569  0.50783866  0.29624535  1
  Zr  Zr63  1  0.70361568  0.09731610  0.30383836  1
  Zr  Zr64  1  0.50657844  0.09349210  0.90472440  1
  Zr  Zr65  1  0.59804378  0.19457800  0.79473371  1
  Zr  Zr66  1  0.90813792  0.89247078  0.29749135  1
  Zr  Zr67  1  0.70406174  0.09663415  0.91035275  1
  Zr  Zr68  1  0.68799183  0.68695217  0.29111481  1
  Zr  Zr69  1  0.49223111  0.29720058  0.69432570  1
  Zr  Zr70  1  0.49910251  0.89517141  0.09199410  1
  Zr  Zr71  1  0.19858655  0.79790150  0.60490388  1
  Zr  Zr72  1  0.59636954  0.19441675  0.20049355  1
  Zr  Zr73  1  0.10405124  0.50747525  0.89285306  1
  Zr  Zr74  1  0.91000040  0.88524320  0.69819256  1
  Zr  Zr75  1  0.10118432  0.10798838  0.30276080  1
  Zr  Zr76  1  0.29618501  0.29760184  0.29443056  1
  Zr  Zr77  1  0.49146317  0.09752324  0.10243690  1
  Zr  Zr78  1  0.80263979  -0.00196791  0.60348608  1
  Zr  Zr79  1  0.81054606  0.20023528  0.81288368  1
  Zr  Zr80  1  0.30631641  0.89530962  0.29710606  1
  Zr  Zr81  1  0.69620891  0.30423165  0.91304033  1
  Zr  Zr82  1  0.71607114  0.70200931  0.69650466  1
  Zr  Zr83  1  0.91080662  0.70322513  0.29958029  1
  Zr  Zr84  1  0.49614075  0.30269863  0.09698740  1
  Zr  Zr85  1  0.29938919  0.29755407  0.50496476  1
  Zr  Zr86  1  0.89570512  0.09939360  0.09703800  1
  Zr  Zr87  1  -0.00485725  0.01409114  0.60916488  1
  Zr  Zr88  1  0.20398593  0.00013369  0.40378980  1
  Zr  Zr89  1  0.09479614  0.90076637  0.51217278  1
  Zr  Zr90  1  0.80198251  0.59874428  0.41105942  1
  Zr  Zr91  1  0.50145959  0.89787051  0.49873221  1
  Zr  Zr92  1  0.18441389  0.80183561  0.38991812  1
  Zr  Zr93  1  0.37788647  -0.00600853  -0.01068608  1
  Zr  Zr94  1  0.50129680  0.10302648  0.50919237  1
  Zr  Zr95  1  0.40762631  0.00047444  0.79170305  1
  Zr  Zr96  1  0.40080274  0.60111715  -0.00496762  1
  Zr  Zr97  1  0.59148404  0.20003283  0.39088725  1
  Zr  Zr98  1  0.60489587  0.80053616  0.39006025  1
  Zr  Zr99  1  0.80594721  0.40505162  0.80612809  1
  Ta  Ta100  1  0.00012878  0.60479127  0.40728686  1
  Ta  Ta101  1  0.30472964  0.10381526  0.29055177  1
  Ta  Ta102  1  0.70028238  0.29812103  0.09375006  1
  Ta  Ta103  1  0.09926807  0.29747265  0.50085626  1
  Ta  Ta104  1  0.80524958  -0.00901792  0.00228244  1
  Ta  Ta105  1  0.00108507  0.40425921  -0.00596420  1
  Ta  Ta106  1  0.19715771  0.40528207  0.19371036  1
  Ta  Ta107  1  0.39280739  0.60141300  0.39477709  1
  Ta  Ta108  1  0.70338954  0.70072747  0.51048321  1
  Ta  Ta109  1  0.38947511  0.40926720  0.80334245  1
  Ta  Ta110  1  0.70035155  0.09096965  0.71225908  1
  Ta  Ta111  1  0.19902950  0.20075471  0.60749098  1
  Ta  Ta112  1  0.79635704  0.79251650  0.40407104  1
  Ta  Ta113  1  0.19725566  0.40221226  0.60861850  1
  Ta  Ta114  1  0.69773208  0.88952406  0.50698152  1
  Ta  Ta115  1  0.90511573  0.29654160  0.49688863  1
  Ta  Ta116  1  0.49654098  0.29785390  0.50428929  1
  Ta  Ta117  1  -0.00131882  0.40639461  0.80603815  1
  Ta  Ta118  1  0.80722999  0.79484214  0.80785376  1
  Ta  Ta119  1  0.50008270  0.89447970  0.89666818  1
  Ta  Ta120  1  0.80076403  0.40337513  0.40665449  1
  Ta  Ta121  1  0.69770004  0.51026650  0.90639511  1
  Ta  Ta122  1  0.40943048  0.79639033  0.19924206  1
  Ta  Ta123  1  -0.00227537  0.40314630  0.40870231  1
  Ta  Ta124  1  0.29427313  0.30015994  0.70298064  1
  Ta  Ta125  1  0.19867383  0.60396413  0.60656492  1
  Ta  Ta126  1  0.59884723  0.60275753  0.60148997  1
  Ta  Ta127  1  0.00758292  -0.00375524  0.39628190  1
  Ta  Ta128  1  -0.00245069  0.60982143  0.60394284  1
  Ta  Ta129  1  0.09785307  0.09459103  0.08923921  1
  Ta  Ta130  1  0.49736457  0.70914343  0.89975894  1
  Ta  Ta131  1  0.39984581  0.80022494  0.60410222  1
  Ta  Ta132  1  0.38870876  0.40505995  0.19479222  1
  Ta  Ta133  1  0.10255252  0.10865982  0.50087439  1
  Ta  Ta134  1  0.29592781  0.50447236  0.10073670  1
  Ta  Ta135  1  0.29896300  0.70553328  0.49678435  1
  Ta  Ta136  1  0.20074344  0.20334315  -0.00680687  1
  Ta  Ta137  1  0.19741604  0.40314691  0.39804351  1
  Ta  Ta138  1  0.00382602  0.00114765  0.20109821  1
  Ta  Ta139  1  0.30081168  0.69725708  0.70671938  1
  Ta  Ta140  1  0.00582556  0.19795524  0.19163347  1
  Ta  Ta141  1  0.59694264  0.61317024  -0.00130868  1
  Ta  Ta142  1  0.39519776  0.00318882  0.60615722  1
  Ta  Ta143  1  0.49537056  0.50805184  0.70631791  1
  Ta  Ta144  1  0.79328721  -0.00773970  0.19448230  1
  Ta  Ta145  1  0.60325331  -0.00796380  0.20525723  1
  Ta  Ta146  1  0.90389335  0.51436997  0.70554092  1
  Ta  Ta147  1  0.29901146  0.10355211  0.50721832  1
  Ta  Ta148  1  0.10073207  0.50860430  0.70532870  1
  Ta  Ta149  1  0.09460689  0.70158877  0.50115869  1
  Ti  Ti150  1  0.40315239  -0.00023623  0.20218812  1
  Ti  Ti151  1  0.60139019  0.19543706  0.60959974  1
  Ti  Ti152  1  0.50452134  0.50211248  0.90167817  1
  Ti  Ti153  1  -0.00230151  0.79365422  0.80019627  1
  Ti  Ti154  1  0.69222678  0.89434109  0.09602821  1
  Ti  Ti155  1  0.10476831  0.30431941  0.70548417  1
  Ti  Ti156  1  0.60204107  -0.00423676  0.00565467  1
  Ti  Ti157  1  0.09713633  0.69799870  0.70514566  1
  Ti  Ti158  1  0.70332801  0.09743917  0.09813063  1
  Ti  Ti159  1  0.09571785  0.30071927  0.09379677  1
  Ti  Ti160  1  0.09989134  0.90126692  0.70808772  1
  Ti  Ti161  1  0.48990263  0.29805299  0.29180703  1
  Ti  Ti162  1  0.50014398  0.50281018  0.09746540  1
  Ti  Ti163  1  0.80031622  0.60747547  -0.00282750  1
  Ti  Ti164  1  0.90261965  0.50568644  0.50643274  1
  Ti  Ti165  1  0.20589705  0.20216051  0.80410669  1
  Ti  Ti166  1  0.60305711  0.59829156  0.41296169  1
  Ti  Ti167  1  0.00760661  0.40220354  0.18986982  1
  Ti  Ti168  1  0.20740279  0.00405377  0.60216737  1
  Ti  Ti169  1  0.59621643  0.79564632  0.60712839  1
  Ti  Ti170  1  0.48947467  0.70093049  0.70505435  1
  Ti  Ti171  1  0.20845687  0.40713787  0.79843690  1
  Ti  Ti172  1  0.10141377  0.30394148  0.89106061  1
  Ti  Ti173  1  0.40214239  0.59776470  0.19872128  1
  Ti  Ti174  1  0.20984150  0.59789503  -0.00816785  1
  Ti  Ti175  1  0.49784250  0.69622196  0.29810282  1
  Ti  Ti176  1  0.50317563  0.89833421  0.29862214  1
  Ti  Ti177  1  0.00925394  0.60053379  0.19689894  1
  Ti  Ti178  1  0.60204028  0.39613895  0.40204009  1
  Ti  Ti179  1  -0.01080822  -0.00471264  -0.01025466  1
  Ti  Ti180  1  0.00563547  0.20115642  0.60427598  1
  Ti  Ti181  1  0.80839500  0.60669398  0.81331116  1
  Ti  Ti182  1  0.20938708  0.79519098  0.80219937  1
  Ti  Ti183  1  0.70664583  0.29800465  0.30358654  1
  Ti  Ti184  1  0.19710114  0.60317333  0.39633863  1
  Ti  Ti185  1  0.29319051  0.09471395  0.09881020  1
  Ti  Ti186  1  0.79449516  0.19969002  0.19649774  1
  Ti  Ti187  1  0.29923522  0.89605955  0.10707612  1
  Ti  Ti188  1  0.21769137  0.00077138  0.80922312  1
  Ti  Ti189  1  0.38916642  0.59702579  0.80748786  1
  Ti  Ti190  1  0.70278805  0.29887622  0.70220139  1
  Ti  Ti191  1  0.39737501  0.79939827  -0.00803988  1
  Ti  Ti192  1  0.71028963  0.89533805  0.70165163  1
  Ti  Ti193  1  0.59382176  0.79283747  0.19033545  1
  Ti  Ti194  1  0.30632995  0.89500534  0.49915106  1
  Ti  Ti195  1  0.90810379  0.69956929  0.89745816  1
  Ti  Ti196  1  0.60097826  0.19720663  0.00695775  1
  Ti  Ti197  1  0.20212030  0.20090339  0.40401814  1
  Ti  Ti198  1  0.90731623  0.50184146  0.10261761  1
  Ti  Ti199  1  0.92165963  0.71382600  0.10450361  1
  Mo  Mo200  1  0.90852349  0.31014696  0.90059658  1
  Mo  Mo201  1  0.02604888  0.79902101  0.21832439  1
  Mo  Mo202  1  0.30170389  0.89560303  0.88970505  1
  Mo  Mo203  1  0.80046782  0.79588209  0.59953950  1
  Mo  Mo204  1  0.49525781  0.08770943  0.29284043  1
  Mo  Mo205  1  0.28962594  0.30356974  0.89143823  1
  Mo  Mo206  1  0.79717830  0.19654060  0.00556077  1
  Mo  Mo207  1  0.00436637  0.20339702  0.40423206  1
  Mo  Mo208  1  0.40375088  0.79632368  0.39888045  1
  Mo  Mo209  1  0.60330068  -0.00748699  0.80072819  1
  Mo  Mo210  1  0.29516822  0.50479524  0.89772528  1
  Mo  Mo211  1  0.29440132  0.10104642  0.69576115  1
  Mo  Mo212  1  0.49442067  0.70235721  0.09764005  1
  Mo  Mo213  1  0.29424818  0.50335301  0.70494398  1
  Mo  Mo214  1  0.50135142  0.09979819  0.69928028  1
  Mo  Mo215  1  0.68408228  0.70081961  0.09127810  1
  Mo  Mo216  1  0.09918077  0.49756092  0.09913676  1
  Mo  Mo217  1  -0.00181478  0.60309853  0.79628337  1
  Mo  Mo218  1  0.49218460  0.88940900  0.70071191  1
  Mo  Mo219  1  0.00009250  0.79417940  0.40607156  1
  Mo  Mo220  1  0.29565537  0.50149157  0.29683318  1
  Mo  Mo221  1  0.20420369  0.60389124  0.79255503  1
  Mo  Mo222  1  0.90445041  0.08894621  0.90539638  1
  Mo  Mo223  1  0.09790253  0.90216570  0.29700153  1
  Mo  Mo224  1  0.60065773  -0.00942408  0.38906241  1
  Mo  Mo225  1  0.20064634  0.00083130  0.00354980  1
  Mo  Mo226  1  0.00554531  0.78649378  0.60923703  1
  Mo  Mo227  1  0.80890485  0.60206283  0.59659825  1
  Mo  Mo228  1  0.29350315  0.30783343  0.09819478  1
  Mo  Mo229  1  0.70105803  0.69752694  0.89951438  1
  Mo  Mo230  1  0.09912296  0.69492736  0.30404840  1
  Mo  Mo231  1  -0.00251975  0.79522596  -0.01697567  1
  Mo  Mo232  1  0.00396415  -0.00387447  0.80147071  1
  Mo  Mo233  1  0.39188088  0.19748972  0.60310434  1
  Mo  Mo234  1  0.69755700  0.50545340  0.49923522  1
  Mo  Mo235  1  0.59582913  0.41456349  -0.00095840  1
  Mo  Mo236  1  0.90031387  0.70032453  0.50884642  1
  Mo  Mo237  1  0.39274611  0.19719181  0.19635610  1
  Mo  Mo238  1  0.90458253  0.88979175  0.90232243  1
  Mo  Mo239  1  0.59724781  0.79629198  -0.00346981  1
  Mo  Mo240  1  0.28837075  0.10156951  0.89858537  1
  Mo  Mo241  1  0.58314483  0.60468654  0.18488886  1
  Mo  Mo242  1  0.40075324  0.79517822  0.79953455  1
  Mo  Mo243  1  0.89971270  0.50919738  0.89980405  1
  Mo  Mo244  1  0.20657173  0.80255249  0.19411302  1
  Mo  Mo245  1  0.30436213  0.69992908  0.89253041  1
  Mo  Mo246  1  0.80025923  0.20832989  0.39996161  1
  Mo  Mo247  1  0.90459623  0.10527144  0.70400035  1
  Mo  Mo248  1  0.90443307  0.69686505  0.70582388  1
  Mo  Mo249  1  0.69404217  0.89541929  0.29494034  1
