# generated using pymatgen
data_HfZrTaTiMo
_symmetry_space_group_name_H-M   'P 1'
_cell_length_a   16.88555294
_cell_length_b   16.88934569
_cell_length_c   16.87576542
_cell_angle_alpha   89.98826102
_cell_angle_beta   89.92094302
_cell_angle_gamma   90.00700878
_symmetry_Int_Tables_number   1
_chemical_formula_structural   HfZrTaTiMo
_chemical_formula_sum   'Hf50 Zr50 Ta50 Ti50 Mo50'
_cell_volume   4812.72632048
_cell_formula_units_Z   50
loop_
 _symmetry_equiv_pos_site_id
 _symmetry_equiv_pos_as_xyz
  1  'x, y, z'
loop_
 _atom_site_type_symbol
 _atom_site_label
 _atom_site_symmetry_multiplicity
 _atom_site_fract_x
 _atom_site_fract_y
 _atom_site_fract_z
 _atom_site_occupancy
  Hf  Hf0  1  0.19896136  0.59475207  0.40756854  1
  Hf  Hf1  1  0.20847374  0.39829842  0.78958328  1
  Hf  Hf2  1  0.80292356  0.59369735  0.40022794  1
  Hf  Hf3  1  0.27799658  0.70791654  0.51034867  1
  Hf  Hf4  1  0.30374583  0.11221484  0.89498143  1
  Hf  Hf5  1  0.18240007  0.21116903  0.80031635  1
  Hf  Hf6  1  0.79816582  -0.00977536  0.79676198  1
  Hf  Hf7  1  0.70053203  0.30130678  0.31508312  1
  Hf  Hf8  1  0.58853950  0.20414070  0.59848767  1
  Hf  Hf9  1  0.90240991  0.49919401  0.50879480  1
  Hf  Hf10  1  0.39874577  0.59300310  0.80078470  1
  Hf  Hf11  1  0.90572366  0.49829075  0.08558097  1
  Hf  Hf12  1  0.68787159  0.90189365  0.08912771  1
  Hf  Hf13  1  0.79642145  0.58702039  0.20685786  1
  Hf  Hf14  1  0.50978802  0.69774564  0.71121098  1
  Hf  Hf15  1  0.10291577  0.89177349  0.50257276  1
  Hf  Hf16  1  0.79992926  0.00432098  0.19928201  1
  Hf  Hf17  1  0.79868079  0.40188164  0.20039263  1
  Hf  Hf18  1  0.30417822  0.11228704  0.70397771  1
  Hf  Hf19  1  0.50217351  0.89370564  0.09735321  1
  Hf  Hf20  1  0.80667092  0.19827088  0.59734166  1
  Hf  Hf21  1  0.58956171  0.21072858  0.00164225  1
  Hf  Hf22  1  0.60202330  -0.00087988  0.59572169  1
  Hf  Hf23  1  0.29905265  0.69554286  0.10241406  1
  Hf  Hf24  1  0.40490919  0.00388475  0.39845981  1
  Hf  Hf25  1  0.70226959  0.10409843  0.49641966  1
  Hf  Hf26  1  0.50035310  0.89325826  0.29352782  1
  Hf  Hf27  1  -0.00013886  0.79218989  -0.00407176  1
  Hf  Hf28  1  0.79567277  0.80697562  -0.01454699  1
  Hf  Hf29  1  0.19642446  0.80925882  0.79634925  1
  Hf  Hf30  1  0.30103781  0.30590189  0.90214753  1
  Hf  Hf31  1  0.50397710  0.48885097  0.89211305  1
  Hf  Hf32  1  0.19552467  0.39411697  0.60301346  1
  Hf  Hf33  1  0.62596085  0.80090209  0.60605776  1
  Hf  Hf34  1  0.79534303  0.79695755  0.19569980  1
  Hf  Hf35  1  0.09374504  0.91417095  0.89940334  1
  Hf  Hf36  1  0.10152793  0.29962225  0.29968056  1
  Hf  Hf37  1  0.90031146  0.91146750  0.09119096  1
  Hf  Hf38  1  0.09744410  0.90793397  0.10614961  1
  Hf  Hf39  1  0.10042671  0.89619126  0.29803940  1
  Hf  Hf40  1  0.18259393  0.78812965  0.00367168  1
  Hf  Hf41  1  0.10758003  0.50216878  0.29969185  1
  Hf  Hf42  1  0.00184418  0.20222753  0.41056061  1
  Hf  Hf43  1  0.69494949  0.69300844  0.89633207  1
  Hf  Hf44  1  0.39425508  0.59538038  0.40219202  1
  Hf  Hf45  1  0.49328840  0.10192806  0.70423578  1
  Hf  Hf46  1  0.79530622  0.20962901  0.18990849  1
  Hf  Hf47  1  0.90387953  0.09826828  0.70478890  1
  Hf  Hf48  1  0.30423046  0.30151681  0.30159224  1
  Hf  Hf49  1  0.80142725  -0.00006533  0.40435393  1
  Zr  Zr50  1  0.69591932  0.30840043  0.49524111  1
  Zr  Zr51  1  0.01832697  0.60597609  0.00416081  1
  Zr  Zr52  1  0.59484586  0.59568574  0.00271453  1
  Zr  Zr53  1  0.29907254  0.89539204  0.90771928  1
  Zr  Zr54  1  0.79039420  0.39885604  -0.00112361  1
  Zr  Zr55  1  0.60000488  0.39639095  0.19605279  1
  Zr  Zr56  1  0.69568324  0.09839781  0.90078041  1
  Zr  Zr57  1  0.89842549  0.31108422  0.50197033  1
  Zr  Zr58  1  0.59581569  0.20579486  0.20064282  1
  Zr  Zr59  1  0.40246884  0.80184024  0.61049192  1
  Zr  Zr60  1  0.30484738  0.10763607  0.50679042  1
  Zr  Zr61  1  -0.00674594  0.00001290  0.40687958  1
  Zr  Zr62  1  0.88110011  0.68804319  0.08836182  1
  Zr  Zr63  1  0.41104708  0.39775203  0.00538381  1
  Zr  Zr64  1  0.79948813  0.20858734  0.80035301  1
  Zr  Zr65  1  0.10052224  0.09507438  0.29557492  1
  Zr  Zr66  1  0.79594855  0.80395956  0.78397255  1
  Zr  Zr67  1  0.20364999  0.19741548  0.19154464  1
  Zr  Zr68  1  0.90744810  0.10506313  0.28730651  1
  Zr  Zr69  1  0.30025501  0.69938329  0.90209763  1
  Zr  Zr70  1  0.89603510  0.68240994  0.88633345  1
  Zr  Zr71  1  0.40667684  0.60046722  0.00171895  1
  Zr  Zr72  1  0.59317595  0.01430091  0.20823084  1
  Zr  Zr73  1  0.50650338  0.48707669  0.50058577  1
  Zr  Zr74  1  0.39300981  0.59142531  0.60404060  1
  Zr  Zr75  1  0.00081719  0.40491201  0.19687271  1
  Zr  Zr76  1  0.70069023  0.09395592  0.08448902  1
  Zr  Zr77  1  0.50145822  0.89575081  0.50235189  1
  Zr  Zr78  1  0.10348602  0.69610306  0.68785833  1
  Zr  Zr79  1  0.69536324  0.09899766  0.70283361  1
  Zr  Zr80  1  0.39348117  0.79529913  0.40019526  1
  Zr  Zr81  1  0.30240120  0.30705558  0.10279482  1
  Zr  Zr82  1  0.29299149  0.70082806  0.69986127  1
  Zr  Zr83  1  -0.00624899  0.80434360  0.79530220  1
  Zr  Zr84  1  0.90205018  0.69902947  0.30312490  1
  Zr  Zr85  1  0.20467147  0.00295866  0.39944669  1
  Zr  Zr86  1  0.79845158  0.80070302  0.40763649  1
  Zr  Zr87  1  0.60899808  0.80951081  0.80209374  1
  Zr  Zr88  1  0.61000111  0.59269432  0.60791707  1
  Zr  Zr89  1  0.50902539  0.69335102  0.50010600  1
  Zr  Zr90  1  0.90959162  0.30335024  0.89967183  1
  Zr  Zr91  1  0.39664792  0.00256023  0.00149135  1
  Zr  Zr92  1  0.69375984  0.89562936  0.29559810  1
  Zr  Zr93  1  0.08968389  0.09776207  0.10553399  1
  Zr  Zr94  1  0.20456608  0.01487888  0.00502285  1
  Zr  Zr95  1  0.02039811  0.38942098  0.79422001  1
  Zr  Zr96  1  0.79343485  0.41244330  0.80172938  1
  Zr  Zr97  1  0.00017259  0.78990856  0.19049012  1
  Zr  Zr98  1  0.19730753  0.00365913  0.61131373  1
  Zr  Zr99  1  0.50611432  0.69770485  0.29971377  1
  Ta  Ta100  1  0.79573996  0.59621919  0.60702315  1
  Ta  Ta101  1  0.30044750  0.49560754  0.29583074  1
  Ta  Ta102  1  0.40167782  0.00001070  0.60235539  1
  Ta  Ta103  1  0.91871414  0.50051178  0.89399936  1
  Ta  Ta104  1  0.59612111  0.00595788  0.40206664  1
  Ta  Ta105  1  0.49365939  0.10028072  0.09996237  1
  Ta  Ta106  1  0.20292257  0.58435449  0.79356050  1
  Ta  Ta107  1  0.20026548  0.20323551  0.40674091  1
  Ta  Ta108  1  0.19751986  0.00854616  0.80090523  1
  Ta  Ta109  1  0.39452193  0.40000267  0.40270868  1
  Ta  Ta110  1  0.90741395  0.50383636  0.70148301  1
  Ta  Ta111  1  0.58147944  0.19333934  0.39806751  1
  Ta  Ta112  1  0.29027372  0.69640559  0.29635011  1
  Ta  Ta113  1  0.00532637  0.59816067  0.20138576  1
  Ta  Ta114  1  0.50067469  0.48554115  0.70038803  1
  Ta  Ta115  1  0.69137846  0.69387174  0.30127694  1
  Ta  Ta116  1  0.29382911  0.89612176  0.50372225  1
  Ta  Ta117  1  0.61032047  0.80083952  0.40721168  1
  Ta  Ta118  1  0.50666826  0.90690473  0.70738912  1
  Ta  Ta119  1  0.10726924  0.49496589  0.90251161  1
  Ta  Ta120  1  0.40795793  0.80370624  0.80754492  1
  Ta  Ta121  1  0.00665532  0.40473295  0.40290686  1
  Ta  Ta122  1  0.59827505  0.59555753  0.19936376  1
  Ta  Ta123  1  0.90717720  0.10231936  0.89734411  1
  Ta  Ta124  1  0.00364533  0.20392606  0.60153637  1
  Ta  Ta125  1  -0.00663115  0.80201075  0.60315303  1
  Ta  Ta126  1  0.30696641  0.10429946  0.29624515  1
  Ta  Ta127  1  0.01110104  0.20538952  -0.00611905  1
  Ta  Ta128  1  0.68965121  0.30381362  0.89734769  1
  Ta  Ta129  1  0.39884680  -0.00742903  0.80134314  1
  Ta  Ta130  1  0.30428069  0.29755308  0.50363990  1
  Ta  Ta131  1  0.89922091  0.69063767  0.69483689  1
  Ta  Ta132  1  0.90395767  0.30376936  0.30001407  1
  Ta  Ta133  1  0.29654531  0.89364918  0.29646892  1
  Ta  Ta134  1  0.39597673  0.79435646  0.19772012  1
  Ta  Ta135  1  0.59112429  0.20927444  0.80047579  1
  Ta  Ta136  1  0.10618013  0.70004233  0.30475946  1
  Ta  Ta137  1  0.20046531  0.39587381  0.40835411  1
  Ta  Ta138  1  0.69514424  0.30412264  0.69579525  1
  Ta  Ta139  1  0.49106085  0.30011064  0.50079604  1
  Ta  Ta140  1  0.69752878  0.49166027  0.49655527  1
  Ta  Ta141  1  0.40149199  0.59857442  0.20374718  1
  Ta  Ta142  1  0.90601769  0.30743904  0.69541499  1
  Ta  Ta143  1  0.09985638  0.10310143  0.50956780  1
  Ta  Ta144  1  0.29727930  0.50100389  0.10889362  1
  Ta  Ta145  1  0.89265116  0.89793879  0.51348481  1
  Ta  Ta146  1  0.90667465  0.30094183  0.09204089  1
  Ta  Ta147  1  -0.00597577  0.00164950  0.60140145  1
  Ta  Ta148  1  0.40575982  0.20405103  0.00143175  1
  Ta  Ta149  1  0.00245263  0.60011208  0.40341767  1
  Ti  Ti150  1  0.90666137  0.89897728  0.29598787  1
  Ti  Ti151  1  0.61109280  0.58654363  0.79726431  1
  Ti  Ti152  1  0.39317223  0.00119937  0.19889761  1
  Ti  Ti153  1  0.81203837  0.41137364  0.38837023  1
  Ti  Ti154  1  0.78745333  0.57976100  -0.02009076  1
  Ti  Ti155  1  0.21835025  0.00174184  0.19499820  1
  Ti  Ti156  1  0.50488325  0.89794859  0.90718020  1
  Ti  Ti157  1  0.59908360  0.39407354  0.00455786  1
  Ti  Ti158  1  0.20067572  0.79636927  0.19869770  1
  Ti  Ti159  1  0.59728507  0.39198953  0.79192567  1
  Ti  Ti160  1  0.40422001  0.19795541  0.40107529  1
  Ti  Ti161  1  0.49328588  0.30802385  0.30369751  1
  Ti  Ti162  1  0.19410705  0.20786086  0.60254369  1
  Ti  Ti163  1  0.68560462  0.91751929  0.91079819  1
  Ti  Ti164  1  0.29734938  0.49164350  0.50737742  1
  Ti  Ti165  1  0.70464645  0.69054651  0.49854215  1
  Ti  Ti166  1  0.49434116  0.49528995  0.11328661  1
  Ti  Ti167  1  0.80124280  0.20580970  -0.00224230  1
  Ti  Ti168  1  0.08929365  0.90964962  0.70233824  1
  Ti  Ti169  1  0.68210066  0.49765863  0.31420022  1
  Ti  Ti170  1  0.00007625  0.01364110  -0.00624130  1
  Ti  Ti171  1  0.29846692  0.49413238  0.90629286  1
  Ti  Ti172  1  0.08955677  0.10340083  0.70744558  1
  Ti  Ti173  1  0.50023181  0.49685905  0.30498615  1
  Ti  Ti174  1  0.39442304  0.38780925  0.61334933  1
  Ti  Ti175  1  0.69497803  0.50048773  0.09696679  1
  Ti  Ti176  1  0.90563623  0.91254657  0.89810376  1
  Ti  Ti177  1  0.30408195  0.88887862  0.09933742  1
  Ti  Ti178  1  -0.00032716  0.21112389  0.18926376  1
  Ti  Ti179  1  0.09648734  0.49790053  0.50777365  1
  Ti  Ti180  1  0.20018006  0.59731099  -0.00149142  1
  Ti  Ti181  1  0.00033870  0.60288749  0.59539616  1
  Ti  Ti182  1  0.10092221  0.68591347  0.87939396  1
  Ti  Ti183  1  0.90105687  0.10422576  0.09036657  1
  Ti  Ti184  1  0.49929669  0.09821218  0.89537508  1
  Ti  Ti185  1  0.50391389  0.70828802  0.09925089  1
  Ti  Ti186  1  0.19520022  0.20409892  0.00262358  1
  Ti  Ti187  1  0.40898292  0.22474737  0.79565366  1
  Ti  Ti188  1  0.11163034  0.49745089  0.09677408  1
  Ti  Ti189  1  0.79287525  0.40784810  0.60965871  1
  Ti  Ti190  1  0.69036526  0.70081982  0.09882407  1
  Ti  Ti191  1  -0.00279245  0.79529723  0.40601830  1
  Ti  Ti192  1  0.81320062  0.19606888  0.40113071  1
  Ti  Ti193  1  0.19875711  0.39923900  0.19631973  1
  Ti  Ti194  1  0.30229922  0.90343494  0.70046589  1
  Ti  Ti195  1  0.70111830  0.10783561  0.30654861  1
  Ti  Ti196  1  0.89761583  0.70167551  0.50901404  1
  Ti  Ti197  1  0.10148913  0.70461501  0.50291886  1
  Ti  Ti198  1  0.09607454  0.50476909  0.69308858  1
  Ti  Ti199  1  0.40685096  0.20075401  0.19801440  1
  Mo  Mo200  1  0.50087021  0.30263612  0.89512420  1
  Mo  Mo201  1  0.89968353  0.90126234  0.69151575  1
  Mo  Mo202  1  0.30138283  0.29586603  0.69602932  1
  Mo  Mo203  1  0.70370102  0.30164877  0.09095563  1
  Mo  Mo204  1  0.48908745  0.10193560  0.29916990  1
  Mo  Mo205  1  0.59916340  0.79624759  -0.00403229  1
  Mo  Mo206  1  0.01457342  0.39938054  -0.00029543  1
  Mo  Mo207  1  0.10007010  0.30614132  0.09593418  1
  Mo  Mo208  1  0.49831464  0.29895385  0.10543599  1
  Mo  Mo209  1  0.60000175  0.78580307  0.19506817  1
  Mo  Mo210  1  0.70517862  0.90623575  0.49879227  1
  Mo  Mo211  1  0.70320171  0.91025933  0.69132142  1
  Mo  Mo212  1  0.40853475  0.79578956  0.00093821  1
  Mo  Mo213  1  0.49770360  0.10180517  0.49874023  1
  Mo  Mo214  1  0.09640610  0.29553252  0.68642651  1
  Mo  Mo215  1  0.19731390  0.79756065  0.39523551  1
  Mo  Mo216  1  0.69751844  0.49206322  0.69915016  1
  Mo  Mo217  1  0.10356912  0.29863541  0.49764985  1
  Mo  Mo218  1  0.59998905  0.39575832  0.60117790  1
  Mo  Mo219  1  -0.01167670  -0.00127482  0.19794570  1
  Mo  Mo220  1  0.00902288  0.59034204  0.79505258  1
  Mo  Mo221  1  0.20375494  0.40915181  0.00271176  1
  Mo  Mo222  1  0.79958305  -0.00652606  0.60034309  1
  Mo  Mo223  1  0.11230117  0.68917881  0.11590582  1
  Mo  Mo224  1  0.80358022  0.79094104  0.59943983  1
  Mo  Mo225  1  0.58165371  0.00718656  -0.00495088  1
  Mo  Mo226  1  0.60539776  0.59590569  0.40016782  1
  Mo  Mo227  1  0.49895918  0.30528676  0.69727518  1
  Mo  Mo228  1  0.90321964  0.09733446  0.50859417  1
  Mo  Mo229  1  0.00136806  0.00484403  0.79664743  1
  Mo  Mo230  1  0.68587262  0.49396913  0.89597797  1
  Mo  Mo231  1  0.10840306  0.30463328  0.91574459  1
  Mo  Mo232  1  0.39806312  0.40035642  0.79460557  1
  Mo  Mo233  1  0.00163928  0.40224589  0.60008647  1
  Mo  Mo234  1  0.19322230  0.58355188  0.59772182  1
  Mo  Mo235  1  0.59116234  0.00159650  0.80407039  1
  Mo  Mo236  1  0.80057724  0.59155483  0.79468068  1
  Mo  Mo237  1  0.00250737  0.20005258  0.79983868  1
  Mo  Mo238  1  0.70991995  0.68660589  0.70541951  1
  Mo  Mo239  1  0.30359965  0.49485953  0.69701686  1
  Mo  Mo240  1  0.81300876  0.00339598  -0.01087095  1
  Mo  Mo241  1  0.58735447  0.39411540  0.39918284  1
  Mo  Mo242  1  0.19121954  0.81583913  0.60636691  1
  Mo  Mo243  1  0.40290780  0.40763249  0.20866974  1
  Mo  Mo244  1  0.39962735  0.20549695  0.60052084  1
  Mo  Mo245  1  0.09772171  0.10638616  0.89804522  1
  Mo  Mo246  1  0.20154753  0.59518240  0.20321632  1
  Mo  Mo247  1  0.91274850  0.50001200  0.30692796  1
  Mo  Mo248  1  0.31010734  0.10941472  0.10246840  1
  Mo  Mo249  1  0.50266499  0.70839592  0.90152200  1
