# generated using pymatgen
data_HfZrTaTiMo
_symmetry_space_group_name_H-M   'P 1'
_cell_length_a   16.88905911
_cell_length_b   16.89655140
_cell_length_c   16.89146208
_cell_angle_alpha   90.03453528
_cell_angle_beta   89.87804535
_cell_angle_gamma   90.01914574
_symmetry_Int_Tables_number   1
_chemical_formula_structural   HfZrTaTiMo
_chemical_formula_sum   'Hf50 Zr50 Ta50 Ti50 Mo50'
_cell_volume   4820.25135304
_cell_formula_units_Z   50
loop_
 _symmetry_equiv_pos_site_id
 _symmetry_equiv_pos_as_xyz
  1  'x, y, z'
loop_
 _atom_site_type_symbol
 _atom_site_label
 _atom_site_symmetry_multiplicity
 _atom_site_fract_x
 _atom_site_fract_y
 _atom_site_fract_z
 _atom_site_occupancy
  Hf  Hf0  1  0.68778563  0.69959748  0.49899431  1
  Hf  Hf1  1  0.20038492  0.79995665  -0.00795364  1
  Hf  Hf2  1  0.50252404  0.90362995  0.69485070  1
  Hf  Hf3  1  0.09536156  0.09346649  0.10698754  1
  Hf  Hf4  1  0.90901552  0.50778440  0.90487332  1
  Hf  Hf5  1  0.09195416  0.68231691  0.90494175  1
  Hf  Hf6  1  0.19559958  0.20253826  0.80442137  1
  Hf  Hf7  1  0.09436681  0.50251316  0.10165964  1
  Hf  Hf8  1  0.80607615  0.40680738  0.59979684  1
  Hf  Hf9  1  0.50838225  0.49887996  0.29592463  1
  Hf  Hf10  1  0.19911354  -0.00763197  0.80046299  1
  Hf  Hf11  1  0.50311507  0.09370130  0.69838996  1
  Hf  Hf12  1  0.89864246  0.70417284  0.09654355  1
  Hf  Hf13  1  0.60374982  0.59825591  0.17855131  1
  Hf  Hf14  1  0.10332836  0.89846290  0.68829173  1
  Hf  Hf15  1  0.10161684  0.89603004  0.29241863  1
  Hf  Hf16  1  0.79884864  0.19364259  0.19748181  1
  Hf  Hf17  1  0.39073550  0.60741132  0.38790311  1
  Hf  Hf18  1  0.90707541  0.09398092  0.09359905  1
  Hf  Hf19  1  0.69817188  0.31379768  0.29837845  1
  Hf  Hf20  1  0.30406900  0.29915175  0.10727175  1
  Hf  Hf21  1  0.40235377  0.19749345  0.79781895  1
  Hf  Hf22  1  0.39898124  0.18982238  0.20743866  1
  Hf  Hf23  1  0.29608927  0.89910913  0.10178632  1
  Hf  Hf24  1  0.39926222  0.40223793  0.59604756  1
  Hf  Hf25  1  -0.00739716  0.59728051  0.19981748  1
  Hf  Hf26  1  0.50390708  0.09481110  0.30736543  1
  Hf  Hf27  1  0.10304151  0.90870745  0.10276490  1
  Hf  Hf28  1  0.70205156  0.90016194  0.08686972  1
  Hf  Hf29  1  0.69803543  0.30586830  0.10184449  1
  Hf  Hf30  1  0.09509802  0.09072182  0.91489638  1
  Hf  Hf31  1  0.00438765  0.80266150  0.79901632  1
  Hf  Hf32  1  0.50458772  0.89870696  0.49986368  1
  Hf  Hf33  1  0.10120292  0.70438919  0.10841507  1
  Hf  Hf34  1  0.69835632  0.69589098  0.30091351  1
  Hf  Hf35  1  0.90201408  0.70032199  0.50312187  1
  Hf  Hf36  1  0.39591302  0.19866986  0.59281064  1
  Hf  Hf37  1  0.21353079  0.18820307  0.39544610  1
  Hf  Hf38  1  0.58987926  0.41459915  0.00936391  1
  Hf  Hf39  1  0.50683063  0.50649156  0.48705029  1
  Hf  Hf40  1  0.88440816  0.89868336  0.71174420  1
  Hf  Hf41  1  0.19456445  0.79607730  0.79811869  1
  Hf  Hf42  1  0.30031801  0.09345079  0.90630414  1
  Hf  Hf43  1  0.69472271  0.49642402  0.30233411  1
  Hf  Hf44  1  0.30609453  0.30680460  0.89525246  1
  Hf  Hf45  1  0.79877899  0.59369240  0.40507762  1
  Hf  Hf46  1  0.90735500  0.29631179  0.49591482  1
  Hf  Hf47  1  0.79662785  0.19618022  0.60252805  1
  Hf  Hf48  1  0.89462223  0.90213128  0.09448328  1
  Hf  Hf49  1  0.50474568  0.30441896  0.30136348  1
  Zr  Zr50  1  0.00470790  0.80819728  -0.00625455  1
  Zr  Zr51  1  0.61308881  0.79420051  0.78481378  1
  Zr  Zr52  1  0.19281123  0.59196476  0.61023026  1
  Zr  Zr53  1  0.68102610  0.48912968  0.70945436  1
  Zr  Zr54  1  0.80617471  0.20028334  -0.00464692  1
  Zr  Zr55  1  0.40304629  0.79589010  0.20503381  1
  Zr  Zr56  1  0.30177599  0.71377904  0.69344944  1
  Zr  Zr57  1  0.69604334  0.30802405  0.90384675  1
  Zr  Zr58  1  0.51108285  0.89885320  0.09845482  1
  Zr  Zr59  1  0.10333775  0.09582390  0.49918650  1
  Zr  Zr60  1  0.00561958  0.41396689  0.60557381  1
  Zr  Zr61  1  0.77852686  0.79607629  0.61579701  1
  Zr  Zr62  1  -0.00854947  0.19322151  0.60362772  1
  Zr  Zr63  1  0.50983210  0.69732411  0.30330665  1
  Zr  Zr64  1  0.38851037  -0.00442793  0.59582782  1
  Zr  Zr65  1  0.10270517  0.09720169  0.69674510  1
  Zr  Zr66  1  0.60666882  0.19103470  0.19995587  1
  Zr  Zr67  1  0.41447933  0.80028763  0.80293057  1
  Zr  Zr68  1  -0.01247683  -0.00574298  0.59786618  1
  Zr  Zr69  1  0.19157676  0.20770033  0.00389817  1
  Zr  Zr70  1  0.90833357  0.10589690  0.30343899  1
  Zr  Zr71  1  0.40163940  0.59283196  0.60425018  1
  Zr  Zr72  1  -0.00405689  -0.00985223  0.40484302  1
  Zr  Zr73  1  0.79847683  0.60032774  0.78941882  1
  Zr  Zr74  1  0.40158273  0.41036664  0.00896723  1
  Zr  Zr75  1  0.29922883  0.70631407  0.50318971  1
  Zr  Zr76  1  0.00849868  0.40248602  0.39969808  1
  Zr  Zr77  1  0.20359056  0.39949811  0.39558363  1
  Zr  Zr78  1  0.09702984  0.70067611  0.50160524  1
  Zr  Zr79  1  0.79568810  0.80839967  0.20776776  1
  Zr  Zr80  1  0.20070082  0.19864108  0.20810700  1
  Zr  Zr81  1  0.79030546  0.19992703  0.40326864  1
  Zr  Zr82  1  0.69943927  0.50130992  0.90187136  1
  Zr  Zr83  1  0.69810414  0.30373587  0.70603697  1
  Zr  Zr84  1  0.80037318  0.19386001  0.80755062  1
  Zr  Zr85  1  0.60263435  0.20325959  0.59803080  1
  Zr  Zr86  1  0.90408761  0.70220248  0.30287600  1
  Zr  Zr87  1  0.71079896  0.90082825  0.89322727  1
  Zr  Zr88  1  0.19349534  0.39652884  0.00583750  1
  Zr  Zr89  1  0.30859600  0.90265402  0.89657917  1
  Zr  Zr90  1  0.79903990  0.58955853  0.60109147  1
  Zr  Zr91  1  0.50262442  0.31513959  0.70882968  1
  Zr  Zr92  1  0.09829979  0.29853176  0.69833180  1
  Zr  Zr93  1  0.38752197  0.00438010  0.40036268  1
  Zr  Zr94  1  0.20374196  0.40142983  0.59627619  1
  Zr  Zr95  1  0.90765223  0.30195812  0.29679127  1
  Zr  Zr96  1  0.09457170  0.49841756  0.90030748  1
  Zr  Zr97  1  0.30188327  0.50280432  0.89725076  1
  Zr  Zr98  1  0.89319668  0.70345150  0.89881975  1
  Zr  Zr99  1  0.40874790  0.19511953  0.00313519  1
  Ta  Ta100  1  0.69206419  0.90328129  0.50460893  1
  Ta  Ta101  1  -0.00156687  0.80673477  0.40224817  1
  Ta  Ta102  1  0.10310325  0.28845972  0.49615921  1
  Ta  Ta103  1  0.39285891  0.80560711  0.39734853  1
  Ta  Ta104  1  0.81638563  0.40262645  0.80285425  1
  Ta  Ta105  1  0.59568411  0.60458720  -0.00361438  1
  Ta  Ta106  1  0.41000437  -0.00607737  -0.00034081  1
  Ta  Ta107  1  -0.00537796  0.19996498  0.81286311  1
  Ta  Ta108  1  0.50433944  0.09818311  0.49632698  1
  Ta  Ta109  1  0.30154898  0.70114088  0.09965502  1
  Ta  Ta110  1  0.69218507  0.08857455  0.49774948  1
  Ta  Ta111  1  0.19992355  0.60190031  0.79557448  1
  Ta  Ta112  1  0.20023886  0.60517272  0.38871332  1
  Ta  Ta113  1  0.40604852  0.60430493  0.79621224  1
  Ta  Ta114  1  0.70027271  0.08755401  0.08955403  1
  Ta  Ta115  1  0.30480690  0.69544436  0.90066002  1
  Ta  Ta116  1  0.19332275  0.40152674  0.79671175  1
  Ta  Ta117  1  0.20000334  0.80227164  0.39905171  1
  Ta  Ta118  1  0.39824632  0.40173628  0.39709923  1
  Ta  Ta119  1  0.59827538  0.59956228  0.60337707  1
  Ta  Ta120  1  0.09927088  0.50606303  0.29502593  1
  Ta  Ta121  1  0.79537841  0.00083249  0.20686977  1
  Ta  Ta122  1  0.89168551  0.90878202  0.90239624  1
  Ta  Ta123  1  0.79925613  -0.00801732  0.40232785  1
  Ta  Ta124  1  0.90260567  0.49761260  0.29887795  1
  Ta  Ta125  1  0.49959974  0.70732187  0.50024532  1
  Ta  Ta126  1  0.40050171  0.40678034  0.20009220  1
  Ta  Ta127  1  0.40790996  0.79580006  -0.00494431  1
  Ta  Ta128  1  0.79463154  0.59849871  0.01033093  1
  Ta  Ta129  1  0.79804818  0.80880429  0.40295911  1
  Ta  Ta130  1  0.29196918  0.89910712  0.29405600  1
  Ta  Ta131  1  0.19917257  0.40063294  0.20548275  1
  Ta  Ta132  1  0.50491330  0.30080576  0.10710219  1
  Ta  Ta133  1  0.50521326  0.09258770  0.09917508  1
  Ta  Ta134  1  -0.00577508  0.39175891  0.00386265  1
  Ta  Ta135  1  0.79355066  0.00303853  0.60121964  1
  Ta  Ta136  1  0.29689972  0.08658546  0.09968660  1
  Ta  Ta137  1  0.90423525  0.30328611  0.70830050  1
  Ta  Ta138  1  -0.00431500  0.00036746  0.80676836  1
  Ta  Ta139  1  0.60149660  0.20072557  0.40427728  1
  Ta  Ta140  1  0.29966335  0.09238662  0.70222405  1
  Ta  Ta141  1  0.40046153  -0.00084642  0.20060576  1
  Ta  Ta142  1  0.09853261  0.70431754  0.29812834  1
  Ta  Ta143  1  0.50164441  0.30583395  0.90147433  1
  Ta  Ta144  1  0.70214484  0.69973312  0.90081999  1
  Ta  Ta145  1  0.90290083  0.70260533  0.69845872  1
  Ta  Ta146  1  0.59909461  0.19348009  0.81199163  1
  Ta  Ta147  1  0.40727805  0.60535468  -0.00007244  1
  Ta  Ta148  1  0.49900783  0.50052849  0.88777621  1
  Ta  Ta149  1  0.20788614  0.60144720  0.00416381  1
  Ti  Ti150  1  0.69373102  0.90609925  0.30792904  1
  Ti  Ti151  1  0.59912156  0.00219724  -0.01273152  1
  Ti  Ti152  1  0.50299268  0.90324480  0.30199344  1
  Ti  Ti153  1  0.89540160  0.09495786  0.71084956  1
  Ti  Ti154  1  0.49849896  0.30033262  0.48939679  1
  Ti  Ti155  1  0.81256211  0.40165345  0.00446302  1
  Ti  Ti156  1  0.29863144  0.50322919  0.49128790  1
  Ti  Ti157  1  0.09322375  0.29467765  0.29944730  1
  Ti  Ti158  1  0.69529900  0.08989648  0.70449574  1
  Ti  Ti159  1  0.08779842  0.29982394  0.11659758  1
  Ti  Ti160  1  0.80001721  0.59541238  0.19387498  1
  Ti  Ti161  1  0.49800611  0.09124401  0.89670981  1
  Ti  Ti162  1  0.89533610  0.10083060  0.49411461  1
  Ti  Ti163  1  -0.00280536  0.21000449  -0.00463217  1
  Ti  Ti164  1  0.30049710  0.30148929  0.70243010  1
  Ti  Ti165  1  0.60062509  0.80468373  0.39759501  1
  Ti  Ti166  1  0.60447822  -0.00224709  0.20158643  1
  Ti  Ti167  1  0.58988102  0.60743486  0.79739593  1
  Ti  Ti168  1  0.60381534  0.80167323  0.20080700  1
  Ti  Ti169  1  0.59155242  0.79545671  -0.01776404  1
  Ti  Ti170  1  0.50223699  0.70630167  0.68413583  1
  Ti  Ti171  1  0.69477305  0.31146042  0.49647867  1
  Ti  Ti172  1  0.60146613  -0.00078221  0.80498438  1
  Ti  Ti173  1  0.88848355  0.89268657  0.50724896  1
  Ti  Ti174  1  0.29830563  0.50016886  0.29323835  1
  Ti  Ti175  1  0.80103777  0.40838357  0.40958481  1
  Ti  Ti176  1  0.39900192  0.60158859  0.19459660  1
  Ti  Ti177  1  0.09798489  0.09435047  0.29715492  1
  Ti  Ti178  1  0.00525928  0.59627565  0.78058706  1
  Ti  Ti179  1  0.81223013  0.40774285  0.19389105  1
  Ti  Ti180  1  0.91622405  0.50931899  0.49267636  1
  Ti  Ti181  1  0.59543473  0.40646595  0.59118922  1
  Ti  Ti182  1  0.21218468  0.19526683  0.59552452  1
  Ti  Ti183  1  0.70588131  0.49360209  0.10092562  1
  Ti  Ti184  1  0.30527577  0.49280638  0.71153838  1
  Ti  Ti185  1  0.20667102  0.60578439  0.20353737  1
  Ti  Ti186  1  -0.01201232  -0.00908341  0.20870298  1
  Ti  Ti187  1  0.00238994  0.80066495  0.59926086  1
  Ti  Ti188  1  0.10087215  0.51108907  0.48812705  1
  Ti  Ti189  1  0.59892661  0.19320763  -0.00362935  1
  Ti  Ti190  1  0.31026164  0.30130026  0.30268067  1
  Ti  Ti191  1  0.90884842  0.29929634  0.10884823  1
  Ti  Ti192  1  0.70174624  0.71135200  0.08796740  1
  Ti  Ti193  1  0.29847219  0.50642273  0.10601838  1
  Ti  Ti194  1  0.50079591  0.70310293  0.09497377  1
  Ti  Ti195  1  0.20945355  -0.01029993  0.58880090  1
  Ti  Ti196  1  0.20333378  -0.00467094  0.40220655  1
  Ti  Ti197  1  0.30514672  0.29587742  0.49005191  1
  Ti  Ti198  1  0.00356931  0.59854400  0.61095972  1
  Ti  Ti199  1  0.69674545  0.09036549  0.30857164  1
  Mo  Mo200  1  0.50375833  0.69477101  0.90065036  1
  Mo  Mo201  1  0.10541789  0.89334518  0.49748602  1
  Mo  Mo202  1  0.79970573  0.00540865  -0.00419593  1
  Mo  Mo203  1  0.80164154  0.79564170  0.79982680  1
  Mo  Mo204  1  0.29434638  0.89562604  0.49390654  1
  Mo  Mo205  1  -0.00746628  0.59391912  0.01268840  1
  Mo  Mo206  1  0.39834249  0.40400518  0.79742970  1
  Mo  Mo207  1  0.20230899  -0.00457148  0.00427341  1
  Mo  Mo208  1  0.29730167  0.10159387  0.50178832  1
  Mo  Mo209  1  -0.00330864  -0.00337276  -0.00489820  1
  Mo  Mo210  1  0.09465985  0.70016600  0.69823493  1
  Mo  Mo211  1  0.09145502  0.30235171  0.89776642  1
  Mo  Mo212  1  0.69117957  0.09720204  0.90338787  1
  Mo  Mo213  1  0.79513562  0.79560644  -0.00342766  1
  Mo  Mo214  1  0.90432694  0.09734993  0.90271649  1
  Mo  Mo215  1  0.90351603  0.30555436  0.90148099  1
  Mo  Mo216  1  0.40129170  0.00146931  0.80031636  1
  Mo  Mo217  1  0.69594208  0.91934413  0.69764933  1
  Mo  Mo218  1  0.49156807  0.51055538  0.10292311  1
  Mo  Mo219  1  0.29959007  0.08944159  0.29765495  1
  Mo  Mo220  1  0.00348279  0.19935205  0.20150380  1
  Mo  Mo221  1  0.91074156  0.49818805  0.70500180  1
  Mo  Mo222  1  0.00423895  0.60054145  0.39469238  1
  Mo  Mo223  1  0.59609903  0.40486183  0.19320668  1
  Mo  Mo224  1  0.69146114  0.49477854  0.50023778  1
  Mo  Mo225  1  0.89640291  0.49629585  0.09912089  1
  Mo  Mo226  1  0.29961181  0.90116733  0.69338691  1
  Mo  Mo227  1  0.00078959  0.80231383  0.20754534  1
  Mo  Mo228  1  0.40382828  0.20406477  0.40348769  1
  Mo  Mo229  1  0.49798170  0.50516093  0.69949656  1
  Mo  Mo230  1  0.20223775  0.79507732  0.20293361  1
  Mo  Mo231  1  0.10374830  0.50063503  0.70878915  1
  Mo  Mo232  1  0.59274651  0.39868584  0.81194649  1
  Mo  Mo233  1  0.60178503  0.60189534  0.40561764  1
  Mo  Mo234  1  0.09591812  0.90665149  0.89968199  1
  Mo  Mo235  1  0.29218962  0.70361589  0.29313374  1
  Mo  Mo236  1  0.01446822  0.19790457  0.39943298  1
  Mo  Mo237  1  0.79879429  0.00934297  0.79959019  1
  Mo  Mo238  1  0.60317987  0.00115424  0.59840382  1
  Mo  Mo239  1  0.19994189  0.81107508  0.59405435  1
  Mo  Mo240  1  0.00392760  0.39903797  0.20081654  1
  Mo  Mo241  1  0.60294438  -0.00234346  0.39884488  1
  Mo  Mo242  1  0.20522746  0.00281321  0.20601862  1
  Mo  Mo243  1  0.40082328  0.80372735  0.59319631  1
  Mo  Mo244  1  0.00040655  0.39424455  0.80565652  1
  Mo  Mo245  1  0.59993501  0.39564494  0.40587095  1
  Mo  Mo246  1  0.59545130  0.79755173  0.59779949  1
  Mo  Mo247  1  0.89702429  0.90087338  0.30232891  1
  Mo  Mo248  1  0.69413791  0.68551128  0.70043168  1
  Mo  Mo249  1  0.50677324  0.90305477  0.89893764  1
