# generated using pymatgen
data_HfZrTaTiMo
_symmetry_space_group_name_H-M   'P 1'
_cell_length_a   16.89512599
_cell_length_b   16.88370550
_cell_length_c   16.88542618
_cell_angle_alpha   90.04222835
_cell_angle_beta   89.97652847
_cell_angle_gamma   89.98356771
_symmetry_Int_Tables_number   1
_chemical_formula_structural   HfZrTaTiMo
_chemical_formula_sum   'Hf50 Zr50 Ta50 Ti50 Mo50'
_cell_volume   4816.60527472
_cell_formula_units_Z   50
loop_
 _symmetry_equiv_pos_site_id
 _symmetry_equiv_pos_as_xyz
  1  'x, y, z'
loop_
 _atom_site_type_symbol
 _atom_site_label
 _atom_site_symmetry_multiplicity
 _atom_site_fract_x
 _atom_site_fract_y
 _atom_site_fract_z
 _atom_site_occupancy
  Hf  Hf0  1  0.18953960  0.79505347  0.60284867  1
  Hf  Hf1  1  0.00012777  0.80170199  -0.00164159  1
  Hf  Hf2  1  0.08946825  0.69735079  0.88614001  1
  Hf  Hf3  1  0.20042058  -0.00262410  0.40361167  1
  Hf  Hf4  1  0.79027423  0.40096903  0.19942506  1
  Hf  Hf5  1  0.60845610  0.60253476  0.59905544  1
  Hf  Hf6  1  0.60363721  0.80028583  0.59806002  1
  Hf  Hf7  1  0.79609757  0.60722890  0.00006995  1
  Hf  Hf8  1  0.19826008  0.00768468  0.81598404  1
  Hf  Hf9  1  0.30544142  0.29551962  0.29988952  1
  Hf  Hf10  1  0.90455606  0.90579795  0.10155618  1
  Hf  Hf11  1  0.30122064  0.88778538  0.90222705  1
  Hf  Hf12  1  0.41443094  0.37867540  0.19604894  1
  Hf  Hf13  1  0.08150418  0.89121772  0.30326507  1
  Hf  Hf14  1  0.19237887  0.79689884  0.40573177  1
  Hf  Hf15  1  0.19493613  -0.00876746  0.20206224  1
  Hf  Hf16  1  0.18598780  0.59998475  0.41578163  1
  Hf  Hf17  1  0.79166387  0.80054543  0.20175102  1
  Hf  Hf18  1  0.10229135  0.09067368  0.09133780  1
  Hf  Hf19  1  0.50180437  0.49404382  0.69805729  1
  Hf  Hf20  1  0.89601983  0.70766458  0.50795303  1
  Hf  Hf21  1  0.50337148  0.48949366  0.30901958  1
  Hf  Hf22  1  0.49669539  0.89108299  0.70533114  1
  Hf  Hf23  1  0.29436090  0.49983551  0.11135088  1
  Hf  Hf24  1  0.00326884  0.19472700  0.19758557  1
  Hf  Hf25  1  0.89486377  0.09701091  0.09408155  1
  Hf  Hf26  1  0.39935662  0.00766757  0.80476678  1
  Hf  Hf27  1  0.69692873  0.70541419  0.89356368  1
  Hf  Hf28  1  0.40039378  0.59912781  -0.00555273  1
  Hf  Hf29  1  0.19588871  0.59939368  -0.00152105  1
  Hf  Hf30  1  0.90543196  0.09517280  0.90179260  1
  Hf  Hf31  1  0.60958199  0.21030960  0.59592666  1
  Hf  Hf32  1  0.50073122  0.11199044  0.29533897  1
  Hf  Hf33  1  0.79299578  -0.00261137  0.20249758  1
  Hf  Hf34  1  0.89603957  0.30660564  0.50116124  1
  Hf  Hf35  1  0.50266504  0.49158553  0.50301219  1
  Hf  Hf36  1  0.40520993  -0.00372035  0.20373837  1
  Hf  Hf37  1  0.81517100  0.20305898  0.79212031  1
  Hf  Hf38  1  0.41389158  0.60976142  0.39901351  1
  Hf  Hf39  1  0.11482304  0.50971302  0.28428258  1
  Hf  Hf40  1  0.60563421  0.60570003  0.20710848  1
  Hf  Hf41  1  0.01300203  0.38901861  -0.00309156  1
  Hf  Hf42  1  0.89707552  0.89714452  0.49555260  1
  Hf  Hf43  1  -0.00864007  0.60041215  0.20639726  1
  Hf  Hf44  1  0.30007352  0.09943854  0.09807610  1
  Hf  Hf45  1  0.30154455  0.10611124  0.30032191  1
  Hf  Hf46  1  0.09685371  0.49604138  0.88760122  1
  Hf  Hf47  1  0.40277156  -0.00338196  0.40110739  1
  Hf  Hf48  1  -0.00895176  0.20041280  0.60995570  1
  Hf  Hf49  1  0.60177278  -0.00335271  0.79617136  1
  Zr  Zr50  1  0.39899964  0.59432209  0.80041934  1
  Zr  Zr51  1  0.61028750  0.59894343  0.79256806  1
  Zr  Zr52  1  0.70532725  0.09437445  0.90832813  1
  Zr  Zr53  1  0.89079346  0.29729420  0.29975424  1
  Zr  Zr54  1  0.80826886  -0.01157033  0.78695444  1
  Zr  Zr55  1  0.89436338  0.29530866  0.09409416  1
  Zr  Zr56  1  0.89280012  0.49409778  0.09313580  1
  Zr  Zr57  1  0.51095021  0.49472432  0.90096021  1
  Zr  Zr58  1  0.50743926  0.69961629  0.09200507  1
  Zr  Zr59  1  0.29862028  0.70943694  0.89694001  1
  Zr  Zr60  1  0.60100069  0.00303729  0.40022509  1
  Zr  Zr61  1  0.50586506  0.89976743  0.09150961  1
  Zr  Zr62  1  0.89127742  0.50127371  0.50596207  1
  Zr  Zr63  1  0.50620423  0.49933289  0.09463230  1
  Zr  Zr64  1  0.89969499  0.49399021  0.89044935  1
  Zr  Zr65  1  0.00432501  0.41114680  0.40084583  1
  Zr  Zr66  1  0.60046928  0.39060998  0.19968470  1
  Zr  Zr67  1  0.19288508  0.40407083  0.41268572  1
  Zr  Zr68  1  0.40106574  0.00040818  0.59381210  1
  Zr  Zr69  1  -0.00267222  0.60221660  0.00011570  1
  Zr  Zr70  1  0.61959010  0.39896015  0.79799298  1
  Zr  Zr71  1  0.70476116  0.09953461  0.69233967  1
  Zr  Zr72  1  0.79835664  0.60373783  0.39670863  1
  Zr  Zr73  1  0.40668359  0.79453196  0.20997662  1
  Zr  Zr74  1  0.29726173  0.89427730  0.09178341  1
  Zr  Zr75  1  0.39785753  0.00608224  -0.00717172  1
  Zr  Zr76  1  0.50069649  0.30680361  0.70090132  1
  Zr  Zr77  1  0.60067103  -0.00181848  0.59645724  1
  Zr  Zr78  1  0.69814623  0.89969932  0.90379741  1
  Zr  Zr79  1  0.10299514  0.29656896  0.30262184  1
  Zr  Zr80  1  0.09526679  0.90261243  0.69782241  1
  Zr  Zr81  1  0.29834285  0.70376050  0.09770338  1
  Zr  Zr82  1  0.30353369  0.49318975  0.29901451  1
  Zr  Zr83  1  0.61088420  0.20647931  0.79931948  1
  Zr  Zr84  1  0.00476771  0.39863455  0.19415410  1
  Zr  Zr85  1  0.69886316  0.11319132  0.29345879  1
  Zr  Zr86  1  0.28758515  0.69156730  0.29790395  1
  Zr  Zr87  1  0.30921510  0.70650662  0.50836075  1
  Zr  Zr88  1  0.30115857  0.89309035  0.70121900  1
  Zr  Zr89  1  0.39663379  0.20639035  0.60653856  1
  Zr  Zr90  1  0.08242049  0.90101949  0.50157033  1
  Zr  Zr91  1  0.30901797  0.49830553  0.50453557  1
  Zr  Zr92  1  0.39138363  0.39505355  -0.00650653  1
  Zr  Zr93  1  0.29426613  0.10619363  0.70134171  1
  Zr  Zr94  1  0.08932982  0.50447195  0.70817414  1
  Zr  Zr95  1  0.79367736  0.60691021  0.20250758  1
  Zr  Zr96  1  0.19359891  0.60125409  0.60662111  1
  Zr  Zr97  1  0.79818890  0.80150485  0.00895055  1
  Zr  Zr98  1  0.09588079  0.10471098  0.70707203  1
  Zr  Zr99  1  0.29986206  0.30341925  0.50138313  1
  Ta  Ta100  1  0.79391257  0.60028012  0.60866164  1
  Ta  Ta101  1  0.50505418  0.89172680  0.90072467  1
  Ta  Ta102  1  0.79970750  0.59891341  0.78964967  1
  Ta  Ta103  1  0.69785855  0.49435678  0.31250053  1
  Ta  Ta104  1  -0.00450456  -0.00282553  0.79979116  1
  Ta  Ta105  1  0.50047532  0.29767780  0.89887669  1
  Ta  Ta106  1  -0.00125000  0.40031577  0.60714468  1
  Ta  Ta107  1  0.18892102  0.80373572  0.20026697  1
  Ta  Ta108  1  -0.00178234  -0.00023409  0.20496549  1
  Ta  Ta109  1  0.19978027  0.19850079  -0.01015211  1
  Ta  Ta110  1  0.30104242  0.28869072  0.09862224  1
  Ta  Ta111  1  0.19813609  0.38840062  -0.00270310  1
  Ta  Ta112  1  0.19294766  0.19652506  0.40585964  1
  Ta  Ta113  1  0.00978625  0.20151653  -0.01133815  1
  Ta  Ta114  1  0.09552088  0.70300198  0.11168643  1
  Ta  Ta115  1  0.49943637  0.70681183  0.70306554  1
  Ta  Ta116  1  0.69496783  0.49889705  0.08669173  1
  Ta  Ta117  1  0.80019661  0.19986264  0.40324501  1
  Ta  Ta118  1  0.60381377  -0.00396676  0.19517026  1
  Ta  Ta119  1  0.70283121  0.29257559  0.09477017  1
  Ta  Ta120  1  -0.01312376  0.80521186  0.79007215  1
  Ta  Ta121  1  0.31266382  0.70796200  0.70197526  1
  Ta  Ta122  1  0.50089482  0.10718127  0.70270318  1
  Ta  Ta123  1  0.19744320  0.19635128  0.19620151  1
  Ta  Ta124  1  0.40853215  0.60441722  0.60423128  1
  Ta  Ta125  1  0.51358564  0.89279434  0.30276893  1
  Ta  Ta126  1  0.50599391  0.10394127  0.90172407  1
  Ta  Ta127  1  0.00100963  0.60016736  0.40342010  1
  Ta  Ta128  1  0.39953921  0.20044054  -0.00554517  1
  Ta  Ta129  1  0.40955971  0.60198835  0.20612913  1
  Ta  Ta130  1  0.50168578  0.30865173  0.49934574  1
  Ta  Ta131  1  0.50168057  0.11234803  0.50058708  1
  Ta  Ta132  1  0.41217809  0.79726075  0.40107519  1
  Ta  Ta133  1  0.29758742  0.10548294  0.49824921  1
  Ta  Ta134  1  0.20013250  0.00492363  0.59269149  1
  Ta  Ta135  1  0.19377741  0.20499515  0.60078021  1
  Ta  Ta136  1  0.70724976  0.70949252  0.49948437  1
  Ta  Ta137  1  0.09774317  0.09746825  0.30455743  1
  Ta  Ta138  1  0.70939914  0.09857525  0.49509324  1
  Ta  Ta139  1  0.89314006  0.70406718  0.88604197  1
  Ta  Ta140  1  0.89528276  0.09553610  0.49866971  1
  Ta  Ta141  1  -0.00315036  0.19484806  0.40363463  1
  Ta  Ta142  1  0.50667470  0.10490837  0.09662772  1
  Ta  Ta143  1  0.71217496  0.89738321  0.49495808  1
  Ta  Ta144  1  0.39159597  0.20454468  0.80860730  1
  Ta  Ta145  1  0.80625876  0.20099977  0.59883946  1
  Ta  Ta146  1  0.60251265  0.60699149  0.40732536  1
  Ta  Ta147  1  0.09308388  0.29762415  0.50802400  1
  Ta  Ta148  1  0.09421735  0.10036866  0.50261548  1
  Ta  Ta149  1  0.80289563  0.20141898  -0.00496145  1
  Ti  Ti150  1  0.60815909  0.39436046  0.40535505  1
  Ti  Ti151  1  0.10547583  0.50332025  0.10067469  1
  Ti  Ti152  1  0.89203079  0.49474249  0.30511915  1
  Ti  Ti153  1  0.18863933  0.79504987  0.79159790  1
  Ti  Ti154  1  0.39016850  0.39781505  0.60995332  1
  Ti  Ti155  1  0.50328259  0.89210064  0.49623755  1
  Ti  Ti156  1  0.09288732  0.30035066  0.71128962  1
  Ti  Ti157  1  0.89648195  0.49207623  0.70288352  1
  Ti  Ti158  1  0.07660420  0.69829815  0.51344603  1
  Ti  Ti159  1  0.50679585  0.71028562  0.89543708  1
  Ti  Ti160  1  0.72365259  0.31256553  0.69461478  1
  Ti  Ti161  1  0.29596597  0.49867033  0.70282023  1
  Ti  Ti162  1  0.89467603  0.89992296  0.90204937  1
  Ti  Ti163  1  0.90660865  0.71545673  0.30712901  1
  Ti  Ti164  1  0.28907497  0.49658536  0.89416805  1
  Ti  Ti165  1  0.70952553  0.71763248  0.70228758  1
  Ti  Ti166  1  0.60926123  0.79843226  0.00685164  1
  Ti  Ti167  1  0.90470480  0.70647052  0.10644737  1
  Ti  Ti168  1  0.80332572  -0.00342801  0.60141355  1
  Ti  Ti169  1  0.30388836  0.89491135  0.50319048  1
  Ti  Ti170  1  0.20201000  0.38784639  0.80175975  1
  Ti  Ti171  1  0.60297187  0.20859510  0.40667154  1
  Ti  Ti172  1  0.01145591  -0.00598912  -0.00705088  1
  Ti  Ti173  1  -0.01135693  0.00383706  0.60872724  1
  Ti  Ti174  1  0.60537890  0.38917262  -0.00093010  1
  Ti  Ti175  1  0.20120853  0.60882096  0.79112730  1
  Ti  Ti176  1  0.71187439  0.30835408  0.49778506  1
  Ti  Ti177  1  0.19581063  0.38244256  0.18573815  1
  Ti  Ti178  1  0.70041253  0.89884202  0.31201275  1
  Ti  Ti179  1  -0.00843575  0.00941775  0.39515967  1
  Ti  Ti180  1  0.19967249  0.20639311  0.80995928  1
  Ti  Ti181  1  0.89219305  0.10260695  0.29969021  1
  Ti  Ti182  1  0.60950277  0.80279375  0.19808729  1
  Ti  Ti183  1  0.89786392  0.89549969  0.30814883  1
  Ti  Ti184  1  0.90512128  0.30456444  0.89159199  1
  Ti  Ti185  1  0.40522146  0.20560752  0.40391358  1
  Ti  Ti186  1  0.58940348  0.21271063  0.19072703  1
  Ti  Ti187  1  0.38435603  0.38969355  0.80083313  1
  Ti  Ti188  1  0.62125325  0.40611561  0.59720515  1
  Ti  Ti189  1  0.60210402  0.20312323  -0.00273099  1
  Ti  Ti190  1  0.09118831  0.70229358  0.29865227  1
  Ti  Ti191  1  0.09815158  0.89856490  0.89674921  1
  Ti  Ti192  1  0.71418858  0.30437511  0.90312385  1
  Ti  Ti193  1  0.18137905  0.80542583  0.00545868  1
  Ti  Ti194  1  0.69819370  0.10177567  0.09573678  1
  Ti  Ti195  1  0.69352981  0.71405384  0.31443042  1
  Ti  Ti196  1  0.70085337  0.29626109  0.30064357  1
  Ti  Ti197  1  0.19179258  0.39747400  0.60788580  1
  Ti  Ti198  1  0.30106733  0.89179938  0.30477624  1
  Ti  Ti199  1  0.70986031  0.49496142  0.90344171  1
  Mo  Mo200  1  0.79247227  0.19827096  0.19612059  1
  Mo  Mo201  1  0.90091371  0.89570291  0.69008872  1
  Mo  Mo202  1  -0.01117802  0.59822293  0.60525258  1
  Mo  Mo203  1  0.78908488  0.39745022  0.39877373  1
  Mo  Mo204  1  0.50780772  0.70225573  0.50318214  1
  Mo  Mo205  1  0.50486671  0.28940688  0.08125183  1
  Mo  Mo206  1  0.69755827  0.90578688  0.10254774  1
  Mo  Mo207  1  0.80318238  0.80033081  0.79511888  1
  Mo  Mo208  1  0.70477702  0.89354862  0.69223045  1
  Mo  Mo209  1  0.00144924  0.20032105  0.80422911  1
  Mo  Mo210  1  0.89484829  0.70016318  0.69839730  1
  Mo  Mo211  1  -0.01521136  0.60842382  0.79083656  1
  Mo  Mo212  1  0.80150934  0.40373048  0.60096137  1
  Mo  Mo213  1  0.51422817  0.70556492  0.30344332  1
  Mo  Mo214  1  0.79778669  0.00266051  0.00592158  1
  Mo  Mo215  1  -0.00741952  0.79610635  0.60652709  1
  Mo  Mo216  1  0.19557354  0.61042445  0.19456360  1
  Mo  Mo217  1  0.41612480  0.79590451  -0.00878204  1
  Mo  Mo218  1  0.71142241  0.49626144  0.69460348  1
  Mo  Mo219  1  0.09741098  0.09920710  0.89947093  1
  Mo  Mo220  1  0.60816509  0.60044648  -0.00667060  1
  Mo  Mo221  1  0.69786476  0.50202742  0.49955331  1
  Mo  Mo222  1  -0.00216356  0.38904496  0.79541273  1
  Mo  Mo223  1  0.41024613  0.39112004  0.39893748  1
  Mo  Mo224  1  0.40225711  0.19885190  0.19070700  1
  Mo  Mo225  1  0.40723094  0.79694237  0.59514181  1
  Mo  Mo226  1  0.90192179  0.09622928  0.69575709  1
  Mo  Mo227  1  0.09480201  0.89793472  0.10117236  1
  Mo  Mo228  1  0.10939694  0.28798602  0.09356395  1
  Mo  Mo229  1  0.79363618  0.39417010  -0.00498397  1
  Mo  Mo230  1  0.50681218  0.29315633  0.31669326  1
  Mo  Mo231  1  0.28631586  0.30539967  0.70440620  1
  Mo  Mo232  1  0.08669847  0.50132246  0.51534468  1
  Mo  Mo233  1  0.19160923  -0.00436759  -0.00463084  1
  Mo  Mo234  1  0.79917362  0.80443744  0.39693970  1
  Mo  Mo235  1  0.80610244  0.40043006  0.79865269  1
  Mo  Mo236  1  0.59937999  0.00717644  0.00337116  1
  Mo  Mo237  1  0.69601145  0.69965359  0.09804737  1
  Mo  Mo238  1  0.29745222  0.30066659  0.89978555  1
  Mo  Mo239  1  0.29880280  0.10825156  0.90249461  1
  Mo  Mo240  1  0.10174087  0.29588383  0.89186590  1
  Mo  Mo241  1  0.40829864  0.79726712  0.80262265  1
  Mo  Mo242  1  -0.00692303  0.80013518  0.20331221  1
  Mo  Mo243  1  0.60339679  0.80214346  0.40424365  1
  Mo  Mo244  1  0.80263148  0.00461001  0.39598243  1
  Mo  Mo245  1  -0.00313170  0.78944660  0.40159422  1
  Mo  Mo246  1  0.08354451  0.70016886  0.70119824  1
  Mo  Mo247  1  0.60340110  0.80067101  0.79608334  1
  Mo  Mo248  1  0.79756878  0.80382789  0.60446560  1
  Mo  Mo249  1  0.90185930  0.30662956  0.70092241  1
