# generated using pymatgen
data_HfZrTaTiMo
_symmetry_space_group_name_H-M   'P 1'
_cell_length_a   16.87923969
_cell_length_b   16.89687330
_cell_length_c   16.88083899
_cell_angle_alpha   89.97726997
_cell_angle_beta   90.02778428
_cell_angle_gamma   89.96545179
_symmetry_Int_Tables_number   1
_chemical_formula_structural   HfZrTaTiMo
_chemical_formula_sum   'Hf50 Zr50 Ta50 Ti50 Mo50'
_cell_volume   4814.52106293
_cell_formula_units_Z   50
loop_
 _symmetry_equiv_pos_site_id
 _symmetry_equiv_pos_as_xyz
  1  'x, y, z'
loop_
 _atom_site_type_symbol
 _atom_site_label
 _atom_site_symmetry_multiplicity
 _atom_site_fract_x
 _atom_site_fract_y
 _atom_site_fract_z
 _atom_site_occupancy
  Hf  Hf0  1  0.59239588  0.60207039  0.40133737  1
  Hf  Hf1  1  0.78664640  0.20062529  0.39879379  1
  Hf  Hf2  1  0.00472136  0.80859159  0.39466361  1
  Hf  Hf3  1  0.79412285  0.20118501  0.00572478  1
  Hf  Hf4  1  0.69967066  0.31132938  0.90615243  1
  Hf  Hf5  1  0.50310674  0.08548833  0.10180376  1
  Hf  Hf6  1  0.90798137  0.70001875  0.29703527  1
  Hf  Hf7  1  0.00017671  0.19974223  0.19761774  1
  Hf  Hf8  1  0.10104977  0.09167422  0.09958497  1
  Hf  Hf9  1  0.70109270  0.50034175  0.30015861  1
  Hf  Hf10  1  0.80111392  0.19770428  0.80774777  1
  Hf  Hf11  1  0.70356649  0.50533272  0.08183136  1
  Hf  Hf12  1  0.78559858  0.80904910  0.00387955  1
  Hf  Hf13  1  0.79289839  -0.00760184  0.00236610  1
  Hf  Hf14  1  0.89886959  0.30627523  0.09813031  1
  Hf  Hf15  1  0.49374423  0.50189749  0.50810515  1
  Hf  Hf16  1  0.69578096  0.69948894  0.50067198  1
  Hf  Hf17  1  0.59608752  0.60491068  0.79680864  1
  Hf  Hf18  1  0.39938455  0.80187657  0.19706841  1
  Hf  Hf19  1  0.00004673  -0.01781025  0.20031558  1
  Hf  Hf20  1  0.10876526  0.09531537  0.49903267  1
  Hf  Hf21  1  0.48958099  0.69406590  0.29683402  1
  Hf  Hf22  1  -0.00264093  0.80895857  0.60662914  1
  Hf  Hf23  1  0.89458229  0.09662429  0.29455723  1
  Hf  Hf24  1  0.59368392  0.59958964  0.18949872  1
  Hf  Hf25  1  0.09929634  0.50099399  0.09382048  1
  Hf  Hf26  1  0.80462988  -0.01526405  0.60783910  1
  Hf  Hf27  1  0.48089709  0.50702550  0.89523244  1
  Hf  Hf28  1  0.40282890  0.40172443  0.19519259  1
  Hf  Hf29  1  0.70249389  0.49772797  0.49934384  1
  Hf  Hf30  1  0.79743244  0.81484651  0.19180792  1
  Hf  Hf31  1  0.40870421  -0.00495950  0.80464648  1
  Hf  Hf32  1  0.60055727  0.19695765  0.40012723  1
  Hf  Hf33  1  0.70128601  0.70042740  0.90016888  1
  Hf  Hf34  1  -0.00159803  -0.01411193  0.79539920  1
  Hf  Hf35  1  0.49115449  0.09000954  0.50784544  1
  Hf  Hf36  1  0.59824471  0.80213311  0.79343462  1
  Hf  Hf37  1  0.91171264  0.50751325  0.50283548  1
  Hf  Hf38  1  0.90365204  0.09811261  0.50700446  1
  Hf  Hf39  1  0.11022897  0.50320765  0.70271857  1
  Hf  Hf40  1  0.20708722  0.40749742  0.19692371  1
  Hf  Hf41  1  0.81755810  0.40942053  0.81684220  1
  Hf  Hf42  1  0.29223547  0.69115179  0.28950511  1
  Hf  Hf43  1  0.69616785  0.08930366  0.70486521  1
  Hf  Hf44  1  0.89905973  0.09034147  0.90183175  1
  Hf  Hf45  1  0.20969430  -0.00563357  0.79796620  1
  Hf  Hf46  1  0.00146178  0.79883828  0.80373880  1
  Hf  Hf47  1  0.79857179  0.80215300  0.60692788  1
  Hf  Hf48  1  0.01193873  0.40372519  0.40020054  1
  Hf  Hf49  1  0.91054665  0.69262552  0.50077525  1
  Zr  Zr50  1  0.90514913  0.29671469  0.69890995  1
  Zr  Zr51  1  0.90517138  0.50006958  0.29779869  1
  Zr  Zr52  1  0.00735022  0.20382779  0.79766129  1
  Zr  Zr53  1  0.30007144  0.10005560  0.50070135  1
  Zr  Zr54  1  0.10481499  0.50697906  0.29539915  1
  Zr  Zr55  1  0.49866513  0.09775101  0.69693136  1
  Zr  Zr56  1  0.69499241  0.30250218  0.71237248  1
  Zr  Zr57  1  0.00450687  0.20090175  0.39904857  1
  Zr  Zr58  1  0.59066259  0.40312535  0.00139515  1
  Zr  Zr59  1  0.69699147  0.70645168  0.30071696  1
  Zr  Zr60  1  0.79444627  0.81607503  0.79161331  1
  Zr  Zr61  1  0.79763427  0.40366806  0.18665389  1
  Zr  Zr62  1  -0.00090254  -0.01474008  0.39934205  1
  Zr  Zr63  1  0.79839208  0.39937232  0.60101348  1
  Zr  Zr64  1  0.39543079  0.80357741  0.40131314  1
  Zr  Zr65  1  0.11086380  0.69579028  0.70588301  1
  Zr  Zr66  1  0.20177752  0.20232872  -0.00747537  1
  Zr  Zr67  1  0.79167624  0.19878847  0.59648212  1
  Zr  Zr68  1  0.59576319  0.79689493  0.60706869  1
  Zr  Zr69  1  0.79937365  0.60319260  0.61436321  1
  Zr  Zr70  1  -0.02303931  0.40967382  -0.01376998  1
  Zr  Zr71  1  0.90370140  0.70872280  0.09069074  1
  Zr  Zr72  1  0.20761386  0.59651690  0.41080918  1
  Zr  Zr73  1  0.59719419  0.20924594  0.59893844  1
  Zr  Zr74  1  0.01896647  0.39163054  0.60326589  1
  Zr  Zr75  1  0.20518448  -0.01177895  -0.00640067  1
  Zr  Zr76  1  0.20118079  0.80421085  0.40028407  1
  Zr  Zr77  1  0.30118043  0.09567306  0.10238028  1
  Zr  Zr78  1  0.59535000  0.20257099  0.00619260  1
  Zr  Zr79  1  0.80699536  0.81037426  0.40362487  1
  Zr  Zr80  1  0.79890012  0.60943117  0.18694280  1
  Zr  Zr81  1  0.40748399  0.20223455  0.19749587  1
  Zr  Zr82  1  0.79909194  -0.00487502  0.39854367  1
  Zr  Zr83  1  0.09738554  0.68915667  0.50735135  1
  Zr  Zr84  1  0.69475959  0.49651333  0.70994751  1
  Zr  Zr85  1  0.20327747  0.20284542  0.79948367  1
  Zr  Zr86  1  0.40571043  0.79621806  0.00635690  1
  Zr  Zr87  1  0.11345517  0.09806889  0.30224982  1
  Zr  Zr88  1  0.89747890  0.30467090  0.49238113  1
  Zr  Zr89  1  0.29510912  0.29766720  0.30987185  1
  Zr  Zr90  1  0.10733011  0.50392101  0.89751509  1
  Zr  Zr91  1  0.59091962  0.79728353  0.18231134  1
  Zr  Zr92  1  0.78983220  0.19683694  0.19819085  1
  Zr  Zr93  1  0.19302159  0.20597341  0.60804896  1
  Zr  Zr94  1  0.30288716  0.29887030  0.09145731  1
  Zr  Zr95  1  0.09706602  0.30955073  0.09843737  1
  Zr  Zr96  1  0.60427805  0.20475081  0.20072608  1
  Zr  Zr97  1  0.09880088  0.09088152  0.90160188  1
  Zr  Zr98  1  0.59553823  0.39706251  0.40478558  1
  Zr  Zr99  1  0.29662076  0.89736877  0.10005015  1
  Ta  Ta100  1  0.39514157  0.59778521  0.40758687  1
  Ta  Ta101  1  0.00434992  -0.00677576  0.60537761  1
  Ta  Ta102  1  0.31255403  0.10256143  0.89696567  1
  Ta  Ta103  1  0.59308382  0.60850766  -0.00365725  1
  Ta  Ta104  1  0.59344495  -0.00246071  0.40124942  1
  Ta  Ta105  1  0.50081315  0.90564249  0.29558717  1
  Ta  Ta106  1  0.20315766  -0.00676624  0.60798536  1
  Ta  Ta107  1  -0.00479782  0.20044017  -0.00284353  1
  Ta  Ta108  1  -0.00546961  0.59911095  0.80476549  1
  Ta  Ta109  1  0.58833596  0.80702063  0.40371356  1
  Ta  Ta110  1  0.30428640  0.30009778  0.50275479  1
  Ta  Ta111  1  0.69104082  0.08709846  0.50481949  1
  Ta  Ta112  1  0.68688125  0.90282123  0.50375357  1
  Ta  Ta113  1  0.30819254  0.70819941  0.70868877  1
  Ta  Ta114  1  0.40255604  0.19713842  0.40034053  1
  Ta  Ta115  1  0.80354523  0.60001888  0.39976809  1
  Ta  Ta116  1  0.39951710  0.39890364  0.60729945  1
  Ta  Ta117  1  0.58961969  0.19875713  0.80993480  1
  Ta  Ta118  1  0.40306984  0.20454354  0.79885881  1
  Ta  Ta119  1  0.89962596  0.30902478  0.29772997  1
  Ta  Ta120  1  0.90184000  0.09151324  0.09676114  1
  Ta  Ta121  1  0.09885859  0.30934203  0.90027981  1
  Ta  Ta122  1  -0.00106582  0.40539772  0.80049020  1
  Ta  Ta123  1  0.49097053  0.70083790  0.89557781  1
  Ta  Ta124  1  0.49728440  0.30268509  0.30414782  1
  Ta  Ta125  1  0.90251986  0.09392146  0.70100613  1
  Ta  Ta126  1  0.30286370  0.09579679  0.30315184  1
  Ta  Ta127  1  0.59303066  0.39826692  0.19216700  1
  Ta  Ta128  1  0.49060535  0.70102472  0.50803995  1
  Ta  Ta129  1  0.00124010  0.59973775  0.18732994  1
  Ta  Ta130  1  0.59136951  0.39597531  0.60326782  1
  Ta  Ta131  1  0.20779116  0.80225832  0.60445115  1
  Ta  Ta132  1  0.09982031  0.69494031  0.29045528  1
  Ta  Ta133  1  0.69387073  0.09187223  0.89675979  1
  Ta  Ta134  1  0.30844877  0.90364808  0.51182236  1
  Ta  Ta135  1  0.48605735  0.50795032  0.09203517  1
  Ta  Ta136  1  0.89682598  0.70426744  0.90147421  1
  Ta  Ta137  1  0.49208962  0.49902951  0.70396700  1
  Ta  Ta138  1  0.48718496  0.29942205  0.50257220  1
  Ta  Ta139  1  0.39693914  0.60180314  0.60854466  1
  Ta  Ta140  1  0.30968706  0.09883317  0.69543757  1
  Ta  Ta141  1  0.68956263  0.90366011  0.29845725  1
  Ta  Ta142  1  0.30662143  0.30161157  0.70033782  1
  Ta  Ta143  1  0.10326714  0.30511403  0.29688772  1
  Ta  Ta144  1  0.40637835  -0.00479464  -0.00836154  1
  Ta  Ta145  1  0.70230392  0.31358281  0.30218675  1
  Ta  Ta146  1  0.00101529  0.60876734  -0.00428265  1
  Ta  Ta147  1  0.48963010  0.30415376  0.89751555  1
  Ta  Ta148  1  0.49783385  0.09440493  0.30138287  1
  Ta  Ta149  1  0.20621371  0.60770394  -0.00411493  1
  Ti  Ti150  1  0.20223763  0.79168982  -0.00135205  1
  Ti  Ti151  1  0.90319124  0.69669682  0.70652344  1
  Ti  Ti152  1  0.00132281  -0.01733183  0.00567641  1
  Ti  Ti153  1  0.20141217  0.20139797  0.20068846  1
  Ti  Ti154  1  0.79626568  -0.00694296  0.19528898  1
  Ti  Ti155  1  0.40768451  0.19805425  -0.00673673  1
  Ti  Ti156  1  0.10605637  0.70189415  0.89831284  1
  Ti  Ti157  1  0.49156528  0.50166364  0.29756232  1
  Ti  Ti158  1  0.80215204  0.59922335  0.80236530  1
  Ti  Ti159  1  0.39956130  -0.00699524  0.39727397  1
  Ti  Ti160  1  0.10117805  0.09159887  0.69852260  1
  Ti  Ti161  1  0.19459857  0.80461623  0.20073692  1
  Ti  Ti162  1  0.58658344  0.39959034  0.80222907  1
  Ti  Ti163  1  0.11943887  0.29495980  0.48660434  1
  Ti  Ti164  1  0.20470564  0.40738630  0.40412361  1
  Ti  Ti165  1  0.30078076  0.68985319  0.10351804  1
  Ti  Ti166  1  0.59472656  0.60403608  0.61009269  1
  Ti  Ti167  1  0.30336645  0.49477324  0.51009889  1
  Ti  Ti168  1  0.30629854  0.70551736  0.51265128  1
  Ti  Ti169  1  0.30298111  0.51161783  0.09157825  1
  Ti  Ti170  1  0.00654755  0.80817847  0.19561140  1
  Ti  Ti171  1  0.30892084  0.89139938  0.70051136  1
  Ti  Ti172  1  0.21240751  0.39420693  0.80617225  1
  Ti  Ti173  1  0.00982392  0.19985652  0.60351932  1
  Ti  Ti174  1  0.11061459  0.88783691  0.89862355  1
  Ti  Ti175  1  0.69357964  0.08826908  0.10229071  1
  Ti  Ti176  1  0.67317342  0.90910907  0.09580138  1
  Ti  Ti177  1  0.19845331  -0.01565807  0.20751815  1
  Ti  Ti178  1  0.30553626  0.51026800  0.29301855  1
  Ti  Ti179  1  0.39571424  0.40482653  0.40113110  1
  Ti  Ti180  1  0.21191501  0.40458323  -0.01003696  1
  Ti  Ti181  1  0.39098226  0.39979565  -0.00767898  1
  Ti  Ti182  1  0.00895281  0.80517273  0.00145489  1
  Ti  Ti183  1  0.30760790  0.49903776  0.71277982  1
  Ti  Ti184  1  0.59772166  -0.00858810  0.80267285  1
  Ti  Ti185  1  0.39872317  -0.00728969  0.20274778  1
  Ti  Ti186  1  0.20825213  -0.01370351  0.39543405  1
  Ti  Ti187  1  0.21460018  0.60162344  0.80739204  1
  Ti  Ti188  1  0.09980366  0.51110141  0.50878349  1
  Ti  Ti189  1  0.10914118  0.90171811  0.50707780  1
  Ti  Ti190  1  0.10670785  0.69988384  0.10144116  1
  Ti  Ti191  1  0.11285942  0.89269141  0.70420541  1
  Ti  Ti192  1  0.59287118  -0.00332362  -0.01338099  1
  Ti  Ti193  1  0.50480585  0.88926329  0.90457818  1
  Ti  Ti194  1  0.89600283  0.89765806  0.90304650  1
  Ti  Ti195  1  0.20606075  0.39818008  0.60333416  1
  Ti  Ti196  1  0.30844561  0.69998779  0.89373900  1
  Ti  Ti197  1  0.30698528  0.88223612  0.89106296  1
  Ti  Ti198  1  0.49036141  0.89927472  0.68825979  1
  Ti  Ti199  1  0.21496422  0.59996945  0.60622968  1
  Mo  Mo200  1  0.90299468  0.50983868  0.09210928  1
  Mo  Mo201  1  0.49243256  0.69477544  0.70021323  1
  Mo  Mo202  1  0.39906977  0.79758467  0.60344121  1
  Mo  Mo203  1  0.50003160  0.10213503  0.89911044  1
  Mo  Mo204  1  0.59571708  -0.00882776  0.59921033  1
  Mo  Mo205  1  0.68768148  0.90674362  0.89811689  1
  Mo  Mo206  1  -0.00043249  0.40162941  0.20071530  1
  Mo  Mo207  1  0.49574171  0.89979351  0.49741290  1
  Mo  Mo208  1  0.68808213  0.90895265  0.69981895  1
  Mo  Mo209  1  0.90800717  0.90158637  0.09314393  1
  Mo  Mo210  1  0.30216134  0.90607294  0.29931541  1
  Mo  Mo211  1  0.69798548  0.31028862  0.10197053  1
  Mo  Mo212  1  0.19875130  0.60310546  0.18477466  1
  Mo  Mo213  1  0.80113337  0.40174824  0.39720808  1
  Mo  Mo214  1  0.39508117  0.39913874  0.79690009  1
  Mo  Mo215  1  0.20739898  0.79988922  0.80340236  1
  Mo  Mo216  1  0.11006475  0.89121420  0.29585853  1
  Mo  Mo217  1  0.39242635  0.60360868  -0.00200495  1
  Mo  Mo218  1  0.70013349  0.69463762  0.70276427  1
  Mo  Mo219  1  0.20710779  0.20150842  0.39870839  1
  Mo  Mo220  1  0.90937541  0.89875051  0.50963907  1
  Mo  Mo221  1  0.69364770  0.08688967  0.30200288  1
  Mo  Mo222  1  0.89259019  0.89591644  0.28686202  1
  Mo  Mo223  1  0.11086640  0.31551432  0.71184515  1
  Mo  Mo224  1  0.30614203  0.30085307  0.89626669  1
  Mo  Mo225  1  0.40562725  0.80122182  0.79955988  1
  Mo  Mo226  1  0.79990777  0.60563424  -0.00847542  1
  Mo  Mo227  1  0.49662442  0.30538072  0.70496205  1
  Mo  Mo228  1  0.49265742  0.68867928  0.09124084  1
  Mo  Mo229  1  0.79544735  0.40755445  -0.00600743  1
  Mo  Mo230  1  0.39602443  -0.00770859  0.60538299  1
  Mo  Mo231  1  0.49906126  0.91122300  0.09694731  1
  Mo  Mo232  1  0.79926597  0.00053969  0.80440108  1
  Mo  Mo233  1  0.89602559  0.52411893  0.90169409  1
  Mo  Mo234  1  0.39642909  0.20758542  0.60136027  1
  Mo  Mo235  1  0.10324580  0.88572560  0.09757431  1
  Mo  Mo236  1  0.49559848  0.31000204  0.09397191  1
  Mo  Mo237  1  0.91076122  0.50548713  0.70618712  1
  Mo  Mo238  1  0.70198307  0.50670744  0.90163036  1
  Mo  Mo239  1  -0.00074548  0.59647819  0.61945814  1
  Mo  Mo240  1  0.29746157  0.50125464  0.90145181  1
  Mo  Mo241  1  0.60186248  0.00083547  0.20815848  1
  Mo  Mo242  1  0.39439792  0.60239053  0.79799228  1
  Mo  Mo243  1  0.90346717  0.28757615  0.90356944  1
  Mo  Mo244  1  0.00365914  0.60266601  0.38806717  1
  Mo  Mo245  1  0.39542284  0.59424393  0.19620260  1
  Mo  Mo246  1  0.69001857  0.30397221  0.49484959  1
  Mo  Mo247  1  0.69014046  0.70217689  0.08672266  1
  Mo  Mo248  1  0.90354834  0.90089550  0.70570886  1
  Mo  Mo249  1  0.59529191  0.79964256  -0.00524071  1
