# generated using pymatgen
data_HfZrTaTiMo
_symmetry_space_group_name_H-M   'P 1'
_cell_length_a   16.88006380
_cell_length_b   16.89780090
_cell_length_c   16.89517109
_cell_angle_alpha   89.97158278
_cell_angle_beta   89.95204263
_cell_angle_gamma   89.99467576
_symmetry_Int_Tables_number   1
_chemical_formula_structural   HfZrTaTiMo
_chemical_formula_sum   'Hf50 Zr50 Ta50 Ti50 Mo50'
_cell_volume   4819.10799916
_cell_formula_units_Z   50
loop_
 _symmetry_equiv_pos_site_id
 _symmetry_equiv_pos_as_xyz
  1  'x, y, z'
loop_
 _atom_site_type_symbol
 _atom_site_label
 _atom_site_symmetry_multiplicity
 _atom_site_fract_x
 _atom_site_fract_y
 _atom_site_fract_z
 _atom_site_occupancy
  Hf  Hf0  1  0.59819297  0.20714994  0.19237817  1
  Hf  Hf1  1  0.09892175  0.09930270  0.10665156  1
  Hf  Hf2  1  0.29978884  0.30327222  0.29631843  1
  Hf  Hf3  1  -0.00472546  0.20070597  -0.00241727  1
  Hf  Hf4  1  0.90382705  0.50026898  0.31702448  1
  Hf  Hf5  1  0.00604651  0.20090121  0.61543410  1
  Hf  Hf6  1  0.20273134  0.39958600  0.19121470  1
  Hf  Hf7  1  0.60410920  0.20803265  -0.00058701  1
  Hf  Hf8  1  0.40899438  0.79912565  0.79398143  1
  Hf  Hf9  1  0.90069828  0.69875032  0.50859539  1
  Hf  Hf10  1  0.19981674  0.19754008  0.39615109  1
  Hf  Hf11  1  0.39632851  0.40572031  0.79337658  1
  Hf  Hf12  1  0.09852344  0.90143169  0.89534780  1
  Hf  Hf13  1  0.80148817  0.41324255  0.19805768  1
  Hf  Hf14  1  0.19844715  0.80222188  0.39089343  1
  Hf  Hf15  1  0.39337404  -0.00272189  0.39152297  1
  Hf  Hf16  1  0.90130310  0.09428987  0.51259652  1
  Hf  Hf17  1  0.11075168  0.70149523  0.70399673  1
  Hf  Hf18  1  0.50259303  0.68913114  0.29375030  1
  Hf  Hf19  1  0.30569379  0.11209794  0.89699492  1
  Hf  Hf20  1  0.70159578  0.69540659  0.10360461  1
  Hf  Hf21  1  0.70048706  0.09899296  0.51094995  1
  Hf  Hf22  1  0.59835901  -0.00280087  0.40422263  1
  Hf  Hf23  1  0.90310214  0.30222328  0.49826427  1
  Hf  Hf24  1  0.50112482  0.31222708  0.89955948  1
  Hf  Hf25  1  0.89925083  0.69376161  0.90213204  1
  Hf  Hf26  1  0.00471342  0.79532796  0.80364896  1
  Hf  Hf27  1  0.29518359  0.89967831  0.50924673  1
  Hf  Hf28  1  0.29917657  0.10347619  0.50847376  1
  Hf  Hf29  1  0.39294165  0.80545474  0.20083040  1
  Hf  Hf30  1  0.20002048  0.59681137  0.19874013  1
  Hf  Hf31  1  0.50452175  0.89818710  0.09967463  1
  Hf  Hf32  1  0.80119368  0.20010206  0.20153243  1
  Hf  Hf33  1  0.80095711  0.79921157  0.79715906  1
  Hf  Hf34  1  0.29571700  0.69404158  0.88879975  1
  Hf  Hf35  1  0.40817761  0.00402353  0.78469380  1
  Hf  Hf36  1  0.70493923  0.08863357  0.09939459  1
  Hf  Hf37  1  0.19737658  0.79844071  0.20418990  1
  Hf  Hf38  1  0.58510243  0.00324007  0.61407867  1
  Hf  Hf39  1  0.20718281  -0.00485758  0.00616609  1
  Hf  Hf40  1  0.90170870  0.31114163  0.09765479  1
  Hf  Hf41  1  0.90049942  0.69731112  0.69271551  1
  Hf  Hf42  1  0.39576426  0.40109700  0.60961518  1
  Hf  Hf43  1  0.69227473  0.30712237  0.30311728  1
  Hf  Hf44  1  0.00684430  0.40231060  0.60937153  1
  Hf  Hf45  1  0.40156354  0.79240667  0.40189693  1
  Hf  Hf46  1  0.40009153  0.58896045  0.19663597  1
  Hf  Hf47  1  0.19312603  0.59262509  -0.00954015  1
  Hf  Hf48  1  0.60527715  0.59871065  0.59230720  1
  Hf  Hf49  1  0.49681179  0.89766969  0.50697558  1
  Zr  Zr50  1  0.40268050  -0.00536219  -0.00472572  1
  Zr  Zr51  1  0.78864821  0.80263845  0.40789055  1
  Zr  Zr52  1  0.59765474  0.59936671  0.40515594  1
  Zr  Zr53  1  0.08912281  0.48933477  0.30538584  1
  Zr  Zr54  1  0.00137726  0.79940037  0.20474322  1
  Zr  Zr55  1  0.79841654  0.19576357  0.40104665  1
  Zr  Zr56  1  0.30024100  0.48715473  0.49479213  1
  Zr  Zr57  1  0.21248187  -0.01785277  0.20151461  1
  Zr  Zr58  1  0.30036996  0.69189496  0.70303057  1
  Zr  Zr59  1  0.70290384  0.09884184  0.70889474  1
  Zr  Zr60  1  0.68107297  0.89497889  0.71391891  1
  Zr  Zr61  1  0.70148267  0.69792906  0.89605482  1
  Zr  Zr62  1  0.70381950  0.90666182  0.09950035  1
  Zr  Zr63  1  0.30469966  0.89097222  0.89373748  1
  Zr  Zr64  1  0.10477575  0.30277132  0.50205713  1
  Zr  Zr65  1  0.30385784  0.11016706  0.10612306  1
  Zr  Zr66  1  0.30886032  0.69867434  0.08843744  1
  Zr  Zr67  1  0.10179332  0.09748722  0.50797133  1
  Zr  Zr68  1  0.10112868  0.89941496  0.51792635  1
  Zr  Zr69  1  0.08982731  0.69668296  0.09361945  1
  Zr  Zr70  1  0.79648096  -0.00683254  0.40274027  1
  Zr  Zr71  1  0.40950546  0.59638374  0.59404237  1
  Zr  Zr72  1  0.19369973  0.80017917  -0.00020785  1
  Zr  Zr73  1  0.29706787  0.30902833  0.90349534  1
  Zr  Zr74  1  0.79662954  0.40413513  0.60324943  1
  Zr  Zr75  1  0.00112519  0.20638974  0.80153052  1
  Zr  Zr76  1  0.59637215  0.59991425  -0.00015442  1
  Zr  Zr77  1  0.60669343  0.79250390  0.40612963  1
  Zr  Zr78  1  0.20515648  0.00737499  0.79002179  1
  Zr  Zr79  1  0.80179839  0.79674033  0.20625857  1
  Zr  Zr80  1  0.49816054  0.30300165  0.49944526  1
  Zr  Zr81  1  0.59652596  0.19246277  0.39909176  1
  Zr  Zr82  1  0.01104396  0.80002603  0.39467992  1
  Zr  Zr83  1  0.78447185  0.41196161  0.40674411  1
  Zr  Zr84  1  0.19534833  0.60060097  0.39985794  1
  Zr  Zr85  1  0.19735775  0.21093407  0.00727703  1
  Zr  Zr86  1  0.50435449  0.09230696  0.10072392  1
  Zr  Zr87  1  0.71129057  0.09056438  0.89195072  1
  Zr  Zr88  1  0.10191296  0.10173788  0.89798587  1
  Zr  Zr89  1  0.89146662  0.09418534  0.70869075  1
  Zr  Zr90  1  0.59885315  0.79735338  -0.00315922  1
  Zr  Zr91  1  0.91183487  0.30973747  0.30468526  1
  Zr  Zr92  1  0.40009443  0.19666241  0.39541401  1
  Zr  Zr93  1  0.19995722  0.58194355  0.60079168  1
  Zr  Zr94  1  0.09020960  0.48769964  0.09244620  1
  Zr  Zr95  1  0.79895155  0.20648866  -0.00690587  1
  Zr  Zr96  1  0.61071347  0.21644212  0.79938321  1
  Zr  Zr97  1  0.00507705  -0.00157176  0.39306367  1
  Zr  Zr98  1  0.90179867  0.68937134  0.31512356  1
  Zr  Zr99  1  -0.01287765  0.59351861  0.19281951  1
  Ta  Ta100  1  0.41172836  0.21065728  0.00298387  1
  Ta  Ta101  1  0.30290396  0.69158808  0.30204947  1
  Ta  Ta102  1  0.79482945  -0.01606645  0.60364145  1
  Ta  Ta103  1  0.89886743  0.09234617  0.09974432  1
  Ta  Ta104  1  0.59461251  0.40666147  0.19612183  1
  Ta  Ta105  1  0.39836813  0.00214610  0.61132786  1
  Ta  Ta106  1  0.40621269  0.21184096  0.19413711  1
  Ta  Ta107  1  0.69855463  0.50118286  0.70473234  1
  Ta  Ta108  1  0.80016297  0.59444378  0.79742746  1
  Ta  Ta109  1  0.69751255  0.50192015  0.09824209  1
  Ta  Ta110  1  0.68950479  0.30466177  0.50443758  1
  Ta  Ta111  1  0.50043218  0.30829488  0.29637195  1
  Ta  Ta112  1  0.10614630  0.10615082  0.28944941  1
  Ta  Ta113  1  0.49903907  0.49726359  0.09415365  1
  Ta  Ta114  1  0.51662909  0.90025281  0.88344860  1
  Ta  Ta115  1  0.60254503  0.40056532  0.00029188  1
  Ta  Ta116  1  0.30515392  0.49519135  0.30093996  1
  Ta  Ta117  1  0.09713941  0.29980383  0.29328137  1
  Ta  Ta118  1  0.90767523  0.89596656  0.51446230  1
  Ta  Ta119  1  0.09782263  0.69900950  0.50824249  1
  Ta  Ta120  1  0.80611844  0.80554511  -0.00173062  1
  Ta  Ta121  1  0.09722261  0.31591550  0.89879315  1
  Ta  Ta122  1  0.50933280  0.69699226  0.70316030  1
  Ta  Ta123  1  0.89473639  0.31323531  0.89453150  1
  Ta  Ta124  1  0.00582189  0.59339887  0.60529014  1
  Ta  Ta125  1  0.50358498  0.10549436  0.89176215  1
  Ta  Ta126  1  0.20119112  0.40349326  0.79388470  1
  Ta  Ta127  1  0.89971121  0.50040449  0.70572042  1
  Ta  Ta128  1  0.59855677  0.20489683  0.60625761  1
  Ta  Ta129  1  -0.00070709  0.19968600  0.19840471  1
  Ta  Ta130  1  0.70344727  0.90530515  0.89698469  1
  Ta  Ta131  1  0.90055680  0.90734116  0.09493453  1
  Ta  Ta132  1  0.20188989  -0.00206748  0.38927011  1
  Ta  Ta133  1  0.78029742  0.60274943  0.41161922  1
  Ta  Ta134  1  0.91025028  0.89670038  0.69471492  1
  Ta  Ta135  1  -0.00681735  0.80226911  -0.00331682  1
  Ta  Ta136  1  0.89998707  0.90890361  0.89631544  1
  Ta  Ta137  1  0.00360789  0.59501730  0.80245276  1
  Ta  Ta138  1  0.79442231  0.59658911  0.20552515  1
  Ta  Ta139  1  0.08520861  0.90442089  0.09831929  1
  Ta  Ta140  1  0.49955393  0.50152638  0.89715459  1
  Ta  Ta141  1  0.69910158  0.49506948  0.89748285  1
  Ta  Ta142  1  0.40294765  0.20903476  0.79256198  1
  Ta  Ta143  1  0.29617807  0.29590642  0.51234047  1
  Ta  Ta144  1  0.29320784  0.88698348  0.69346014  1
  Ta  Ta145  1  0.89516742  0.49470300  0.89453329  1
  Ta  Ta146  1  0.49708984  0.09543566  0.28694075  1
  Ta  Ta147  1  0.90319886  0.50864261  0.50380631  1
  Ta  Ta148  1  0.79339318  0.21303979  0.61013989  1
  Ta  Ta149  1  0.60215571  0.79443926  0.20566443  1
  Ti  Ti150  1  0.60231504  0.40259147  0.60620233  1
  Ti  Ti151  1  0.60211581  0.59975527  0.79962720  1
  Ti  Ti152  1  0.80263849  0.59085336  0.00208019  1
  Ti  Ti153  1  0.89685405  0.30776766  0.71060505  1
  Ti  Ti154  1  0.30482889  0.49081363  0.08309528  1
  Ti  Ti155  1  0.30178475  0.50370671  0.89367275  1
  Ti  Ti156  1  0.10205096  0.49653511  0.70850005  1
  Ti  Ti157  1  0.78728651  0.39626595  0.79922340  1
  Ti  Ti158  1  -0.00813476  0.40499913  -0.00638901  1
  Ti  Ti159  1  0.69419654  0.90361593  0.29272052  1
  Ti  Ti160  1  0.09375713  0.30471269  0.10041170  1
  Ti  Ti161  1  0.90065093  0.90040347  0.30181242  1
  Ti  Ti162  1  0.50612828  0.50471242  0.70880788  1
  Ti  Ti163  1  0.50647947  0.48734834  0.49215865  1
  Ti  Ti164  1  0.89267418  0.09388974  0.89462181  1
  Ti  Ti165  1  0.60026345  0.00093966  -0.01165372  1
  Ti  Ti166  1  -0.00148562  -0.00051138  0.20452908  1
  Ti  Ti167  1  0.40365397  0.59644253  0.40234905  1
  Ti  Ti168  1  0.50390561  0.30367296  0.69897786  1
  Ti  Ti169  1  0.50479869  0.90162624  0.29565385  1
  Ti  Ti170  1  0.89399634  0.69859768  0.09494498  1
  Ti  Ti171  1  0.68323306  0.50685623  0.29468742  1
  Ti  Ti172  1  0.78767306  0.80273238  0.59851666  1
  Ti  Ti173  1  0.00412711  0.19632839  0.39718015  1
  Ti  Ti174  1  -0.00473358  0.59565926  -0.00718694  1
  Ti  Ti175  1  0.70117400  0.69383730  0.69704494  1
  Ti  Ti176  1  0.39454007  -0.00852217  0.20164317  1
  Ti  Ti177  1  -0.00482733  0.00279342  -0.00285496  1
  Ti  Ti178  1  0.19652304  0.39877999  0.40083514  1
  Ti  Ti179  1  0.59819610  0.79297062  0.59842244  1
  Ti  Ti180  1  0.00636382  0.00280354  0.78905684  1
  Ti  Ti181  1  0.49600680  0.69658788  0.89413646  1
  Ti  Ti182  1  0.49063857  0.10383611  0.50982682  1
  Ti  Ti183  1  0.10472002  0.89315590  0.69567618  1
  Ti  Ti184  1  0.40299399  0.59738116  -0.00755544  1
  Ti  Ti185  1  0.30719088  0.30911686  0.09284802  1
  Ti  Ti186  1  0.29629955  0.70059631  0.50368202  1
  Ti  Ti187  1  0.30380384  0.12069390  0.69273459  1
  Ti  Ti188  1  0.69191920  0.09233125  0.29186162  1
  Ti  Ti189  1  0.40573135  0.40086404  0.19351090  1
  Ti  Ti190  1  0.19958082  0.01046883  0.61479150  1
  Ti  Ti191  1  0.19652227  0.21088097  0.78803906  1
  Ti  Ti192  1  0.40373230  0.40070400  0.39377734  1
  Ti  Ti193  1  0.70411340  0.31250645  0.09651043  1
  Ti  Ti194  1  0.09638469  0.49373648  0.89417796  1
  Ti  Ti195  1  0.90500703  0.10173557  0.29803396  1
  Ti  Ti196  1  0.29909407  0.10703970  0.28796431  1
  Ti  Ti197  1  0.80679427  0.00006186  0.20699407  1
  Ti  Ti198  1  0.40491446  0.79339120  0.60154033  1
  Ti  Ti199  1  0.49795954  0.69873657  0.10017156  1
  Mo  Mo200  1  0.49549619  0.70125950  0.50547660  1
  Mo  Mo201  1  0.40318987  0.20354397  0.60542723  1
  Mo  Mo202  1  0.40951560  0.59689463  0.80019327  1
  Mo  Mo203  1  0.00649615  0.59774344  0.41765789  1
  Mo  Mo204  1  0.10550639  0.10344856  0.70141507  1
  Mo  Mo205  1  0.70222257  0.31461436  0.89927544  1
  Mo  Mo206  1  0.20220176  0.20310100  0.60951522  1
  Mo  Mo207  1  0.59992034  -0.00572570  0.20857329  1
  Mo  Mo208  1  0.00493199  0.40312452  0.41506412  1
  Mo  Mo209  1  0.30310609  0.89379392  0.30906735  1
  Mo  Mo210  1  0.40172767  0.40928710  -0.00237739  1
  Mo  Mo211  1  -0.00258705  0.39426182  0.19312900  1
  Mo  Mo212  1  0.49346028  0.88623526  0.69471799  1
  Mo  Mo213  1  0.19453152  0.58738104  0.80315803  1
  Mo  Mo214  1  0.41244257  0.79412142  -0.00674525  1
  Mo  Mo215  1  0.29484306  0.30020962  0.69934968  1
  Mo  Mo216  1  0.09396037  0.69245030  0.89714510  1
  Mo  Mo217  1  0.80021094  0.59661347  0.60475286  1
  Mo  Mo218  1  0.80839348  -0.01606479  0.79624755  1
  Mo  Mo219  1  0.20476086  0.79213480  0.59799839  1
  Mo  Mo220  1  0.20170426  0.39442606  0.61245824  1
  Mo  Mo221  1  0.69662846  0.49840531  0.50849681  1
  Mo  Mo222  1  0.69715323  0.30866160  0.69828480  1
  Mo  Mo223  1  0.59799245  0.41007676  0.79709322  1
  Mo  Mo224  1  0.10013090  0.91329649  0.29139055  1
  Mo  Mo225  1  0.59361497  0.40544036  0.39530747  1
  Mo  Mo226  1  0.69776125  0.69007323  0.29336783  1
  Mo  Mo227  1  0.10469261  0.68685155  0.30509104  1
  Mo  Mo228  1  0.60012112  0.78597742  0.79820522  1
  Mo  Mo229  1  0.70384003  0.70046641  0.51646089  1
  Mo  Mo230  1  0.69481527  0.89986333  0.51489678  1
  Mo  Mo231  1  0.00114653  -0.00288408  0.61230141  1
  Mo  Mo232  1  0.49581812  0.11945242  0.69992175  1
  Mo  Mo233  1  0.49944344  0.31006131  0.09840581  1
  Mo  Mo234  1  0.79486445  0.40767957  -0.00260748  1
  Mo  Mo235  1  0.20134080  0.40372794  -0.00677499  1
  Mo  Mo236  1  0.19774397  0.21216877  0.19964621  1
  Mo  Mo237  1  0.10580140  0.30570408  0.70618722  1
  Mo  Mo238  1  0.80835292  -0.00212680  -0.00525581  1
  Mo  Mo239  1  0.58985324  0.00802734  0.80148820  1
  Mo  Mo240  1  0.00682428  0.79581692  0.60427027  1
  Mo  Mo241  1  0.19851240  0.80209196  0.79608589  1
  Mo  Mo242  1  0.49445289  0.49358902  0.29752398  1
  Mo  Mo243  1  0.59748897  0.59575183  0.19571611  1
  Mo  Mo244  1  0.00036517  0.40538431  0.80224078  1
  Mo  Mo245  1  0.31556123  0.89088508  0.09049096  1
  Mo  Mo246  1  0.09578486  0.49653397  0.50291849  1
  Mo  Mo247  1  0.89174723  0.50316392  0.08780237  1
  Mo  Mo248  1  0.80413493  0.22079839  0.79916890  1
  Mo  Mo249  1  0.29701027  0.49980653  0.70820922  1
