# generated using pymatgen
data_HfZrTaTiMo
_symmetry_space_group_name_H-M   'P 1'
_cell_length_a   16.88566328
_cell_length_b   16.88305574
_cell_length_c   16.88613345
_cell_angle_alpha   89.99990651
_cell_angle_beta   89.98449762
_cell_angle_gamma   90.04587130
_symmetry_Int_Tables_number   1
_chemical_formula_structural   HfZrTaTiMo
_chemical_formula_sum   'Hf50 Zr50 Ta50 Ti50 Mo50'
_cell_volume   4813.92412584
_cell_formula_units_Z   50
loop_
 _symmetry_equiv_pos_site_id
 _symmetry_equiv_pos_as_xyz
  1  'x, y, z'
loop_
 _atom_site_type_symbol
 _atom_site_label
 _atom_site_symmetry_multiplicity
 _atom_site_fract_x
 _atom_site_fract_y
 _atom_site_fract_z
 _atom_site_occupancy
  Hf  Hf0  1  0.00272131  0.79198902  0.59729031  1
  Hf  Hf1  1  0.39075806  0.40756679  0.19813008  1
  Hf  Hf2  1  0.68539214  0.90138243  0.30685645  1
  Hf  Hf3  1  -0.00216955  0.20034461  0.19217773  1
  Hf  Hf4  1  0.09574920  0.49443159  0.69466297  1
  Hf  Hf5  1  0.70610867  0.09892725  0.89843191  1
  Hf  Hf6  1  0.70056381  0.49036650  0.50748566  1
  Hf  Hf7  1  0.40038928  0.20249914  0.79951676  1
  Hf  Hf8  1  0.89526951  0.70165273  0.71085576  1
  Hf  Hf9  1  0.80172448  0.00423323  0.59497637  1
  Hf  Hf10  1  0.70635625  0.89361942  0.69486449  1
  Hf  Hf11  1  0.00142174  0.60237573  0.59937416  1
  Hf  Hf12  1  0.30181231  0.49961766  0.69667898  1
  Hf  Hf13  1  0.69848727  0.30148492  0.69727138  1
  Hf  Hf14  1  -0.01121044  0.00128688  0.41000939  1
  Hf  Hf15  1  0.79316754  0.79504473  0.20259664  1
  Hf  Hf16  1  0.59798168  0.59345341  0.60568611  1
  Hf  Hf17  1  0.71038248  0.70049256  0.70138964  1
  Hf  Hf18  1  0.19964394  0.79796096  0.40533477  1
  Hf  Hf19  1  0.09951916  0.09812101  0.29647219  1
  Hf  Hf20  1  0.09337481  0.30070544  0.69780165  1
  Hf  Hf21  1  0.10957855  0.50546800  0.29735246  1
  Hf  Hf22  1  0.00024255  -0.00163065  -0.01374698  1
  Hf  Hf23  1  0.79435524  0.39429512  0.20097123  1
  Hf  Hf24  1  0.40175509  0.19948386  0.58908648  1
  Hf  Hf25  1  0.70165479  0.11018266  0.70315794  1
  Hf  Hf26  1  0.89513469  0.89646782  0.70714265  1
  Hf  Hf27  1  0.60462418  0.20126943  0.19359509  1
  Hf  Hf28  1  0.10630311  0.30375854  0.50009510  1
  Hf  Hf29  1  0.69693535  0.29931604  0.89008971  1
  Hf  Hf30  1  0.00008947  0.60663999  0.19880387  1
  Hf  Hf31  1  -0.00178664  0.39693331  0.20001235  1
  Hf  Hf32  1  0.29595817  0.70516248  0.09551561  1
  Hf  Hf33  1  0.19983475  0.60316301  0.80607743  1
  Hf  Hf34  1  0.48601143  0.10413513  0.29179233  1
  Hf  Hf35  1  0.89442356  0.08651651  0.10421204  1
  Hf  Hf36  1  0.30306395  0.09432572  0.69856687  1
  Hf  Hf37  1  0.30061207  0.69611864  0.29326616  1
  Hf  Hf38  1  0.09817679  0.89888621  0.70376506  1
  Hf  Hf39  1  0.50378981  0.71044763  0.29561356  1
  Hf  Hf40  1  0.89290142  0.90111577  0.29972829  1
  Hf  Hf41  1  0.19603982  0.80155412  0.20032090  1
  Hf  Hf42  1  0.20648065  0.41089040  -0.00134466  1
  Hf  Hf43  1  0.60192718  0.79542134  0.80563573  1
  Hf  Hf44  1  0.19398405  0.19370622  0.80347558  1
  Hf  Hf45  1  0.50568085  0.10319003  0.90045678  1
  Hf  Hf46  1  0.21077610  0.00446954  0.39605558  1
  Hf  Hf47  1  0.80797545  0.19868178  -0.00342988  1
  Hf  Hf48  1  0.10993658  0.50497317  0.10671692  1
  Hf  Hf49  1  0.39658882  0.40789003  0.00092392  1
  Zr  Zr50  1  0.39949152  0.78913917  0.59538130  1
  Zr  Zr51  1  0.39447924  0.39820418  0.40376473  1
  Zr  Zr52  1  0.50378777  0.49113462  0.88819664  1
  Zr  Zr53  1  0.70554124  0.50490593  0.29986124  1
  Zr  Zr54  1  0.29902350  0.29679388  0.90342720  1
  Zr  Zr55  1  0.09724624  0.89911482  0.50226468  1
  Zr  Zr56  1  0.39594581  0.79791742  0.40097091  1
  Zr  Zr57  1  0.69113779  0.89845449  0.09892924  1
  Zr  Zr58  1  0.60025489  -0.00521999  0.79734644  1
  Zr  Zr59  1  0.80932119  0.41003821  0.79578713  1
  Zr  Zr60  1  0.30762408  0.90843403  0.51098995  1
  Zr  Zr61  1  0.89338220  0.50416203  0.09510596  1
  Zr  Zr62  1  -0.01067091  0.19346970  0.59889782  1
  Zr  Zr63  1  -0.00925134  0.19846628  0.39831223  1
  Zr  Zr64  1  0.50244374  0.70574627  0.70103015  1
  Zr  Zr65  1  -0.00001408  0.40229640  0.39841111  1
  Zr  Zr66  1  0.30687239  0.10431105  0.10558066  1
  Zr  Zr67  1  0.00536378  0.19206472  -0.00352827  1
  Zr  Zr68  1  0.11144765  0.29939701  0.29758327  1
  Zr  Zr69  1  0.89453268  0.69591290  0.30631847  1
  Zr  Zr70  1  0.29996238  0.28155304  0.29722004  1
  Zr  Zr71  1  0.80521358  0.79984595  -0.00248801  1
  Zr  Zr72  1  0.20350740  -0.00102736  0.19931862  1
  Zr  Zr73  1  0.49317039  0.29282702  0.30020048  1
  Zr  Zr74  1  0.88631717  0.09080202  0.29390230  1
  Zr  Zr75  1  0.30384799  0.89222424  0.70551468  1
  Zr  Zr76  1  0.59952522  0.60378410  -0.01172616  1
  Zr  Zr77  1  0.60372815  0.60562126  0.40668329  1
  Zr  Zr78  1  0.39664825  0.59638436  0.19196531  1
  Zr  Zr79  1  0.60043227  0.39717061  0.00097806  1
  Zr  Zr80  1  0.89538739  0.90562325  0.10396383  1
  Zr  Zr81  1  0.51048864  0.30785880  0.70329199  1
  Zr  Zr82  1  0.71108538  0.90432516  0.90049205  1
  Zr  Zr83  1  0.19977480  0.40454589  0.80502801  1
  Zr  Zr84  1  0.20259948  0.60270169  0.40563716  1
  Zr  Zr85  1  0.60368064  0.39179712  0.39536820  1
  Zr  Zr86  1  0.51198270  0.90434955  0.49114205  1
  Zr  Zr87  1  0.39901014  -0.00834692  0.80800127  1
  Zr  Zr88  1  0.09080192  0.90104007  0.09951162  1
  Zr  Zr89  1  0.60136625  0.39655171  0.19818123  1
  Zr  Zr90  1  0.69499398  0.10181642  0.49514833  1
  Zr  Zr91  1  0.50342136  0.09627339  0.69202284  1
  Zr  Zr92  1  0.19928766  0.00437177  0.60457702  1
  Zr  Zr93  1  0.89011363  0.30114025  0.50344526  1
  Zr  Zr94  1  0.10588638  0.10632031  0.50053616  1
  Zr  Zr95  1  0.40195569  0.60130642  0.79852150  1
  Zr  Zr96  1  0.60108975  0.60079370  0.19680365  1
  Zr  Zr97  1  -0.00141548  0.40068220  -0.00234742  1
  Zr  Zr98  1  0.90166826  0.69665382  0.90188591  1
  Zr  Zr99  1  0.40647522  -0.00410522  0.01077782  1
  Ta  Ta100  1  0.30183742  0.70914261  0.90307605  1
  Ta  Ta101  1  0.50027890  0.90483460  0.29726021  1
  Ta  Ta102  1  0.88921121  0.29853454  0.29916408  1
  Ta  Ta103  1  0.08824133  0.89922202  0.30131687  1
  Ta  Ta104  1  0.11449416  0.29822188  0.09738109  1
  Ta  Ta105  1  0.49794947  0.49600918  0.50263666  1
  Ta  Ta106  1  0.40685807  0.20244164  0.00256727  1
  Ta  Ta107  1  0.60903634  0.59069984  0.79461522  1
  Ta  Ta108  1  0.50027056  0.89661938  0.69212519  1
  Ta  Ta109  1  0.09977303  0.70282796  0.90776718  1
  Ta  Ta110  1  0.80485084  0.40461423  0.60772610  1
  Ta  Ta111  1  0.70283016  0.09201110  0.09585827  1
  Ta  Ta112  1  0.58731489  0.00243053  0.19155742  1
  Ta  Ta113  1  0.59821821  0.19897351  0.00501860  1
  Ta  Ta114  1  0.19335740  0.00690244  -0.00235844  1
  Ta  Ta115  1  0.40192138  0.39967748  0.59886674  1
  Ta  Ta116  1  0.29791637  0.30136825  0.69381620  1
  Ta  Ta117  1  0.69432883  0.70158946  0.09624726  1
  Ta  Ta118  1  0.00060958  0.59630594  0.80228080  1
  Ta  Ta119  1  -0.00321934  0.79291778  0.40311250  1
  Ta  Ta120  1  0.70612368  0.50148334  0.09046498  1
  Ta  Ta121  1  0.09206621  0.09773304  0.70534678  1
  Ta  Ta122  1  0.89239104  0.89170460  0.50259849  1
  Ta  Ta123  1  0.39973607  0.01348383  0.40296910  1
  Ta  Ta124  1  0.89688984  0.09901336  0.70505444  1
  Ta  Ta125  1  0.39902093  0.59787113  0.59481588  1
  Ta  Ta126  1  0.79073144  0.20169515  0.19917961  1
  Ta  Ta127  1  0.09853773  0.29832880  0.90203328  1
  Ta  Ta128  1  0.50290498  0.88846020  0.90698735  1
  Ta  Ta129  1  0.09857264  0.70131169  0.29924353  1
  Ta  Ta130  1  0.20045263  0.60849045  0.59842963  1
  Ta  Ta131  1  -0.00018580  0.00152573  0.80729448  1
  Ta  Ta132  1  0.00348932  0.80688101  0.81636697  1
  Ta  Ta133  1  0.29492654  0.29818242  0.10183235  1
  Ta  Ta134  1  0.79896315  0.60213905  0.41220059  1
  Ta  Ta135  1  0.19781747  0.80152731  0.80911628  1
  Ta  Ta136  1  0.29743593  0.10145019  0.90845456  1
  Ta  Ta137  1  0.39516740  0.59903107  -0.00256739  1
  Ta  Ta138  1  0.70062529  0.29713665  0.50672531  1
  Ta  Ta139  1  0.89655573  0.50331553  0.30723036  1
  Ta  Ta140  1  -0.00056399  0.79493061  0.19987736  1
  Ta  Ta141  1  0.10163861  0.49624817  0.50509343  1
  Ta  Ta142  1  0.78595158  0.79583532  0.41338753  1
  Ta  Ta143  1  0.19242218  -0.00226004  0.81365229  1
  Ta  Ta144  1  0.29888707  0.49898944  0.50382358  1
  Ta  Ta145  1  0.90138596  0.49881683  0.50266464  1
  Ta  Ta146  1  0.49420967  0.50473674  0.30642069  1
  Ta  Ta147  1  0.80257435  0.59212540  0.60594278  1
  Ta  Ta148  1  0.50445553  0.71260609  0.09319608  1
  Ta  Ta149  1  0.20456173  0.60219114  -0.00189293  1
  Ti  Ti150  1  0.18986616  0.80564991  -0.00220538  1
  Ti  Ti151  1  0.89512160  0.30250232  0.09649508  1
  Ti  Ti152  1  0.31172543  0.90623573  0.29575940  1
  Ti  Ti153  1  0.40233266  0.80280336  0.00156942  1
  Ti  Ti154  1  0.60233024  -0.00082414  0.59286041  1
  Ti  Ti155  1  0.81282275  0.20150088  0.79980793  1
  Ti  Ti156  1  0.90260212  0.30421722  0.89948533  1
  Ti  Ti157  1  0.30014159  0.70395174  0.70543690  1
  Ti  Ti158  1  0.79158489  -0.00444978  0.40709805  1
  Ti  Ti159  1  0.79568408  0.60068049  -0.00134243  1
  Ti  Ti160  1  0.89128969  0.69999525  0.50561352  1
  Ti  Ti161  1  0.79496466  0.19732766  0.39829090  1
  Ti  Ti162  1  0.39655724  0.59781093  0.40431995  1
  Ti  Ti163  1  0.59760460  0.20049918  0.59205150  1
  Ti  Ti164  1  0.40554664  0.81333364  0.19069465  1
  Ti  Ti165  1  0.19831067  0.19230412  0.19459390  1
  Ti  Ti166  1  0.69386416  0.09312707  0.29780539  1
  Ti  Ti167  1  0.89772256  0.50717709  0.90188353  1
  Ti  Ti168  1  0.20548982  0.39981645  0.59682578  1
  Ti  Ti169  1  0.09452328  0.50454062  0.90170220  1
  Ti  Ti170  1  0.00088114  0.60437522  0.40841111  1
  Ti  Ti171  1  0.39715301  0.40145773  0.79580516  1
  Ti  Ti172  1  0.19820785  0.78520956  0.59730293  1
  Ti  Ti173  1  -0.00453112  0.40494177  0.80042981  1
  Ti  Ti174  1  0.20415857  0.19866332  0.60199059  1
  Ti  Ti175  1  0.00873520  0.60692407  0.00405760  1
  Ti  Ti176  1  0.69343933  0.70498823  0.30293322  1
  Ti  Ti177  1  0.29390933  0.29466188  0.49702036  1
  Ti  Ti178  1  0.29853483  0.89602126  0.90653620  1
  Ti  Ti179  1  0.50651499  0.30199780  0.50035801  1
  Ti  Ti180  1  0.79791004  0.60437833  0.19854335  1
  Ti  Ti181  1  0.20991809  0.40511401  0.39549248  1
  Ti  Ti182  1  0.90359830  0.30107664  0.69757831  1
  Ti  Ti183  1  0.49453002  0.70493233  0.90131495  1
  Ti  Ti184  1  0.49289214  0.29768423  0.10080744  1
  Ti  Ti185  1  0.29946971  0.90082414  0.09754849  1
  Ti  Ti186  1  0.10010689  0.70294973  0.71040468  1
  Ti  Ti187  1  0.61386667  0.79675321  0.58313383  1
  Ti  Ti188  1  0.59473809  -0.00062848  0.00434514  1
  Ti  Ti189  1  -0.00840674  0.00273590  0.59978165  1
  Ti  Ti190  1  0.70778776  0.30137977  0.08730588  1
  Ti  Ti191  1  0.59548892  0.19633016  0.39955390  1
  Ti  Ti192  1  0.90146388  0.70144264  0.09578007  1
  Ti  Ti193  1  0.70937241  0.69752081  0.89365219  1
  Ti  Ti194  1  0.79801340  0.39725252  0.39797472  1
  Ti  Ti195  1  -0.00351815  0.19428493  0.80753591  1
  Ti  Ti196  1  0.50360923  0.50500400  0.09729554  1
  Ti  Ti197  1  0.50840014  0.30018551  0.89249538  1
  Ti  Ti198  1  0.70762928  0.49735639  0.89742926  1
  Ti  Ti199  1  0.50348940  0.69890014  0.49631874  1
  Mo  Mo200  1  0.19945275  0.19907034  0.00203160  1
  Mo  Mo201  1  0.00563316  -0.00415350  0.20483374  1
  Mo  Mo202  1  0.19947338  0.60526335  0.19699007  1
  Mo  Mo203  1  0.40056743  -0.00725952  0.20298729  1
  Mo  Mo204  1  0.80195460  0.39987373  -0.00497293  1
  Mo  Mo205  1  0.10172334  0.10126181  0.89714778  1
  Mo  Mo206  1  0.30536394  0.10715665  0.49904517  1
  Mo  Mo207  1  0.80923405  0.00325676  0.79885064  1
  Mo  Mo208  1  0.80456883  0.80095754  0.80232923  1
  Mo  Mo209  1  0.29996878  0.69147994  0.50348190  1
  Mo  Mo210  1  0.39972070  0.19739136  0.41450349  1
  Mo  Mo211  1  0.69950260  0.89864945  0.49874477  1
  Mo  Mo212  1  0.59321897  0.00742258  0.38979846  1
  Mo  Mo213  1  0.69963585  0.49838538  0.70138663  1
  Mo  Mo214  1  0.80044370  0.59498002  0.80446250  1
  Mo  Mo215  1  0.50619154  0.10091785  0.09747395  1
  Mo  Mo216  1  0.90441362  0.50367194  0.69808332  1
  Mo  Mo217  1  0.20676436  0.40225949  0.19758198  1
  Mo  Mo218  1  0.30305208  0.10245396  0.30072933  1
  Mo  Mo219  1  0.79903973  0.20413618  0.60492021  1
  Mo  Mo220  1  0.88840039  0.09580263  0.50182604  1
  Mo  Mo221  1  0.00244172  0.79460984  0.00395542  1
  Mo  Mo222  1  0.21091874  0.19501338  0.40425627  1
  Mo  Mo223  1  0.60001769  0.20432045  0.80854141  1
  Mo  Mo224  1  0.70440273  0.69572735  0.50854786  1
  Mo  Mo225  1  0.59833367  0.39905686  0.59630671  1
  Mo  Mo226  1  0.80315884  0.79586546  0.59431987  1
  Mo  Mo227  1  0.59605740  0.80037579  0.19750823  1
  Mo  Mo228  1  0.10325278  0.89704217  0.90238918  1
  Mo  Mo229  1  0.50431911  0.10034940  0.49323027  1
  Mo  Mo230  1  0.29971799  0.50257317  0.30364208  1
  Mo  Mo231  1  0.40226284  0.20316510  0.18362873  1
  Mo  Mo232  1  0.09946364  0.70192607  0.09571968  1
  Mo  Mo233  1  0.77883336  0.00340499  0.20333332  1
  Mo  Mo234  1  0.49938518  0.49665833  0.69363904  1
  Mo  Mo235  1  0.50156388  0.89562047  0.10024712  1
  Mo  Mo236  1  0.29656913  0.50592523  0.09982492  1
  Mo  Mo237  1  0.70629202  0.28506454  0.31081446  1
  Mo  Mo238  1  0.60192682  0.79744977  0.40054156  1
  Mo  Mo239  1  0.80286449  0.00356843  -0.00406245  1
  Mo  Mo240  1  0.89760821  0.09813028  0.89057733  1
  Mo  Mo241  1  0.41171163  0.00167411  0.59660750  1
  Mo  Mo242  1  0.60723675  0.40783961  0.79415186  1
  Mo  Mo243  1  0.59949635  0.79409743  -0.00499715  1
  Mo  Mo244  1  0.10281296  0.10189863  0.09777683  1
  Mo  Mo245  1  -0.00293568  0.40330600  0.60047405  1
  Mo  Mo246  1  0.90280606  0.90231738  0.89717093  1
  Mo  Mo247  1  0.39851295  0.80075463  0.80967153  1
  Mo  Mo248  1  0.09689240  0.69547744  0.49636970  1
  Mo  Mo249  1  0.30402394  0.51054805  0.89975888  1
