# generated using pymatgen
data_HfZrTaTiMo
_symmetry_space_group_name_H-M   'P 1'
_cell_length_a   16.88702254
_cell_length_b   16.88480136
_cell_length_c   16.89421819
_cell_angle_alpha   90.00352267
_cell_angle_beta   89.94897335
_cell_angle_gamma   90.04422679
_symmetry_Int_Tables_number   1
_chemical_formula_structural   HfZrTaTiMo
_chemical_formula_sum   'Hf50 Zr50 Ta50 Ti50 Mo50'
_cell_volume   4817.11301190
_cell_formula_units_Z   50
loop_
 _symmetry_equiv_pos_site_id
 _symmetry_equiv_pos_as_xyz
  1  'x, y, z'
loop_
 _atom_site_type_symbol
 _atom_site_label
 _atom_site_symmetry_multiplicity
 _atom_site_fract_x
 _atom_site_fract_y
 _atom_site_fract_z
 _atom_site_occupancy
  Hf  Hf0  1  0.20711370  0.60712618  0.79195313  1
  Hf  Hf1  1  0.39546639  0.00298472  0.01227575  1
  Hf  Hf2  1  0.09669698  0.29589712  0.69257175  1
  Hf  Hf3  1  0.09832163  0.09291213  0.89993217  1
  Hf  Hf4  1  0.50371577  0.89209681  0.89356219  1
  Hf  Hf5  1  0.59691905  0.60705074  0.19459918  1
  Hf  Hf6  1  0.30259278  0.70395011  0.49515905  1
  Hf  Hf7  1  0.09856969  0.49685929  0.69568394  1
  Hf  Hf8  1  0.79201385  0.20013772  0.59680928  1
  Hf  Hf9  1  0.50618577  0.28854951  0.10746954  1
  Hf  Hf10  1  0.70597000  0.90091487  0.50321987  1
  Hf  Hf11  1  0.20066444  0.80370180  0.00973121  1
  Hf  Hf12  1  0.50312765  0.30592239  0.49090190  1
  Hf  Hf13  1  0.79798183  0.60203579  0.20346123  1
  Hf  Hf14  1  0.40846434  0.40607115  0.00349331  1
  Hf  Hf15  1  0.90249657  0.70429219  0.90491087  1
  Hf  Hf16  1  0.09491018  0.09277229  0.10670198  1
  Hf  Hf17  1  0.49989456  0.29492264  0.89695698  1
  Hf  Hf18  1  0.29955899  0.49470204  0.49688229  1
  Hf  Hf19  1  0.61130139  0.01508663  0.80222642  1
  Hf  Hf20  1  0.89704485  0.29277751  0.69868075  1
  Hf  Hf21  1  0.71130223  0.89129040  0.11339195  1
  Hf  Hf22  1  0.79833026  0.40470847  0.59681128  1
  Hf  Hf23  1  -0.00449719  0.59285899  0.39250421  1
  Hf  Hf24  1  0.80258039  0.39328495  -0.00227781  1
  Hf  Hf25  1  0.90139790  0.09218986  0.10604855  1
  Hf  Hf26  1  0.00306239  0.39599565  0.18608860  1
  Hf  Hf27  1  0.10203972  0.29254764  0.29328606  1
  Hf  Hf28  1  0.30050066  0.90271352  0.89888612  1
  Hf  Hf29  1  -0.00510710  0.20851345  0.00433795  1
  Hf  Hf30  1  0.30955467  0.29412078  0.89988042  1
  Hf  Hf31  1  0.48542203  0.90096091  0.30610133  1
  Hf  Hf32  1  0.89452642  0.90161164  0.28780227  1
  Hf  Hf33  1  0.80506450  0.59568730  0.39754822  1
  Hf  Hf34  1  0.59697894  0.59714526  0.59578237  1
  Hf  Hf35  1  0.20091427  0.40287734  0.00908346  1
  Hf  Hf36  1  0.10365056  0.70405781  0.50079642  1
  Hf  Hf37  1  0.79166675  0.20721467  0.20064048  1
  Hf  Hf38  1  0.19765504  0.59883496  0.39168956  1
  Hf  Hf39  1  0.90803384  0.29581762  0.29329676  1
  Hf  Hf40  1  0.68950408  0.31433181  0.49058231  1
  Hf  Hf41  1  0.70324064  0.87952344  0.88722236  1
  Hf  Hf42  1  0.80578151  0.40380865  0.39416487  1
  Hf  Hf43  1  0.20659461  0.40685356  0.80256325  1
  Hf  Hf44  1  0.79267122  0.19970824  0.40113761  1
  Hf  Hf45  1  0.70241053  0.09503929  0.10829250  1
  Hf  Hf46  1  0.30427277  0.10058870  0.70202519  1
  Hf  Hf47  1  0.90133997  0.09361686  0.89318502  1
  Hf  Hf48  1  0.09295369  0.70657554  0.90311908  1
  Hf  Hf49  1  0.90059112  0.09531551  0.29219775  1
  Zr  Zr50  1  0.60843301  0.19178556  -0.00045003  1
  Zr  Zr51  1  0.00255495  0.80701461  0.39726556  1
  Zr  Zr52  1  0.49708387  0.09863735  0.29355204  1
  Zr  Zr53  1  0.19643157  -0.00430907  0.39714822  1
  Zr  Zr54  1  0.30736993  0.69768600  0.90174965  1
  Zr  Zr55  1  0.40851757  0.40580561  0.60117562  1
  Zr  Zr56  1  -0.00804357  0.58677363  0.59157715  1
  Zr  Zr57  1  0.40217505  0.19922224  0.59196965  1
  Zr  Zr58  1  0.19897975  0.60023584  0.19937040  1
  Zr  Zr59  1  0.40389391  0.79956756  0.00905808  1
  Zr  Zr60  1  0.31108219  0.89876731  0.48924601  1
  Zr  Zr61  1  0.30889877  0.30237080  0.70566424  1
  Zr  Zr62  1  0.09516585  0.09752590  0.70505408  1
  Zr  Zr63  1  -0.00152671  0.40794400  0.40374334  1
  Zr  Zr64  1  0.11027298  0.29407711  0.90203723  1
  Zr  Zr65  1  0.09403732  0.50914212  0.90613028  1
  Zr  Zr66  1  0.59605297  0.00857210  0.41216566  1
  Zr  Zr67  1  0.80050524  0.40166636  0.19555874  1
  Zr  Zr68  1  -0.00756086  0.39742836  0.80893283  1
  Zr  Zr69  1  0.40245832  0.59443022  0.38886239  1
  Zr  Zr70  1  0.80668259  0.79970145  0.60624109  1
  Zr  Zr71  1  0.20136821  0.60490782  0.00849199  1
  Zr  Zr72  1  -0.00708215  0.20323597  0.41481317  1
  Zr  Zr73  1  0.49991203  0.89851467  0.11876557  1
  Zr  Zr74  1  0.60335544  -0.00423942  -0.00066395  1
  Zr  Zr75  1  0.79783931  0.39869033  0.80390823  1
  Zr  Zr76  1  0.39771542  0.19227539  0.39984304  1
  Zr  Zr77  1  0.41081227  0.00652656  0.58993997  1
  Zr  Zr78  1  0.70230125  0.90287524  0.30114283  1
  Zr  Zr79  1  0.60587263  0.19659040  0.59763286  1
  Zr  Zr80  1  0.90278539  0.71177394  0.10015115  1
  Zr  Zr81  1  0.60118413  0.77848781  0.01005068  1
  Zr  Zr82  1  0.40728661  0.40763878  0.20275149  1
  Zr  Zr83  1  0.09721102  0.10270006  0.51222835  1
  Zr  Zr84  1  0.00232621  -0.00286334  0.40095730  1
  Zr  Zr85  1  0.29662664  0.10384944  0.89791973  1
  Zr  Zr86  1  0.09511146  0.90268261  0.89655337  1
  Zr  Zr87  1  0.09223680  0.70525802  0.69081406  1
  Zr  Zr88  1  0.90298202  0.70584769  0.50408184  1
  Zr  Zr89  1  0.20368101  0.19378780  0.39836806  1
  Zr  Zr90  1  0.69422893  0.70173493  0.71288869  1
  Zr  Zr91  1  0.79896399  -0.00687728  -0.00850519  1
  Zr  Zr92  1  0.59670389  0.60244858  0.39363109  1
  Zr  Zr93  1  0.40470471  0.60204327  0.60056049  1
  Zr  Zr94  1  0.70046147  0.89760279  0.70417984  1
  Zr  Zr95  1  0.29978033  0.29597126  0.10508487  1
  Zr  Zr96  1  -0.00661085  -0.00676270  0.60226444  1
  Zr  Zr97  1  0.49304094  0.10720317  0.89499273  1
  Zr  Zr98  1  0.59236293  0.79659261  0.59633013  1
  Zr  Zr99  1  0.90292982  0.51183423  0.08783429  1
  Ta  Ta100  1  -0.01010990  0.39653889  0.59090426  1
  Ta  Ta101  1  0.00018580  0.59994890  0.20322896  1
  Ta  Ta102  1  0.48698103  0.70769951  0.29104474  1
  Ta  Ta103  1  0.09892371  0.70741679  0.29128066  1
  Ta  Ta104  1  0.20976828  0.80326842  0.60572654  1
  Ta  Ta105  1  0.79874206  0.79745491  0.39821317  1
  Ta  Ta106  1  0.10055116  0.89974922  0.69965553  1
  Ta  Ta107  1  0.79386147  0.59601086  0.60092956  1
  Ta  Ta108  1  0.69325408  0.50368623  0.09433923  1
  Ta  Ta109  1  0.69582129  0.29751405  0.89796062  1
  Ta  Ta110  1  0.80144395  0.20407873  -0.00256084  1
  Ta  Ta111  1  0.50488929  0.89884393  0.70385795  1
  Ta  Ta112  1  0.59847406  0.40419047  -0.00183967  1
  Ta  Ta113  1  0.20420878  0.80121761  0.38756377  1
  Ta  Ta114  1  0.39751370  0.79734394  0.79284230  1
  Ta  Ta115  1  0.31489101  0.50895415  0.90317524  1
  Ta  Ta116  1  0.78671203  0.60873451  -0.00032784  1
  Ta  Ta117  1  0.20556773  0.80110591  0.79003429  1
  Ta  Ta118  1  0.10471567  0.89026227  0.51131252  1
  Ta  Ta119  1  0.69666718  0.50332537  0.70734036  1
  Ta  Ta120  1  -0.00590526  0.39048360  0.00062394  1
  Ta  Ta121  1  -0.00753142  0.60180866  0.79858893  1
  Ta  Ta122  1  0.40375188  -0.00320094  0.79389328  1
  Ta  Ta123  1  0.89505501  0.09893576  0.70109398  1
  Ta  Ta124  1  0.20244132  -0.00035514  0.01126884  1
  Ta  Ta125  1  0.09280605  0.89854042  0.10574028  1
  Ta  Ta126  1  0.60436727  0.00891798  0.60170460  1
  Ta  Ta127  1  0.29666041  0.30685808  0.49326447  1
  Ta  Ta128  1  0.20881248  0.19941786  0.59420550  1
  Ta  Ta129  1  0.69613753  0.50414728  0.90344996  1
  Ta  Ta130  1  0.60202148  0.40147121  0.80450531  1
  Ta  Ta131  1  0.19840948  0.40301673  0.19658082  1
  Ta  Ta132  1  0.69240419  0.49453715  0.29689048  1
  Ta  Ta133  1  -0.00730522  0.80656104  0.79563874  1
  Ta  Ta134  1  0.10436768  0.30375650  0.50648934  1
  Ta  Ta135  1  0.50406194  0.10509077  0.70395822  1
  Ta  Ta136  1  0.30015421  0.08189175  0.29122604  1
  Ta  Ta137  1  0.20038364  0.39958693  0.39104372  1
  Ta  Ta138  1  0.50600720  0.29825864  0.71028668  1
  Ta  Ta139  1  0.80033275  0.59967362  0.80302669  1
  Ta  Ta140  1  -0.00656166  0.19983820  0.80257266  1
  Ta  Ta141  1  0.31135316  0.70257530  0.11522254  1
  Ta  Ta142  1  0.50484454  0.50378940  0.71295705  1
  Ta  Ta143  1  0.29191101  0.90279984  0.12124843  1
  Ta  Ta144  1  0.89504293  0.50271490  0.70213324  1
  Ta  Ta145  1  0.70110255  0.70044621  0.49562664  1
  Ta  Ta146  1  0.20770072  -0.00179127  0.59877131  1
  Ta  Ta147  1  0.49752778  0.69654451  0.71203262  1
  Ta  Ta148  1  0.60771330  0.19606620  0.39302365  1
  Ta  Ta149  1  0.59834799  0.79608428  0.39774584  1
  Ti  Ti150  1  0.89997242  0.69821919  0.70164844  1
  Ti  Ti151  1  0.39591821  0.19016897  0.01359625  1
  Ti  Ti152  1  0.49652060  0.89550377  0.49588646  1
  Ti  Ti153  1  0.30636741  0.90137686  0.69772756  1
  Ti  Ti154  1  0.40909355  0.41093606  0.80601179  1
  Ti  Ti155  1  0.09885278  0.49647067  0.29237109  1
  Ti  Ti156  1  0.19933218  0.19999270  0.79430805  1
  Ti  Ti157  1  0.90313307  0.89626523  0.10791393  1
  Ti  Ti158  1  0.69225774  0.30338914  0.10075510  1
  Ti  Ti159  1  0.50255633  0.09846794  0.11226419  1
  Ti  Ti160  1  -0.00632999  -0.01329485  -0.00249787  1
  Ti  Ti161  1  0.51021830  0.48769500  0.48799565  1
  Ti  Ti162  1  0.89915349  0.51141368  0.90424000  1
  Ti  Ti163  1  0.89415327  0.09777248  0.51120753  1
  Ti  Ti164  1  0.11006468  0.49392190  0.50286544  1
  Ti  Ti165  1  0.40238758  0.40072387  0.38697218  1
  Ti  Ti166  1  0.89534005  0.90154356  0.50162978  1
  Ti  Ti167  1  0.30139901  0.50011790  0.29188529  1
  Ti  Ti168  1  0.69898033  0.69865662  0.89619107  1
  Ti  Ti169  1  0.49406258  0.68486546  0.90341101  1
  Ti  Ti170  1  0.60279023  0.40295920  0.61311430  1
  Ti  Ti171  1  0.59743564  0.40492494  0.19835758  1
  Ti  Ti172  1  0.80112110  0.79931328  -0.00001892  1
  Ti  Ti173  1  0.20543049  0.39759404  0.60049474  1
  Ti  Ti174  1  0.08826544  0.71077881  0.10381212  1
  Ti  Ti175  1  0.51002430  0.29857074  0.29670007  1
  Ti  Ti176  1  0.79589566  0.00940231  0.40475908  1
  Ti  Ti177  1  0.59626383  0.59611369  0.81189688  1
  Ti  Ti178  1  0.70236474  0.70605098  0.29975296  1
  Ti  Ti179  1  0.29817909  0.29988990  0.29652535  1
  Ti  Ti180  1  0.49332819  0.70891756  0.48976603  1
  Ti  Ti181  1  0.40135650  0.79776479  0.60694170  1
  Ti  Ti182  1  0.20019885  0.19398918  0.01177753  1
  Ti  Ti183  1  0.31049066  0.50570561  0.70402752  1
  Ti  Ti184  1  0.39200201  0.19230703  0.19984526  1
  Ti  Ti185  1  0.69337502  0.49984635  0.49410370  1
  Ti  Ti186  1  0.10394936  0.89739042  0.28160666  1
  Ti  Ti187  1  0.50211160  0.51636589  0.09196386  1
  Ti  Ti188  1  0.09210428  0.09826452  0.28834975  1
  Ti  Ti189  1  0.31019483  0.51071990  0.10026995  1
  Ti  Ti190  1  0.79798306  0.00194450  0.79722824  1
  Ti  Ti191  1  0.60666593  0.00526314  0.20956371  1
  Ti  Ti192  1  0.89799906  0.90472944  0.70781044  1
  Ti  Ti193  1  0.20159155  0.19380090  0.19661327  1
  Ti  Ti194  1  0.20755036  0.60238027  0.60304603  1
  Ti  Ti195  1  0.90372715  0.70899510  0.29354001  1
  Ti  Ti196  1  0.60001190  0.79099663  0.20304827  1
  Ti  Ti197  1  0.09271002  0.50636584  0.09417138  1
  Ti  Ti198  1  0.20299056  -0.00575139  0.79417301  1
  Ti  Ti199  1  0.78756956  0.19662731  0.80027658  1
  Mo  Mo200  1  0.19511647  -0.00332806  0.20283361  1
  Mo  Mo201  1  -0.00008239  0.60522786  0.00223328  1
  Mo  Mo202  1  0.70418797  0.70004969  0.10289828  1
  Mo  Mo203  1  0.79927154  0.79505840  0.20455327  1
  Mo  Mo204  1  0.50557309  0.50169227  0.90112468  1
  Mo  Mo205  1  0.40370204  0.59910356  0.80136014  1
  Mo  Mo206  1  0.40114230  0.60168776  0.19771499  1
  Mo  Mo207  1  0.89945974  0.30083336  0.50190836  1
  Mo  Mo208  1  0.70437098  0.09553334  0.50043600  1
  Mo  Mo209  1  0.10389327  0.29620642  0.10281895  1
  Mo  Mo210  1  0.00098508  0.79890533  0.19942574  1
  Mo  Mo211  1  0.39354135  -0.00016089  0.20012345  1
  Mo  Mo212  1  0.88892982  0.49996821  0.50483840  1
  Mo  Mo213  1  0.50226592  0.50079944  0.29201452  1
  Mo  Mo214  1  0.81309020  0.79312058  0.80188069  1
  Mo  Mo215  1  0.39800368  -0.00079327  0.39934914  1
  Mo  Mo216  1  0.60370672  0.20266418  0.20405722  1
  Mo  Mo217  1  0.00039376  0.80952609  0.60755670  1
  Mo  Mo218  1  0.58471636  0.78717639  0.80586637  1
  Mo  Mo219  1  0.80098169  0.00367393  0.60337581  1
  Mo  Mo220  1  0.70512216  0.09946884  0.70027637  1
  Mo  Mo221  1  -0.00796565  -0.00117314  0.79714394  1
  Mo  Mo222  1  0.80019991  -0.00001564  0.19988597  1
  Mo  Mo223  1  0.40066331  0.79628007  0.39816157  1
  Mo  Mo224  1  0.00200378  -0.00493369  0.19883140  1
  Mo  Mo225  1  0.29765958  0.89606613  0.29654182  1
  Mo  Mo226  1  0.29772310  0.09882096  0.49523661  1
  Mo  Mo227  1  0.70937001  0.10663373  0.89675197  1
  Mo  Mo228  1  0.89144325  0.28912834  0.89821369  1
  Mo  Mo229  1  0.19646820  0.79832904  0.20088265  1
  Mo  Mo230  1  0.29707997  0.70471148  0.29734933  1
  Mo  Mo231  1  0.50527747  0.10444542  0.50024560  1
  Mo  Mo232  1  0.68716945  0.30410309  0.29524528  1
  Mo  Mo233  1  0.60886170  0.20615034  0.79483190  1
  Mo  Mo234  1  0.00396354  0.19927497  0.19540867  1
  Mo  Mo235  1  -0.00046939  0.81087621  0.00171715  1
  Mo  Mo236  1  0.39023920  0.80034150  0.20757938  1
  Mo  Mo237  1  0.60055657  0.59764738  -0.00151995  1
  Mo  Mo238  1  -0.00715850  0.20345231  0.60484290  1
  Mo  Mo239  1  0.70139965  0.09957082  0.30112698  1
  Mo  Mo240  1  0.90306324  0.50269723  0.29136362  1
  Mo  Mo241  1  0.69479989  0.30500356  0.70661090  1
  Mo  Mo242  1  0.29269302  0.09741352  0.10761071  1
  Mo  Mo243  1  0.40491195  0.19659743  0.79444600  1
  Mo  Mo244  1  0.49475257  0.69723509  0.10719265  1
  Mo  Mo245  1  0.30554678  0.70548355  0.69457824  1
  Mo  Mo246  1  0.89919300  0.29552602  0.09661024  1
  Mo  Mo247  1  0.40592283  0.60101996  0.00558015  1
  Mo  Mo248  1  0.89643295  0.89571004  0.89150620  1
  Mo  Mo249  1  0.59623158  0.40202151  0.38354902  1
