# generated using pymatgen
data_HfZrTaTiMo
_symmetry_space_group_name_H-M   'P 1'
_cell_length_a   16.87427190
_cell_length_b   16.88598587
_cell_length_c   16.88045387
_cell_angle_alpha   90.01186582
_cell_angle_beta   90.00753808
_cell_angle_gamma   89.99583554
_symmetry_Int_Tables_number   1
_chemical_formula_structural   HfZrTaTiMo
_chemical_formula_sum   'Hf50 Zr50 Ta50 Ti50 Mo50'
_cell_volume   4809.89470516
_cell_formula_units_Z   50
loop_
 _symmetry_equiv_pos_site_id
 _symmetry_equiv_pos_as_xyz
  1  'x, y, z'
loop_
 _atom_site_type_symbol
 _atom_site_label
 _atom_site_symmetry_multiplicity
 _atom_site_fract_x
 _atom_site_fract_y
 _atom_site_fract_z
 _atom_site_occupancy
  Hf  Hf0  1  0.80568494  -0.00138852  0.60392712  1
  Hf  Hf1  1  0.39621141  0.39659991  0.19863738  1
  Hf  Hf2  1  0.88705770  0.10494173  0.88979626  1
  Hf  Hf3  1  0.10320107  0.10412050  0.50602815  1
  Hf  Hf4  1  0.80401407  0.40407936  0.40144008  1
  Hf  Hf5  1  0.39422689  0.40501529  0.39479800  1
  Hf  Hf6  1  0.31631226  0.67104860  0.89428490  1
  Hf  Hf7  1  -0.00289847  0.39294987  0.20499632  1
  Hf  Hf8  1  0.38554171  0.21042133  0.78555635  1
  Hf  Hf9  1  0.00115452  0.80143954  0.00142422  1
  Hf  Hf10  1  0.90334169  0.89904268  0.50245923  1
  Hf  Hf11  1  0.00271221  0.60182092  0.00380528  1
  Hf  Hf12  1  0.49546711  0.90266208  0.49267337  1
  Hf  Hf13  1  0.80528140  0.21200253  0.20851154  1
  Hf  Hf14  1  0.70334551  0.09817199  0.30367372  1
  Hf  Hf15  1  0.10972008  0.89429739  0.29347496  1
  Hf  Hf16  1  0.69769128  0.49411709  0.90092148  1
  Hf  Hf17  1  0.29952832  0.50107204  0.70071804  1
  Hf  Hf18  1  0.80836972  0.19316208  0.60706755  1
  Hf  Hf19  1  0.60470938  0.81106063  -0.00615998  1
  Hf  Hf20  1  0.29831147  0.70085442  0.10820332  1
  Hf  Hf21  1  0.19872752  0.59380309  -0.00064363  1
  Hf  Hf22  1  0.39274245  0.80453981  -0.00690295  1
  Hf  Hf23  1  0.40604035  0.60316103  0.20695930  1
  Hf  Hf24  1  0.10539178  0.90360870  0.09857668  1
  Hf  Hf25  1  0.00694812  -0.00360126  0.40304004  1
  Hf  Hf26  1  0.60143714  0.80596380  0.79548537  1
  Hf  Hf27  1  0.90756520  0.29767293  0.91113369  1
  Hf  Hf28  1  0.60295803  0.20769930  0.20566846  1
  Hf  Hf29  1  -0.00370521  0.20131245  0.39383376  1
  Hf  Hf30  1  0.70768801  0.30375037  0.70819997  1
  Hf  Hf31  1  -0.00555777  0.60263778  0.79052516  1
  Hf  Hf32  1  0.59628985  0.40226496  0.59862108  1
  Hf  Hf33  1  0.48876483  0.29203843  0.50322414  1
  Hf  Hf34  1  0.48143023  0.91430083  0.88557426  1
  Hf  Hf35  1  0.90332872  0.89632346  0.89289554  1
  Hf  Hf36  1  0.60408331  0.20907546  0.39630698  1
  Hf  Hf37  1  0.20840197  0.79632448  0.80045014  1
  Hf  Hf38  1  0.49323443  0.29640236  0.09566291  1
  Hf  Hf39  1  0.20364614  0.59659937  0.40294384  1
  Hf  Hf40  1  0.10690970  0.10409067  0.08742876  1
  Hf  Hf41  1  0.80309084  0.79350765  0.79184128  1
  Hf  Hf42  1  0.39551273  0.80238775  0.60187640  1
  Hf  Hf43  1  0.70097828  0.70333928  0.10420643  1
  Hf  Hf44  1  0.79579790  0.59806879  0.40817678  1
  Hf  Hf45  1  0.90318605  0.50070270  0.10304941  1
  Hf  Hf46  1  0.49508998  0.69058119  0.69501475  1
  Hf  Hf47  1  0.29923169  0.71611647  0.29709764  1
  Hf  Hf48  1  0.69870839  0.10589073  0.09836179  1
  Hf  Hf49  1  0.00258235  0.39888615  0.59603583  1
  Zr  Zr50  1  0.59474750  0.60132947  0.20013140  1
  Zr  Zr51  1  0.49580603  0.09759995  0.49548756  1
  Zr  Zr52  1  0.60246100  0.40260201  0.40212102  1
  Zr  Zr53  1  0.79248409  0.79393342  0.40777707  1
  Zr  Zr54  1  0.09067083  0.29391583  0.08242899  1
  Zr  Zr55  1  0.20093421  0.39614456  0.19197642  1
  Zr  Zr56  1  0.28998572  0.10642977  0.89931584  1
  Zr  Zr57  1  0.20542974  0.39528847  -0.01004381  1
  Zr  Zr58  1  0.80823668  0.60062439  0.79531615  1
  Zr  Zr59  1  0.40075230  0.60009898  0.39851305  1
  Zr  Zr60  1  0.69747665  0.11360002  0.90255170  1
  Zr  Zr61  1  0.10876690  0.10595635  0.29684590  1
  Zr  Zr62  1  0.89717663  0.10852585  0.08852586  1
  Zr  Zr63  1  0.69772183  0.69362082  0.90072562  1
  Zr  Zr64  1  0.71079941  0.09812562  0.71779825  1
  Zr  Zr65  1  0.79688924  0.39451935  0.20396465  1
  Zr  Zr66  1  0.49595966  0.09432912  0.70874408  1
  Zr  Zr67  1  0.00269134  0.00528493  0.79576130  1
  Zr  Zr68  1  0.21502652  0.19574468  0.61397074  1
  Zr  Zr69  1  0.89677510  0.70169132  0.11140414  1
  Zr  Zr70  1  0.00837289  0.39694168  0.80510332  1
  Zr  Zr71  1  0.59806754  -0.00445819  -0.00194050  1
  Zr  Zr72  1  0.47971208  0.50561320  0.90958874  1
  Zr  Zr73  1  0.49350780  0.10832940  0.09581660  1
  Zr  Zr74  1  0.89870842  0.88823714  0.29567956  1
  Zr  Zr75  1  0.00096026  0.40330992  0.39933803  1
  Zr  Zr76  1  0.90213270  0.29394556  0.50559407  1
  Zr  Zr77  1  0.59629415  0.58930451  0.79071240  1
  Zr  Zr78  1  0.21548331  0.00527421  0.20311806  1
  Zr  Zr79  1  0.59707059  0.20206409  0.60919192  1
  Zr  Zr80  1  0.19943945  0.80926123  0.41193776  1
  Zr  Zr81  1  -0.00020266  0.59649093  0.59356091  1
  Zr  Zr82  1  0.60282608  0.80187544  0.59720444  1
  Zr  Zr83  1  0.30560218  0.90620650  0.71211926  1
  Zr  Zr84  1  0.30112735  0.29489771  0.49436297  1
  Zr  Zr85  1  0.70460034  0.49186442  0.69592828  1
  Zr  Zr86  1  0.58878290  0.80229753  0.21302954  1
  Zr  Zr87  1  0.79158025  -0.01280375  -0.00408371  1
  Zr  Zr88  1  0.48969587  0.90053940  0.10430294  1
  Zr  Zr89  1  -0.00523134  0.00652027  0.19859325  1
  Zr  Zr90  1  0.09599161  0.70232954  0.89192855  1
  Zr  Zr91  1  0.49981847  0.69433684  0.90089947  1
  Zr  Zr92  1  0.00651558  0.79757733  0.59655913  1
  Zr  Zr93  1  0.69918333  0.09700633  0.49816135  1
  Zr  Zr94  1  0.20040532  0.40112599  0.59756200  1
  Zr  Zr95  1  0.80328018  0.59827771  0.59028198  1
  Zr  Zr96  1  0.20492135  0.80236053  -0.00644652  1
  Zr  Zr97  1  0.49440414  0.30020706  0.90732864  1
  Zr  Zr98  1  0.60525554  0.39392001  0.20380546  1
  Zr  Zr99  1  0.09849414  0.69468160  0.29396416  1
  Ta  Ta100  1  0.89820112  0.48540273  0.69542512  1
  Ta  Ta101  1  0.30760369  0.09938368  0.49850003  1
  Ta  Ta102  1  0.59219201  0.20920177  0.80248719  1
  Ta  Ta103  1  0.90424416  0.29441960  0.70415555  1
  Ta  Ta104  1  0.30771795  0.50199235  0.09341792  1
  Ta  Ta105  1  0.20909749  0.00021645  0.40423657  1
  Ta  Ta106  1  0.79777683  0.80029953  -0.00211816  1
  Ta  Ta107  1  0.00389707  0.00168030  -0.00847169  1
  Ta  Ta108  1  0.10368176  0.70093958  0.69944031  1
  Ta  Ta109  1  0.20241591  0.80118877  0.60173140  1
  Ta  Ta110  1  0.59998049  -0.00695408  0.60635762  1
  Ta  Ta111  1  0.80376594  -0.00109714  0.40023945  1
  Ta  Ta112  1  0.70053467  0.30222488  0.90089344  1
  Ta  Ta113  1  0.70061316  0.70005028  0.30097147  1
  Ta  Ta114  1  0.39815464  0.00129343  0.20563599  1
  Ta  Ta115  1  0.10217643  0.50283720  0.29553102  1
  Ta  Ta116  1  0.90186973  0.49701044  0.90688472  1
  Ta  Ta117  1  0.49152898  0.10676576  0.90365306  1
  Ta  Ta118  1  0.20091050  -0.00527030  0.60018296  1
  Ta  Ta119  1  0.71024796  0.30185468  0.50612310  1
  Ta  Ta120  1  0.79916714  0.40210010  0.00374399  1
  Ta  Ta121  1  0.49650639  0.70203301  0.49475012  1
  Ta  Ta122  1  0.80070454  0.59810639  0.00164193  1
  Ta  Ta123  1  0.10226679  0.49932012  0.70115091  1
  Ta  Ta124  1  0.79728333  -0.00299940  0.20237591  1
  Ta  Ta125  1  0.00614618  0.19656714  0.80029992  1
  Ta  Ta126  1  -0.00201633  0.20663197  0.20451050  1
  Ta  Ta127  1  0.50454162  0.50069245  0.30140353  1
  Ta  Ta128  1  0.90176774  0.69604792  0.29826128  1
  Ta  Ta129  1  0.90476237  0.51234366  0.29691192  1
  Ta  Ta130  1  0.59651625  -0.00111078  0.20740548  1
  Ta  Ta131  1  0.89583137  0.89747288  0.10097914  1
  Ta  Ta132  1  0.10161322  0.89725332  0.70242101  1
  Ta  Ta133  1  0.10096402  0.29449098  0.70004922  1
  Ta  Ta134  1  0.69939200  0.69674332  0.69011026  1
  Ta  Ta135  1  0.38192905  0.00110685  0.00220209  1
  Ta  Ta136  1  0.38881842  0.39829630  0.80446748  1
  Ta  Ta137  1  0.19614838  0.00796109  0.79987607  1
  Ta  Ta138  1  0.69718961  0.90364527  0.49693584  1
  Ta  Ta139  1  0.19927593  0.59300783  0.79637661  1
  Ta  Ta140  1  0.69953063  0.50650652  0.30176000  1
  Ta  Ta141  1  0.20053313  0.60567605  0.59976245  1
  Ta  Ta142  1  0.60118933  0.40171921  0.00472441  1
  Ta  Ta143  1  0.29879424  0.29116801  0.29881450  1
  Ta  Ta144  1  0.10625108  0.29247112  0.49735989  1
  Ta  Ta145  1  0.49340107  0.10223371  0.29894160  1
  Ta  Ta146  1  0.30318080  0.70367556  0.50232873  1
  Ta  Ta147  1  0.90544646  0.89680007  0.69998214  1
  Ta  Ta148  1  0.11211075  0.30133783  0.30737057  1
  Ta  Ta149  1  0.39414327  0.00448574  0.60305700  1
  Ti  Ti150  1  0.59736634  -0.00695593  0.39082437  1
  Ti  Ti151  1  0.58457831  0.39569339  0.79771984  1
  Ti  Ti152  1  0.29790078  0.10827912  0.09678930  1
  Ti  Ti153  1  0.30524551  0.90350303  0.49808894  1
  Ti  Ti154  1  0.39349995  0.60125599  0.59592794  1
  Ti  Ti155  1  0.10239731  0.10323498  0.70074989  1
  Ti  Ti156  1  0.49457995  0.50210087  0.50185033  1
  Ti  Ti157  1  0.10497236  0.90633706  0.89667856  1
  Ti  Ti158  1  0.10705932  0.49554379  0.49372918  1
  Ti  Ti159  1  0.79665053  0.59955191  0.20453960  1
  Ti  Ti160  1  0.00678303  0.79947045  0.40355223  1
  Ti  Ti161  1  0.49420581  0.90716593  0.70353428  1
  Ti  Ti162  1  0.10945988  0.69803374  0.11402766  1
  Ti  Ti163  1  0.90482912  0.29868436  0.08808984  1
  Ti  Ti164  1  0.20285917  0.39154929  0.80285079  1
  Ti  Ti165  1  0.60580485  0.59677180  0.58420829  1
  Ti  Ti166  1  0.70223090  0.89865587  0.30206664  1
  Ti  Ti167  1  0.59520160  0.79739183  0.39750905  1
  Ti  Ti168  1  0.90171797  0.70097254  0.90046261  1
  Ti  Ti169  1  0.10472325  0.69806759  0.49952634  1
  Ti  Ti170  1  0.39737409  0.38593262  0.61268246  1
  Ti  Ti171  1  0.90528469  0.70181914  0.49591060  1
  Ti  Ti172  1  0.30023923  0.49795331  0.50233401  1
  Ti  Ti173  1  0.39577484  0.79094964  0.79718442  1
  Ti  Ti174  1  0.48551702  0.29296173  0.30158331  1
  Ti  Ti175  1  0.80932029  0.39777785  0.80721706  1
  Ti  Ti176  1  0.49529715  0.49645112  0.09830256  1
  Ti  Ti177  1  0.29000420  0.50053095  0.29211054  1
  Ti  Ti178  1  -0.00152062  0.59647071  0.40386357  1
  Ti  Ti179  1  0.70663725  0.90135784  0.69960728  1
  Ti  Ti180  1  0.09897443  0.50316553  0.10729566  1
  Ti  Ti181  1  0.37813986  0.21220031  -0.00058116  1
  Ti  Ti182  1  0.39214087  -0.00157203  0.38851841  1
  Ti  Ti183  1  0.90540877  0.09998781  0.50205315  1
  Ti  Ti184  1  0.00400295  0.00385921  0.60472837  1
  Ti  Ti185  1  0.79817341  0.79327506  0.59826218  1
  Ti  Ti186  1  0.29817740  0.89313680  0.11063699  1
  Ti  Ti187  1  0.70102227  0.50089192  0.10069776  1
  Ti  Ti188  1  0.69962998  0.29308295  0.08322177  1
  Ti  Ti189  1  0.70437202  0.89439243  0.11429560  1
  Ti  Ti190  1  0.20836955  0.19319762  0.39747516  1
  Ti  Ti191  1  0.89449580  0.10040844  0.30357063  1
  Ti  Ti192  1  0.09776043  0.49711781  0.89900622  1
  Ti  Ti193  1  0.59740280  0.59658205  0.00871605  1
  Ti  Ti194  1  0.49184269  0.70599319  0.09875072  1
  Ti  Ti195  1  0.48977675  0.49852783  0.69605382  1
  Ti  Ti196  1  0.20710755  0.20523161  0.19296254  1
  Ti  Ti197  1  0.00235598  0.79803607  0.19644640  1
  Ti  Ti198  1  0.60062540  0.60361991  0.40364030  1
  Ti  Ti199  1  0.60638154  -0.00297986  0.80412349  1
  Mo  Mo200  1  0.40427183  0.60002402  0.02001093  1
  Mo  Mo201  1  0.19173354  0.20429388  0.80086389  1
  Mo  Mo202  1  0.71195712  0.29503789  0.31805139  1
  Mo  Mo203  1  0.29542301  0.30824405  0.70286712  1
  Mo  Mo204  1  0.10391047  0.90800496  0.50808925  1
  Mo  Mo205  1  0.00392461  0.59859213  0.20284053  1
  Mo  Mo206  1  0.70614592  0.89760018  0.88585589  1
  Mo  Mo207  1  0.40275832  0.80338732  0.40399615  1
  Mo  Mo208  1  0.19983140  0.20173512  -0.00569203  1
  Mo  Mo209  1  0.68733037  0.70132971  0.49925453  1
  Mo  Mo210  1  0.80004980  -0.01366321  0.79413485  1
  Mo  Mo211  1  0.29394310  0.91236796  0.90040596  1
  Mo  Mo212  1  0.00142313  0.19039095  -0.00899532  1
  Mo  Mo213  1  0.90570624  0.50161304  0.49781504  1
  Mo  Mo214  1  0.90948642  0.10091659  0.69935094  1
  Mo  Mo215  1  0.49645239  0.90680031  0.30548930  1
  Mo  Mo216  1  0.39609222  0.40090157  0.00273022  1
  Mo  Mo217  1  0.20026938  0.40190877  0.39602860  1
  Mo  Mo218  1  0.80362975  0.39837796  0.59688484  1
  Mo  Mo219  1  0.80648956  0.21596794  0.80160838  1
  Mo  Mo220  1  0.00182826  0.41054548  0.00054861  1
  Mo  Mo221  1  0.39807471  0.59171536  0.78047401  1
  Mo  Mo222  1  0.79961852  0.21159137  0.00068302  1
  Mo  Mo223  1  0.80365500  0.19629774  0.40367526  1
  Mo  Mo224  1  0.79444052  0.80193561  0.20407039  1
  Mo  Mo225  1  0.39829634  0.19622313  0.60064685  1
  Mo  Mo226  1  0.00550543  0.19584368  0.60670200  1
  Mo  Mo227  1  0.29670110  0.09386912  0.69970162  1
  Mo  Mo228  1  0.29701733  0.49570300  0.89739766  1
  Mo  Mo229  1  0.60186246  0.20639733  -0.00428636  1
  Mo  Mo230  1  0.39788014  0.19615817  0.39208793  1
  Mo  Mo231  1  0.20346643  -0.00186628  -0.00247271  1
  Mo  Mo232  1  0.69260388  0.49928897  0.49695176  1
  Mo  Mo233  1  0.30693859  0.90268441  0.30230795  1
  Mo  Mo234  1  0.29474965  0.30095570  0.89866291  1
  Mo  Mo235  1  0.39190239  0.19735895  0.20025291  1
  Mo  Mo236  1  0.10319885  0.29033822  0.89391841  1
  Mo  Mo237  1  0.49576878  0.30750594  0.70314563  1
  Mo  Mo238  1  0.39252898  0.01388795  0.80297319  1
  Mo  Mo239  1  0.29762115  0.69493796  0.69588746  1
  Mo  Mo240  1  0.89967779  0.70680510  0.69138509  1
  Mo  Mo241  1  0.29902872  0.29593013  0.09977433  1
  Mo  Mo242  1  0.00285561  0.80044132  0.79308794  1
  Mo  Mo243  1  0.20146579  0.80446778  0.19820429  1
  Mo  Mo244  1  0.39949780  0.80698458  0.20900316  1
  Mo  Mo245  1  0.90602160  0.29842358  0.30315048  1
  Mo  Mo246  1  0.30508317  0.10477929  0.30315753  1
  Mo  Mo247  1  0.20136550  0.59254816  0.19808488  1
  Mo  Mo248  1  0.09964744  0.10309381  0.90104974  1
  Mo  Mo249  1  0.50163728  0.70459267  0.31213737  1
