# generated using pymatgen
data_HfZrTaTiMo
_symmetry_space_group_name_H-M   'P 1'
_cell_length_a   16.88339131
_cell_length_b   16.88318920
_cell_length_c   16.88526560
_cell_angle_alpha   90.03567900
_cell_angle_beta   89.97643487
_cell_angle_gamma   90.00481300
_symmetry_Int_Tables_number   1
_chemical_formula_structural   HfZrTaTiMo
_chemical_formula_sum   'Hf50 Zr50 Ta50 Ti50 Mo50'
_cell_volume   4813.06744548
_cell_formula_units_Z   50
loop_
 _symmetry_equiv_pos_site_id
 _symmetry_equiv_pos_as_xyz
  1  'x, y, z'
loop_
 _atom_site_type_symbol
 _atom_site_label
 _atom_site_symmetry_multiplicity
 _atom_site_fract_x
 _atom_site_fract_y
 _atom_site_fract_z
 _atom_site_occupancy
  Hf  Hf0  1  0.71488141  0.29350963  0.70481235  1
  Hf  Hf1  1  0.11075307  0.29370445  0.90310191  1
  Hf  Hf2  1  0.90080366  0.50011226  0.29919675  1
  Hf  Hf3  1  0.49759498  0.90147553  0.50347922  1
  Hf  Hf4  1  0.30123393  0.29757356  0.09894910  1
  Hf  Hf5  1  0.11052237  0.30983612  0.10233507  1
  Hf  Hf6  1  0.21294269  0.59988619  0.40353195  1
  Hf  Hf7  1  0.50046816  0.49881416  0.09650884  1
  Hf  Hf8  1  0.19943942  0.79810765  -0.00364473  1
  Hf  Hf9  1  0.89537456  0.29102525  0.50037523  1
  Hf  Hf10  1  0.20146657  0.59466283  0.59854396  1
  Hf  Hf11  1  0.49386404  0.70540706  0.49128996  1
  Hf  Hf12  1  0.30788081  0.70975820  0.30283739  1
  Hf  Hf13  1  0.30301674  0.91093695  0.89868937  1
  Hf  Hf14  1  0.70217895  0.49720747  0.49577680  1
  Hf  Hf15  1  0.00188845  0.80969177  0.59635762  1
  Hf  Hf16  1  0.60260663  0.39704619  0.20406461  1
  Hf  Hf17  1  0.10035681  0.90812481  0.70323825  1
  Hf  Hf18  1  0.00135841  0.59339845  0.60346426  1
  Hf  Hf19  1  0.89163647  0.50751483  0.09811351  1
  Hf  Hf20  1  0.89197106  0.70387423  0.91290739  1
  Hf  Hf21  1  0.70132886  0.50203577  0.90241869  1
  Hf  Hf22  1  0.60549364  0.19852773  0.40024345  1
  Hf  Hf23  1  0.49081078  0.09566954  0.70299916  1
  Hf  Hf24  1  0.09978300  0.49835579  0.48920862  1
  Hf  Hf25  1  0.29940990  0.89671439  0.10461570  1
  Hf  Hf26  1  0.49826588  0.10530865  0.90799330  1
  Hf  Hf27  1  0.90444156  0.90477806  0.90018544  1
  Hf  Hf28  1  0.40191691  0.79831949  -0.00337730  1
  Hf  Hf29  1  0.39361479  0.59090439  0.58916473  1
  Hf  Hf30  1  0.49257076  0.10016850  0.29973548  1
  Hf  Hf31  1  0.19986644  0.80263795  0.80759765  1
  Hf  Hf32  1  0.60484447  0.20476803  0.20275190  1
  Hf  Hf33  1  -0.00160662  0.40423279  -0.00317361  1
  Hf  Hf34  1  0.49660001  0.29309530  0.50413138  1
  Hf  Hf35  1  0.60628576  0.19309397  0.60436742  1
  Hf  Hf36  1  0.50121947  0.68792957  0.09676864  1
  Hf  Hf37  1  0.90391730  0.09663103  0.89197048  1
  Hf  Hf38  1  0.20081768  0.39148769  0.58925752  1
  Hf  Hf39  1  0.48951765  0.29620436  0.30013978  1
  Hf  Hf40  1  0.69628132  0.51075153  0.09301028  1
  Hf  Hf41  1  0.39489394  0.40208545  0.60110466  1
  Hf  Hf42  1  0.19847411  0.59643273  0.19504991  1
  Hf  Hf43  1  0.30451918  0.49738836  0.09527322  1
  Hf  Hf44  1  0.88871486  0.91262387  0.29880010  1
  Hf  Hf45  1  0.29697932  0.10303043  0.90434031  1
  Hf  Hf46  1  0.58846093  0.39659409  0.80002888  1
  Hf  Hf47  1  0.29363061  0.10786094  0.51245181  1
  Hf  Hf48  1  -0.00398181  0.20488909  0.00345557  1
  Hf  Hf49  1  0.00302217  0.80861661  0.80583762  1
  Zr  Zr50  1  0.69311104  0.10148185  0.09659764  1
  Zr  Zr51  1  0.79811310  0.21145441  -0.00947160  1
  Zr  Zr52  1  0.59855563  0.20877532  0.80549068  1
  Zr  Zr53  1  0.00919850  0.81667820  0.39636144  1
  Zr  Zr54  1  -0.00544938  0.00327949  0.60142889  1
  Zr  Zr55  1  0.69502498  0.70011421  0.49627796  1
  Zr  Zr56  1  0.50299365  0.90774328  0.89027531  1
  Zr  Zr57  1  0.09926770  0.49394191  0.29570387  1
  Zr  Zr58  1  0.49588490  0.70283493  0.69383615  1
  Zr  Zr59  1  0.70593624  0.50468499  0.30155084  1
  Zr  Zr60  1  0.69951264  0.70501169  0.70323312  1
  Zr  Zr61  1  0.49783478  0.69187119  0.90017342  1
  Zr  Zr62  1  0.80115575  0.81397921  0.59772118  1
  Zr  Zr63  1  0.11366150  0.71756300  0.29449746  1
  Zr  Zr64  1  0.00027106  0.20939803  0.79143561  1
  Zr  Zr65  1  0.00590773  0.39492782  0.61107516  1
  Zr  Zr66  1  0.80512654  0.78949095  0.19613745  1
  Zr  Zr67  1  0.59773327  -0.00608633  0.20133962  1
  Zr  Zr68  1  -0.00271087  0.59033561  0.79910612  1
  Zr  Zr69  1  0.30754985  0.90645747  0.70150166  1
  Zr  Zr70  1  0.70429012  0.89259656  0.89410990  1
  Zr  Zr71  1  0.10339962  0.10410153  0.30626647  1
  Zr  Zr72  1  0.70269889  0.49380041  0.69936997  1
  Zr  Zr73  1  0.20155641  0.39300991  0.78777679  1
  Zr  Zr74  1  0.90600260  0.70134477  0.49273787  1
  Zr  Zr75  1  0.89362446  0.71241967  0.70995839  1
  Zr  Zr76  1  0.09725214  0.09293282  0.90360444  1
  Zr  Zr77  1  0.80031938  -0.00390279  0.00186936  1
  Zr  Zr78  1  0.80670339  0.59619641  0.60082485  1
  Zr  Zr79  1  0.71521692  0.08975082  0.30282573  1
  Zr  Zr80  1  0.89994298  0.49234791  0.48292508  1
  Zr  Zr81  1  0.39962805  0.39680462  0.79922386  1
  Zr  Zr82  1  0.00413409  -0.00417960  0.20143409  1
  Zr  Zr83  1  0.30054780  0.10344385  0.09926651  1
  Zr  Zr84  1  0.30392216  0.69671800  0.70682162  1
  Zr  Zr85  1  0.89481412  0.10508707  0.31143996  1
  Zr  Zr86  1  0.89286026  0.09806904  0.10997923  1
  Zr  Zr87  1  0.70236355  0.89811692  0.30488124  1
  Zr  Zr88  1  0.58807540  0.58949068  0.79159699  1
  Zr  Zr89  1  0.00342653  0.20867727  0.20270137  1
  Zr  Zr90  1  0.10812170  0.50130164  0.89181093  1
  Zr  Zr91  1  0.49120454  0.89120532  0.30617339  1
  Zr  Zr92  1  0.69878399  0.10203529  0.89251272  1
  Zr  Zr93  1  0.49259536  0.29151174  0.09254544  1
  Zr  Zr94  1  0.29309388  0.89211538  0.30227512  1
  Zr  Zr95  1  0.29936893  0.10040571  0.30179600  1
  Zr  Zr96  1  0.10438865  0.69632982  0.70416245  1
  Zr  Zr97  1  0.89621795  0.30815461  0.30794555  1
  Zr  Zr98  1  0.38765363  0.40297068  0.40563040  1
  Zr  Zr99  1  0.70071175  0.69780635  0.90273665  1
  Ta  Ta100  1  0.39606030  0.00355396  0.60019340  1
  Ta  Ta101  1  0.70159089  0.89222823  0.09991738  1
  Ta  Ta102  1  0.10150878  0.69514245  0.90365622  1
  Ta  Ta103  1  0.39469669  0.20138101  0.80038608  1
  Ta  Ta104  1  0.89540052  0.30885792  0.10222344  1
  Ta  Ta105  1  0.38978721  0.20187293  0.40587946  1
  Ta  Ta106  1  0.29738638  0.29039587  0.90797681  1
  Ta  Ta107  1  0.09919428  0.89399221  0.10220142  1
  Ta  Ta108  1  0.49859280  0.69790068  0.30129377  1
  Ta  Ta109  1  0.19953393  0.59687144  0.00083657  1
  Ta  Ta110  1  0.79177666  0.21656028  0.20368384  1
  Ta  Ta111  1  0.10151692  0.70367491  0.09796014  1
  Ta  Ta112  1  0.60031092  0.39744066  0.40062146  1
  Ta  Ta113  1  0.00585429  0.00041140  0.40802688  1
  Ta  Ta114  1  0.20234411  0.80150244  0.59374424  1
  Ta  Ta115  1  0.19237420  -0.00741748  0.40663160  1
  Ta  Ta116  1  0.19728283  0.00636014  0.79795461  1
  Ta  Ta117  1  0.80442259  0.39327924  0.60077877  1
  Ta  Ta118  1  0.71050337  0.10162214  0.50384599  1
  Ta  Ta119  1  0.60155751  0.79854284  0.00541541  1
  Ta  Ta120  1  0.60006273  0.81013436  0.60062376  1
  Ta  Ta121  1  0.60018016  0.38856401  -0.01185275  1
  Ta  Ta122  1  0.39519924  0.40046535  0.20603459  1
  Ta  Ta123  1  0.20267373  0.20454390  0.20560168  1
  Ta  Ta124  1  0.50242759  0.89765595  0.10044838  1
  Ta  Ta125  1  0.59815957  0.39653067  0.60047830  1
  Ta  Ta126  1  0.60171374  0.79015666  0.19640212  1
  Ta  Ta127  1  0.49487543  0.10390437  0.09897368  1
  Ta  Ta128  1  0.40459366  -0.00072354  0.00535148  1
  Ta  Ta129  1  0.10604621  0.70461247  0.49611142  1
  Ta  Ta130  1  0.59894393  0.00420102  0.41096532  1
  Ta  Ta131  1  0.79280615  0.39730712  0.19731500  1
  Ta  Ta132  1  0.39598035  0.00295599  0.40903796  1
  Ta  Ta133  1  0.20080687  0.21604977  0.40842972  1
  Ta  Ta134  1  0.30285378  0.69498218  0.09949421  1
  Ta  Ta135  1  0.79910600  0.39771780  -0.00531769  1
  Ta  Ta136  1  0.70638385  0.29869419  0.49879469  1
  Ta  Ta137  1  0.39870535  0.59388870  0.20787799  1
  Ta  Ta138  1  0.30029686  0.27893861  0.68602559  1
  Ta  Ta139  1  0.70125380  0.90198555  0.70160319  1
  Ta  Ta140  1  0.80454788  0.59445935  0.80312769  1
  Ta  Ta141  1  0.59329378  0.59697517  0.39659554  1
  Ta  Ta142  1  0.10079798  0.10453253  0.50406782  1
  Ta  Ta143  1  0.19323660  -0.00457458  0.20213932  1
  Ta  Ta144  1  0.88946300  0.11040764  0.69674496  1
  Ta  Ta145  1  0.89677932  0.10580048  0.50105258  1
  Ta  Ta146  1  0.30104825  0.89914462  0.49925594  1
  Ta  Ta147  1  0.00417177  0.60011157  0.00616677  1
  Ta  Ta148  1  -0.00104220  0.60971429  0.19452832  1
  Ta  Ta149  1  0.30092528  0.68229043  0.89982357  1
  Ti  Ti150  1  0.29157135  0.48853847  0.29808534  1
  Ti  Ti151  1  0.39722778  0.59492917  0.39958639  1
  Ti  Ti152  1  0.11364696  0.31055803  0.29797460  1
  Ti  Ti153  1  0.60592116  0.00405946  0.78859513  1
  Ti  Ti154  1  0.19996963  0.00114903  0.60171663  1
  Ti  Ti155  1  0.49288545  0.29241313  0.69418895  1
  Ti  Ti156  1  0.49891161  0.50106858  0.30115263  1
  Ti  Ti157  1  0.59705644  -0.00610018  0.00308499  1
  Ti  Ti158  1  0.89365562  0.48652490  0.70827376  1
  Ti  Ti159  1  0.79669746  0.00440338  0.60621190  1
  Ti  Ti160  1  0.59275936  0.59436030  0.59770573  1
  Ti  Ti161  1  0.20364174  0.40865822  -0.00321902  1
  Ti  Ti162  1  0.00355667  0.61348197  0.38560043  1
  Ti  Ti163  1  0.19172245  -0.00564548  0.00304742  1
  Ti  Ti164  1  0.39957325  0.58149166  0.80011873  1
  Ti  Ti165  1  0.90091386  0.89438263  0.09485410  1
  Ti  Ti166  1  0.80327824  0.61178046  0.39122234  1
  Ti  Ti167  1  -0.00045981  0.39284659  0.79617045  1
  Ti  Ti168  1  0.49720479  0.50475001  0.91496940  1
  Ti  Ti169  1  0.39457053  0.80125005  0.59552405  1
  Ti  Ti170  1  0.10112914  0.10183017  0.69664129  1
  Ti  Ti171  1  0.70025453  0.90693699  0.49830697  1
  Ti  Ti172  1  0.89389613  0.91099563  0.49513994  1
  Ti  Ti173  1  0.00139892  0.40706580  0.19224732  1
  Ti  Ti174  1  0.10369073  0.10070244  0.09733281  1
  Ti  Ti175  1  0.40103457  0.80064245  0.80277573  1
  Ti  Ti176  1  -0.00241951  0.79859958  0.20046433  1
  Ti  Ti177  1  0.59911555  0.60372367  0.20631436  1
  Ti  Ti178  1  0.00425225  0.80154162  0.00242607  1
  Ti  Ti179  1  0.49754132  0.90502846  0.69984167  1
  Ti  Ti180  1  0.39949782  -0.00210969  0.19860207  1
  Ti  Ti181  1  0.01038809  0.20383739  0.40563884  1
  Ti  Ti182  1  0.80814454  0.61300424  0.20143290  1
  Ti  Ti183  1  0.80317508  0.79724480  0.39793537  1
  Ti  Ti184  1  0.20189262  0.19461231  0.78934758  1
  Ti  Ti185  1  0.49619833  0.10004436  0.50409167  1
  Ti  Ti186  1  0.00457853  0.20575323  0.60352191  1
  Ti  Ti187  1  0.69736435  0.30315940  0.09081149  1
  Ti  Ti188  1  0.39941822  0.39732095  -0.01215733  1
  Ti  Ti189  1  0.60064690  0.80118597  0.39981614  1
  Ti  Ti190  1  0.40664315  0.79371253  0.19463829  1
  Ti  Ti191  1  0.69521946  0.70049387  0.30217952  1
  Ti  Ti192  1  0.01251355  0.38486529  0.40398025  1
  Ti  Ti193  1  0.60358439  0.00105881  0.60195148  1
  Ti  Ti194  1  0.89488358  0.49811761  0.90059246  1
  Ti  Ti195  1  0.70758901  0.69542966  0.08734999  1
  Ti  Ti196  1  0.80216819  0.00046068  0.78910531  1
  Ti  Ti197  1  0.59673132  0.80283753  0.79442287  1
  Ti  Ti198  1  0.29309847  0.50266559  0.70496780  1
  Ti  Ti199  1  0.50464955  0.49736475  0.49590332  1
  Mo  Mo200  1  0.79293027  0.39444225  0.39979671  1
  Mo  Mo201  1  0.29547618  0.10010263  0.70267982  1
  Mo  Mo202  1  0.79757725  0.19927678  0.40268872  1
  Mo  Mo203  1  0.70034848  0.30469917  0.30738654  1
  Mo  Mo204  1  0.90469027  0.70110077  0.29764487  1
  Mo  Mo205  1  0.09856691  0.90554840  0.90721544  1
  Mo  Mo206  1  0.00780542  -0.00783161  0.00695972  1
  Mo  Mo207  1  0.18773324  0.19822395  0.60253824  1
  Mo  Mo208  1  0.40043664  0.80161760  0.40446978  1
  Mo  Mo209  1  0.09707048  0.29405583  0.49903453  1
  Mo  Mo210  1  0.70304170  0.09271296  0.69683347  1
  Mo  Mo211  1  0.81028456  0.39696487  0.80516192  1
  Mo  Mo212  1  0.80588387  0.59763866  -0.00091854  1
  Mo  Mo213  1  0.79984817  -0.00062257  0.41989735  1
  Mo  Mo214  1  0.80550867  0.20247298  0.79756266  1
  Mo  Mo215  1  0.90971294  0.70187867  0.09895926  1
  Mo  Mo216  1  0.30365123  0.49683804  0.90189000  1
  Mo  Mo217  1  0.39823710  0.19752477  -0.00372691  1
  Mo  Mo218  1  0.29673092  0.49875860  0.49387390  1
  Mo  Mo219  1  0.20449042  0.59563003  0.80374409  1
  Mo  Mo220  1  0.70383933  0.30702677  0.89674826  1
  Mo  Mo221  1  0.30206873  0.70646467  0.49819848  1
  Mo  Mo222  1  0.49761307  0.49375137  0.68594182  1
  Mo  Mo223  1  0.59714228  0.20855189  0.00087439  1
  Mo  Mo224  1  0.19698652  0.19651160  0.00899153  1
  Mo  Mo225  1  0.39506610  0.59466275  0.00044781  1
  Mo  Mo226  1  0.10079784  0.49276288  0.69920152  1
  Mo  Mo227  1  -0.00099651  0.00487636  0.79118763  1
  Mo  Mo228  1  0.39585358  0.00790998  0.79792725  1
  Mo  Mo229  1  0.89998887  0.30863072  0.89724156  1
  Mo  Mo230  1  0.10140223  0.90371298  0.29657551  1
  Mo  Mo231  1  0.80040327  0.80783853  0.80035977  1
  Mo  Mo232  1  0.40338529  0.19634706  0.60086853  1
  Mo  Mo233  1  0.29781572  0.29588519  0.50203458  1
  Mo  Mo234  1  0.10847549  0.90670341  0.50653291  1
  Mo  Mo235  1  0.48894167  0.29833522  0.90149590  1
  Mo  Mo236  1  0.39584664  0.20114594  0.20568563  1
  Mo  Mo237  1  0.20027539  0.39394178  0.39711449  1
  Mo  Mo238  1  0.89680991  0.91399787  0.70669129  1
  Mo  Mo239  1  0.20610321  0.40078788  0.20002512  1
  Mo  Mo240  1  0.79915681  0.79839955  0.00490585  1
  Mo  Mo241  1  0.89904796  0.29877231  0.70030209  1
  Mo  Mo242  1  0.29678864  0.29917744  0.29746626  1
  Mo  Mo243  1  0.20164310  0.79889983  0.18691733  1
  Mo  Mo244  1  0.20403875  0.80338651  0.41484239  1
  Mo  Mo245  1  0.09920302  0.50440293  0.09688989  1
  Mo  Mo246  1  0.10484843  0.29309023  0.69854977  1
  Mo  Mo247  1  0.60010766  0.59903683  0.00279307  1
  Mo  Mo248  1  0.80187256  0.19761572  0.59998834  1
  Mo  Mo249  1  0.80095056  -0.00968865  0.18814061  1
