# generated using pymatgen
data_HfZrTaTiMo
_symmetry_space_group_name_H-M   'P 1'
_cell_length_a   16.87985504
_cell_length_b   16.88251192
_cell_length_c   16.88794890
_cell_angle_alpha   89.99660299
_cell_angle_beta   89.96861261
_cell_angle_gamma   90.08813220
_symmetry_Int_Tables_number   1
_chemical_formula_structural   HfZrTaTiMo
_chemical_formula_sum   'Hf50 Zr50 Ta50 Ti50 Mo50'
_cell_volume   4812.62590177
_cell_formula_units_Z   50
loop_
 _symmetry_equiv_pos_site_id
 _symmetry_equiv_pos_as_xyz
  1  'x, y, z'
loop_
 _atom_site_type_symbol
 _atom_site_label
 _atom_site_symmetry_multiplicity
 _atom_site_fract_x
 _atom_site_fract_y
 _atom_site_fract_z
 _atom_site_occupancy
  Hf  Hf0  1  0.10406842  0.10100280  0.70004158  1
  Hf  Hf1  1  0.30065028  0.50880615  0.29750995  1
  Hf  Hf2  1  0.90989650  0.69610368  0.69695737  1
  Hf  Hf3  1  0.89926919  0.49462593  0.30748686  1
  Hf  Hf4  1  0.80057317  0.59462882  0.80069684  1
  Hf  Hf5  1  0.29070005  0.71698013  0.89808078  1
  Hf  Hf6  1  0.29527758  0.30238835  0.50314556  1
  Hf  Hf7  1  0.09498342  0.29354831  0.09544446  1
  Hf  Hf8  1  0.10932338  0.90329883  0.69900495  1
  Hf  Hf9  1  0.50982190  0.90572883  0.49520716  1
  Hf  Hf10  1  0.70029033  0.30601997  0.70212571  1
  Hf  Hf11  1  0.30652797  0.70141699  0.69611040  1
  Hf  Hf12  1  0.09855490  0.30145876  0.89849330  1
  Hf  Hf13  1  0.69418508  0.89649819  0.89907559  1
  Hf  Hf14  1  0.39786186  0.39415238  0.60388486  1
  Hf  Hf15  1  0.49893050  0.70510156  0.69278426  1
  Hf  Hf16  1  0.47733526  0.09128779  0.90309552  1
  Hf  Hf17  1  0.50512980  0.50682475  0.09922234  1
  Hf  Hf18  1  0.59321658  0.61207700  -0.01255216  1
  Hf  Hf19  1  0.79653034  0.79693653  0.21030907  1
  Hf  Hf20  1  0.58131546  -0.00493521  0.79395145  1
  Hf  Hf21  1  0.71111582  0.29418495  0.50340861  1
  Hf  Hf22  1  0.70218179  0.90391472  0.10844984  1
  Hf  Hf23  1  0.39695550  0.39727395  0.19893929  1
  Hf  Hf24  1  0.20286176  0.19265990  -0.00585280  1
  Hf  Hf25  1  0.00141890  0.59287389  -0.00160062  1
  Hf  Hf26  1  0.59320886  0.79731253  0.00028036  1
  Hf  Hf27  1  0.19804526  0.79633819  0.40423113  1
  Hf  Hf28  1  0.39266911  0.39798709  0.00021039  1
  Hf  Hf29  1  0.89865269  0.91060467  0.29956128  1
  Hf  Hf30  1  0.20366456  0.40170451  -0.00088103  1
  Hf  Hf31  1  0.40345351  0.60760858  0.81028772  1
  Hf  Hf32  1  0.80259420  0.79767196  0.80179104  1
  Hf  Hf33  1  0.70119551  0.29405922  0.09864827  1
  Hf  Hf34  1  0.80865730  0.39910008  -0.00543252  1
  Hf  Hf35  1  0.20043160  0.39300440  0.19241333  1
  Hf  Hf36  1  0.39566136  0.19990533  0.20166330  1
  Hf  Hf37  1  0.09621621  0.50031815  0.29435349  1
  Hf  Hf38  1  0.60090240  0.38889756  -0.01274205  1
  Hf  Hf39  1  0.50078097  0.29921693  0.70693616  1
  Hf  Hf40  1  0.59315700  -0.00195963  0.21293675  1
  Hf  Hf41  1  0.29687866  0.51589844  0.10175667  1
  Hf  Hf42  1  0.89940994  0.10302506  0.09939319  1
  Hf  Hf43  1  0.40202245  0.19760274  0.39860628  1
  Hf  Hf44  1  0.80222945  -0.00185204  0.79682228  1
  Hf  Hf45  1  0.29944355  0.49835475  0.70068979  1
  Hf  Hf46  1  0.60398518  0.59606187  0.59870363  1
  Hf  Hf47  1  0.50285043  0.49877965  0.70579371  1
  Hf  Hf48  1  0.51232174  0.29964745  0.49681955  1
  Hf  Hf49  1  0.29541831  0.09565728  0.50292070  1
  Zr  Zr50  1  0.49917377  0.29738581  0.09678809  1
  Zr  Zr51  1  0.00138901  0.01896455  0.40021287  1
  Zr  Zr52  1  0.19323257  0.39481153  0.40066517  1
  Zr  Zr53  1  0.69611864  0.50183879  0.10229309  1
  Zr  Zr54  1  0.19555553  0.59648047  0.40287196  1
  Zr  Zr55  1  0.89536033  0.29182318  0.31336356  1
  Zr  Zr56  1  0.69754124  0.30623318  0.31588948  1
  Zr  Zr57  1  0.28759469  0.90513190  0.30127942  1
  Zr  Zr58  1  0.79421787  0.79553970  0.59601427  1
  Zr  Zr59  1  0.71349746  0.09548300  0.30735140  1
  Zr  Zr60  1  0.50092378  0.69854342  0.30625309  1
  Zr  Zr61  1  0.90330796  0.68734404  0.49692973  1
  Zr  Zr62  1  0.10970041  0.91597213  0.49287351  1
  Zr  Zr63  1  0.39663424  0.80958938  0.40071138  1
  Zr  Zr64  1  0.79367486  -0.00124990  0.59570341  1
  Zr  Zr65  1  0.59687164  0.19952387  0.80671354  1
  Zr  Zr66  1  0.79524412  0.79828408  0.40207628  1
  Zr  Zr67  1  0.90324791  0.90281871  0.11130112  1
  Zr  Zr68  1  0.90432099  0.70251993  0.10398962  1
  Zr  Zr69  1  0.70579006  0.48724514  0.49518317  1
  Zr  Zr70  1  0.09583358  0.89574478  0.10712278  1
  Zr  Zr71  1  0.89589135  0.30503409  0.68761943  1
  Zr  Zr72  1  0.20689412  0.79726486  0.59057722  1
  Zr  Zr73  1  0.69559120  0.49197450  0.88959255  1
  Zr  Zr74  1  0.80907670  -0.01123902  -0.00463424  1
  Zr  Zr75  1  0.20263811  0.00295811  0.00462543  1
  Zr  Zr76  1  0.19982699  0.21427604  0.61152200  1
  Zr  Zr77  1  -0.00696194  0.81209497  -0.01303347  1
  Zr  Zr78  1  0.40550297  0.79946271  0.00682907  1
  Zr  Zr79  1  0.89961512  0.90849832  0.49323429  1
  Zr  Zr80  1  0.29688250  0.69712331  0.29412739  1
  Zr  Zr81  1  0.00612804  0.80046968  0.59070294  1
  Zr  Zr82  1  0.12520175  0.88481492  0.88977744  1
  Zr  Zr83  1  0.60120508  0.19309285  0.20357073  1
  Zr  Zr84  1  0.49539622  0.09956879  0.09342289  1
  Zr  Zr85  1  0.30238278  0.90969622  0.70198536  1
  Zr  Zr86  1  0.39989468  0.40072365  0.39592293  1
  Zr  Zr87  1  0.90965102  0.69505460  0.88956397  1
  Zr  Zr88  1  0.89759083  0.10756857  0.69515949  1
  Zr  Zr89  1  0.39776448  -0.00429243  0.20279344  1
  Zr  Zr90  1  0.10398777  0.11153619  0.29592879  1
  Zr  Zr91  1  0.90841108  0.11040465  0.90452102  1
  Zr  Zr92  1  0.10155958  0.70127003  0.89118474  1
  Zr  Zr93  1  0.49609455  0.69769039  0.49992234  1
  Zr  Zr94  1  0.69996590  0.09783591  0.90282922  1
  Zr  Zr95  1  0.68899858  0.89467892  0.69589115  1
  Zr  Zr96  1  0.80435070  0.39628938  0.19762240  1
  Zr  Zr97  1  0.31523205  0.91322957  0.89953336  1
  Zr  Zr98  1  0.69282078  0.69420650  0.10997299  1
  Zr  Zr99  1  0.00289687  -0.00303109  0.81005710  1
  Ta  Ta100  1  0.10285087  0.49601596  0.89650594  1
  Ta  Ta101  1  0.69257090  0.69283297  0.30362078  1
  Ta  Ta102  1  0.00056096  0.40294732  0.79624767  1
  Ta  Ta103  1  0.00718322  0.20849024  0.79476286  1
  Ta  Ta104  1  0.60149385  0.60740716  0.80106772  1
  Ta  Ta105  1  0.59138947  0.80370468  0.20847586  1
  Ta  Ta106  1  0.10025480  0.69674516  0.70137970  1
  Ta  Ta107  1  0.10010698  0.48960475  0.51172284  1
  Ta  Ta108  1  0.30490260  0.09656071  0.69878389  1
  Ta  Ta109  1  0.59936530  0.59330471  0.40196908  1
  Ta  Ta110  1  0.09612412  0.90096625  0.29652002  1
  Ta  Ta111  1  0.19568561  0.59490326  0.60501886  1
  Ta  Ta112  1  0.79552970  0.79159204  -0.00681429  1
  Ta  Ta113  1  0.59903118  0.40101404  0.60026556  1
  Ta  Ta114  1  0.79844072  0.59678817  0.39809938  1
  Ta  Ta115  1  0.30207971  0.29548879  0.89502424  1
  Ta  Ta116  1  0.40902637  0.60748565  0.19614372  1
  Ta  Ta117  1  0.80247478  0.59843905  0.20706967  1
  Ta  Ta118  1  0.50615959  0.30143526  0.30440751  1
  Ta  Ta119  1  0.60159444  0.19672127  -0.00648608  1
  Ta  Ta120  1  0.79962147  0.20762915  0.80389892  1
  Ta  Ta121  1  0.28804964  0.28850870  0.29549237  1
  Ta  Ta122  1  0.50134201  0.09660679  0.50386410  1
  Ta  Ta123  1  -0.00226613  0.59789113  0.19889535  1
  Ta  Ta124  1  -0.00374694  0.39565144  0.19467207  1
  Ta  Ta125  1  0.19678218  0.60357364  -0.00227049  1
  Ta  Ta126  1  0.40750901  0.00602215  0.39394026  1
  Ta  Ta127  1  0.49768330  0.49596519  0.89564781  1
  Ta  Ta128  1  0.40333989  0.19757526  0.60581072  1
  Ta  Ta129  1  0.29441784  0.70174185  0.10317147  1
  Ta  Ta130  1  0.69620947  0.49946542  0.30267309  1
  Ta  Ta131  1  0.69702817  0.10660303  0.69734322  1
  Ta  Ta132  1  0.00092504  0.01167006  0.59678134  1
  Ta  Ta133  1  0.00572797  0.20995276  0.59383312  1
  Ta  Ta134  1  0.91096752  0.89701635  0.69909067  1
  Ta  Ta135  1  0.59151830  -0.00523640  0.00045955  1
  Ta  Ta136  1  -0.00688413  0.20562330  0.19606221  1
  Ta  Ta137  1  0.00225061  0.39233787  0.41080850  1
  Ta  Ta138  1  0.90077804  0.50169262  0.10013995  1
  Ta  Ta139  1  0.00473971  0.58537388  0.60436082  1
  Ta  Ta140  1  0.31033964  0.68279798  0.50350393  1
  Ta  Ta141  1  0.30006081  0.50217420  0.50742810  1
  Ta  Ta142  1  0.09427797  0.69946496  0.29567323  1
  Ta  Ta143  1  0.09748194  0.68608451  0.50045349  1
  Ta  Ta144  1  0.80104942  0.59991805  -0.00572436  1
  Ta  Ta145  1  0.70156791  0.49114850  0.70007424  1
  Ta  Ta146  1  0.29097140  0.10255383  0.30167803  1
  Ta  Ta147  1  0.88910768  0.11696078  0.49927575  1
  Ta  Ta148  1  0.19805059  0.59515920  0.79875781  1
  Ta  Ta149  1  0.19847210  0.00610664  0.19493375  1
  Ti  Ti150  1  0.81024051  0.39830650  0.80669368  1
  Ti  Ti151  1  0.09783596  0.29575783  0.29520221  1
  Ti  Ti152  1  0.60386846  0.80079747  0.59082141  1
  Ti  Ti153  1  0.59778357  0.19389690  0.60311792  1
  Ti  Ti154  1  0.49327186  0.50226409  0.49811955  1
  Ti  Ti155  1  0.59264899  0.79230882  0.80744040  1
  Ti  Ti156  1  -0.00499689  0.40326664  0.00024854  1
  Ti  Ti157  1  0.00449547  0.20884299  0.41158295  1
  Ti  Ti158  1  0.39180455  0.19446038  0.79562004  1
  Ti  Ti159  1  0.39427735  0.39726648  0.80390338  1
  Ti  Ti160  1  0.69965296  0.09809584  0.49916888  1
  Ti  Ti161  1  0.00437630  0.79703624  0.39692720  1
  Ti  Ti162  1  0.10113495  0.70165124  0.10478667  1
  Ti  Ti163  1  0.09265779  0.10524008  0.09730621  1
  Ti  Ti164  1  0.50474543  0.50164279  0.30145457  1
  Ti  Ti165  1  0.00082316  0.59025846  0.40497950  1
  Ti  Ti166  1  0.79917496  0.59436634  0.59909316  1
  Ti  Ti167  1  0.00505368  0.58064859  0.79259895  1
  Ti  Ti168  1  0.90854628  0.29830653  0.90202025  1
  Ti  Ti169  1  0.69504294  0.69687713  0.49231669  1
  Ti  Ti170  1  0.79989563  0.20776290  -0.00364782  1
  Ti  Ti171  1  0.19256439  0.20497889  0.40482238  1
  Ti  Ti172  1  0.19727986  0.80091223  0.19733730  1
  Ti  Ti173  1  0.48996313  0.29543216  0.89804883  1
  Ti  Ti174  1  0.30478835  0.10172538  0.09658746  1
  Ti  Ti175  1  0.90654469  0.69536657  0.30276876  1
  Ti  Ti176  1  0.00116263  0.01197170  0.20331739  1
  Ti  Ti177  1  0.19780548  0.39522853  0.79013637  1
  Ti  Ti178  1  0.09882145  0.50252548  0.10103578  1
  Ti  Ti179  1  0.29737666  0.50288073  0.89832475  1
  Ti  Ti180  1  0.49689330  0.90245650  0.10104378  1
  Ti  Ti181  1  0.70551950  0.09444765  0.09922301  1
  Ti  Ti182  1  0.80396736  0.20034692  0.19718777  1
  Ti  Ti183  1  0.20270781  0.20314459  0.79923515  1
  Ti  Ti184  1  0.40166550  0.81355301  0.59496426  1
  Ti  Ti185  1  0.89683484  0.49232467  0.69280810  1
  Ti  Ti186  1  0.89317057  0.10366953  0.30380697  1
  Ti  Ti187  1  0.69792891  0.69661070  0.69997511  1
  Ti  Ti188  1  0.10768979  0.10396278  0.50396976  1
  Ti  Ti189  1  0.59744036  0.40068410  0.20506629  1
  Ti  Ti190  1  0.40278787  0.60999760  -0.00144596  1
  Ti  Ti191  1  0.30018353  0.91939674  0.50253977  1
  Ti  Ti192  1  0.69477077  0.90392647  0.31558818  1
  Ti  Ti193  1  0.20647916  0.02204991  0.81154180  1
  Ti  Ti194  1  0.40391717  0.80256925  0.19807337  1
  Ti  Ti195  1  0.59671837  0.18539769  0.39898359  1
  Ti  Ti196  1  0.00915362  0.00160364  -0.00849304  1
  Ti  Ti197  1  0.59536966  0.00459281  0.60295667  1
  Ti  Ti198  1  0.41735978  0.81423910  0.79994140  1
  Ti  Ti199  1  0.89928258  0.48550533  0.50583401  1
  Mo  Mo200  1  0.80971177  0.40197830  0.40724125  1
  Mo  Mo201  1  0.49773635  0.10210616  0.30929803  1
  Mo  Mo202  1  0.20066179  0.00970462  0.59995779  1
  Mo  Mo203  1  0.90790241  0.49528523  0.89946951  1
  Mo  Mo204  1  0.70050494  0.69925675  0.89634905  1
  Mo  Mo205  1  0.20600767  0.78874508  0.78256976  1
  Mo  Mo206  1  0.39951065  0.59150144  0.60100454  1
  Mo  Mo207  1  0.00458914  0.80408452  0.78780648  1
  Mo  Mo208  1  0.79784738  0.00516166  0.40473666  1
  Mo  Mo209  1  0.79197665  0.19805605  0.60197292  1
  Mo  Mo210  1  0.79991716  0.00322079  0.20548069  1
  Mo  Mo211  1  0.59874177  0.59748079  0.21034052  1
  Mo  Mo212  1  0.50311937  0.89880198  0.30256381  1
  Mo  Mo213  1  0.80037013  0.19919051  0.40771631  1
  Mo  Mo214  1  0.00178821  0.20122624  -0.00183132  1
  Mo  Mo215  1  0.71007920  0.29569547  0.89841586  1
  Mo  Mo216  1  0.30275551  0.29914029  0.71072910  1
  Mo  Mo217  1  0.80185281  0.40363560  0.60279863  1
  Mo  Mo218  1  0.40494964  0.00373927  0.59575303  1
  Mo  Mo219  1  0.00077562  0.79273472  0.21572749  1
  Mo  Mo220  1  0.40256231  0.00416521  0.78512274  1
  Mo  Mo221  1  0.29650780  0.29018366  0.09740699  1
  Mo  Mo222  1  0.29593253  0.89455057  0.10621864  1
  Mo  Mo223  1  0.20199518  0.00730900  0.39492803  1
  Mo  Mo224  1  0.18829480  0.60560541  0.19110156  1
  Mo  Mo225  1  0.40357512  0.59113536  0.40092879  1
  Mo  Mo226  1  0.90300987  0.29751509  0.09544189  1
  Mo  Mo227  1  0.59196966  0.39976743  0.79928087  1
  Mo  Mo228  1  0.89803611  0.89464033  0.89218079  1
  Mo  Mo229  1  0.49526572  0.70308044  0.10852467  1
  Mo  Mo230  1  0.49548091  0.10138442  0.69254394  1
  Mo  Mo231  1  0.30307218  0.10592303  0.89423746  1
  Mo  Mo232  1  0.68994327  0.90670501  0.49375151  1
  Mo  Mo233  1  0.20456936  0.79796381  0.01975148  1
  Mo  Mo234  1  0.19946640  0.19635417  0.19074720  1
  Mo  Mo235  1  0.49811833  0.89557687  0.68727062  1
  Mo  Mo236  1  0.09944945  0.30573375  0.70325754  1
  Mo  Mo237  1  0.09779898  0.30293391  0.50488431  1
  Mo  Mo238  1  0.60126395  0.00203069  0.40556962  1
  Mo  Mo239  1  0.39161951  0.20302635  -0.00434447  1
  Mo  Mo240  1  0.90250965  0.30107500  0.50267279  1
  Mo  Mo241  1  0.00215336  0.40002805  0.60148413  1
  Mo  Mo242  1  0.19698026  0.40329622  0.60828023  1
  Mo  Mo243  1  0.10198883  0.10864223  0.89632002  1
  Mo  Mo244  1  0.39755888  -0.00472347  0.01139516  1
  Mo  Mo245  1  0.50066508  0.90079417  0.90062266  1
  Mo  Mo246  1  0.10250849  0.49628105  0.70355163  1
  Mo  Mo247  1  0.49688008  0.70295655  0.89289841  1
  Mo  Mo248  1  0.59393220  0.40610315  0.40128169  1
  Mo  Mo249  1  0.60686844  0.80009626  0.39954916  1
