# generated using pymatgen
data_HfZrTaTiMo
_symmetry_space_group_name_H-M   'P 1'
_cell_length_a   16.89407987
_cell_length_b   16.89212187
_cell_length_c   16.89212734
_cell_angle_alpha   90.05677159
_cell_angle_beta   89.97220132
_cell_angle_gamma   90.02926412
_symmetry_Int_Tables_number   1
_chemical_formula_structural   HfZrTaTiMo
_chemical_formula_sum   'Hf50 Zr50 Ta50 Ti50 Mo50'
_cell_volume   4820.61863210
_cell_formula_units_Z   50
loop_
 _symmetry_equiv_pos_site_id
 _symmetry_equiv_pos_as_xyz
  1  'x, y, z'
loop_
 _atom_site_type_symbol
 _atom_site_label
 _atom_site_symmetry_multiplicity
 _atom_site_fract_x
 _atom_site_fract_y
 _atom_site_fract_z
 _atom_site_occupancy
  Hf  Hf0  1  0.90713918  0.10035859  0.09360983  1
  Hf  Hf1  1  0.20449872  0.40151702  0.59872450  1
  Hf  Hf2  1  0.79729376  -0.00176092  0.19571696  1
  Hf  Hf3  1  0.90988006  0.10115914  0.50697964  1
  Hf  Hf4  1  -0.00014036  0.61362628  0.61116769  1
  Hf  Hf5  1  0.40138385  0.61331106  0.79900053  1
  Hf  Hf6  1  0.09589510  0.09824139  0.69693700  1
  Hf  Hf7  1  0.10512075  0.29111084  0.90555329  1
  Hf  Hf8  1  0.19974594  0.00630319  0.80978751  1
  Hf  Hf9  1  0.10041666  0.49773975  0.49652903  1
  Hf  Hf10  1  0.60672720  0.80627826  0.60551078  1
  Hf  Hf11  1  -0.00117796  0.18508003  0.81357733  1
  Hf  Hf12  1  0.20698606  0.20010006  0.19382250  1
  Hf  Hf13  1  0.80175646  -0.01215970  0.40353494  1
  Hf  Hf14  1  0.42123888  0.39985446  0.41335568  1
  Hf  Hf15  1  0.38648223  0.20347798  0.80297960  1
  Hf  Hf16  1  0.09604460  0.90174812  0.69484875  1
  Hf  Hf17  1  0.81007542  0.20592075  0.39826315  1
  Hf  Hf18  1  0.70159421  0.70465496  0.49546619  1
  Hf  Hf19  1  0.30007655  0.48610714  0.30256255  1
  Hf  Hf20  1  0.30093211  0.50777544  0.90255004  1
  Hf  Hf21  1  0.79905816  0.19326088  0.60608612  1
  Hf  Hf22  1  0.40619977  0.19930636  0.20069742  1
  Hf  Hf23  1  0.50579456  0.09423772  0.48990051  1
  Hf  Hf24  1  0.19071864  0.60073120  0.01117938  1
  Hf  Hf25  1  0.80395293  0.39722239  0.39774336  1
  Hf  Hf26  1  0.60002597  0.41647866  0.00968596  1
  Hf  Hf27  1  0.19753078  0.59585800  0.19834333  1
  Hf  Hf28  1  0.28889421  0.89451545  0.49561231  1
  Hf  Hf29  1  0.57411768  0.40326042  0.58436436  1
  Hf  Hf30  1  0.79638777  0.61391109  0.61465596  1
  Hf  Hf31  1  0.09844717  0.50966928  0.70881988  1
  Hf  Hf32  1  0.09292209  0.28756684  0.49884149  1
  Hf  Hf33  1  0.59107681  0.21528249  0.39742457  1
  Hf  Hf34  1  0.49774862  0.09251709  0.90942316  1
  Hf  Hf35  1  0.09655350  0.09488209  0.50123918  1
  Hf  Hf36  1  0.10607933  0.89848056  0.10025294  1
  Hf  Hf37  1  0.89934345  0.49094529  0.28471981  1
  Hf  Hf38  1  0.09409801  0.49338940  0.30032435  1
  Hf  Hf39  1  0.60418255  0.59902191  0.18808449  1
  Hf  Hf40  1  0.40237366  0.20556438  0.59663333  1
  Hf  Hf41  1  0.78998222  0.60979012  0.19586184  1
  Hf  Hf42  1  0.89243836  0.90170548  0.08745522  1
  Hf  Hf43  1  0.30150841  0.70664610  0.49832897  1
  Hf  Hf44  1  0.90469311  0.10312501  0.29744132  1
  Hf  Hf45  1  0.12391360  0.87796440  0.89551318  1
  Hf  Hf46  1  0.60202755  0.59952196  0.39340167  1
  Hf  Hf47  1  0.40474486  -0.00448580  0.19176943  1
  Hf  Hf48  1  0.78979001  0.40496041  0.01276976  1
  Hf  Hf49  1  0.69231153  0.30352037  0.89970043  1
  Zr  Zr50  1  0.79733152  0.80589302  0.60762804  1
  Zr  Zr51  1  0.20513584  0.00292211  0.19770794  1
  Zr  Zr52  1  0.89723346  0.49975475  0.50707732  1
  Zr  Zr53  1  0.69874929  0.49212054  0.70174428  1
  Zr  Zr54  1  0.90227376  0.50851964  0.10029454  1
  Zr  Zr55  1  0.39644334  0.19950941  0.00616635  1
  Zr  Zr56  1  -0.00184977  0.80154246  -0.00468664  1
  Zr  Zr57  1  0.70398785  0.30414631  0.50900205  1
  Zr  Zr58  1  0.30183351  0.70103001  0.30349566  1
  Zr  Zr59  1  0.39928007  -0.00068816  0.59193320  1
  Zr  Zr60  1  0.29540690  0.30587607  0.48465663  1
  Zr  Zr61  1  0.90509510  0.51429923  0.90348143  1
  Zr  Zr62  1  0.50294579  0.30278913  0.90408235  1
  Zr  Zr63  1  0.29510903  0.50453079  0.70521705  1
  Zr  Zr64  1  0.40229128  0.59189688  0.59749291  1
  Zr  Zr65  1  0.01196866  0.40615135  0.01160529  1
  Zr  Zr66  1  0.49832070  0.09115208  0.70754977  1
  Zr  Zr67  1  0.10499531  0.70517783  0.49516152  1
  Zr  Zr68  1  0.89847874  0.70570430  0.49583345  1
  Zr  Zr69  1  0.09456061  0.69220466  0.89147335  1
  Zr  Zr70  1  0.10075481  0.29099805  0.70464473  1
  Zr  Zr71  1  0.10022177  0.69715902  0.30573688  1
  Zr  Zr72  1  -0.00912949  0.38439018  0.39619124  1
  Zr  Zr73  1  0.21346549  0.19846451  0.60213871  1
  Zr  Zr74  1  0.69428174  0.09694435  0.30444122  1
  Zr  Zr75  1  0.10520370  0.50411651  0.89068479  1
  Zr  Zr76  1  0.00152747  -0.01396856  0.39910363  1
  Zr  Zr77  1  0.70430952  0.50110329  0.50429786  1
  Zr  Zr78  1  0.79759462  0.19104023  0.80718344  1
  Zr  Zr79  1  0.30911659  0.49505563  0.10090002  1
  Zr  Zr80  1  0.69886854  0.30627923  0.70303630  1
  Zr  Zr81  1  0.70454301  0.30493376  0.28937308  1
  Zr  Zr82  1  0.09873244  0.10205370  0.30138298  1
  Zr  Zr83  1  0.90298965  0.29918492  0.91098352  1
  Zr  Zr84  1  0.60497476  0.79539864  0.19174003  1
  Zr  Zr85  1  0.29961242  0.89658135  0.70158822  1
  Zr  Zr86  1  0.29322277  0.30901629  0.91074702  1
  Zr  Zr87  1  0.30069756  0.30649699  0.29503737  1
  Zr  Zr88  1  0.49868763  0.89967712  0.70837799  1
  Zr  Zr89  1  0.31230265  0.70181310  0.10002196  1
  Zr  Zr90  1  0.49909026  0.70803198  0.50239883  1
  Zr  Zr91  1  -0.00584316  0.80892692  0.39508164  1
  Zr  Zr92  1  0.29747269  0.89526686  0.30120499  1
  Zr  Zr93  1  0.69747974  0.09101657  0.70678750  1
  Zr  Zr94  1  0.79084510  0.19856325  0.00621333  1
  Zr  Zr95  1  0.50610889  0.29923494  0.70795129  1
  Zr  Zr96  1  0.29187979  0.71914758  0.90596690  1
  Zr  Zr97  1  0.49523712  0.70189883  0.29429683  1
  Zr  Zr98  1  0.89802278  0.49848678  0.70814372  1
  Zr  Zr99  1  0.01480635  -0.00042338  -0.01411169  1
  Ta  Ta100  1  0.79543482  -0.00514005  0.60100288  1
  Ta  Ta101  1  0.40823907  0.80803941  0.40034253  1
  Ta  Ta102  1  0.88129216  0.89908838  0.89485288  1
  Ta  Ta103  1  0.49754597  0.51441598  0.90197751  1
  Ta  Ta104  1  0.49885040  0.70307992  0.08557034  1
  Ta  Ta105  1  0.40163925  0.58987592  0.40210641  1
  Ta  Ta106  1  0.50551219  0.09215212  0.09693491  1
  Ta  Ta107  1  0.39531374  0.39965409  0.60236674  1
  Ta  Ta108  1  0.60472319  0.60729015  -0.00285254  1
  Ta  Ta109  1  0.89543659  0.90373844  0.70726380  1
  Ta  Ta110  1  0.59830008  0.60521537  0.61011378  1
  Ta  Ta111  1  0.79834968  0.60352811  0.38608736  1
  Ta  Ta112  1  0.89242277  0.70379471  0.90174902  1
  Ta  Ta113  1  0.79596138  0.20273971  0.19173381  1
  Ta  Ta114  1  0.79801614  0.79739854  0.19579866  1
  Ta  Ta115  1  0.19565630  0.79484753  0.19786910  1
  Ta  Ta116  1  0.18117688  0.39608838  0.18964523  1
  Ta  Ta117  1  0.69786615  0.09538808  0.49643540  1
  Ta  Ta118  1  0.19978839  0.19675848  0.39353181  1
  Ta  Ta119  1  0.59844849  0.19299498  0.59710904  1
  Ta  Ta120  1  0.40226127  -0.00225892  0.39517852  1
  Ta  Ta121  1  -0.00667112  0.79750988  0.79463233  1
  Ta  Ta122  1  0.09872091  0.10172628  0.09563285  1
  Ta  Ta123  1  0.40022951  0.40443218  0.79856796  1
  Ta  Ta124  1  0.00033368  -0.00978166  0.20122518  1
  Ta  Ta125  1  0.88946243  0.08471538  0.90533079  1
  Ta  Ta126  1  0.00147470  0.39599691  0.60829070  1
  Ta  Ta127  1  0.61027835  -0.00835623  0.59353128  1
  Ta  Ta128  1  0.60587592  0.80717214  0.39699119  1
  Ta  Ta129  1  0.59873389  0.19901793  0.19293875  1
  Ta  Ta130  1  0.60276061  0.61271588  0.80047834  1
  Ta  Ta131  1  0.60100810  0.40179643  0.19207471  1
  Ta  Ta132  1  0.90225121  0.29669753  0.70371835  1
  Ta  Ta133  1  0.50666066  0.90460645  0.29979823  1
  Ta  Ta134  1  0.60078822  -0.00458138  0.19356238  1
  Ta  Ta135  1  0.69885740  0.89859759  0.29590737  1
  Ta  Ta136  1  0.89746714  0.70268952  0.09163356  1
  Ta  Ta137  1  0.59674310  0.40301227  0.39447665  1
  Ta  Ta138  1  0.29838228  0.09808894  0.70599616  1
  Ta  Ta139  1  0.50365508  0.09472000  0.29735295  1
  Ta  Ta140  1  0.69964307  0.89404909  0.08852115  1
  Ta  Ta141  1  0.00148887  0.39544132  0.80236599  1
  Ta  Ta142  1  0.60777882  -0.00832292  0.81730434  1
  Ta  Ta143  1  0.79102660  0.61378365  0.80246883  1
  Ta  Ta144  1  -0.00182277  -0.00727632  0.80594613  1
  Ta  Ta145  1  -0.00578406  0.80488610  0.20215602  1
  Ta  Ta146  1  0.70192817  0.49558742  0.29213251  1
  Ta  Ta147  1  0.50321340  0.70943723  0.90131836  1
  Ta  Ta148  1  0.21240146  -0.00127959  -0.00516156  1
  Ta  Ta149  1  0.50291852  0.49720254  0.29390180  1
  Ti  Ti150  1  0.29957922  0.89337132  0.09167043  1
  Ti  Ti151  1  0.59981585  -0.01152815  0.00105238  1
  Ti  Ti152  1  0.00076371  0.60782657  0.19529607  1
  Ti  Ti153  1  0.30246092  0.09627692  0.30746305  1
  Ti  Ti154  1  0.09685182  0.28555955  0.09411387  1
  Ti  Ti155  1  0.80406505  0.40055098  0.80795562  1
  Ti  Ti156  1  0.40904295  0.59297005  0.19571162  1
  Ti  Ti157  1  -0.01144426  0.59853066  0.39716713  1
  Ti  Ti158  1  0.89829883  0.70283274  0.29343922  1
  Ti  Ti159  1  0.59226202  0.41389166  0.80808557  1
  Ti  Ti160  1  0.09005675  0.70339985  0.09914305  1
  Ti  Ti161  1  0.20731133  0.62934766  0.78003681  1
  Ti  Ti162  1  0.78868169  0.79461384  0.80457112  1
  Ti  Ti163  1  0.19597536  0.79141154  0.60816304  1
  Ti  Ti164  1  0.40691588  0.80845343  0.19488217  1
  Ti  Ti165  1  0.20260215  0.60559385  0.59998116  1
  Ti  Ti166  1  0.21081076  0.58839894  0.40558359  1
  Ti  Ti167  1  0.41154237  0.40850933  0.00295371  1
  Ti  Ti168  1  0.90702842  0.29291481  0.51690332  1
  Ti  Ti169  1  0.30563810  0.09266296  0.09152903  1
  Ti  Ti170  1  0.79885019  0.80357855  0.38865303  1
  Ti  Ti171  1  0.40599316  0.81384383  -0.00042526  1
  Ti  Ti172  1  0.29796244  0.09515905  0.48797137  1
  Ti  Ti173  1  0.69895090  0.50845878  0.89777622  1
  Ti  Ti174  1  0.60353069  0.19674340  0.00568743  1
  Ti  Ti175  1  -0.00078003  0.20442183  0.19880319  1
  Ti  Ti176  1  0.90582122  0.90412772  0.51680605  1
  Ti  Ti177  1  0.41715843  0.39634466  0.19520928  1
  Ti  Ti178  1  0.90258435  0.30222306  0.10779521  1
  Ti  Ti179  1  0.78584745  0.61028235  -0.00042527  1
  Ti  Ti180  1  0.09662360  0.29618920  0.29996620  1
  Ti  Ti181  1  0.70209503  0.90113637  0.71667054  1
  Ti  Ti182  1  0.19235489  0.40882582  0.01259163  1
  Ti  Ti183  1  0.90235504  0.08711864  0.70223736  1
  Ti  Ti184  1  0.69541240  0.09206692  0.09510353  1
  Ti  Ti185  1  0.20186265  0.18338288  -0.00597011  1
  Ti  Ti186  1  0.19947832  -0.00049296  0.59569423  1
  Ti  Ti187  1  0.29937018  0.30847476  0.09797552  1
  Ti  Ti188  1  0.40404934  0.20084526  0.39271988  1
  Ti  Ti189  1  0.39529664  0.80133120  0.80101757  1
  Ti  Ti190  1  0.20596746  0.38862691  0.79383090  1
  Ti  Ti191  1  0.50009989  0.50365936  0.70650159  1
  Ti  Ti192  1  0.50336024  0.89428317  0.90337088  1
  Ti  Ti193  1  -0.00109592  0.80026024  0.60551992  1
  Ti  Ti194  1  0.60132695  0.18804160  0.80847722  1
  Ti  Ti195  1  0.11260386  0.89759720  0.30498128  1
  Ti  Ti196  1  0.49970775  0.71227395  0.70191210  1
  Ti  Ti197  1  0.50638922  0.29809554  0.09859751  1
  Ti  Ti198  1  0.50424335  0.90150925  0.49651265  1
  Ti  Ti199  1  0.39043034  -0.00460623  0.81995313  1
  Mo  Mo200  1  0.10386661  0.89924434  0.50946892  1
  Mo  Mo201  1  0.69987106  0.50681974  0.09953057  1
  Mo  Mo202  1  0.69053887  0.29647974  0.09956358  1
  Mo  Mo203  1  0.30092641  0.09640391  0.90299904  1
  Mo  Mo204  1  0.59810890  0.80202872  -0.00500196  1
  Mo  Mo205  1  0.29893852  0.50111364  0.49834597  1
  Mo  Mo206  1  0.70214541  0.90114581  0.49202480  1
  Mo  Mo207  1  0.49694317  0.28839392  0.50193683  1
  Mo  Mo208  1  0.69585242  0.70472914  0.89896648  1
  Mo  Mo209  1  0.49934511  0.50841138  0.09886961  1
  Mo  Mo210  1  0.89135020  0.89759157  0.28432887  1
  Mo  Mo211  1  0.69806567  0.89520923  0.90286363  1
  Mo  Mo212  1  -0.00691023  -0.00585639  0.60797959  1
  Mo  Mo213  1  0.30650979  0.89787370  0.90434931  1
  Mo  Mo214  1  0.30450318  0.30297588  0.70533031  1
  Mo  Mo215  1  0.79643086  0.39674277  0.19273276  1
  Mo  Mo216  1  0.20375581  0.00302074  0.40452453  1
  Mo  Mo217  1  0.19704675  0.80421617  0.39818038  1
  Mo  Mo218  1  0.40915778  0.60515460  -0.00527818  1
  Mo  Mo219  1  0.00112472  0.19506148  0.00650437  1
  Mo  Mo220  1  0.20010964  0.79897510  0.78143663  1
  Mo  Mo221  1  0.20213020  0.79713260  0.01864459  1
  Mo  Mo222  1  0.20423015  0.19422082  0.80471136  1
  Mo  Mo223  1  0.50293805  0.30341410  0.28996067  1
  Mo  Mo224  1  0.59979085  0.80160423  0.80418910  1
  Mo  Mo225  1  0.00108256  0.20191533  0.39806440  1
  Mo  Mo226  1  0.18913987  0.39585527  0.39319282  1
  Mo  Mo227  1  0.78496998  -0.00176384  -0.00363062  1
  Mo  Mo228  1  0.79337335  0.79711193  -0.00338053  1
  Mo  Mo229  1  0.81552706  0.39238722  0.60731998  1
  Mo  Mo230  1  0.00300247  0.38331271  0.19695365  1
  Mo  Mo231  1  0.69384612  0.09195025  0.90903062  1
  Mo  Mo232  1  0.59972029  -0.00628834  0.39769766  1
  Mo  Mo233  1  -0.00436852  0.60882149  0.00147340  1
  Mo  Mo234  1  0.69288710  0.70637612  0.70711501  1
  Mo  Mo235  1  0.40219990  -0.00933949  0.00131125  1
  Mo  Mo236  1  -0.00780421  0.19630273  0.61020353  1
  Mo  Mo237  1  0.09401103  0.50958798  0.10995701  1
  Mo  Mo238  1  0.30721281  0.70933073  0.68949067  1
  Mo  Mo239  1  0.70082916  0.70554721  0.08810588  1
  Mo  Mo240  1  0.89734928  0.70957711  0.71139244  1
  Mo  Mo241  1  0.09691714  0.70523765  0.69734523  1
  Mo  Mo242  1  0.79926585  -0.00602481  0.80133126  1
  Mo  Mo243  1  -0.01349163  0.60992560  0.80015427  1
  Mo  Mo244  1  0.50336072  0.89826448  0.09578671  1
  Mo  Mo245  1  0.70443787  0.70585421  0.30313679  1
  Mo  Mo246  1  0.50417996  0.51299067  0.49764662  1
  Mo  Mo247  1  0.10482663  0.10068559  0.90301014  1
  Mo  Mo248  1  0.90133042  0.29508401  0.28012552  1
  Mo  Mo249  1  0.40572407  0.80211206  0.59566521  1
