# generated using pymatgen
data_HfZrTaTiMo
_symmetry_space_group_name_H-M   'P 1'
_cell_length_a   16.88232008
_cell_length_b   16.88904102
_cell_length_c   16.88814993
_cell_angle_alpha   90.00425305
_cell_angle_beta   89.97449524
_cell_angle_gamma   89.91771051
_symmetry_Int_Tables_number   1
_chemical_formula_structural   HfZrTaTiMo
_chemical_formula_sum   'Hf50 Zr50 Ta50 Ti50 Mo50'
_cell_volume   4815.24849566
_cell_formula_units_Z   50
loop_
 _symmetry_equiv_pos_site_id
 _symmetry_equiv_pos_as_xyz
  1  'x, y, z'
loop_
 _atom_site_type_symbol
 _atom_site_label
 _atom_site_symmetry_multiplicity
 _atom_site_fract_x
 _atom_site_fract_y
 _atom_site_fract_z
 _atom_site_occupancy
  Hf  Hf0  1  0.60340606  -0.00012120  0.39475236  1
  Hf  Hf1  1  0.39902899  0.80072497  0.40988676  1
  Hf  Hf2  1  0.09955070  0.09788965  0.50445462  1
  Hf  Hf3  1  0.29279479  0.90080531  0.30011907  1
  Hf  Hf4  1  0.39527683  -0.00043395  0.40217660  1
  Hf  Hf5  1  0.89734686  0.50056174  0.30481140  1
  Hf  Hf6  1  0.09988946  0.29133497  0.10529345  1
  Hf  Hf7  1  0.00618491  0.79307358  0.19201088  1
  Hf  Hf8  1  0.60092897  0.59318713  0.40970172  1
  Hf  Hf9  1  0.82312795  0.80653802  -0.02026068  1
  Hf  Hf10  1  0.50402069  0.09460755  0.50692233  1
  Hf  Hf11  1  0.48890516  0.10412223  0.28734639  1
  Hf  Hf12  1  0.09649659  0.70338198  0.70854640  1
  Hf  Hf13  1  0.50524457  0.69840692  0.30422388  1
  Hf  Hf14  1  0.79682130  -0.00124802  0.40319978  1
  Hf  Hf15  1  0.79415929  0.40598502  0.18914586  1
  Hf  Hf16  1  0.59842075  0.79157968  0.19046894  1
  Hf  Hf17  1  0.39631195  0.20100612  0.79902611  1
  Hf  Hf18  1  0.30299830  0.49884380  0.30082680  1
  Hf  Hf19  1  0.10221569  0.90464493  0.70440194  1
  Hf  Hf20  1  0.79821005  0.19637799  0.20766447  1
  Hf  Hf21  1  0.89975534  0.90070946  0.29077338  1
  Hf  Hf22  1  0.81013040  0.40528621  0.59703916  1
  Hf  Hf23  1  0.50215926  0.10324869  0.90731068  1
  Hf  Hf24  1  0.61108193  0.59129427  0.19257821  1
  Hf  Hf25  1  0.71170333  0.89919351  0.10165681  1
  Hf  Hf26  1  0.80559690  0.80060190  0.40612341  1
  Hf  Hf27  1  0.09178153  0.50191116  0.49570804  1
  Hf  Hf28  1  0.29632250  0.89405997  0.70745375  1
  Hf  Hf29  1  0.39832188  0.80628972  0.00162477  1
  Hf  Hf30  1  0.70541269  0.70483402  0.88746233  1
  Hf  Hf31  1  0.40047595  0.60351087  0.80166189  1
  Hf  Hf32  1  0.48867433  0.49695556  0.10086923  1
  Hf  Hf33  1  0.50665176  0.30483412  0.49523273  1
  Hf  Hf34  1  0.38487205  0.00072121  0.19128026  1
  Hf  Hf35  1  0.30104350  0.49816493  0.69607108  1
  Hf  Hf36  1  0.28543275  0.10090364  0.49410231  1
  Hf  Hf37  1  0.10453638  0.90611667  0.89518454  1
  Hf  Hf38  1  -0.00196259  0.39485463  -0.00356099  1
  Hf  Hf39  1  0.71104964  0.49881323  0.90291398  1
  Hf  Hf40  1  0.19517828  0.39872972  0.59793384  1
  Hf  Hf41  1  0.70313274  0.50192392  0.70022931  1
  Hf  Hf42  1  0.89740567  0.50221813  0.08872029  1
  Hf  Hf43  1  0.18997680  0.80183829  0.00483593  1
  Hf  Hf44  1  0.29600232  0.90386902  0.89420324  1
  Hf  Hf45  1  0.69369447  0.10736926  0.89523161  1
  Hf  Hf46  1  0.39246178  0.20345798  0.39662107  1
  Hf  Hf47  1  -0.00072768  0.59918663  0.19883794  1
  Hf  Hf48  1  0.19678117  0.59437321  0.80006440  1
  Hf  Hf49  1  -0.00512734  0.20261032  0.40561269  1
  Zr  Zr50  1  0.29930798  0.68522390  0.08968882  1
  Zr  Zr51  1  0.19873088  0.40172214  0.00243391  1
  Zr  Zr52  1  0.29747284  0.09477246  0.91229201  1
  Zr  Zr53  1  0.19197544  0.80420939  0.41124226  1
  Zr  Zr54  1  0.20032515  0.19655363  0.79227665  1
  Zr  Zr55  1  0.60255639  0.20535308  0.20502210  1
  Zr  Zr56  1  0.70662007  0.31361862  0.49426028  1
  Zr  Zr57  1  0.89883274  0.50664009  0.49058176  1
  Zr  Zr58  1  0.70038461  0.89036094  0.29373460  1
  Zr  Zr59  1  0.10128669  0.90391715  0.29879336  1
  Zr  Zr60  1  0.71584969  0.70066166  0.09107239  1
  Zr  Zr61  1  0.29871941  0.69785292  0.30429248  1
  Zr  Zr62  1  0.50037621  0.89570699  0.29764877  1
  Zr  Zr63  1  0.51377398  0.09898732  0.69603476  1
  Zr  Zr64  1  0.49850667  0.49420946  0.69165320  1
  Zr  Zr65  1  0.50098262  0.30798333  0.69461257  1
  Zr  Zr66  1  0.79945377  0.19785573  0.39859284  1
  Zr  Zr67  1  0.59754588  0.79941368  -0.00532966  1
  Zr  Zr68  1  0.49626071  0.49881593  0.91200814  1
  Zr  Zr69  1  0.00076110  0.39099736  0.60408620  1
  Zr  Zr70  1  0.59922748  -0.00610547  -0.00452618  1
  Zr  Zr71  1  0.79662706  0.80323678  0.60153039  1
  Zr  Zr72  1  0.70477873  0.29524718  0.90607248  1
  Zr  Zr73  1  0.40634696  0.60460947  0.59141748  1
  Zr  Zr74  1  0.50521653  0.47953573  0.29432207  1
  Zr  Zr75  1  0.69947853  0.10357354  0.09360888  1
  Zr  Zr76  1  0.69933123  0.09572973  0.51821566  1
  Zr  Zr77  1  0.29375082  0.70572763  0.89300428  1
  Zr  Zr78  1  0.48846562  0.30987637  0.12186498  1
  Zr  Zr79  1  0.81529701  0.39916495  0.79707769  1
  Zr  Zr80  1  0.59730651  0.60484611  0.79633558  1
  Zr  Zr81  1  0.89994116  0.09558361  0.52476143  1
  Zr  Zr82  1  -0.00362216  0.81354957  0.58933391  1
  Zr  Zr83  1  0.00102908  -0.01556729  0.41858592  1
  Zr  Zr84  1  0.39190246  0.39884032  0.81105083  1
  Zr  Zr85  1  0.90587318  0.10232889  0.89863387  1
  Zr  Zr86  1  0.91158746  0.09461401  0.29259282  1
  Zr  Zr87  1  0.19418034  0.40489219  0.19997790  1
  Zr  Zr88  1  0.60425951  0.19654440  0.39272087  1
  Zr  Zr89  1  0.50579361  0.29992687  0.91799496  1
  Zr  Zr90  1  0.10826105  0.09239641  0.90456490  1
  Zr  Zr91  1  0.19265592  0.59743852  0.19745486  1
  Zr  Zr92  1  0.61946251  0.40863475  0.02200360  1
  Zr  Zr93  1  0.00660823  0.20488224  0.79182412  1
  Zr  Zr94  1  0.40021606  0.00610581  0.78692991  1
  Zr  Zr95  1  -0.01307764  0.80678563  0.81275834  1
  Zr  Zr96  1  0.80600406  -0.00063395  -0.00851654  1
  Zr  Zr97  1  0.09163713  0.69091645  0.50342299  1
  Zr  Zr98  1  0.10012866  0.10023329  0.10102775  1
  Zr  Zr99  1  0.39048004  0.19820866  0.60051442  1
  Ta  Ta100  1  0.90058982  0.70083931  0.70100680  1
  Ta  Ta101  1  0.49411222  0.10331168  0.09641684  1
  Ta  Ta102  1  0.69800401  0.70114418  0.49886017  1
  Ta  Ta103  1  0.10799323  0.10065817  0.30701535  1
  Ta  Ta104  1  0.40280560  0.60070376  0.20101854  1
  Ta  Ta105  1  0.09091488  0.50338205  0.89738543  1
  Ta  Ta106  1  0.70462537  0.30328436  0.69959233  1
  Ta  Ta107  1  0.60522185  0.39854415  0.80057496  1
  Ta  Ta108  1  0.00104404  0.40024516  0.20012027  1
  Ta  Ta109  1  0.19746283  0.59830520  0.60256696  1
  Ta  Ta110  1  0.29757756  0.70584298  0.69973941  1
  Ta  Ta111  1  0.79868467  0.00118771  0.79285219  1
  Ta  Ta112  1  0.19189105  0.20562533  0.60408308  1
  Ta  Ta113  1  0.79740038  0.60380481  0.59989754  1
  Ta  Ta114  1  0.49338483  0.90723564  0.09776719  1
  Ta  Ta115  1  0.89480010  0.91071173  0.69770327  1
  Ta  Ta116  1  0.39464223  0.39272247  0.40005896  1
  Ta  Ta117  1  0.29428620  0.30312095  0.69936100  1
  Ta  Ta118  1  0.39382968  0.20655024  0.01152807  1
  Ta  Ta119  1  0.90263478  0.29395910  0.10419099  1
  Ta  Ta120  1  0.60361027  0.60584476  0.59845151  1
  Ta  Ta121  1  0.00095513  0.20147698  0.00084056  1
  Ta  Ta122  1  0.60263403  0.60387241  0.00092974  1
  Ta  Ta123  1  0.70517181  0.69596791  0.30740609  1
  Ta  Ta124  1  -0.00534993  0.79878705  0.40350490  1
  Ta  Ta125  1  0.90679088  0.90033678  0.09934828  1
  Ta  Ta126  1  0.90746827  0.09992577  0.10340254  1
  Ta  Ta127  1  0.19301839  0.39771964  0.80176881  1
  Ta  Ta128  1  0.19887543  0.59517278  0.40397254  1
  Ta  Ta129  1  0.19690233  0.80042084  0.18932505  1
  Ta  Ta130  1  0.90005151  0.30612509  0.29748892  1
  Ta  Ta131  1  0.29825115  0.29786555  0.29621025  1
  Ta  Ta132  1  0.81000568  0.60187497  0.79249614  1
  Ta  Ta133  1  0.70868787  0.50001115  0.31276054  1
  Ta  Ta134  1  0.60959866  0.20988018  0.60268460  1
  Ta  Ta135  1  0.69628231  0.32027568  0.30305028  1
  Ta  Ta136  1  0.20024817  0.39344343  0.40219988  1
  Ta  Ta137  1  0.29758764  0.69605813  0.50607872  1
  Ta  Ta138  1  0.81313408  0.78852171  0.19838154  1
  Ta  Ta139  1  0.80479518  0.19749104  0.79072754  1
  Ta  Ta140  1  0.70375104  0.89502248  0.88269862  1
  Ta  Ta141  1  0.49262785  0.90225088  0.89159185  1
  Ta  Ta142  1  0.20466464  0.19514246  0.20562860  1
  Ta  Ta143  1  0.09752721  0.69738311  0.30600795  1
  Ta  Ta144  1  0.20051733  0.79873157  0.60052829  1
  Ta  Ta145  1  0.09802762  0.29427006  0.30038811  1
  Ta  Ta146  1  0.39642935  0.79685446  0.19249256  1
  Ta  Ta147  1  0.50612885  0.89815477  0.50782166  1
  Ta  Ta148  1  0.39935998  0.80467797  0.60108835  1
  Ta  Ta149  1  0.29378430  0.29721912  0.91053666  1
  Ti  Ti150  1  0.59284240  0.80916234  0.78887591  1
  Ti  Ti151  1  -0.00304328  0.39005368  0.40125574  1
  Ti  Ti152  1  0.49374683  0.71012277  0.69909348  1
  Ti  Ti153  1  0.90204965  0.29977776  0.90017091  1
  Ti  Ti154  1  0.89995026  0.69165519  0.49935108  1
  Ti  Ti155  1  0.60687554  -0.01692585  0.61513064  1
  Ti  Ti156  1  0.09243498  0.69255735  0.90376113  1
  Ti  Ti157  1  0.90937907  0.69805121  0.08413333  1
  Ti  Ti158  1  0.39689520  -0.00421097  0.60192017  1
  Ti  Ti159  1  0.29757983  0.50205133  0.49638378  1
  Ti  Ti160  1  0.91006832  0.50214910  0.89282665  1
  Ti  Ti161  1  0.90127338  0.69216259  0.30946407  1
  Ti  Ti162  1  0.60366263  -0.00714492  0.79389970  1
  Ti  Ti163  1  0.70619025  0.29425909  0.09820490  1
  Ti  Ti164  1  0.38654105  0.39209605  0.58452104  1
  Ti  Ti165  1  0.20084770  0.00005691  0.19778704  1
  Ti  Ti166  1  0.10070502  0.29307031  0.49744455  1
  Ti  Ti167  1  0.30801445  0.50046011  0.09374201  1
  Ti  Ti168  1  0.60179544  0.00254062  0.19744315  1
  Ti  Ti169  1  0.91067101  0.68592083  0.89615566  1
  Ti  Ti170  1  0.60421147  0.20957754  0.79208256  1
  Ti  Ti171  1  0.09375462  0.50803484  0.08582401  1
  Ti  Ti172  1  0.00813907  -0.00313900  0.19207095  1
  Ti  Ti173  1  0.80450433  0.59987902  -0.00941769  1
  Ti  Ti174  1  0.69314426  0.89526566  0.50343566  1
  Ti  Ti175  1  0.29838503  0.50539693  0.91439597  1
  Ti  Ti176  1  0.00072391  -0.01033139  0.00195822  1
  Ti  Ti177  1  0.59831404  0.80087096  0.60622161  1
  Ti  Ti178  1  0.70301397  0.70633723  0.70162142  1
  Ti  Ti179  1  -0.00778740  0.59516933  0.61233228  1
  Ti  Ti180  1  0.08713407  0.49600847  0.71046977  1
  Ti  Ti181  1  0.40303428  0.59653373  0.40397533  1
  Ti  Ti182  1  0.20911570  -0.01277741  0.02371142  1
  Ti  Ti183  1  0.49387055  0.69196878  0.09374988  1
  Ti  Ti184  1  0.10358216  0.29881070  0.90050077  1
  Ti  Ti185  1  0.70596180  0.10088752  0.69839385  1
  Ti  Ti186  1  0.50734462  0.70960303  0.50040019  1
  Ti  Ti187  1  -0.00334366  0.00958589  0.78888931  1
  Ti  Ti188  1  0.09222258  0.49877740  0.31073158  1
  Ti  Ti189  1  0.29222439  0.90402459  0.50654654  1
  Ti  Ti190  1  0.09388758  0.69105941  0.08499094  1
  Ti  Ti191  1  0.60972698  0.40808180  0.59489854  1
  Ti  Ti192  1  0.81107581  0.20191774  0.00061773  1
  Ti  Ti193  1  0.50085762  0.49082426  0.49877747  1
  Ti  Ti194  1  0.19746242  0.00305497  0.60678228  1
  Ti  Ti195  1  0.29842546  0.10993174  0.09962911  1
  Ti  Ti196  1  0.49669875  0.70534691  0.89905323  1
  Ti  Ti197  1  0.80517776  0.20876464  0.60556045  1
  Ti  Ti198  1  0.80203702  0.60412051  0.20011670  1
  Ti  Ti199  1  0.90659403  0.29497408  0.69713318  1
  Mo  Mo200  1  0.39850537  0.00250587  0.00460124  1
  Mo  Mo201  1  -0.00245177  0.59987227  -0.00540047  1
  Mo  Mo202  1  0.79746592  0.60666040  0.40374136  1
  Mo  Mo203  1  0.29838638  0.89405899  0.10384535  1
  Mo  Mo204  1  0.19922826  0.00812118  0.78494948  1
  Mo  Mo205  1  0.29228882  0.30130843  0.49766676  1
  Mo  Mo206  1  0.29011721  0.09829338  0.68971539  1
  Mo  Mo207  1  0.70510348  0.08057949  0.28377273  1
  Mo  Mo208  1  -0.00093539  0.00266733  0.61100050  1
  Mo  Mo209  1  0.40916584  0.79859018  0.79675485  1
  Mo  Mo210  1  0.10211954  0.30299434  0.70076633  1
  Mo  Mo211  1  0.89594380  0.10206780  0.70057921  1
  Mo  Mo212  1  0.00340876  0.20248084  0.60192990  1
  Mo  Mo213  1  0.70060702  0.50824710  0.50461581  1
  Mo  Mo214  1  0.49552011  0.30342104  0.30360619  1
  Mo  Mo215  1  0.90326088  0.50801469  0.70028329  1
  Mo  Mo216  1  0.80500022  0.40195346  0.39810695  1
  Mo  Mo217  1  0.09399191  0.09872585  0.69104401  1
  Mo  Mo218  1  0.20004945  0.00245877  0.40279836  1
  Mo  Mo219  1  0.19151691  0.59513940  -0.00571020  1
  Mo  Mo220  1  0.20031537  0.20382756  0.00625323  1
  Mo  Mo221  1  0.90455178  0.91530144  0.89253858  1
  Mo  Mo222  1  0.69805947  0.89596427  0.70605629  1
  Mo  Mo223  1  0.80581665  0.79999855  0.79524899  1
  Mo  Mo224  1  0.59016456  0.20406779  0.01137851  1
  Mo  Mo225  1  -0.00297888  0.59778350  0.79953496  1
  Mo  Mo226  1  0.38188788  0.40009767  0.20345651  1
  Mo  Mo227  1  0.89207188  0.90208733  0.50574385  1
  Mo  Mo228  1  0.00096586  0.20273234  0.20456315  1
  Mo  Mo229  1  0.71290791  0.51304189  0.09571038  1
  Mo  Mo230  1  0.10836224  0.90408553  0.50871905  1
  Mo  Mo231  1  0.50112483  0.89615844  0.69587834  1
  Mo  Mo232  1  0.81129404  0.39048990  -0.00096492  1
  Mo  Mo233  1  0.90244692  0.29731334  0.49762572  1
  Mo  Mo234  1  0.38886413  0.20013922  0.20061495  1
  Mo  Mo235  1  0.19480706  0.20538296  0.39694668  1
  Mo  Mo236  1  0.00439006  0.39768356  0.80346012  1
  Mo  Mo237  1  0.59758766  0.40590462  0.40244857  1
  Mo  Mo238  1  0.00105148  0.79787004  -0.00020970  1
  Mo  Mo239  1  0.61715662  0.40399495  0.20326329  1
  Mo  Mo240  1  0.79100001  -0.00754819  0.60788392  1
  Mo  Mo241  1  0.60222903  0.79658268  0.41112148  1
  Mo  Mo242  1  0.40595329  0.60298940  -0.00091262  1
  Mo  Mo243  1  0.29009358  0.09995779  0.29884608  1
  Mo  Mo244  1  0.29616957  0.29562213  0.10429719  1
  Mo  Mo245  1  0.38367136  0.39716450  0.00745303  1
  Mo  Mo246  1  0.80673087  -0.00101547  0.19397993  1
  Mo  Mo247  1  0.00085162  0.60571095  0.39204275  1
  Mo  Mo248  1  0.19227464  0.79273234  0.80061955  1
  Mo  Mo249  1  0.09844296  0.90220813  0.09911394  1
