# generated using pymatgen
data_HfZrTaTiMo
_symmetry_space_group_name_H-M   'P 1'
_cell_length_a   16.88246324
_cell_length_b   16.88724899
_cell_length_c   16.89406277
_cell_angle_alpha   90.02319885
_cell_angle_beta   89.97789379
_cell_angle_gamma   90.00620032
_symmetry_Int_Tables_number   1
_chemical_formula_structural   HfZrTaTiMo
_chemical_formula_sum   'Hf50 Zr50 Ta50 Ti50 Mo50'
_cell_volume   4816.46881225
_cell_formula_units_Z   50
loop_
 _symmetry_equiv_pos_site_id
 _symmetry_equiv_pos_as_xyz
  1  'x, y, z'
loop_
 _atom_site_type_symbol
 _atom_site_label
 _atom_site_symmetry_multiplicity
 _atom_site_fract_x
 _atom_site_fract_y
 _atom_site_fract_z
 _atom_site_occupancy
  Hf  Hf0  1  0.49628617  0.68321870  0.89483386  1
  Hf  Hf1  1  0.79985503  0.78992401  0.79313586  1
  Hf  Hf2  1  0.00113499  0.40106097  0.20457116  1
  Hf  Hf3  1  -0.00662349  0.18571012  0.21265540  1
  Hf  Hf4  1  0.39595502  0.59789443  0.59618230  1
  Hf  Hf5  1  0.89462644  0.49225117  0.89490928  1
  Hf  Hf6  1  0.59984196  0.40484704  -0.00134605  1
  Hf  Hf7  1  0.00330234  0.60877664  0.60840485  1
  Hf  Hf8  1  0.20007890  0.40980296  0.39418910  1
  Hf  Hf9  1  0.90656765  0.89216790  0.50074078  1
  Hf  Hf10  1  0.40903697  0.19710055  0.20705984  1
  Hf  Hf11  1  0.19498302  -0.00449380  -0.00198240  1
  Hf  Hf12  1  0.50612102  0.49684545  0.50362085  1
  Hf  Hf13  1  0.89872892  0.89633196  0.90147029  1
  Hf  Hf14  1  0.29519471  0.29280808  0.09701841  1
  Hf  Hf15  1  0.09584887  0.29714435  0.49774642  1
  Hf  Hf16  1  0.89738190  0.70725560  0.49974299  1
  Hf  Hf17  1  0.01187820  0.79755041  0.00209687  1
  Hf  Hf18  1  0.69859912  0.10434288  0.49728967  1
  Hf  Hf19  1  0.59778188  0.00238784  0.59927808  1
  Hf  Hf20  1  0.31578605  0.30947451  0.69918975  1
  Hf  Hf21  1  0.19685651  0.79958850  0.00209241  1
  Hf  Hf22  1  0.29828306  0.70713002  0.69389900  1
  Hf  Hf23  1  0.69791140  0.29925176  0.30465785  1
  Hf  Hf24  1  0.68444623  0.50341283  0.69541412  1
  Hf  Hf25  1  0.19987042  0.00162540  0.79193027  1
  Hf  Hf26  1  0.88671228  0.71090726  0.09211987  1
  Hf  Hf27  1  0.40455945  0.40875952  -0.00292404  1
  Hf  Hf28  1  0.20553727  0.59247809  0.21233815  1
  Hf  Hf29  1  0.40854096  0.79145668  0.20214319  1
  Hf  Hf30  1  0.40793928  0.19814526  0.39770587  1
  Hf  Hf31  1  0.40568262  0.00289909  0.40398715  1
  Hf  Hf32  1  0.30285586  0.69702495  0.89634641  1
  Hf  Hf33  1  0.09337450  0.70271711  0.30756504  1
  Hf  Hf34  1  0.40763559  0.18997724  0.01089694  1
  Hf  Hf35  1  0.30776227  0.30230253  0.50032914  1
  Hf  Hf36  1  0.19795716  0.40562716  0.20921169  1
  Hf  Hf37  1  0.19797901  0.80834254  0.40518217  1
  Hf  Hf38  1  0.30432021  0.69489659  0.09788385  1
  Hf  Hf39  1  0.80655202  -0.00188057  0.59703201  1
  Hf  Hf40  1  0.89963025  0.29640547  0.30814540  1
  Hf  Hf41  1  0.79097209  0.60910413  0.20610249  1
  Hf  Hf42  1  0.88860230  0.49614139  0.08885681  1
  Hf  Hf43  1  0.69812372  0.89189476  0.69717962  1
  Hf  Hf44  1  0.01487289  0.20299565  0.80612578  1
  Hf  Hf45  1  0.80076661  0.60872867  0.60520424  1
  Hf  Hf46  1  0.09686479  0.50696566  0.89029860  1
  Hf  Hf47  1  0.70629866  0.29940402  0.89340264  1
  Hf  Hf48  1  0.30114569  0.90048039  0.29664043  1
  Hf  Hf49  1  0.09274183  0.90180372  0.89307152  1
  Zr  Zr50  1  0.60208327  0.00618446  0.00301938  1
  Zr  Zr51  1  -0.00354709  0.00908398  0.39571951  1
  Zr  Zr52  1  0.30429033  0.70811082  0.50002610  1
  Zr  Zr53  1  0.50946225  0.69638320  0.48972365  1
  Zr  Zr54  1  0.00302345  0.39181744  -0.00908933  1
  Zr  Zr55  1  0.20203579  0.40039381  -0.00820950  1
  Zr  Zr56  1  0.20165680  0.19629615  0.60154970  1
  Zr  Zr57  1  0.90556335  0.10293266  0.90837197  1
  Zr  Zr58  1  0.71097419  0.88796105  0.09846928  1
  Zr  Zr59  1  0.79540377  0.40330576  0.59651278  1
  Zr  Zr60  1  0.80089729  -0.00110744  0.79592597  1
  Zr  Zr61  1  0.60143611  -0.00464785  0.40339115  1
  Zr  Zr62  1  0.19713139  0.19965816  0.79285315  1
  Zr  Zr63  1  0.78882050  0.60896423  -0.00913065  1
  Zr  Zr64  1  0.88673110  0.51031860  0.31260774  1
  Zr  Zr65  1  0.79407594  0.39969546  0.20157108  1
  Zr  Zr66  1  0.50568698  0.88922229  0.89798184  1
  Zr  Zr67  1  -0.00805312  0.60281188  0.20209016  1
  Zr  Zr68  1  0.48915529  0.29676455  0.89163680  1
  Zr  Zr69  1  0.90550337  0.49848590  0.71089634  1
  Zr  Zr70  1  0.88817732  0.30511868  0.71640183  1
  Zr  Zr71  1  0.50773232  0.89031434  0.09429688  1
  Zr  Zr72  1  0.41942574  0.00338692  0.19743280  1
  Zr  Zr73  1  0.59912896  0.00432237  0.79634150  1
  Zr  Zr74  1  0.39473732  0.41017656  0.20809454  1
  Zr  Zr75  1  0.19406964  0.19012069  0.20394162  1
  Zr  Zr76  1  0.59595392  0.19431293  0.20574352  1
  Zr  Zr77  1  -0.00369215  0.80082765  0.20291333  1
  Zr  Zr78  1  0.19888541  0.59714903  0.40505232  1
  Zr  Zr79  1  0.08576421  0.09394438  0.08622128  1
  Zr  Zr80  1  0.40541699  0.00040687  0.79274575  1
  Zr  Zr81  1  0.00281284  0.41194630  0.40133175  1
  Zr  Zr82  1  0.09707379  0.90335000  0.30307939  1
  Zr  Zr83  1  0.00523510  0.19955865  0.61497640  1
  Zr  Zr84  1  0.60280141  0.19567956  0.00372717  1
  Zr  Zr85  1  0.39950609  0.80049156  0.79543482  1
  Zr  Zr86  1  0.58851469  0.39543343  0.79491489  1
  Zr  Zr87  1  0.79564093  0.20320184  0.59895183  1
  Zr  Zr88  1  0.30419270  0.10208161  0.90203752  1
  Zr  Zr89  1  0.90165034  0.90710957  0.09693026  1
  Zr  Zr90  1  0.60345830  0.78937520  0.20813367  1
  Zr  Zr91  1  0.09859500  0.50469324  0.09722703  1
  Zr  Zr92  1  0.50444452  0.31085428  0.10780801  1
  Zr  Zr93  1  0.00258894  0.00707497  0.78760876  1
  Zr  Zr94  1  0.09686538  0.28757987  0.09376370  1
  Zr  Zr95  1  0.50627401  0.69395167  0.69460197  1
  Zr  Zr96  1  0.19751035  0.41103995  0.60015539  1
  Zr  Zr97  1  0.29675056  0.09278453  0.29737629  1
  Zr  Zr98  1  0.79561634  0.60625382  0.79706248  1
  Zr  Zr99  1  0.31397960  0.50859963  0.88882600  1
  Ta  Ta100  1  0.19872774  0.80228276  0.19434181  1
  Ta  Ta101  1  0.09771394  0.10072164  0.49947924  1
  Ta  Ta102  1  0.80142002  0.20061421  0.40265854  1
  Ta  Ta103  1  0.29847126  0.29896334  0.30582418  1
  Ta  Ta104  1  0.79495567  0.00193434  -0.00074928  1
  Ta  Ta105  1  0.49211159  0.49551902  0.69931719  1
  Ta  Ta106  1  0.19624363  0.60478520  0.79007421  1
  Ta  Ta107  1  0.89623279  0.29217065  0.09442579  1
  Ta  Ta108  1  0.70857606  0.09660524  0.10840956  1
  Ta  Ta109  1  0.29727865  0.09307531  0.09849691  1
  Ta  Ta110  1  0.00125226  0.40097366  0.60388310  1
  Ta  Ta111  1  0.19374454  0.60313283  0.60204090  1
  Ta  Ta112  1  0.69562318  0.49910960  0.89577390  1
  Ta  Ta113  1  0.30775690  0.90235541  0.50607090  1
  Ta  Ta114  1  0.69277204  0.50510878  0.30864781  1
  Ta  Ta115  1  0.50412355  0.51231273  0.10225119  1
  Ta  Ta116  1  0.90713244  0.70745784  0.89590137  1
  Ta  Ta117  1  0.40763308  0.80114608  0.39468711  1
  Ta  Ta118  1  0.59544333  0.19522502  0.78790092  1
  Ta  Ta119  1  0.50819594  0.50575623  0.30416082  1
  Ta  Ta120  1  0.80327928  0.00014114  0.21099573  1
  Ta  Ta121  1  0.60484412  0.80304865  0.59057071  1
  Ta  Ta122  1  0.88954137  0.29885713  0.90271914  1
  Ta  Ta123  1  0.00431324  0.00084593  0.59985919  1
  Ta  Ta124  1  0.40677315  0.60313876  0.20609761  1
  Ta  Ta125  1  0.49819258  0.89354430  0.68742412  1
  Ta  Ta126  1  0.90286944  0.30040890  0.49821737  1
  Ta  Ta127  1  0.20024120  0.19187428  0.40201877  1
  Ta  Ta128  1  0.30182206  0.90080148  0.09867567  1
  Ta  Ta129  1  0.70508154  0.10060058  0.30463999  1
  Ta  Ta130  1  0.79188013  0.40030690  0.41027647  1
  Ta  Ta131  1  0.69544433  0.69481090  0.32198953  1
  Ta  Ta132  1  0.69936976  0.70032782  0.50172992  1
  Ta  Ta133  1  0.00150715  0.60905006  -0.00676767  1
  Ta  Ta134  1  0.09906060  0.29060189  0.30869006  1
  Ta  Ta135  1  0.30074216  0.89723066  0.68766089  1
  Ta  Ta136  1  0.79674427  0.19670848  0.00485103  1
  Ta  Ta137  1  0.59314565  0.20445730  0.60655003  1
  Ta  Ta138  1  0.60849723  -0.00007811  0.20689013  1
  Ta  Ta139  1  0.30299569  0.29566877  0.89537462  1
  Ta  Ta140  1  0.30855202  0.09164190  0.68510353  1
  Ta  Ta141  1  0.20002663  0.39804559  0.79809733  1
  Ta  Ta142  1  0.19803902  -0.00144296  0.59390528  1
  Ta  Ta143  1  0.09918481  0.89241010  0.69248887  1
  Ta  Ta144  1  0.69332911  0.50202219  0.10046445  1
  Ta  Ta145  1  0.69926750  0.88756036  0.89973987  1
  Ta  Ta146  1  0.20085443  0.00366021  0.41056789  1
  Ta  Ta147  1  0.19472540  0.60559402  -0.00794997  1
  Ta  Ta148  1  0.50015332  0.30732053  0.50799058  1
  Ta  Ta149  1  0.30139322  0.89609658  0.90165923  1
  Ti  Ti150  1  0.69724046  0.30188224  0.70236017  1
  Ti  Ti151  1  0.89339265  0.10825608  0.70426669  1
  Ti  Ti152  1  0.70202140  0.89706423  0.30956647  1
  Ti  Ti153  1  0.89791773  0.89420361  0.30836165  1
  Ti  Ti154  1  0.70304589  0.10593219  0.70115890  1
  Ti  Ti155  1  0.30366294  0.50925645  0.09485177  1
  Ti  Ti156  1  0.01524017  0.38597713  0.80048144  1
  Ti  Ti157  1  0.89826132  0.50327847  0.50335788  1
  Ti  Ti158  1  0.90447064  0.10972911  0.49729429  1
  Ti  Ti159  1  0.70644789  0.30245226  0.09904472  1
  Ti  Ti160  1  0.40358275  0.79382668  0.00261898  1
  Ti  Ti161  1  0.19182603  0.80394300  0.59413812  1
  Ti  Ti162  1  0.00730310  0.62165766  0.79711783  1
  Ti  Ti163  1  0.30837021  0.49673933  0.49767783  1
  Ti  Ti164  1  0.50064550  0.10059282  0.89727976  1
  Ti  Ti165  1  0.09876342  0.50182575  0.70398640  1
  Ti  Ti166  1  0.79957767  0.79546766  0.21857382  1
  Ti  Ti167  1  0.79334271  0.80268196  0.40540593  1
  Ti  Ti168  1  0.59888923  0.39795835  0.40000641  1
  Ti  Ti169  1  -0.00566532  0.60600880  0.40188831  1
  Ti  Ti170  1  0.80182435  0.19392455  0.20223845  1
  Ti  Ti171  1  0.49932242  0.10334525  0.50609750  1
  Ti  Ti172  1  0.59192297  0.20266219  0.40049206  1
  Ti  Ti173  1  0.89683472  0.09762389  0.09745568  1
  Ti  Ti174  1  0.19179109  0.79671095  0.79792229  1
  Ti  Ti175  1  0.09284226  0.50890290  0.50300103  1
  Ti  Ti176  1  0.40866447  0.19404155  0.78514234  1
  Ti  Ti177  1  0.30522953  0.50068110  0.70166233  1
  Ti  Ti178  1  0.40355386  -0.00192891  0.00233762  1
  Ti  Ti179  1  0.70552975  0.10444913  0.89478036  1
  Ti  Ti180  1  0.30060550  0.70354418  0.30207102  1
  Ti  Ti181  1  0.59758190  0.60610080  0.20382183  1
  Ti  Ti182  1  0.08937897  0.71285613  0.50137779  1
  Ti  Ti183  1  0.69094619  0.30183523  0.50175556  1
  Ti  Ti184  1  -0.00511211  0.00232551  0.20576148  1
  Ti  Ti185  1  0.49762770  0.89276273  0.50237660  1
  Ti  Ti186  1  0.68504609  0.70007787  0.69746185  1
  Ti  Ti187  1  0.60482616  0.78156959  -0.00609524  1
  Ti  Ti188  1  0.40104235  0.59953280  0.38965607  1
  Ti  Ti189  1  0.69725778  0.70034771  0.09682283  1
  Ti  Ti190  1  0.59811726  0.59817992  -0.00283399  1
  Ti  Ti191  1  0.59964438  0.40555130  0.20663943  1
  Ti  Ti192  1  0.50952792  0.89313444  0.30581105  1
  Ti  Ti193  1  0.40542118  0.39975339  0.39421124  1
  Ti  Ti194  1  0.69130042  0.50937508  0.49865272  1
  Ti  Ti195  1  0.10363250  0.69462362  0.10531122  1
  Ti  Ti196  1  0.18987744  -0.00449050  0.19507512  1
  Ti  Ti197  1  0.80254169  0.00147804  0.40064700  1
  Ti  Ti198  1  0.40587504  0.19431264  0.59917664  1
  Ti  Ti199  1  0.90752139  0.88351709  0.69145030  1
  Mo  Mo200  1  0.39623179  0.59614143  0.78482280  1
  Mo  Mo201  1  0.79237093  0.39518034  0.00238599  1
  Mo  Mo202  1  0.20144894  0.19268647  -0.00984004  1
  Mo  Mo203  1  0.70986132  0.89583587  0.50119675  1
  Mo  Mo204  1  0.79538171  0.79853066  0.59997707  1
  Mo  Mo205  1  0.10224782  0.90195745  0.10647218  1
  Mo  Mo206  1  0.10562107  0.31509461  0.69893981  1
  Mo  Mo207  1  0.30122461  0.09814677  0.50186185  1
  Mo  Mo208  1  0.11022215  0.29640712  0.89854416  1
  Mo  Mo209  1  0.00062549  0.79713266  0.79271631  1
  Mo  Mo210  1  0.78805631  0.40139532  0.80290595  1
  Mo  Mo211  1  0.68608407  0.69926339  0.89145973  1
  Mo  Mo212  1  0.60223664  0.59580984  0.40238885  1
  Mo  Mo213  1  -0.00190624  0.19691889  0.40491295  1
  Mo  Mo214  1  0.10170265  0.10235561  0.90252215  1
  Mo  Mo215  1  0.50369977  0.31191619  0.31196644  1
  Mo  Mo216  1  0.31315375  0.50209948  0.30769842  1
  Mo  Mo217  1  0.50403323  0.69066243  0.09519273  1
  Mo  Mo218  1  0.50319553  0.50620434  0.89616952  1
  Mo  Mo219  1  0.40125624  -0.00111858  0.59363928  1
  Mo  Mo220  1  0.50756574  0.09120047  0.10276086  1
  Mo  Mo221  1  -0.00307797  0.80135650  0.40248386  1
  Mo  Mo222  1  0.49715291  0.29748752  0.69181789  1
  Mo  Mo223  1  0.10634503  0.08800596  0.69352097  1
  Mo  Mo224  1  0.59901162  0.39393702  0.59632934  1
  Mo  Mo225  1  0.40128497  0.40537068  0.59783251  1
  Mo  Mo226  1  0.40228910  0.59966810  0.01263586  1
  Mo  Mo227  1  0.91041525  0.70877356  0.69943725  1
  Mo  Mo228  1  -0.00853367  0.20085221  -0.00218723  1
  Mo  Mo229  1  0.10160592  0.90489612  0.50422698  1
  Mo  Mo230  1  0.60172097  0.79484190  0.79559861  1
  Mo  Mo231  1  0.49823240  0.10162519  0.69235732  1
  Mo  Mo232  1  0.10685198  0.70683452  0.69805797  1
  Mo  Mo233  1  0.88892602  0.70832200  0.31330981  1
  Mo  Mo234  1  0.09965689  0.09672862  0.30688443  1
  Mo  Mo235  1  0.59441735  0.59427029  0.80114544  1
  Mo  Mo236  1  0.09157758  0.50627225  0.30548237  1
  Mo  Mo237  1  0.79409760  0.59736860  0.41036011  1
  Mo  Mo238  1  0.39664957  0.40261613  0.79681889  1
  Mo  Mo239  1  0.60189375  0.59992796  0.59852976  1
  Mo  Mo240  1  0.40620632  0.80444176  0.59270143  1
  Mo  Mo241  1  0.79229199  0.79801195  -0.01372861  1
  Mo  Mo242  1  -0.00410365  -0.00319257  -0.00011615  1
  Mo  Mo243  1  0.50233837  0.69400412  0.30240054  1
  Mo  Mo244  1  0.88833075  0.09848418  0.30263597  1
  Mo  Mo245  1  0.60330778  0.80337148  0.40304635  1
  Mo  Mo246  1  0.00565786  0.80203356  0.60056573  1
  Mo  Mo247  1  0.10218119  0.70040848  0.89273910  1
  Mo  Mo248  1  0.51367010  0.09716577  0.30746377  1
  Mo  Mo249  1  0.79089572  0.19749450  0.80241624  1
