# generated using pymatgen
data_HfZrTaTiMo
_symmetry_space_group_name_H-M   'P 1'
_cell_length_a   16.89381847
_cell_length_b   16.88898148
_cell_length_c   16.89225498
_cell_angle_alpha   89.98041117
_cell_angle_beta   89.96096101
_cell_angle_gamma   90.00402989
_symmetry_Int_Tables_number   1
_chemical_formula_structural   HfZrTaTiMo
_chemical_formula_sum   'Hf50 Zr50 Ta50 Ti50 Mo50'
_cell_volume   4819.68642714
_cell_formula_units_Z   50
loop_
 _symmetry_equiv_pos_site_id
 _symmetry_equiv_pos_as_xyz
  1  'x, y, z'
loop_
 _atom_site_type_symbol
 _atom_site_label
 _atom_site_symmetry_multiplicity
 _atom_site_fract_x
 _atom_site_fract_y
 _atom_site_fract_z
 _atom_site_occupancy
  Hf  Hf0  1  0.59329834  0.59895138  0.19107679  1
  Hf  Hf1  1  0.70419668  0.49269922  0.30675836  1
  Hf  Hf2  1  0.29549314  0.90668487  0.29676064  1
  Hf  Hf3  1  0.09718811  0.10290910  0.30166011  1
  Hf  Hf4  1  0.81177916  0.40412053  0.19475836  1
  Hf  Hf5  1  0.59444190  0.80388156  0.40751881  1
  Hf  Hf6  1  0.49600066  0.50141552  0.88861726  1
  Hf  Hf7  1  0.81113237  0.59794210  0.60593040  1
  Hf  Hf8  1  0.39560970  0.80314785  0.61074393  1
  Hf  Hf9  1  0.88894884  0.90625675  0.89383485  1
  Hf  Hf10  1  0.40343156  -0.00539213  0.78860422  1
  Hf  Hf11  1  0.30388531  0.30267789  0.10936783  1
  Hf  Hf12  1  0.20295342  0.20460315  -0.00089327  1
  Hf  Hf13  1  0.80221776  0.79383043  -0.00073225  1
  Hf  Hf14  1  0.28748782  0.09319352  0.10806922  1
  Hf  Hf15  1  0.59291962  0.20966417  0.60560160  1
  Hf  Hf16  1  0.09593783  0.50149201  0.31074841  1
  Hf  Hf17  1  0.81156817  0.58795886  0.79827604  1
  Hf  Hf18  1  0.80994134  0.60242335  0.19326334  1
  Hf  Hf19  1  0.10489249  0.10401455  0.69576703  1
  Hf  Hf20  1  0.60651330  -0.00202390  0.20382340  1
  Hf  Hf21  1  0.90756087  0.49615492  0.31088763  1
  Hf  Hf22  1  0.20365817  0.40125287  -0.01064307  1
  Hf  Hf23  1  0.59426649  0.59687629  0.40051070  1
  Hf  Hf24  1  0.29666135  0.09330033  0.88904339  1
  Hf  Hf25  1  0.09565587  0.69901266  0.30453651  1
  Hf  Hf26  1  0.80925880  0.60587738  0.40900700  1
  Hf  Hf27  1  0.69108989  0.69904845  0.51383276  1
  Hf  Hf28  1  0.28243760  0.90063393  0.70428137  1
  Hf  Hf29  1  0.80919557  0.80128424  0.41112960  1
  Hf  Hf30  1  0.49718757  0.68749946  0.52115688  1
  Hf  Hf31  1  0.70884613  0.30609073  0.50066641  1
  Hf  Hf32  1  0.09989321  0.30452324  0.69548767  1
  Hf  Hf33  1  0.91737215  0.49727797  0.50525246  1
  Hf  Hf34  1  0.40284466  -0.00593920  0.59497383  1
  Hf  Hf35  1  0.19805461  0.39461259  0.21192754  1
  Hf  Hf36  1  0.69882562  0.89926339  0.51613258  1
  Hf  Hf37  1  0.49256665  0.29406976  0.30045493  1
  Hf  Hf38  1  0.90812945  0.10273304  0.30300630  1
  Hf  Hf39  1  0.80422891  0.20241343  0.79994658  1
  Hf  Hf40  1  0.90206121  0.90232095  0.10221179  1
  Hf  Hf41  1  0.39659370  0.81198541  0.42072499  1
  Hf  Hf42  1  0.50307197  0.69511297  0.88802034  1
  Hf  Hf43  1  0.68402739  0.69189868  0.70060759  1
  Hf  Hf44  1  0.10407725  0.70081481  0.09257288  1
  Hf  Hf45  1  0.59675129  -0.00259483  0.40301391  1
  Hf  Hf46  1  0.50771486  0.10919370  0.10672010  1
  Hf  Hf47  1  0.10133261  0.10535764  0.90014946  1
  Hf  Hf48  1  -0.00180056  0.00523864  0.79861456  1
  Hf  Hf49  1  0.79996424  0.78770770  0.79694882  1
  Zr  Zr50  1  0.49203805  0.90197865  0.30032462  1
  Zr  Zr51  1  0.48528892  0.49399228  0.29717034  1
  Zr  Zr52  1  0.88996538  0.90539350  0.69734196  1
  Zr  Zr53  1  0.70011913  0.70052136  0.29967566  1
  Zr  Zr54  1  0.28338289  0.69611132  0.51567734  1
  Zr  Zr55  1  0.48832099  0.50212175  0.50367455  1
  Zr  Zr56  1  0.40205418  0.61098895  0.18715002  1
  Zr  Zr57  1  -0.00425419  0.59838405  0.18640128  1
  Zr  Zr58  1  0.29851519  0.30069852  0.70102448  1
  Zr  Zr59  1  0.70598827  0.49459519  0.08535498  1
  Zr  Zr60  1  0.20358742  0.58973406  0.79413035  1
  Zr  Zr61  1  0.50029459  0.51021636  0.69757827  1
  Zr  Zr62  1  0.39777296  -0.00280251  0.19536441  1
  Zr  Zr63  1  0.40036988  0.20411373  -0.00763143  1
  Zr  Zr64  1  0.69744478  0.68277897  0.89957316  1
  Zr  Zr65  1  0.48629399  0.70645072  0.30169573  1
  Zr  Zr66  1  0.49954426  0.29774131  0.11002166  1
  Zr  Zr67  1  0.59209371  0.38947088  0.79586965  1
  Zr  Zr68  1  0.29909758  0.50268058  0.30400546  1
  Zr  Zr69  1  0.69848960  0.29971271  0.10066647  1
  Zr  Zr70  1  0.80299300  0.79669720  0.19682843  1
  Zr  Zr71  1  0.00082565  0.00060829  0.58322847  1
  Zr  Zr72  1  0.00453199  0.80073358  0.79766881  1
  Zr  Zr73  1  0.19217240  0.80224525  0.40350326  1
  Zr  Zr74  1  0.00250410  0.40937835  -0.00259712  1
  Zr  Zr75  1  0.18620080  -0.00164106  0.40376749  1
  Zr  Zr76  1  0.30392474  0.49692119  0.10267658  1
  Zr  Zr77  1  0.90846211  0.29806183  0.10010645  1
  Zr  Zr78  1  0.70925467  0.31329101  0.90034220  1
  Zr  Zr79  1  0.80843490  0.19595520  -0.00843490  1
  Zr  Zr80  1  0.40061007  -0.00860929  0.00298697  1
  Zr  Zr81  1  0.49041594  0.10414903  0.49156198  1
  Zr  Zr82  1  0.39562229  0.39348358  0.60001449  1
  Zr  Zr83  1  0.70052356  0.30421397  0.30338003  1
  Zr  Zr84  1  0.89609225  0.10898300  0.69248021  1
  Zr  Zr85  1  0.91145884  0.10591259  0.10291524  1
  Zr  Zr86  1  0.00229631  0.41271427  0.79881102  1
  Zr  Zr87  1  0.69285173  0.90558861  0.70946285  1
  Zr  Zr88  1  0.69858691  0.10867962  0.10363909  1
  Zr  Zr89  1  0.70084769  0.10721903  0.50887439  1
  Zr  Zr90  1  0.00420450  0.00283084  -0.00329793  1
  Zr  Zr91  1  0.50211737  0.10022935  0.89217696  1
  Zr  Zr92  1  0.51258728  0.89746836  0.88803496  1
  Zr  Zr93  1  0.69892484  0.49342068  0.50438776  1
  Zr  Zr94  1  0.80011807  -0.00012589  0.39987799  1
  Zr  Zr95  1  -0.00566099  0.80110952  0.59157929  1
  Zr  Zr96  1  0.11448076  0.70119131  0.69132317  1
  Zr  Zr97  1  0.60403784  0.80012163  0.00079978  1
  Zr  Zr98  1  0.29353307  0.70320891  0.09046633  1
  Zr  Zr99  1  0.00614199  0.80329367  -0.00463645  1
  Ta  Ta100  1  0.10064876  0.29821644  0.89617830  1
  Ta  Ta101  1  0.58538837  0.59241784  0.00533449  1
  Ta  Ta102  1  0.29627685  0.10085047  0.69490165  1
  Ta  Ta103  1  0.49369096  0.10604631  0.30380327  1
  Ta  Ta104  1  0.10820570  0.69792151  0.89731959  1
  Ta  Ta105  1  0.59933230  0.20706603  -0.01704941  1
  Ta  Ta106  1  0.39877899  0.59951792  -0.00678015  1
  Ta  Ta107  1  0.40013492  0.79898553  -0.00323528  1
  Ta  Ta108  1  0.10809954  0.90595750  0.10834284  1
  Ta  Ta109  1  0.80470478  0.20034707  0.21091313  1
  Ta  Ta110  1  0.70007431  0.49151977  0.69989834  1
  Ta  Ta111  1  0.19748112  0.60427012  0.20265756  1
  Ta  Ta112  1  0.60809161  0.00205562  -0.00073576  1
  Ta  Ta113  1  0.09389991  0.68591700  0.50446231  1
  Ta  Ta114  1  0.00294477  -0.00251705  0.20346080  1
  Ta  Ta115  1  0.90894780  0.30066698  0.30426179  1
  Ta  Ta116  1  0.09785600  0.29344660  0.10183930  1
  Ta  Ta117  1  0.81446940  0.39980706  0.60352455  1
  Ta  Ta118  1  0.80819614  0.20699465  0.40320610  1
  Ta  Ta119  1  0.69847545  0.09520322  0.89028168  1
  Ta  Ta120  1  0.20325598  0.20300938  0.59380881  1
  Ta  Ta121  1  0.20238001  0.39101614  0.40683260  1
  Ta  Ta122  1  0.91069950  0.69198834  0.89758909  1
  Ta  Ta123  1  0.69820559  0.10149880  0.70173497  1
  Ta  Ta124  1  0.90766779  0.89685862  0.29962619  1
  Ta  Ta125  1  0.29697815  0.10308756  0.49610210  1
  Ta  Ta126  1  0.10758438  0.49851642  0.10059657  1
  Ta  Ta127  1  0.39725738  0.79587779  0.79545477  1
  Ta  Ta128  1  0.38556569  0.38708250  0.40314518  1
  Ta  Ta129  1  0.10254091  0.30186291  0.50327921  1
  Ta  Ta130  1  0.59832087  0.79673346  0.19105903  1
  Ta  Ta131  1  0.91310306  0.70165982  0.30871218  1
  Ta  Ta132  1  0.90515510  0.30250780  0.69381129  1
  Ta  Ta133  1  0.40213685  0.40147405  -0.00868096  1
  Ta  Ta134  1  0.20066408  0.80272460  0.19957032  1
  Ta  Ta135  1  0.19811280  0.20123999  0.20902924  1
  Ta  Ta136  1  0.58546052  0.39612181  0.40366338  1
  Ta  Ta137  1  0.10884273  0.90639621  0.69295367  1
  Ta  Ta138  1  0.29622722  0.70471440  0.89678593  1
  Ta  Ta139  1  0.29822698  0.10100140  0.31026929  1
  Ta  Ta140  1  0.69966796  0.69153182  0.09373102  1
  Ta  Ta141  1  0.29615887  0.89608485  0.89538832  1
  Ta  Ta142  1  0.20205630  0.20390942  0.79805833  1
  Ta  Ta143  1  0.59774512  0.20555002  0.79532324  1
  Ta  Ta144  1  0.00566995  0.59537898  -0.00751099  1
  Ta  Ta145  1  0.59330419  0.40601000  0.19762106  1
  Ta  Ta146  1  0.80163506  0.00104959  0.20379874  1
  Ta  Ta147  1  0.58572700  0.39924849  -0.00257432  1
  Ta  Ta148  1  0.79618770  0.00357706  -0.00268916  1
  Ta  Ta149  1  0.71035435  0.30101118  0.69437418  1
  Ti  Ti150  1  0.39511280  0.80376841  0.18404379  1
  Ti  Ti151  1  0.80285760  0.00460904  0.59672159  1
  Ti  Ti152  1  0.58737422  0.00088502  0.60788466  1
  Ti  Ti153  1  0.20128402  0.40868317  0.80104806  1
  Ti  Ti154  1  0.38349107  0.59924693  0.79816271  1
  Ti  Ti155  1  0.20195464  0.58980283  -0.01067113  1
  Ti  Ti156  1  0.69943628  0.90716880  0.88968312  1
  Ti  Ti157  1  0.19966774  -0.00606684  0.00186551  1
  Ti  Ti158  1  0.59301424  0.39354005  0.60091412  1
  Ti  Ti159  1  0.60112363  0.20357473  0.40013195  1
  Ti  Ti160  1  0.49134532  0.29503040  0.49443311  1
  Ti  Ti161  1  -0.00371302  0.20906725  0.58940471  1
  Ti  Ti162  1  0.90741722  0.30346485  0.90113229  1
  Ti  Ti163  1  0.30759197  0.30295184  0.88682556  1
  Ti  Ti164  1  0.82035972  0.59241625  0.00214074  1
  Ti  Ti165  1  0.70395258  0.90124826  0.10017238  1
  Ti  Ti166  1  0.49644954  0.10748527  0.70241456  1
  Ti  Ti167  1  0.91563013  0.69009417  0.69905068  1
  Ti  Ti168  1  0.37401029  0.59878962  0.61934148  1
  Ti  Ti169  1  0.38822442  0.60379759  0.40784414  1
  Ti  Ti170  1  -0.00361240  -0.01102735  0.40613191  1
  Ti  Ti171  1  0.11686539  0.90324730  0.88392430  1
  Ti  Ti172  1  0.19903853  0.59669573  0.40441275  1
  Ti  Ti173  1  0.09703236  0.29310347  0.30538910  1
  Ti  Ti174  1  0.89639076  0.10854336  0.49862099  1
  Ti  Ti175  1  0.00582083  0.39990005  0.19915136  1
  Ti  Ti176  1  0.81024807  0.79164624  0.59925552  1
  Ti  Ti177  1  -0.00328026  0.20246457  0.80584852  1
  Ti  Ti178  1  -0.00055523  0.20572985  0.40801322  1
  Ti  Ti179  1  0.09896100  0.10469153  0.10570188  1
  Ti  Ti180  1  0.81235544  0.40537838  0.79714299  1
  Ti  Ti181  1  0.29811192  0.70459446  0.30160904  1
  Ti  Ti182  1  0.50374631  0.69247928  0.70704360  1
  Ti  Ti183  1  0.28935400  0.49502940  0.50783533  1
  Ti  Ti184  1  0.00562424  0.39053339  0.40885828  1
  Ti  Ti185  1  -0.00248549  0.80282802  0.41067510  1
  Ti  Ti186  1  0.39672410  0.20139221  0.59930852  1
  Ti  Ti187  1  0.10423380  0.10954918  0.49865809  1
  Ti  Ti188  1  0.58166178  0.81030592  0.61006302  1
  Ti  Ti189  1  0.00041598  0.79704038  0.19423575  1
  Ti  Ti190  1  0.70083752  0.49709561  0.89998659  1
  Ti  Ti191  1  0.69921385  0.10810642  0.30149848  1
  Ti  Ti192  1  0.00899828  0.59016514  0.79894073  1
  Ti  Ti193  1  0.20162541  0.80990397  -0.00256911  1
  Ti  Ti194  1  0.70366781  0.89409811  0.29819194  1
  Ti  Ti195  1  0.38880682  0.19691124  0.20986435  1
  Ti  Ti196  1  0.50592544  0.89811646  0.09753865  1
  Ti  Ti197  1  0.28281919  0.90979511  0.50989284  1
  Ti  Ti198  1  0.10291721  0.49762522  0.50923565  1
  Ti  Ti199  1  0.09259812  0.89697325  0.29555372  1
  Mo  Mo200  1  0.00619538  0.39798511  0.59977629  1
  Mo  Mo201  1  0.90884708  0.49897051  0.09533970  1
  Mo  Mo202  1  0.29521372  0.29219724  0.49911381  1
  Mo  Mo203  1  0.00739591  0.59296599  0.60752356  1
  Mo  Mo204  1  0.39785871  0.39355151  0.20505627  1
  Mo  Mo205  1  0.81539483  0.39465316  0.40531712  1
  Mo  Mo206  1  0.30579840  0.49972837  0.89786759  1
  Mo  Mo207  1  0.79749743  0.01042284  0.80231678  1
  Mo  Mo208  1  0.19119915  0.00067177  0.20258457  1
  Mo  Mo209  1  0.39033965  0.00348200  0.40333850  1
  Mo  Mo210  1  0.00725812  0.20363990  0.20570916  1
  Mo  Mo211  1  0.60117452  0.00915371  0.79373953  1
  Mo  Mo212  1  0.90175712  0.50416777  0.89896126  1
  Mo  Mo213  1  0.80259492  0.20607082  0.60017702  1
  Mo  Mo214  1  0.09773717  0.89676617  0.50208001  1
  Mo  Mo215  1  0.10341668  0.49632673  0.68895309  1
  Mo  Mo216  1  0.59554111  0.79711010  0.79657413  1
  Mo  Mo217  1  0.20084525  0.79932192  0.80395833  1
  Mo  Mo218  1  0.81247117  0.40938716  -0.00992552  1
  Mo  Mo219  1  0.10602458  0.50342215  0.90173470  1
  Mo  Mo220  1  0.39906110  0.19957824  0.79020058  1
  Mo  Mo221  1  0.19878429  0.58449947  0.60051518  1
  Mo  Mo222  1  0.49487266  0.29204616  0.69946671  1
  Mo  Mo223  1  0.49905644  0.70729823  0.08929922  1
  Mo  Mo224  1  0.60552380  0.58850901  0.60611306  1
  Mo  Mo225  1  0.19890963  0.39998200  0.59436094  1
  Mo  Mo226  1  0.29680999  0.29235529  0.30521847  1
  Mo  Mo227  1  0.49538830  0.49330126  0.09237805  1
  Mo  Mo228  1  0.49253246  0.30085624  0.89238247  1
  Mo  Mo229  1  0.19826585  0.00554468  0.79862212  1
  Mo  Mo230  1  0.60484670  0.19795503  0.21721519  1
  Mo  Mo231  1  0.89517089  0.90187673  0.49582547  1
  Mo  Mo232  1  0.50129562  0.90382797  0.50789073  1
  Mo  Mo233  1  0.29800098  0.49243037  0.70207475  1
  Mo  Mo234  1  0.90628412  0.49624821  0.69921726  1
  Mo  Mo235  1  0.19831246  0.00950255  0.59640833  1
  Mo  Mo236  1  0.00924817  0.20593001  -0.00465887  1
  Mo  Mo237  1  0.19222997  0.80854382  0.59718207  1
  Mo  Mo238  1  0.90894692  0.69596004  0.50269846  1
  Mo  Mo239  1  0.49909529  0.89859414  0.70268069  1
  Mo  Mo240  1  0.39464656  0.39876754  0.80076897  1
  Mo  Mo241  1  0.61062228  0.58927252  0.80305779  1
  Mo  Mo242  1  0.38928629  0.20020029  0.40032803  1
  Mo  Mo243  1  0.29005975  0.89676923  0.09308191  1
  Mo  Mo244  1  0.29871488  0.70329355  0.70598916  1
  Mo  Mo245  1  0.90683441  0.30052767  0.49915541  1
  Mo  Mo246  1  0.19487455  0.20263383  0.40241603  1
  Mo  Mo247  1  0.00564685  0.60156732  0.40877325  1
  Mo  Mo248  1  0.90341615  0.69905631  0.08837272  1
  Mo  Mo249  1  0.89859956  0.10150197  0.89903712  1
