# generated using pymatgen
data_HfZrTaTiMo
_symmetry_space_group_name_H-M   'P 1'
_cell_length_a   16.87477494
_cell_length_b   16.89133870
_cell_length_c   16.88949504
_cell_angle_alpha   89.97061578
_cell_angle_beta   90.06104922
_cell_angle_gamma   89.97690827
_symmetry_Int_Tables_number   1
_chemical_formula_structural   HfZrTaTiMo
_chemical_formula_sum   'Hf50 Zr50 Ta50 Ti50 Mo50'
_cell_volume   4814.13634490
_cell_formula_units_Z   50
loop_
 _symmetry_equiv_pos_site_id
 _symmetry_equiv_pos_as_xyz
  1  'x, y, z'
loop_
 _atom_site_type_symbol
 _atom_site_label
 _atom_site_symmetry_multiplicity
 _atom_site_fract_x
 _atom_site_fract_y
 _atom_site_fract_z
 _atom_site_occupancy
  Hf  Hf0  1  0.20109889  0.39930612  0.21378444  1
  Hf  Hf1  1  0.59922119  0.60639812  0.40809730  1
  Hf  Hf2  1  0.60808429  -0.00787907  0.79127488  1
  Hf  Hf3  1  0.59864310  0.20216272  0.19071576  1
  Hf  Hf4  1  0.08636711  0.49266318  0.49470042  1
  Hf  Hf5  1  0.00386141  0.40456412  0.20118284  1
  Hf  Hf6  1  0.89965973  0.90176906  0.10336700  1
  Hf  Hf7  1  0.29497638  0.50118042  0.50342988  1
  Hf  Hf8  1  0.78920653  0.40343958  0.19799007  1
  Hf  Hf9  1  0.10172783  0.89529655  0.50364224  1
  Hf  Hf10  1  0.60490345  0.39856469  0.59492293  1
  Hf  Hf11  1  0.50448313  0.49578364  0.90593584  1
  Hf  Hf12  1  0.41297325  0.20380639  0.00724664  1
  Hf  Hf13  1  0.20298393  0.20101756  0.00522753  1
  Hf  Hf14  1  0.30729768  0.09296632  0.10727754  1
  Hf  Hf15  1  0.00051246  0.01308762  0.59291759  1
  Hf  Hf16  1  0.19592744  0.60446261  0.79171962  1
  Hf  Hf17  1  0.10505737  0.08998294  0.89975683  1
  Hf  Hf18  1  0.11457563  0.69724126  0.10300199  1
  Hf  Hf19  1  0.29955404  0.90332188  0.90370662  1
  Hf  Hf20  1  0.19831040  0.18965088  0.79043048  1
  Hf  Hf21  1  0.90011305  0.29944391  0.29932639  1
  Hf  Hf22  1  0.19333510  0.60158413  0.39863265  1
  Hf  Hf23  1  0.89501025  0.49866217  0.69854227  1
  Hf  Hf24  1  0.89489158  0.29742920  0.10106192  1
  Hf  Hf25  1  0.60377460  0.80028757  0.59626806  1
  Hf  Hf26  1  0.60439486  0.19487485  0.00196005  1
  Hf  Hf27  1  0.40360706  0.19637830  0.79391898  1
  Hf  Hf28  1  0.19326407  0.40863693  0.79496165  1
  Hf  Hf29  1  0.40596198  0.80235879  0.02587435  1
  Hf  Hf30  1  0.80442119  0.80039203  0.80310919  1
  Hf  Hf31  1  0.89300580  0.10395225  0.10514294  1
  Hf  Hf32  1  0.70816799  0.89628317  0.49843583  1
  Hf  Hf33  1  0.49322221  0.08903041  0.49245919  1
  Hf  Hf34  1  0.59374798  0.20437017  0.39185412  1
  Hf  Hf35  1  0.40055348  0.19779958  0.59713834  1
  Hf  Hf36  1  -0.00140903  0.80484086  0.00120894  1
  Hf  Hf37  1  0.19607319  0.79834221  0.39462190  1
  Hf  Hf38  1  0.59735488  0.80150047  0.19694694  1
  Hf  Hf39  1  0.19932408  0.80717383  0.78897118  1
  Hf  Hf40  1  0.89912111  0.89093944  0.68234231  1
  Hf  Hf41  1  -0.00331819  0.19709319  -0.00841677  1
  Hf  Hf42  1  0.79868461  0.79674106  0.20601724  1
  Hf  Hf43  1  0.79680730  0.39858442  0.59818381  1
  Hf  Hf44  1  0.30037053  0.91023415  0.49839983  1
  Hf  Hf45  1  0.30437054  0.08662632  0.90627832  1
  Hf  Hf46  1  0.29565511  0.29993701  0.69563764  1
  Hf  Hf47  1  0.78914977  0.41485953  -0.00973967  1
  Hf  Hf48  1  0.59128370  0.20486442  0.59691895  1
  Hf  Hf49  1  0.30487481  0.50450057  0.91233731  1
  Zr  Zr50  1  0.39730654  0.79892090  0.39781592  1
  Zr  Zr51  1  0.80222743  -0.00547234  0.79969796  1
  Zr  Zr52  1  0.29997248  0.51221963  0.10818893  1
  Zr  Zr53  1  0.49431707  0.69808229  0.29013380  1
  Zr  Zr54  1  0.29934449  0.71089907  0.91009327  1
  Zr  Zr55  1  0.19709293  0.39826125  0.00815356  1
  Zr  Zr56  1  0.40239533  0.60820744  0.80539451  1
  Zr  Zr57  1  0.41331229  0.61289280  0.58931803  1
  Zr  Zr58  1  0.51164919  0.50315605  0.70163738  1
  Zr  Zr59  1  0.50568932  0.70271019  0.70610624  1
  Zr  Zr60  1  0.49282435  0.49084353  0.10245388  1
  Zr  Zr61  1  0.00229016  0.40585171  0.79994382  1
  Zr  Zr62  1  0.79135957  0.40473799  0.40294450  1
  Zr  Zr63  1  0.39322089  0.39342264  0.39932396  1
  Zr  Zr64  1  0.31878270  0.30632212  0.11512322  1
  Zr  Zr65  1  0.30553487  0.50348796  0.69406850  1
  Zr  Zr66  1  0.69323472  0.50544946  0.30085945  1
  Zr  Zr67  1  0.40205586  0.80728005  0.59623948  1
  Zr  Zr68  1  0.89214296  0.30711517  0.89245474  1
  Zr  Zr69  1  0.79394763  0.20064530  0.39770723  1
  Zr  Zr70  1  0.91572799  0.30734491  0.49153044  1
  Zr  Zr71  1  0.39831025  0.60430752  0.40360153  1
  Zr  Zr72  1  0.69748914  0.10580360  0.69836008  1
  Zr  Zr73  1  0.70203645  0.69573684  0.90879231  1
  Zr  Zr74  1  0.00238175  0.60477287  0.78919538  1
  Zr  Zr75  1  0.10267497  0.09019590  0.09703581  1
  Zr  Zr76  1  0.40986633  0.38872802  0.59291758  1
  Zr  Zr77  1  -0.00235340  0.79923300  0.80095478  1
  Zr  Zr78  1  0.30611162  0.30339694  0.90028639  1
  Zr  Zr79  1  0.10699486  0.70507835  0.91119467  1
  Zr  Zr80  1  0.19699439  -0.00332556  0.21423923  1
  Zr  Zr81  1  0.49829294  0.08624475  0.89675309  1
  Zr  Zr82  1  0.79531720  -0.00103685  0.20264940  1
  Zr  Zr83  1  0.59483005  0.39330924  0.39873322  1
  Zr  Zr84  1  0.00172110  0.00697426  0.40323965  1
  Zr  Zr85  1  0.48965250  0.90216006  0.90094626  1
  Zr  Zr86  1  0.49363607  0.09049332  0.29236336  1
  Zr  Zr87  1  0.70747233  0.68905105  0.69624748  1
  Zr  Zr88  1  0.80419912  0.00358825  0.40550503  1
  Zr  Zr89  1  0.89933275  0.51090654  0.09342088  1
  Zr  Zr90  1  0.00310325  0.80051581  0.20674057  1
  Zr  Zr91  1  -0.00609683  -0.00255563  0.80247755  1
  Zr  Zr92  1  0.80233279  0.00442247  -0.01003076  1
  Zr  Zr93  1  0.00928498  0.19352694  0.20781152  1
  Zr  Zr94  1  0.80413890  0.20147191  0.59605953  1
  Zr  Zr95  1  0.49967863  0.07614726  0.09772502  1
  Zr  Zr96  1  0.00307212  0.40083725  0.00076993  1
  Zr  Zr97  1  0.60643838  0.80648599  0.79793371  1
  Zr  Zr98  1  0.17965146  0.60765467  0.60368257  1
  Zr  Zr99  1  0.09927770  0.51879317  0.91998963  1
  Ta  Ta100  1  0.69888830  0.10268085  0.29130028  1
  Ta  Ta101  1  0.48645496  0.30218058  0.28143293  1
  Ta  Ta102  1  0.30162966  0.09675581  0.49754018  1
  Ta  Ta103  1  0.19980097  0.39541676  0.40038139  1
  Ta  Ta104  1  0.19092051  0.39738480  0.59796335  1
  Ta  Ta105  1  0.80143659  0.58577690  0.81428324  1
  Ta  Ta106  1  0.39387743  0.20289605  0.39587190  1
  Ta  Ta107  1  0.80231682  0.00299494  0.59605875  1
  Ta  Ta108  1  0.20298219  0.00762404  0.60583802  1
  Ta  Ta109  1  0.89699193  0.10344094  0.29957179  1
  Ta  Ta110  1  0.00066895  -0.00141298  0.21101349  1
  Ta  Ta111  1  0.00529779  0.19623456  0.60007270  1
  Ta  Ta112  1  0.70004840  0.49743637  0.70699829  1
  Ta  Ta113  1  -0.00347196  0.60503885  0.20727413  1
  Ta  Ta114  1  0.49831389  0.90140679  0.30242157  1
  Ta  Ta115  1  0.09724621  0.29691805  0.69522631  1
  Ta  Ta116  1  0.89680254  0.69847293  0.50330455  1
  Ta  Ta117  1  0.80151536  0.19799569  0.80446458  1
  Ta  Ta118  1  0.49523028  0.49933888  0.29241530  1
  Ta  Ta119  1  0.69654390  0.90086083  0.09242871  1
  Ta  Ta120  1  0.59567487  0.79862559  0.00716649  1
  Ta  Ta121  1  -0.00404007  0.60814586  0.39801899  1
  Ta  Ta122  1  0.29671970  0.69665229  0.28457480  1
  Ta  Ta123  1  0.10136946  0.29696502  0.49826815  1
  Ta  Ta124  1  0.20068574  0.19493125  0.39909523  1
  Ta  Ta125  1  0.50686072  0.30761080  0.90155617  1
  Ta  Ta126  1  0.69422433  0.30408295  0.89210307  1
  Ta  Ta127  1  0.90082283  0.50432176  0.30391167  1
  Ta  Ta128  1  0.89661546  0.69770893  0.10030338  1
  Ta  Ta129  1  0.70392602  0.69779724  0.09734904  1
  Ta  Ta130  1  0.40470475  0.39956450  0.80089902  1
  Ta  Ta131  1  0.79743589  0.60240794  0.20120402  1
  Ta  Ta132  1  0.90154452  0.89645714  0.30897635  1
  Ta  Ta133  1  0.60299585  -0.00697157  0.59917496  1
  Ta  Ta134  1  0.60089682  0.60016670  0.19098705  1
  Ta  Ta135  1  0.89986731  0.68665660  0.91410527  1
  Ta  Ta136  1  0.50234385  0.90640233  0.49115351  1
  Ta  Ta137  1  0.10327385  0.29533155  0.10915201  1
  Ta  Ta138  1  0.28451208  0.70676562  0.50599650  1
  Ta  Ta139  1  0.11113116  0.90544353  0.90755325  1
  Ta  Ta140  1  0.10054397  0.90155412  0.69150823  1
  Ta  Ta141  1  0.80177684  0.79060422  0.39717517  1
  Ta  Ta142  1  0.09767999  0.29931530  0.31226021  1
  Ta  Ta143  1  0.20523332  0.19922741  0.21505168  1
  Ta  Ta144  1  0.60294578  0.79908988  0.39863302  1
  Ta  Ta145  1  0.40764789  0.61405320  0.01171277  1
  Ta  Ta146  1  0.29891070  0.71202685  0.69408225  1
  Ta  Ta147  1  0.79211214  0.19649122  -0.00498226  1
  Ta  Ta148  1  0.89977087  0.10430318  0.69983562  1
  Ta  Ta149  1  0.00036143  0.19640113  0.79473965  1
  Ti  Ti150  1  0.10617575  0.90405331  0.09407807  1
  Ti  Ti151  1  0.60359152  0.59783919  0.00661501  1
  Ti  Ti152  1  0.80200145  0.80078216  0.00019079  1
  Ti  Ti153  1  0.30422845  0.50660890  0.29645762  1
  Ti  Ti154  1  0.20115897  0.00074404  0.78432533  1
  Ti  Ti155  1  0.69990829  0.69679288  0.29943636  1
  Ti  Ti156  1  0.50871027  0.30592408  0.71207400  1
  Ti  Ti157  1  0.70452852  0.29622680  0.09674627  1
  Ti  Ti158  1  0.70619069  0.69794612  0.50265894  1
  Ti  Ti159  1  0.69394006  0.09887342  0.49837492  1
  Ti  Ti160  1  0.19726244  0.00763702  0.39909550  1
  Ti  Ti161  1  0.29183145  0.90072435  0.09798618  1
  Ti  Ti162  1  0.69632109  0.29661747  0.49670877  1
  Ti  Ti163  1  0.90167230  0.88611079  0.49947551  1
  Ti  Ti164  1  0.28998652  0.29329396  0.49995272  1
  Ti  Ti165  1  0.70030199  0.30506518  0.71264185  1
  Ti  Ti166  1  0.69588508  0.09914362  0.89855324  1
  Ti  Ti167  1  0.60501727  0.39731398  0.00718290  1
  Ti  Ti168  1  0.80242997  0.60330065  0.40002035  1
  Ti  Ti169  1  0.79610020  0.59176378  0.59203695  1
  Ti  Ti170  1  0.20746251  0.80795942  0.20320548  1
  Ti  Ti171  1  0.59854562  0.19942123  0.80199351  1
  Ti  Ti172  1  0.90034019  0.29880661  0.70326018  1
  Ti  Ti173  1  0.00022256  0.60425998  0.59799543  1
  Ti  Ti174  1  -0.00212404  0.78801570  0.39894812  1
  Ti  Ti175  1  0.50156778  0.70624783  0.90307441  1
  Ti  Ti176  1  0.10284778  0.69656672  0.29397797  1
  Ti  Ti177  1  0.10260582  0.29698975  0.89717545  1
  Ti  Ti178  1  0.70021617  0.89956112  0.30377068  1
  Ti  Ti179  1  0.39415613  -0.02736181  0.20179713  1
  Ti  Ti180  1  0.60723561  -0.00685328  0.19683582  1
  Ti  Ti181  1  0.50583424  0.50166467  0.49926820  1
  Ti  Ti182  1  0.38448443  -0.00278933  0.77550903  1
  Ti  Ti183  1  0.69717734  0.89818673  0.90984265  1
  Ti  Ti184  1  0.09590899  0.90008408  0.30653636  1
  Ti  Ti185  1  0.00110472  0.39674135  0.60486910  1
  Ti  Ti186  1  0.60243070  0.39579031  0.19474262  1
  Ti  Ti187  1  0.49244854  0.90355023  0.69602561  1
  Ti  Ti188  1  0.00862675  0.78443447  0.59795890  1
  Ti  Ti189  1  0.30922149  0.09429620  0.30341973  1
  Ti  Ti190  1  0.60469459  -0.00245752  0.39499869  1
  Ti  Ti191  1  0.00718646  0.18705359  0.40707897  1
  Ti  Ti192  1  0.49805163  0.08969251  0.69358878  1
  Ti  Ti193  1  -0.00829036  -0.00329048  -0.00771048  1
  Ti  Ti194  1  0.90188417  0.50279596  0.49513491  1
  Ti  Ti195  1  0.19325263  0.19011440  0.59757559  1
  Ti  Ti196  1  0.60727768  0.59634997  0.81109816  1
  Ti  Ti197  1  0.89236951  0.69553798  0.69141906  1
  Ti  Ti198  1  0.10465409  0.51438243  0.10615489  1
  Ti  Ti199  1  0.09443596  0.50057345  0.30416148  1
  Mo  Mo200  1  0.69115988  0.49809630  0.90030688  1
  Mo  Mo201  1  0.40038248  0.19907794  0.20504556  1
  Mo  Mo202  1  0.08972769  0.70187677  0.49463422  1
  Mo  Mo203  1  0.19666761  0.80712823  0.59706240  1
  Mo  Mo204  1  0.29644616  0.90347920  0.69421439  1
  Mo  Mo205  1  0.79374965  0.39851266  0.79582571  1
  Mo  Mo206  1  0.60760838  -0.00787982  -0.00275240  1
  Mo  Mo207  1  0.69312860  0.50685808  0.09898908  1
  Mo  Mo208  1  0.60159426  0.39766215  0.79985392  1
  Mo  Mo209  1  0.40395115  0.00222987  0.59871807  1
  Mo  Mo210  1  0.00223340  0.40745721  0.39348474  1
  Mo  Mo211  1  0.50808424  0.89824261  0.10838927  1
  Mo  Mo212  1  0.20130355  0.80931905  0.01168017  1
  Mo  Mo213  1  0.39518088  0.80278494  0.20163670  1
  Mo  Mo214  1  0.30160943  0.70435826  0.11221793  1
  Mo  Mo215  1  0.69402254  0.29623775  0.28755174  1
  Mo  Mo216  1  0.79595488  0.60111428  0.00318862  1
  Mo  Mo217  1  0.30002719  0.89780425  0.30176438  1
  Mo  Mo218  1  0.39772452  0.40637723  0.20928299  1
  Mo  Mo219  1  0.39718805  -0.00931913  0.01350720  1
  Mo  Mo220  1  0.40865404  0.39928880  -0.00444796  1
  Mo  Mo221  1  0.09071585  0.49283444  0.68759918  1
  Mo  Mo222  1  0.51297396  0.71001844  0.49699697  1
  Mo  Mo223  1  0.21239087  0.60980769  0.01318650  1
  Mo  Mo224  1  0.89680146  0.69605223  0.30393655  1
  Mo  Mo225  1  0.61145449  0.59634444  0.59179537  1
  Mo  Mo226  1  0.50618502  0.30793949  0.09791868  1
  Mo  Mo227  1  0.89875210  0.50719051  0.89919777  1
  Mo  Mo228  1  0.39469546  0.80728737  0.78938788  1
  Mo  Mo229  1  0.49829397  0.29061885  0.48853352  1
  Mo  Mo230  1  0.50717739  0.69588676  0.09979371  1
  Mo  Mo231  1  0.29546799  0.29368992  0.30535119  1
  Mo  Mo232  1  0.20092813  -0.00240008  0.00802267  1
  Mo  Mo233  1  0.89970292  0.10939494  0.50312711  1
  Mo  Mo234  1  0.09781064  0.71007557  0.69385783  1
  Mo  Mo235  1  0.70055739  0.50802259  0.50534176  1
  Mo  Mo236  1  0.78920568  0.20159112  0.19820300  1
  Mo  Mo237  1  0.09861438  0.10000441  0.69885409  1
  Mo  Mo238  1  0.90042357  0.88767256  0.90658168  1
  Mo  Mo239  1  0.89983910  0.10729635  0.89607581  1
  Mo  Mo240  1  0.30051213  0.09961078  0.69185222  1
  Mo  Mo241  1  -0.00182589  0.60809429  0.01209753  1
  Mo  Mo242  1  0.69828434  0.09597732  0.09690719  1
  Mo  Mo243  1  0.70776100  0.90195317  0.68673451  1
  Mo  Mo244  1  0.10193603  0.10224188  0.30729994  1
  Mo  Mo245  1  0.19358792  0.59603404  0.21013075  1
  Mo  Mo246  1  0.40153397  0.60260558  0.20021278  1
  Mo  Mo247  1  0.11049425  0.10408225  0.50066316  1
  Mo  Mo248  1  0.39433854  -0.00117012  0.39445220  1
  Mo  Mo249  1  0.80436456  0.79407284  0.59248377  1
