# generated using pymatgen
data_HfZrTaTiMo
_symmetry_space_group_name_H-M   'P 1'
_cell_length_a   16.88446735
_cell_length_b   16.89632095
_cell_length_c   16.88158050
_cell_angle_alpha   90.02192269
_cell_angle_beta   90.05946936
_cell_angle_gamma   89.97193803
_symmetry_Int_Tables_number   1
_chemical_formula_structural   HfZrTaTiMo
_chemical_formula_sum   'Hf50 Zr50 Ta50 Ti50 Mo50'
_cell_volume   4816.06457741
_cell_formula_units_Z   50
loop_
 _symmetry_equiv_pos_site_id
 _symmetry_equiv_pos_as_xyz
  1  'x, y, z'
loop_
 _atom_site_type_symbol
 _atom_site_label
 _atom_site_symmetry_multiplicity
 _atom_site_fract_x
 _atom_site_fract_y
 _atom_site_fract_z
 _atom_site_occupancy
  Hf  Hf0  1  0.40519747  -0.00234302  0.19805028  1
  Hf  Hf1  1  0.29581304  0.29020830  0.89936800  1
  Hf  Hf2  1  0.79954611  0.79743183  0.41056130  1
  Hf  Hf3  1  0.70148657  0.69769245  0.70373729  1
  Hf  Hf4  1  0.49913079  0.89115820  0.08908224  1
  Hf  Hf5  1  0.39104893  0.39702296  0.79789370  1
  Hf  Hf6  1  0.49666393  0.70040357  0.09547528  1
  Hf  Hf7  1  0.19449602  0.00014218  0.80199910  1
  Hf  Hf8  1  0.29366865  0.49882433  0.10866498  1
  Hf  Hf9  1  0.40077348  0.80175877  0.80153963  1
  Hf  Hf10  1  0.39708395  0.00042459  -0.00272577  1
  Hf  Hf11  1  0.39305711  0.19613065  0.40002014  1
  Hf  Hf12  1  0.10578953  0.90299081  0.29755468  1
  Hf  Hf13  1  -0.00138282  0.80748196  0.00377055  1
  Hf  Hf14  1  0.79867233  0.80428314  0.80960100  1
  Hf  Hf15  1  0.80931418  0.80090870  0.60447377  1
  Hf  Hf16  1  0.90196571  0.09600034  0.09465328  1
  Hf  Hf17  1  0.29086439  0.30487401  0.10478158  1
  Hf  Hf18  1  0.29867668  0.30698784  0.50011949  1
  Hf  Hf19  1  0.60664670  0.40115569  0.61214282  1
  Hf  Hf20  1  0.69985900  0.30330959  0.29777771  1
  Hf  Hf21  1  0.19041869  0.60354764  0.79674391  1
  Hf  Hf22  1  0.50199748  0.28972351  0.90514246  1
  Hf  Hf23  1  0.60159727  0.60119989  0.40438476  1
  Hf  Hf24  1  0.90269630  0.90837985  0.49735411  1
  Hf  Hf25  1  0.69460543  0.30017643  0.09931203  1
  Hf  Hf26  1  0.69385599  0.91149626  0.69340544  1
  Hf  Hf27  1  0.49989156  0.30472970  0.49971363  1
  Hf  Hf28  1  0.49217091  0.49690196  0.30145716  1
  Hf  Hf29  1  0.49286917  0.51012222  0.90015894  1
  Hf  Hf30  1  0.50603433  0.09306626  0.30632032  1
  Hf  Hf31  1  0.00234196  0.60199830  0.20101096  1
  Hf  Hf32  1  0.71303113  0.29664956  0.51249360  1
  Hf  Hf33  1  0.19053412  0.62355346  0.19351416  1
  Hf  Hf34  1  0.11760947  0.90398656  0.09942095  1
  Hf  Hf35  1  0.29851385  0.90206306  0.69885738  1
  Hf  Hf36  1  0.09640526  0.70631792  0.89920289  1
  Hf  Hf37  1  0.71398057  0.49543744  0.51006089  1
  Hf  Hf38  1  0.90354331  0.69735554  0.30057446  1
  Hf  Hf39  1  0.60042651  0.59871658  0.19726532  1
  Hf  Hf40  1  0.70561488  0.70130207  0.29740112  1
  Hf  Hf41  1  0.38459365  0.60591947  0.00443727  1
  Hf  Hf42  1  0.60968699  0.59873514  0.00419637  1
  Hf  Hf43  1  0.71670666  0.71196792  0.10643485  1
  Hf  Hf44  1  0.19754243  0.19169954  0.59951651  1
  Hf  Hf45  1  0.90463915  0.49757048  0.09333151  1
  Hf  Hf46  1  0.10323413  0.49724753  0.50085355  1
  Hf  Hf47  1  0.60291816  -0.00196938  0.19785102  1
  Hf  Hf48  1  0.79464808  0.39579720  0.79133647  1
  Hf  Hf49  1  0.39825421  0.39891072  0.00304292  1
  Zr  Zr50  1  0.10057279  0.48950191  0.69089042  1
  Zr  Zr51  1  0.00462983  -0.00342870  0.61244947  1
  Zr  Zr52  1  0.00432405  0.61377974  0.60501920  1
  Zr  Zr53  1  0.59319132  0.80542670  0.80329502  1
  Zr  Zr54  1  0.60076891  0.59471849  0.60584028  1
  Zr  Zr55  1  0.09907899  0.29758705  0.90052040  1
  Zr  Zr56  1  0.39895132  0.79509925  0.19876504  1
  Zr  Zr57  1  0.79860788  0.19971161  -0.00855219  1
  Zr  Zr58  1  0.80647543  0.19659190  0.40375458  1
  Zr  Zr59  1  0.80298418  0.60040659  0.80453889  1
  Zr  Zr60  1  0.78696731  -0.01394892  -0.00004490  1
  Zr  Zr61  1  0.90647061  0.09502869  0.29970401  1
  Zr  Zr62  1  0.40226816  -0.00685787  0.80813119  1
  Zr  Zr63  1  0.40072759  0.20382365  0.20050479  1
  Zr  Zr64  1  0.10031418  0.49292550  0.09599359  1
  Zr  Zr65  1  0.89212021  0.49587838  0.68530189  1
  Zr  Zr66  1  0.50458911  0.09618795  0.70420280  1
  Zr  Zr67  1  0.20566658  0.00321605  0.41105880  1
  Zr  Zr68  1  0.50936101  0.91237816  0.49377422  1
  Zr  Zr69  1  -0.00412534  0.60406099  0.79754171  1
  Zr  Zr70  1  0.50107558  0.28727892  0.71272762  1
  Zr  Zr71  1  0.18925434  0.80402075  0.60123371  1
  Zr  Zr72  1  0.29078052  0.50124624  0.69328363  1
  Zr  Zr73  1  0.60153553  -0.00380076  -0.00395986  1
  Zr  Zr74  1  0.59872728  0.40728508  0.00767533  1
  Zr  Zr75  1  0.60312409  0.41007564  0.79482642  1
  Zr  Zr76  1  0.60087234  0.79510469  0.59547474  1
  Zr  Zr77  1  0.70353297  0.49269044  0.29680945  1
  Zr  Zr78  1  0.91458963  0.09921562  0.89858371  1
  Zr  Zr79  1  0.19860805  0.79863102  0.39961035  1
  Zr  Zr80  1  -0.00202396  -0.00601440  0.19026804  1
  Zr  Zr81  1  0.39503130  0.19680618  0.60083721  1
  Zr  Zr82  1  0.79716250  0.19938602  0.79351220  1
  Zr  Zr83  1  -0.00458443  0.81333452  0.78857165  1
  Zr  Zr84  1  0.01221822  0.79264212  0.19947295  1
  Zr  Zr85  1  0.69557095  0.90060659  0.30899330  1
  Zr  Zr86  1  0.79863040  0.19403433  0.20232057  1
  Zr  Zr87  1  0.40487757  0.80518954  0.39256231  1
  Zr  Zr88  1  0.80750646  0.00137983  0.79457733  1
  Zr  Zr89  1  0.90802982  0.30373669  0.09333190  1
  Zr  Zr90  1  0.09771808  0.30495354  0.49920204  1
  Zr  Zr91  1  0.29448869  0.49661890  0.50036217  1
  Zr  Zr92  1  0.49614827  0.69797443  0.49887119  1
  Zr  Zr93  1  0.62520670  0.80568149  -0.01250695  1
  Zr  Zr94  1  0.00696938  0.39709593  0.21436651  1
  Zr  Zr95  1  0.30178289  0.49550448  0.28971213  1
  Zr  Zr96  1  0.80790259  0.59558698  0.40314978  1
  Zr  Zr97  1  0.60456968  0.19923163  0.39882307  1
  Zr  Zr98  1  0.79882098  0.40158257  -0.01151110  1
  Zr  Zr99  1  0.19539472  0.38822098  0.37839875  1
  Ta  Ta100  1  0.79621896  0.00594554  0.39903778  1
  Ta  Ta101  1  0.49000386  0.49320421  0.49958981  1
  Ta  Ta102  1  0.10385908  0.30190723  0.09743222  1
  Ta  Ta103  1  0.29516831  0.90343338  0.28982019  1
  Ta  Ta104  1  0.60302105  0.40198682  0.40549998  1
  Ta  Ta105  1  0.49515227  0.31096706  0.30085294  1
  Ta  Ta106  1  0.20031276  0.19546197  0.39485593  1
  Ta  Ta107  1  0.90773522  0.30028201  0.30536141  1
  Ta  Ta108  1  0.20026370  0.00540649  0.60226042  1
  Ta  Ta109  1  -0.00203273  0.19799768  0.59760514  1
  Ta  Ta110  1  0.89461654  0.29447589  0.68857574  1
  Ta  Ta111  1  0.29613176  0.70468709  0.89788547  1
  Ta  Ta112  1  0.19535613  0.80241490  0.79761470  1
  Ta  Ta113  1  0.09720878  0.50957531  0.30761966  1
  Ta  Ta114  1  0.01038538  0.19869936  0.19775846  1
  Ta  Ta115  1  0.79168487  -0.00318610  0.20091141  1
  Ta  Ta116  1  0.81336724  0.39651745  0.40264861  1
  Ta  Ta117  1  0.49438878  0.70279154  0.90545886  1
  Ta  Ta118  1  0.29111062  0.89138669  0.91116402  1
  Ta  Ta119  1  0.48518204  0.50129424  0.11155177  1
  Ta  Ta120  1  0.39744119  0.60059519  0.60049523  1
  Ta  Ta121  1  0.30040681  0.69935030  0.29667501  1
  Ta  Ta122  1  0.68699213  0.29259043  0.89375714  1
  Ta  Ta123  1  0.10392836  0.09625625  0.29567927  1
  Ta  Ta124  1  0.50070654  0.10994285  0.90101143  1
  Ta  Ta125  1  0.89726794  0.69958944  0.09724745  1
  Ta  Ta126  1  0.39306129  0.00428183  0.59240063  1
  Ta  Ta127  1  -0.00700189  0.39424073  0.80063336  1
  Ta  Ta128  1  0.59230594  0.80170048  0.20931134  1
  Ta  Ta129  1  0.19485051  0.60267668  -0.00408397  1
  Ta  Ta130  1  0.30146674  0.10109761  0.70586895  1
  Ta  Ta131  1  0.80362787  0.00583298  0.60001295  1
  Ta  Ta132  1  0.91217291  0.49418249  0.49679970  1
  Ta  Ta133  1  0.20088865  0.60538744  0.39802504  1
  Ta  Ta134  1  0.00579250  0.20121211  0.39999643  1
  Ta  Ta135  1  0.39659077  0.60214846  0.39708723  1
  Ta  Ta136  1  0.29637377  0.69994216  0.69556733  1
  Ta  Ta137  1  0.79845365  0.60008427  -0.00122515  1
  Ta  Ta138  1  0.00056530  0.80116349  0.60363388  1
  Ta  Ta139  1  0.19626218  0.20017842  0.20331819  1
  Ta  Ta140  1  0.29328206  0.09711827  0.10278830  1
  Ta  Ta141  1  0.50401657  0.11039487  0.09311461  1
  Ta  Ta142  1  0.39929435  0.39892035  0.60889228  1
  Ta  Ta143  1  0.29592629  0.09562266  0.29575163  1
  Ta  Ta144  1  0.69827535  0.09530360  0.50551443  1
  Ta  Ta145  1  0.69822875  0.90902628  0.50124508  1
  Ta  Ta146  1  0.29506116  0.89772810  0.09894198  1
  Ta  Ta147  1  0.30036545  0.69794584  0.50252615  1
  Ta  Ta148  1  0.39978410  0.80105668  0.60207415  1
  Ta  Ta149  1  0.00417604  0.79704868  0.40554919  1
  Ti  Ti150  1  0.19952211  0.01113596  -0.00294625  1
  Ti  Ti151  1  0.39193583  0.60550130  0.79981024  1
  Ti  Ti152  1  0.50815850  0.09622823  0.50238075  1
  Ti  Ti153  1  0.68931993  0.10371379  0.89718896  1
  Ti  Ti154  1  0.39661578  0.00085321  0.40060295  1
  Ti  Ti155  1  0.09516050  0.09904462  0.49710209  1
  Ti  Ti156  1  0.10189861  0.69448259  0.49743741  1
  Ti  Ti157  1  0.49223659  0.50779853  0.70298114  1
  Ti  Ti158  1  0.60507728  0.19986474  0.60519453  1
  Ti  Ti159  1  0.60089023  0.60463101  0.80474835  1
  Ti  Ti160  1  0.80321931  0.61126616  0.59738223  1
  Ti  Ti161  1  0.00429331  0.60022352  -0.00309491  1
  Ti  Ti162  1  0.69510066  0.10148566  0.69454555  1
  Ti  Ti163  1  0.90661259  0.10235266  0.69863648  1
  Ti  Ti164  1  0.69405046  0.10562256  0.09912928  1
  Ti  Ti165  1  -0.00743664  0.38838505  0.59706798  1
  Ti  Ti166  1  0.30398477  0.89905052  0.50279642  1
  Ti  Ti167  1  0.20228160  0.78651977  0.00874924  1
  Ti  Ti168  1  0.90822878  0.69697346  0.49853569  1
  Ti  Ti169  1  0.10297113  0.90255442  0.90209367  1
  Ti  Ti170  1  0.69988612  0.50315751  0.89652871  1
  Ti  Ti171  1  0.80501762  0.58790104  0.19666522  1
  Ti  Ti172  1  0.20093472  0.19946174  0.79282272  1
  Ti  Ti173  1  0.91044983  0.49486765  0.90302447  1
  Ti  Ti174  1  0.89842968  0.89647565  0.30149467  1
  Ti  Ti175  1  0.90177330  0.10184648  0.50352156  1
  Ti  Ti176  1  0.59684553  0.79413533  0.39657212  1
  Ti  Ti177  1  0.00144291  0.00116591  0.39840655  1
  Ti  Ti178  1  0.80854404  0.40354495  0.20258526  1
  Ti  Ti179  1  0.19327621  0.18978148  0.00683859  1
  Ti  Ti180  1  0.09505001  0.10152437  0.70881863  1
  Ti  Ti181  1  0.19489447  0.40773501  -0.01131340  1
  Ti  Ti182  1  0.19469006  0.39792860  0.79956131  1
  Ti  Ti183  1  0.59657819  -0.00459145  0.80948349  1
  Ti  Ti184  1  0.30096764  0.10659851  0.89922979  1
  Ti  Ti185  1  0.09554890  0.90450686  0.50050499  1
  Ti  Ti186  1  0.89644350  0.70336364  0.91109317  1
  Ti  Ti187  1  0.39805204  0.19982489  0.00812461  1
  Ti  Ti188  1  0.01010979  0.00014495  0.00034406  1
  Ti  Ti189  1  0.49345400  0.69498442  0.70328616  1
  Ti  Ti190  1  0.50045832  0.90827398  0.69004687  1
  Ti  Ti191  1  -0.00323093  0.20767136  0.79527042  1
  Ti  Ti192  1  0.88145315  0.88526815  0.10369571  1
  Ti  Ti193  1  0.29197982  0.50394449  0.89585396  1
  Ti  Ti194  1  0.90362573  0.90745669  0.90296860  1
  Ti  Ti195  1  0.09834582  0.29934791  0.69823198  1
  Ti  Ti196  1  0.09614780  0.10301750  0.89627167  1
  Ti  Ti197  1  0.59540243  0.20163979  0.19989963  1
  Ti  Ti198  1  0.00633941  0.20191983  0.00176123  1
  Ti  Ti199  1  0.59344222  0.40132554  0.19434288  1
  Mo  Mo200  1  0.90528915  0.29884150  0.50087738  1
  Mo  Mo201  1  0.70215819  0.69196172  0.90085979  1
  Mo  Mo202  1  0.40025518  0.39455548  0.20082823  1
  Mo  Mo203  1  0.60039396  0.00755646  0.59769018  1
  Mo  Mo204  1  0.80763119  0.80609262  0.21004204  1
  Mo  Mo205  1  0.00344795  0.40079310  -0.01413761  1
  Mo  Mo206  1  0.20267946  0.38013283  0.61477479  1
  Mo  Mo207  1  0.71054254  0.49858441  0.10464938  1
  Mo  Mo208  1  0.70365609  0.91112465  0.88438255  1
  Mo  Mo209  1  0.49916454  0.30176868  0.10660952  1
  Mo  Mo210  1  0.70204505  0.28564151  0.69779211  1
  Mo  Mo211  1  0.29167824  0.29539645  0.70473482  1
  Mo  Mo212  1  0.70426304  0.89126123  0.11736941  1
  Mo  Mo213  1  0.49865702  0.69396842  0.29862303  1
  Mo  Mo214  1  0.00572145  0.60129139  0.40358880  1
  Mo  Mo215  1  0.10056202  0.70007474  0.31583342  1
  Mo  Mo216  1  0.60444241  0.19042443  0.80299194  1
  Mo  Mo217  1  0.60012141  0.19754389  0.00300805  1
  Mo  Mo218  1  0.10254952  0.10402853  0.09580696  1
  Mo  Mo219  1  0.69913452  0.09870417  0.29895549  1
  Mo  Mo220  1  0.29815790  0.09734107  0.50020669  1
  Mo  Mo221  1  0.10234745  0.70919959  0.69985994  1
  Mo  Mo222  1  0.09837157  0.28667201  0.29803840  1
  Mo  Mo223  1  0.10291762  0.90585914  0.70119884  1
  Mo  Mo224  1  0.90549137  0.49611411  0.30399716  1
  Mo  Mo225  1  0.20147876  0.61460685  0.59331105  1
  Mo  Mo226  1  0.39888187  0.60548141  0.20242458  1
  Mo  Mo227  1  0.39143223  0.19389873  0.80830703  1
  Mo  Mo228  1  0.70336123  0.70407286  0.49922018  1
  Mo  Mo229  1  0.40263182  0.39915588  0.39991961  1
  Mo  Mo230  1  0.09720572  0.49672624  0.89802046  1
  Mo  Mo231  1  0.80551758  0.39175746  0.59836698  1
  Mo  Mo232  1  0.49490637  0.89870365  0.90201013  1
  Mo  Mo233  1  0.80701477  0.18814220  0.60144591  1
  Mo  Mo234  1  0.80896933  0.79835439  -0.00491746  1
  Mo  Mo235  1  0.19547400  0.38951930  0.20028038  1
  Mo  Mo236  1  0.70282225  0.51163899  0.69896387  1
  Mo  Mo237  1  0.89887507  0.70636891  0.69534897  1
  Mo  Mo238  1  -0.00148897  0.40118908  0.39978686  1
  Mo  Mo239  1  0.90044683  0.90543347  0.69613434  1
  Mo  Mo240  1  0.00724955  0.00490857  0.80538070  1
  Mo  Mo241  1  0.29450438  0.70306081  0.09779132  1
  Mo  Mo242  1  0.29926109  0.29225730  0.29762592  1
  Mo  Mo243  1  0.90601823  0.30000104  0.88891886  1
  Mo  Mo244  1  0.20531319  0.00545903  0.19789468  1
  Mo  Mo245  1  0.60611134  0.00576644  0.40089864  1
  Mo  Mo246  1  0.09417532  0.70116903  0.08326811  1
  Mo  Mo247  1  0.49829671  0.90029853  0.30271235  1
  Mo  Mo248  1  0.20513783  0.80199159  0.19885584  1
  Mo  Mo249  1  0.38835432  0.79849112  -0.00454720  1
