# generated using pymatgen
data_HfZrTaTiMo
_symmetry_space_group_name_H-M   'P 1'
_cell_length_a   16.89486635
_cell_length_b   16.89102585
_cell_length_c   16.89365142
_cell_angle_alpha   89.95567529
_cell_angle_beta   90.02195296
_cell_angle_gamma   90.03798904
_symmetry_Int_Tables_number   1
_chemical_formula_structural   HfZrTaTiMo
_chemical_formula_sum   'Hf50 Zr50 Ta50 Ti50 Mo50'
_cell_volume   4820.96589048
_cell_formula_units_Z   50
loop_
 _symmetry_equiv_pos_site_id
 _symmetry_equiv_pos_as_xyz
  1  'x, y, z'
loop_
 _atom_site_type_symbol
 _atom_site_label
 _atom_site_symmetry_multiplicity
 _atom_site_fract_x
 _atom_site_fract_y
 _atom_site_fract_z
 _atom_site_occupancy
  Hf  Hf0  1  0.79332479  0.00042397  0.19798851  1
  Hf  Hf1  1  0.60234170  0.60083078  0.60265047  1
  Hf  Hf2  1  0.09532608  0.70124277  0.10044971  1
  Hf  Hf3  1  0.40819772  0.61190091  0.39416078  1
  Hf  Hf4  1  0.19408878  0.00489056  0.78586938  1
  Hf  Hf5  1  0.89464879  0.90222974  0.30346881  1
  Hf  Hf6  1  0.50392975  0.69687001  0.09822507  1
  Hf  Hf7  1  0.60787764  0.80200381  0.79760502  1
  Hf  Hf8  1  0.50281559  0.89818329  0.10184772  1
  Hf  Hf9  1  0.30746597  0.30280520  0.10582494  1
  Hf  Hf10  1  0.59976373  0.79040786  0.40701352  1
  Hf  Hf11  1  0.87649395  0.10420928  0.07285348  1
  Hf  Hf12  1  0.29858456  0.90559840  0.90058506  1
  Hf  Hf13  1  -0.01536362  -0.00117795  -0.01365512  1
  Hf  Hf14  1  0.50238216  0.90633422  0.30067824  1
  Hf  Hf15  1  0.30844835  0.89514885  0.70574242  1
  Hf  Hf16  1  0.40738785  0.20611822  -0.00177335  1
  Hf  Hf17  1  0.30087742  0.90225407  0.09472067  1
  Hf  Hf18  1  0.72032602  0.10279658  0.92082810  1
  Hf  Hf19  1  0.40170274  0.20162736  0.79418867  1
  Hf  Hf20  1  0.88948231  0.69107206  0.70247801  1
  Hf  Hf21  1  -0.00048514  0.40264355  0.59457005  1
  Hf  Hf22  1  0.19080248  -0.00079121  0.60229209  1
  Hf  Hf23  1  0.59855631  0.59957926  0.40769508  1
  Hf  Hf24  1  0.09777194  0.89893995  0.89699073  1
  Hf  Hf25  1  0.30823879  0.90324948  0.50398714  1
  Hf  Hf26  1  0.60067437  0.20585704  0.40104921  1
  Hf  Hf27  1  0.60542564  0.79479684  0.60339299  1
  Hf  Hf28  1  0.08505298  0.89755908  0.30256842  1
  Hf  Hf29  1  0.50073781  0.10172395  0.10503262  1
  Hf  Hf30  1  0.88486725  0.30683656  0.90019039  1
  Hf  Hf31  1  0.69918406  0.30857011  0.29670971  1
  Hf  Hf32  1  0.69955687  0.49579803  0.10498268  1
  Hf  Hf33  1  0.19714961  0.59074893  0.80147058  1
  Hf  Hf34  1  0.51056401  0.10184907  0.89769051  1
  Hf  Hf35  1  0.00578422  0.59526489  0.80137383  1
  Hf  Hf36  1  0.09904906  0.29627821  0.69227190  1
  Hf  Hf37  1  0.79397326  0.19273394  0.19786008  1
  Hf  Hf38  1  0.00677627  0.80365410  0.59851095  1
  Hf  Hf39  1  0.87997335  0.49745520  0.89265995  1
  Hf  Hf40  1  0.08975330  0.10251821  0.29496576  1
  Hf  Hf41  1  0.88628556  0.49930789  0.69931847  1
  Hf  Hf42  1  0.20102272  0.20305311  0.40269878  1
  Hf  Hf43  1  0.00088071  0.59385398  -0.00427197  1
  Hf  Hf44  1  0.59522621  0.59615330  0.21034304  1
  Hf  Hf45  1  0.49446143  0.68801895  0.71107870  1
  Hf  Hf46  1  0.00975423  0.60238607  0.59780490  1
  Hf  Hf47  1  0.29910498  0.09380406  0.90262745  1
  Hf  Hf48  1  0.30870466  0.49947000  0.28997536  1
  Hf  Hf49  1  0.20449325  0.60974350  0.39841372  1
  Zr  Zr50  1  0.69472361  0.31082304  0.09941114  1
  Zr  Zr51  1  0.01415808  0.40676483  -0.00738225  1
  Zr  Zr52  1  0.90264154  0.30729444  0.29028951  1
  Zr  Zr53  1  0.30717930  0.10366711  0.29845583  1
  Zr  Zr54  1  0.30437376  0.68937304  0.10317829  1
  Zr  Zr55  1  0.50506190  0.90964748  0.50619652  1
  Zr  Zr56  1  0.89411166  0.90262030  0.49622375  1
  Zr  Zr57  1  0.50462734  0.30981678  0.50546607  1
  Zr  Zr58  1  0.11515552  0.50044097  0.50144688  1
  Zr  Zr59  1  0.59978936  0.40533875  0.79681517  1
  Zr  Zr60  1  0.69768983  0.69958301  0.09305275  1
  Zr  Zr61  1  0.79562765  0.20101888  0.80058717  1
  Zr  Zr62  1  0.20136643  0.79354981  -0.00115914  1
  Zr  Zr63  1  0.19201540  0.21052877  -0.00315904  1
  Zr  Zr64  1  -0.00288001  0.60076750  0.40281459  1
  Zr  Zr65  1  0.08922768  0.30224750  0.11505083  1
  Zr  Zr66  1  0.39852853  0.79013269  0.21247228  1
  Zr  Zr67  1  0.60736949  0.00114612  0.39600945  1
  Zr  Zr68  1  0.40100964  0.79312113  0.40295872  1
  Zr  Zr69  1  0.89731051  0.30318732  0.69816018  1
  Zr  Zr70  1  0.09336167  0.90387792  0.09630162  1
  Zr  Zr71  1  -0.00451863  0.59640895  0.19923051  1
  Zr  Zr72  1  0.30743821  0.69740398  0.89056822  1
  Zr  Zr73  1  0.49673291  0.48216503  0.10871417  1
  Zr  Zr74  1  0.01723912  0.40261994  0.80393454  1
  Zr  Zr75  1  0.40414001  0.01276655  0.61270455  1
  Zr  Zr76  1  0.29690687  0.09635965  0.09446926  1
  Zr  Zr77  1  0.70432320  0.10071799  0.50075326  1
  Zr  Zr78  1  0.19239568  0.00102065  0.40971614  1
  Zr  Zr79  1  0.19768265  0.20004007  0.79837520  1
  Zr  Zr80  1  0.78534118  0.79958405  0.60567767  1
  Zr  Zr81  1  0.70003802  0.89208628  0.09183475  1
  Zr  Zr82  1  0.10247366  0.49393783  0.29558338  1
  Zr  Zr83  1  -0.00797998  0.40697488  0.40045851  1
  Zr  Zr84  1  0.31011068  0.50089193  0.50377548  1
  Zr  Zr85  1  0.19378519  0.79911968  0.40686257  1
  Zr  Zr86  1  0.19109405  0.80210038  0.60048416  1
  Zr  Zr87  1  0.89033916  0.31190505  0.09755941  1
  Zr  Zr88  1  0.40204645  0.20728720  0.40629058  1
  Zr  Zr89  1  0.40074482  0.58997111  -0.00078866  1
  Zr  Zr90  1  0.21014726  0.19475567  0.60118446  1
  Zr  Zr91  1  0.61654112  -0.00148089  0.80411925  1
  Zr  Zr92  1  0.30565619  0.69449977  0.70397435  1
  Zr  Zr93  1  0.70667258  0.69231598  0.29637514  1
  Zr  Zr94  1  0.89543142  0.70314719  0.49620642  1
  Zr  Zr95  1  0.19894492  -0.00377340  0.20325141  1
  Zr  Zr96  1  -0.00059783  0.20391501  -0.01279348  1
  Zr  Zr97  1  0.89451510  0.10214438  0.50282736  1
  Zr  Zr98  1  0.70027845  0.69402479  0.90076037  1
  Zr  Zr99  1  0.29875048  0.48601775  0.89759033  1
  Ta  Ta100  1  0.30248026  0.69335334  0.51635029  1
  Ta  Ta101  1  0.21079239  0.39163203  0.59491704  1
  Ta  Ta102  1  0.79814231  0.59287716  0.39782917  1
  Ta  Ta103  1  0.89414770  0.29818722  0.50079124  1
  Ta  Ta104  1  0.49849633  0.30436231  0.28500355  1
  Ta  Ta105  1  0.40208206  -0.00011057  0.20258234  1
  Ta  Ta106  1  0.89546544  0.69998278  0.89816552  1
  Ta  Ta107  1  0.90253069  0.10136210  0.70015216  1
  Ta  Ta108  1  -0.00231256  0.79973135  0.79635538  1
  Ta  Ta109  1  -0.00379909  0.00588118  0.40424733  1
  Ta  Ta110  1  0.40321655  0.20296148  0.60624493  1
  Ta  Ta111  1  0.09682291  0.70026692  0.89825769  1
  Ta  Ta112  1  0.79951446  0.59694602  0.00059079  1
  Ta  Ta113  1  0.41269459  0.79432698  0.60265030  1
  Ta  Ta114  1  0.60276319  0.80032196  0.21170021  1
  Ta  Ta115  1  0.70344279  0.49641975  0.50515045  1
  Ta  Ta116  1  0.70637503  0.30677738  0.50350889  1
  Ta  Ta117  1  0.09174771  0.70587718  0.29985211  1
  Ta  Ta118  1  0.78747724  0.80126114  0.39697092  1
  Ta  Ta119  1  0.30771910  0.10191272  0.50399716  1
  Ta  Ta120  1  0.89289027  0.69894475  0.09807073  1
  Ta  Ta121  1  0.70211897  0.30829607  0.69354568  1
  Ta  Ta122  1  0.21051280  0.38618906  0.39975677  1
  Ta  Ta123  1  0.79922793  0.80279690  0.79859941  1
  Ta  Ta124  1  0.50177449  0.10656658  0.29304733  1
  Ta  Ta125  1  0.60216202  0.40734547  0.40007820  1
  Ta  Ta126  1  0.79879600  0.40776629  0.39872640  1
  Ta  Ta127  1  -0.00930530  0.80006645  0.19663187  1
  Ta  Ta128  1  0.00037516  -0.00344840  0.60264008  1
  Ta  Ta129  1  0.20338740  0.39552517  0.20294661  1
  Ta  Ta130  1  0.49616585  0.49124777  0.30076375  1
  Ta  Ta131  1  0.09546582  0.29628631  0.49846173  1
  Ta  Ta132  1  0.00071245  0.19633561  0.80578369  1
  Ta  Ta133  1  -0.00546021  0.19986129  0.39956197  1
  Ta  Ta134  1  0.09506325  0.09718982  0.09715432  1
  Ta  Ta135  1  0.89158472  0.49585367  0.10401190  1
  Ta  Ta136  1  0.19496846  0.58901874  0.00013142  1
  Ta  Ta137  1  0.19805124  0.20171674  0.20258964  1
  Ta  Ta138  1  0.60581349  0.00092677  0.00165288  1
  Ta  Ta139  1  0.19988997  0.79612975  0.20817844  1
  Ta  Ta140  1  0.60283693  0.20177290  0.60672600  1
  Ta  Ta141  1  0.50644507  0.90313747  0.70417993  1
  Ta  Ta142  1  0.89768797  0.70297463  0.29844671  1
  Ta  Ta143  1  0.29797364  0.30979337  0.89730056  1
  Ta  Ta144  1  0.79824674  -0.00063806  0.61608145  1
  Ta  Ta145  1  0.80028391  0.79972149  0.19956074  1
  Ta  Ta146  1  0.79706610  0.20108336  0.60289237  1
  Ta  Ta147  1  0.40881565  0.80118483  -0.00896337  1
  Ta  Ta148  1  0.60232047  0.20581654  0.00289417  1
  Ta  Ta149  1  0.09564825  0.29877163  0.30010559  1
  Ti  Ti150  1  0.40193144  0.39829858  0.60567324  1
  Ti  Ti151  1  0.60126475  0.19991874  0.19543473  1
  Ti  Ti152  1  0.40779231  0.00299073  0.79935513  1
  Ti  Ti153  1  0.10776019  0.49427228  0.10430708  1
  Ti  Ti154  1  0.50405074  0.30681974  0.90190881  1
  Ti  Ti155  1  0.19056883  0.80077609  0.79483370  1
  Ti  Ti156  1  -0.01690614  0.00599808  0.19322250  1
  Ti  Ti157  1  0.30078059  0.90185720  0.30437907  1
  Ti  Ti158  1  0.41434891  -0.00562522  -0.00468725  1
  Ti  Ti159  1  0.11710621  0.49474324  0.69155414  1
  Ti  Ti160  1  0.51239328  0.10380489  0.70446680  1
  Ti  Ti161  1  0.49881615  0.49455215  0.89641123  1
  Ti  Ti162  1  0.71411377  0.89538051  0.90689349  1
  Ti  Ti163  1  0.49955486  0.68671927  0.89637170  1
  Ti  Ti164  1  0.69937524  0.31518354  0.90553363  1
  Ti  Ti165  1  0.60703152  0.20817669  0.80142386  1
  Ti  Ti166  1  0.70129007  0.09939096  0.30259196  1
  Ti  Ti167  1  0.08962564  0.10881930  0.50627421  1
  Ti  Ti168  1  0.50680234  0.30245607  0.69857343  1
  Ti  Ti169  1  0.40301880  0.39448258  0.00296450  1
  Ti  Ti170  1  0.30728754  0.29922184  0.29353478  1
  Ti  Ti171  1  0.10432596  0.69731924  0.70000067  1
  Ti  Ti172  1  0.40489773  0.40120041  0.79156356  1
  Ti  Ti173  1  0.60158651  0.40748797  0.60327859  1
  Ti  Ti174  1  0.40354966  0.00732739  0.39922587  1
  Ti  Ti175  1  0.20281131  0.60128886  0.19917429  1
  Ti  Ti176  1  -0.01051933  0.79791183  -0.00688205  1
  Ti  Ti177  1  0.60341804  0.58882828  0.79842509  1
  Ti  Ti178  1  0.60973321  0.00175426  0.60886189  1
  Ti  Ti179  1  -0.01282989  0.18750417  0.19827679  1
  Ti  Ti180  1  0.60737900  0.00208460  0.19892285  1
  Ti  Ti181  1  0.89965654  0.90084535  0.70375184  1
  Ti  Ti182  1  0.70605210  0.90918543  0.49847334  1
  Ti  Ti183  1  0.80346720  0.20149096  0.39474675  1
  Ti  Ti184  1  0.59901728  0.58443376  -0.00572563  1
  Ti  Ti185  1  0.88503951  0.50216631  0.51081855  1
  Ti  Ti186  1  0.49644322  0.49956506  0.50625860  1
  Ti  Ti187  1  0.30191591  0.30585840  0.70235075  1
  Ti  Ti188  1  0.81075359  -0.00343872  0.80728680  1
  Ti  Ti189  1  0.10024194  0.09331648  0.90239204  1
  Ti  Ti190  1  0.58588330  0.80673539  -0.01716759  1
  Ti  Ti191  1  0.40068266  0.39561480  0.39943046  1
  Ti  Ti192  1  0.89087272  0.89346526  0.09016392  1
  Ti  Ti193  1  0.08312574  0.10590280  0.69396320  1
  Ti  Ti194  1  0.50391706  0.10286938  0.50342370  1
  Ti  Ti195  1  -0.00443467  0.00013286  0.79650173  1
  Ti  Ti196  1  0.41807875  0.81113292  0.81098122  1
  Ti  Ti197  1  0.71122048  0.50215322  0.69939478  1
  Ti  Ti198  1  0.70404554  0.10346154  0.70268620  1
  Ti  Ti199  1  0.30761200  0.50336457  0.69449980  1
  Mo  Mo200  1  0.08763024  0.90622676  0.49831969  1
  Mo  Mo201  1  0.70041268  0.89666505  0.29706895  1
  Mo  Mo202  1  0.79910537  -0.00016897  0.39401916  1
  Mo  Mo203  1  0.69944698  0.49735188  0.30545790  1
  Mo  Mo204  1  0.08923780  0.90215848  0.70521660  1
  Mo  Mo205  1  0.79725546  0.39933496  0.59508720  1
  Mo  Mo206  1  0.59886434  0.40041180  0.21091055  1
  Mo  Mo207  1  0.28990529  0.69459211  0.29564167  1
  Mo  Mo208  1  0.50284191  0.29696694  0.10024175  1
  Mo  Mo209  1  0.59187177  0.39791578  -0.00852390  1
  Mo  Mo210  1  0.79112219  0.60357118  0.80074236  1
  Mo  Mo211  1  0.20349456  0.59820670  0.60480420  1
  Mo  Mo212  1  0.31084987  0.10239305  0.70271257  1
  Mo  Mo213  1  0.50308263  0.90781752  0.89951718  1
  Mo  Mo214  1  0.50394871  0.69479545  0.29608519  1
  Mo  Mo215  1  0.40614559  0.59743948  0.59933237  1
  Mo  Mo216  1  0.79874237  0.41200935  0.20794400  1
  Mo  Mo217  1  0.20485774  0.40274379  0.01196221  1
  Mo  Mo218  1  0.89644182  0.09901300  0.30472230  1
  Mo  Mo219  1  0.78828586  0.41039515  -0.00287344  1
  Mo  Mo220  1  0.29406605  0.49210295  0.10157591  1
  Mo  Mo221  1  0.90063310  0.09716983  0.88900984  1
  Mo  Mo222  1  0.79194414  0.59941746  0.59471063  1
  Mo  Mo223  1  0.20857577  0.39822668  0.78279121  1
  Mo  Mo224  1  0.70369516  0.69040556  0.49843030  1
  Mo  Mo225  1  -0.00576634  0.19833562  0.59646591  1
  Mo  Mo226  1  0.69332155  0.50087596  0.90542462  1
  Mo  Mo227  1  0.18592006  0.00317768  -0.00504438  1
  Mo  Mo228  1  -0.00426041  0.79981136  0.39477243  1
  Mo  Mo229  1  0.79959614  -0.01825100  -0.00279705  1
  Mo  Mo230  1  0.88874785  0.50617243  0.29260987  1
  Mo  Mo231  1  0.69073543  0.09966887  0.09988371  1
  Mo  Mo232  1  0.11811268  0.31026498  0.88897365  1
  Mo  Mo233  1  0.40322376  0.19808656  0.19984362  1
  Mo  Mo234  1  0.49772584  0.69644474  0.51150113  1
  Mo  Mo235  1  0.70435434  0.90847645  0.70548759  1
  Mo  Mo236  1  0.80278487  0.60107863  0.19901591  1
  Mo  Mo237  1  0.40123360  0.59453632  0.20266415  1
  Mo  Mo238  1  0.40857564  0.57943857  0.79875161  1
  Mo  Mo239  1  0.78442237  0.40374442  0.79629575  1
  Mo  Mo240  1  0.00144615  0.40826475  0.20080815  1
  Mo  Mo241  1  0.30527730  0.30192811  0.50474802  1
  Mo  Mo242  1  0.69965985  0.68949787  0.70764703  1
  Mo  Mo243  1  0.11236275  0.50114559  0.90227264  1
  Mo  Mo244  1  0.90008754  0.89287205  0.88910219  1
  Mo  Mo245  1  0.79271281  0.21820323  -0.00132075  1
  Mo  Mo246  1  0.81114688  0.79342060  -0.00376322  1
  Mo  Mo247  1  0.49380443  0.49527886  0.69768712  1
  Mo  Mo248  1  0.39866591  0.39462597  0.20315592  1
  Mo  Mo249  1  0.10381862  0.70327519  0.49904200  1
