# generated using pymatgen
data_HfZrTaTiMo
_symmetry_space_group_name_H-M   'P 1'
_cell_length_a   16.87051093
_cell_length_b   16.87999308
_cell_length_c   16.88465618
_cell_angle_alpha   90.02918254
_cell_angle_beta   90.09476071
_cell_angle_gamma   89.94610816
_symmetry_Int_Tables_number   1
_chemical_formula_structural   HfZrTaTiMo
_chemical_formula_sum   'Hf50 Zr50 Ta50 Ti50 Mo50'
_cell_volume   4808.30357496
_cell_formula_units_Z   50
loop_
 _symmetry_equiv_pos_site_id
 _symmetry_equiv_pos_as_xyz
  1  'x, y, z'
loop_
 _atom_site_type_symbol
 _atom_site_label
 _atom_site_symmetry_multiplicity
 _atom_site_fract_x
 _atom_site_fract_y
 _atom_site_fract_z
 _atom_site_occupancy
  Hf  Hf0  1  0.60515870  0.00319004  0.38915481  1
  Hf  Hf1  1  0.30135630  0.69100478  0.09480646  1
  Hf  Hf2  1  0.29978532  0.31439776  0.89038025  1
  Hf  Hf3  1  0.29438687  0.90651034  0.10988837  1
  Hf  Hf4  1  0.69572491  0.70356566  0.10256774  1
  Hf  Hf5  1  0.80258861  -0.00454762  0.18850983  1
  Hf  Hf6  1  0.20320004  0.80046772  0.40103234  1
  Hf  Hf7  1  0.69566448  0.10371217  0.69879556  1
  Hf  Hf8  1  0.19952145  0.01128421  -0.00412352  1
  Hf  Hf9  1  0.29502492  0.90178853  0.70652864  1
  Hf  Hf10  1  0.48439185  0.30982516  0.70115348  1
  Hf  Hf11  1  0.20228007  0.58854071  0.59056854  1
  Hf  Hf12  1  0.59686873  0.59918431  0.59408190  1
  Hf  Hf13  1  0.89436339  0.70237870  0.09231220  1
  Hf  Hf14  1  0.70137566  0.89422910  0.49024892  1
  Hf  Hf15  1  0.19626955  0.20174776  0.80298256  1
  Hf  Hf16  1  0.89749847  0.50148875  0.70627069  1
  Hf  Hf17  1  0.90506476  0.71220252  0.48880810  1
  Hf  Hf18  1  0.81625966  0.40393656  0.00596411  1
  Hf  Hf19  1  0.71101298  0.51158118  0.90122769  1
  Hf  Hf20  1  0.19711703  0.20674622  0.19112414  1
  Hf  Hf21  1  0.39460112  0.20493715  0.00224556  1
  Hf  Hf22  1  0.39024969  0.79864129  0.58965933  1
  Hf  Hf23  1  0.09812090  0.30860229  0.29583620  1
  Hf  Hf24  1  0.09556807  0.90957842  0.10533485  1
  Hf  Hf25  1  0.29340983  0.50043411  0.90235140  1
  Hf  Hf26  1  0.80587665  -0.00616540  0.00185039  1
  Hf  Hf27  1  0.10337908  0.90414732  0.70328488  1
  Hf  Hf28  1  0.29668888  0.69100193  0.90640470  1
  Hf  Hf29  1  0.30631579  0.50219770  0.30902595  1
  Hf  Hf30  1  0.69847743  0.29871121  0.49925436  1
  Hf  Hf31  1  0.00308249  0.39756215  0.81342567  1
  Hf  Hf32  1  0.80188508  0.59949235  0.59388629  1
  Hf  Hf33  1  0.39693943  0.79473074  0.20493532  1
  Hf  Hf34  1  0.19911548  0.40957283  0.40918150  1
  Hf  Hf35  1  0.49804127  0.69800989  0.91604282  1
  Hf  Hf36  1  0.59791837  0.20703680  -0.00253908  1
  Hf  Hf37  1  0.59845842  0.78429341  0.39134989  1
  Hf  Hf38  1  0.90923856  0.09510500  0.28832398  1
  Hf  Hf39  1  0.49774390  0.10195228  0.90069692  1
  Hf  Hf40  1  0.80402223  -0.00429649  0.59836246  1
  Hf  Hf41  1  0.80074049  -0.00336470  0.80637249  1
  Hf  Hf42  1  0.10943940  0.50232082  0.70973514  1
  Hf  Hf43  1  0.48807921  0.69954552  0.69128584  1
  Hf  Hf44  1  0.48711030  0.49888269  0.90585756  1
  Hf  Hf45  1  0.59657985  0.39962274  0.80173769  1
  Hf  Hf46  1  0.80595274  0.20322207  0.80134084  1
  Hf  Hf47  1  0.80618049  0.59998513  0.20289059  1
  Hf  Hf48  1  0.79714707  0.60561843  0.39088031  1
  Hf  Hf49  1  0.90577797  0.69805036  0.70363977  1
  Zr  Zr50  1  0.49439379  0.89686116  0.90352045  1
  Zr  Zr51  1  0.69844411  0.50615604  0.10342905  1
  Zr  Zr52  1  0.01337371  0.20469824  0.61575443  1
  Zr  Zr53  1  0.50018265  0.90051969  0.29710679  1
  Zr  Zr54  1  0.39633579  0.20474112  0.59935618  1
  Zr  Zr55  1  0.91535752  0.90153828  0.69712288  1
  Zr  Zr56  1  0.19382087  0.59040785  0.19606165  1
  Zr  Zr57  1  0.09556295  0.69391263  0.08877972  1
  Zr  Zr58  1  0.39440328  0.79885536  0.40369518  1
  Zr  Zr59  1  0.19237977  0.79839256  0.80576655  1
  Zr  Zr60  1  0.29773542  0.10138186  0.29890828  1
  Zr  Zr61  1  0.70411456  0.30296072  0.69647056  1
  Zr  Zr62  1  0.30037771  0.10201280  0.49473846  1
  Zr  Zr63  1  0.70481179  0.69557814  0.70497390  1
  Zr  Zr64  1  0.10344366  0.09960830  0.50559705  1
  Zr  Zr65  1  0.09717335  0.90513305  0.29364646  1
  Zr  Zr66  1  0.59928744  0.39790021  -0.00367986  1
  Zr  Zr67  1  0.40610953  0.21324243  0.39537684  1
  Zr  Zr68  1  0.00090752  0.59840279  0.39293324  1
  Zr  Zr69  1  0.79920373  0.39810548  0.40287478  1
  Zr  Zr70  1  0.39327501  0.59954871  0.79514979  1
  Zr  Zr71  1  0.80994750  0.80323665  0.81109505  1
  Zr  Zr72  1  0.19280220  0.80922688  -0.00417698  1
  Zr  Zr73  1  0.69672145  0.30512727  0.29111424  1
  Zr  Zr74  1  0.50342981  0.50344231  0.10783506  1
  Zr  Zr75  1  0.80066965  0.80236754  0.59646461  1
  Zr  Zr76  1  0.39429885  -0.00673020  0.59485352  1
  Zr  Zr77  1  0.19223299  0.39364179  0.01705390  1
  Zr  Zr78  1  0.19589063  0.20474060  0.00303605  1
  Zr  Zr79  1  0.60594175  0.00182629  0.00564900  1
  Zr  Zr80  1  0.80489309  0.20165699  0.00414599  1
  Zr  Zr81  1  0.00023372  0.60294716  0.81099296  1
  Zr  Zr82  1  0.01045873  0.19729707  0.39373237  1
  Zr  Zr83  1  0.91545238  0.09817106  0.70631303  1
  Zr  Zr84  1  0.60218174  -0.00442768  0.79846073  1
  Zr  Zr85  1  0.49660255  0.09497725  0.69949289  1
  Zr  Zr86  1  0.90781052  0.09260133  0.50198521  1
  Zr  Zr87  1  0.08837877  0.90062010  0.50035480  1
  Zr  Zr88  1  0.69977624  0.09963319  0.50181706  1
  Zr  Zr89  1  0.59800706  0.80009027  0.79775288  1
  Zr  Zr90  1  0.59672093  0.59863084  0.79953353  1
  Zr  Zr91  1  0.59672249  0.20348410  0.39543470  1
  Zr  Zr92  1  0.50417083  0.69737196  0.10060871  1
  Zr  Zr93  1  0.70611620  0.88256897  0.28837241  1
  Zr  Zr94  1  0.58948050  0.40162166  0.58891131  1
  Zr  Zr95  1  0.90432933  0.29841367  0.50515272  1
  Zr  Zr96  1  0.90214744  0.48532719  0.29533225  1
  Zr  Zr97  1  0.40414095  0.00547372  0.19798555  1
  Zr  Zr98  1  0.90486786  0.29961326  0.28945464  1
  Zr  Zr99  1  0.10163707  0.69774118  0.49344305  1
  Ta  Ta100  1  0.29456006  0.69076495  0.30357936  1
  Ta  Ta101  1  0.80711151  0.40035622  0.80855417  1
  Ta  Ta102  1  0.29982695  0.30762713  0.50397828  1
  Ta  Ta103  1  0.50230302  0.10606511  0.10494456  1
  Ta  Ta104  1  0.58726567  0.20303108  0.59625192  1
  Ta  Ta105  1  0.90949878  0.10058714  0.90459387  1
  Ta  Ta106  1  0.49915447  0.09326206  0.49343596  1
  Ta  Ta107  1  0.00429475  0.59640548  0.59738915  1
  Ta  Ta108  1  0.69746406  0.50350606  0.49398090  1
  Ta  Ta109  1  0.80483440  0.20082543  0.19308694  1
  Ta  Ta110  1  0.09901119  0.49721373  0.29744097  1
  Ta  Ta111  1  0.19914899  0.00155562  0.39681590  1
  Ta  Ta112  1  0.09132993  0.10198681  0.90181405  1
  Ta  Ta113  1  0.70481430  0.30150219  0.90013681  1
  Ta  Ta114  1  0.50040203  0.90449353  0.49275972  1
  Ta  Ta115  1  0.69027045  0.49676760  0.30054798  1
  Ta  Ta116  1  0.59365381  0.80060114  0.59183225  1
  Ta  Ta117  1  0.70082745  0.88879122  0.91252629  1
  Ta  Ta118  1  0.90399419  0.30731183  0.70205345  1
  Ta  Ta119  1  0.10792030  0.30294520  0.50720499  1
  Ta  Ta120  1  0.70370802  0.69905224  0.91658866  1
  Ta  Ta121  1  0.39565779  0.00619805  0.00218079  1
  Ta  Ta122  1  0.70011568  0.30521759  0.10791015  1
  Ta  Ta123  1  0.20393938  0.20634876  0.60957134  1
  Ta  Ta124  1  -0.00812097  0.81070581  -0.00915689  1
  Ta  Ta125  1  0.60546013  0.00216955  0.19429826  1
  Ta  Ta126  1  0.19810562  0.79425881  0.20397890  1
  Ta  Ta127  1  0.90294178  0.50013891  0.50228535  1
  Ta  Ta128  1  0.29470037  0.90618274  0.29995542  1
  Ta  Ta129  1  0.70179012  0.10539996  0.89940973  1
  Ta  Ta130  1  0.20663591  0.79794001  0.59366229  1
  Ta  Ta131  1  0.70547303  0.49895584  0.70043505  1
  Ta  Ta132  1  0.80211827  0.19154909  0.39162270  1
  Ta  Ta133  1  0.29172646  0.09712985  0.70657807  1
  Ta  Ta134  1  0.00813959  0.40648146  0.60105443  1
  Ta  Ta135  1  0.90184573  0.89403714  0.29721633  1
  Ta  Ta136  1  0.50709044  0.30116236  0.11111865  1
  Ta  Ta137  1  0.29137288  0.69271022  0.69595572  1
  Ta  Ta138  1  0.50746204  0.89491750  0.10003501  1
  Ta  Ta139  1  0.69777321  0.69875567  0.49144208  1
  Ta  Ta140  1  0.00580312  0.79865515  0.81746949  1
  Ta  Ta141  1  0.48683339  0.49893977  0.69177757  1
  Ta  Ta142  1  -0.00250933  0.59786632  0.19740648  1
  Ta  Ta143  1  0.39354139  0.20300221  0.80182681  1
  Ta  Ta144  1  0.59392014  0.20927119  0.80411316  1
  Ta  Ta145  1  0.10727652  0.49943529  0.90748386  1
  Ta  Ta146  1  -0.00451743  0.79645534  0.19620489  1
  Ta  Ta147  1  0.40067729  0.20980352  0.19933074  1
  Ta  Ta148  1  0.91257848  0.10052859  0.09709766  1
  Ta  Ta149  1  0.80455178  -0.00218433  0.39077874  1
  Ti  Ti150  1  0.40082485  0.59532642  0.20573474  1
  Ti  Ti151  1  0.80281806  0.40407637  0.59990942  1
  Ti  Ti152  1  0.19808947  0.20515048  0.39847814  1
  Ti  Ti153  1  0.59711147  -0.00687278  0.59744264  1
  Ti  Ti154  1  0.40137599  0.39125163  0.00990773  1
  Ti  Ti155  1  0.50240981  0.10407764  0.29362881  1
  Ti  Ti156  1  0.00941221  0.19851534  0.18632466  1
  Ti  Ti157  1  0.00699442  0.40272776  0.41230574  1
  Ti  Ti158  1  0.69847435  0.88150178  0.09971640  1
  Ti  Ti159  1  0.49243145  0.68528097  0.30670504  1
  Ti  Ti160  1  0.10897858  0.31277638  0.70680958  1
  Ti  Ti161  1  0.49514019  0.69083955  0.49613751  1
  Ti  Ti162  1  0.00169006  0.39389931  0.00515322  1
  Ti  Ti163  1  0.58757061  0.40918557  0.39957434  1
  Ti  Ti164  1  0.00380237  -0.00919006  0.81576102  1
  Ti  Ti165  1  0.10507778  0.68475328  0.90860966  1
  Ti  Ti166  1  0.20280029  -0.00338278  0.59504035  1
  Ti  Ti167  1  0.38974184  0.00686506  0.80681333  1
  Ti  Ti168  1  0.48498213  0.50851749  0.49571199  1
  Ti  Ti169  1  0.29776600  0.30825957  0.30030698  1
  Ti  Ti170  1  0.00839846  0.20789824  0.80640274  1
  Ti  Ti171  1  0.39336217  0.81025022  0.00380154  1
  Ti  Ti172  1  0.90774510  0.29417563  0.90620059  1
  Ti  Ti173  1  -0.00893939  0.57887663  0.00520167  1
  Ti  Ti174  1  0.19985359  0.39995469  0.19382997  1
  Ti  Ti175  1  -0.00159032  -0.00175640  0.00147658  1
  Ti  Ti176  1  0.90717061  0.89720693  0.48748722  1
  Ti  Ti177  1  0.39295467  0.79811600  0.80103889  1
  Ti  Ti178  1  0.88981881  0.68911914  0.90921886  1
  Ti  Ti179  1  0.10463365  0.08614968  0.70629844  1
  Ti  Ti180  1  0.40560337  0.39990572  0.40573857  1
  Ti  Ti181  1  0.29673865  0.90861843  0.89734526  1
  Ti  Ti182  1  0.20378199  0.40074400  0.59987198  1
  Ti  Ti183  1  0.50719948  0.31094278  0.29149557  1
  Ti  Ti184  1  0.49397164  0.89627538  0.69724426  1
  Ti  Ti185  1  0.69702012  0.11043188  0.10394244  1
  Ti  Ti186  1  0.30624005  0.50064652  0.09729656  1
  Ti  Ti187  1  0.00353724  0.00196621  0.39167657  1
  Ti  Ti188  1  0.70417886  0.10373312  0.28928893  1
  Ti  Ti189  1  0.40100168  0.39971290  0.20282964  1
  Ti  Ti190  1  0.80532547  0.19937460  0.60120847  1
  Ti  Ti191  1  0.30045035  0.10143858  0.10416403  1
  Ti  Ti192  1  0.09899870  0.69839323  0.29864403  1
  Ti  Ti193  1  0.69747419  0.89632840  0.69763155  1
  Ti  Ti194  1  0.30419945  0.67789980  0.49118404  1
  Ti  Ti195  1  0.30192379  0.48906464  0.70201223  1
  Ti  Ti196  1  0.10654796  0.69636472  0.70143128  1
  Ti  Ti197  1  0.60100049  0.60535578  0.22122384  1
  Ti  Ti198  1  0.00091501  0.40381442  0.17951716  1
  Ti  Ti199  1  0.00892060  0.79424791  0.60461170  1
  Mo  Mo200  1  0.09248614  0.10118296  0.09744995  1
  Mo  Mo201  1  0.59927105  0.19764194  0.19704320  1
  Mo  Mo202  1  0.19708591  0.00794491  0.80592104  1
  Mo  Mo203  1  0.70013394  0.69504201  0.29796677  1
  Mo  Mo204  1  0.39077955  0.40555024  0.59324925  1
  Mo  Mo205  1  0.39555806  0.40187507  0.79300125  1
  Mo  Mo206  1  0.59427488  0.79434044  0.20128683  1
  Mo  Mo207  1  0.39517225  0.59044672  0.00775747  1
  Mo  Mo208  1  0.89974975  0.71094349  0.29316532  1
  Mo  Mo209  1  0.80407426  0.59992883  0.00196707  1
  Mo  Mo210  1  0.19800494  0.59936936  0.79820739  1
  Mo  Mo211  1  0.79812161  0.39784802  0.19356999  1
  Mo  Mo212  1  0.00499952  -0.00618651  0.60043806  1
  Mo  Mo213  1  0.19576421  0.01195737  0.20158617  1
  Mo  Mo214  1  0.39237631  0.59656950  0.59462129  1
  Mo  Mo215  1  0.10318785  0.09946313  0.29239206  1
  Mo  Mo216  1  0.49347629  0.30067679  0.89763570  1
  Mo  Mo217  1  0.40235768  0.00109488  0.39674438  1
  Mo  Mo218  1  0.80381084  0.79909618  0.39386072  1
  Mo  Mo219  1  0.90293756  0.49870038  0.10077724  1
  Mo  Mo220  1  0.19609268  0.59025592  0.00166891  1
  Mo  Mo221  1  0.59620125  0.59422299  0.40068652  1
  Mo  Mo222  1  0.90464829  0.49813699  0.90551245  1
  Mo  Mo223  1  0.59877495  0.60284319  -0.00398950  1
  Mo  Mo224  1  0.80194703  0.80094396  0.00248052  1
  Mo  Mo225  1  0.60205664  0.80168649  0.00435274  1
  Mo  Mo226  1  0.80297663  0.59673211  0.80488967  1
  Mo  Mo227  1  0.29364630  0.90594429  0.49421223  1
  Mo  Mo228  1  -0.00169902  0.00113010  0.19343818  1
  Mo  Mo229  1  0.19884156  0.59768297  0.39538083  1
  Mo  Mo230  1  -0.00068652  0.80015080  0.38418050  1
  Mo  Mo231  1  0.08981780  0.30097737  0.10223759  1
  Mo  Mo232  1  0.80700392  0.79805609  0.19822182  1
  Mo  Mo233  1  0.30251893  0.10189852  0.89626958  1
  Mo  Mo234  1  0.09293464  0.49720393  0.10189002  1
  Mo  Mo235  1  0.49924871  0.49819024  0.30452449  1
  Mo  Mo236  1  0.09598499  0.29945665  0.90350184  1
  Mo  Mo237  1  0.90318830  0.29731383  0.10196162  1
  Mo  Mo238  1  0.09542027  0.90951851  0.90425166  1
  Mo  Mo239  1  0.31310214  0.30816033  0.11091017  1
  Mo  Mo240  1  0.00187644  0.20227044  -0.00042674  1
  Mo  Mo241  1  0.49593290  0.30544844  0.49712179  1
  Mo  Mo242  1  0.19754059  0.40040848  0.79983073  1
  Mo  Mo243  1  0.30575245  0.49656134  0.50119191  1
  Mo  Mo244  1  0.90242398  0.90443687  0.90487657  1
  Mo  Mo245  1  0.09621427  0.49573049  0.50220988  1
  Mo  Mo246  1  0.40139893  0.59734601  0.39912044  1
  Mo  Mo247  1  0.29292221  0.30382636  0.69812766  1
  Mo  Mo248  1  0.59789439  0.40257040  0.20453837  1
  Mo  Mo249  1  0.90488492  0.89860475  0.10152142  1
