# generated using pymatgen
data_HfZrTaTiMo
_symmetry_space_group_name_H-M   'P 1'
_cell_length_a   16.87194373
_cell_length_b   16.87696700
_cell_length_c   16.88744275
_cell_angle_alpha   90.01722861
_cell_angle_beta   89.97062202
_cell_angle_gamma   90.03738294
_symmetry_Int_Tables_number   1
_chemical_formula_structural   HfZrTaTiMo
_chemical_formula_sum   'Hf50 Zr50 Ta50 Ti50 Mo50'
_cell_volume   4808.65080113
_cell_formula_units_Z   50
loop_
 _symmetry_equiv_pos_site_id
 _symmetry_equiv_pos_as_xyz
  1  'x, y, z'
loop_
 _atom_site_type_symbol
 _atom_site_label
 _atom_site_symmetry_multiplicity
 _atom_site_fract_x
 _atom_site_fract_y
 _atom_site_fract_z
 _atom_site_occupancy
  Hf  Hf0  1  0.60140953  0.40179452  0.79140173  1
  Hf  Hf1  1  0.79734299  0.39471453  0.19924262  1
  Hf  Hf2  1  0.30775517  0.49986059  0.70104657  1
  Hf  Hf3  1  0.48771007  0.89686163  0.51304122  1
  Hf  Hf4  1  0.00101361  0.59900546  -0.00551797  1
  Hf  Hf5  1  -0.00095695  0.20020937  -0.00027989  1
  Hf  Hf6  1  0.59511535  0.39934976  0.60137982  1
  Hf  Hf7  1  0.69286388  0.28586386  0.90454051  1
  Hf  Hf8  1  0.30122394  0.70060083  0.09161474  1
  Hf  Hf9  1  0.89293950  0.90469089  0.70389506  1
  Hf  Hf10  1  0.50651660  0.28663222  0.30972920  1
  Hf  Hf11  1  0.78989811  0.39838865  0.80231685  1
  Hf  Hf12  1  0.31501566  0.49400090  0.50867361  1
  Hf  Hf13  1  0.10677062  0.49246978  0.49013455  1
  Hf  Hf14  1  -0.00586763  0.80406544  -0.00259091  1
  Hf  Hf15  1  0.09988194  0.09939028  0.10040671  1
  Hf  Hf16  1  0.19600308  -0.00023321  0.59848628  1
  Hf  Hf17  1  0.50238805  0.68960713  0.09116622  1
  Hf  Hf18  1  0.40055751  0.38938476  0.19685869  1
  Hf  Hf19  1  -0.00917337  -0.00546972  0.20949414  1
  Hf  Hf20  1  0.49705823  0.50777279  0.90457847  1
  Hf  Hf21  1  0.78314973  0.00534119  0.00305464  1
  Hf  Hf22  1  0.69618746  0.29809158  0.48943953  1
  Hf  Hf23  1  0.40109909  0.39241267  -0.00132803  1
  Hf  Hf24  1  0.69280709  0.09946570  0.70048991  1
  Hf  Hf25  1  -0.00163627  0.60343805  0.80829703  1
  Hf  Hf26  1  -0.00895292  0.20339940  0.20685591  1
  Hf  Hf27  1  0.89801932  0.70202667  0.10488450  1
  Hf  Hf28  1  0.30571118  0.09886754  0.89518960  1
  Hf  Hf29  1  0.49937544  0.10423423  0.50171188  1
  Hf  Hf30  1  0.10306905  0.70747608  0.49552291  1
  Hf  Hf31  1  0.59661647  -0.00174555  0.00279324  1
  Hf  Hf32  1  0.80390704  0.19694024  0.59960772  1
  Hf  Hf33  1  0.79709889  0.19511393  0.79961667  1
  Hf  Hf34  1  0.31348113  0.70629573  0.51465193  1
  Hf  Hf35  1  0.19765224  0.60071655  -0.00688173  1
  Hf  Hf36  1  0.49489156  0.70331329  0.69193751  1
  Hf  Hf37  1  -0.00637496  0.80192102  0.80598134  1
  Hf  Hf38  1  0.59674034  0.80475487  -0.00436135  1
  Hf  Hf39  1  0.79526578  0.00344065  0.80158093  1
  Hf  Hf40  1  0.20766215  0.39780350  0.20018297  1
  Hf  Hf41  1  0.39843501  0.80539568  0.19370930  1
  Hf  Hf42  1  0.09784109  0.10561369  0.69519569  1
  Hf  Hf43  1  0.89621773  0.09454726  0.09785457  1
  Hf  Hf44  1  0.59269365  0.59176739  0.59165149  1
  Hf  Hf45  1  0.49893515  0.10033574  0.30456678  1
  Hf  Hf46  1  0.69596074  0.09649766  0.30773852  1
  Hf  Hf47  1  0.70426979  0.70589367  0.70126754  1
  Hf  Hf48  1  0.09697674  0.90307341  0.49010774  1
  Hf  Hf49  1  0.40601495  -0.00228091  0.00624050  1
  Zr  Zr50  1  0.10793154  0.29911992  0.10164834  1
  Zr  Zr51  1  0.69076706  0.51823210  0.10411389  1
  Zr  Zr52  1  0.40889973  0.59948706  0.40171092  1
  Zr  Zr53  1  -0.00012326  0.60254319  0.59893987  1
  Zr  Zr54  1  0.31738634  0.90693688  0.69866004  1
  Zr  Zr55  1  0.59380295  0.60444239  0.39799972  1
  Zr  Zr56  1  0.30865466  0.50554369  0.09446109  1
  Zr  Zr57  1  0.71854712  0.51062182  0.68636349  1
  Zr  Zr58  1  0.88634684  0.49777711  0.49982023  1
  Zr  Zr59  1  0.29250512  0.89833833  0.31316837  1
  Zr  Zr60  1  0.80783040  0.60322081  -0.00865102  1
  Zr  Zr61  1  0.09962591  0.30391221  0.30484493  1
  Zr  Zr62  1  0.51041942  0.28577915  0.09180437  1
  Zr  Zr63  1  0.60438024  -0.00363612  0.41141468  1
  Zr  Zr64  1  0.90534803  0.30603650  0.70578467  1
  Zr  Zr65  1  0.21253781  0.60859212  0.39338828  1
  Zr  Zr66  1  0.00000074  0.40301186  0.00844960  1
  Zr  Zr67  1  0.79983169  0.19714881  0.20112518  1
  Zr  Zr68  1  0.80063606  0.19483952  0.40102102  1
  Zr  Zr69  1  0.30342773  0.09552334  0.49879388  1
  Zr  Zr70  1  0.19536993  0.59592497  0.60304452  1
  Zr  Zr71  1  0.79919557  0.40088718  0.00558551  1
  Zr  Zr72  1  0.30513555  0.69555619  0.70975265  1
  Zr  Zr73  1  -0.00371670  0.19422537  0.80038222  1
  Zr  Zr74  1  0.20250695  0.20326126  0.39729870  1
  Zr  Zr75  1  0.50642848  0.49866097  0.28986358  1
  Zr  Zr76  1  0.20152320  -0.00606948  0.19884429  1
  Zr  Zr77  1  0.50775002  0.28855928  0.90173865  1
  Zr  Zr78  1  -0.00549329  0.80422512  0.59824842  1
  Zr  Zr79  1  0.59775549  0.59922691  0.79531772  1
  Zr  Zr80  1  0.40574354  -0.00690305  0.19465846  1
  Zr  Zr81  1  0.90100175  0.50211206  0.69965966  1
  Zr  Zr82  1  -0.00080126  0.60831304  0.39406288  1
  Zr  Zr83  1  0.60866512  0.39060463  0.19859977  1
  Zr  Zr84  1  0.40501334  0.78870098  0.38897496  1
  Zr  Zr85  1  0.40294513  0.20803565  0.60623821  1
  Zr  Zr86  1  0.89526404  0.50124640  0.30481149  1
  Zr  Zr87  1  0.59136721  0.80439900  0.20340355  1
  Zr  Zr88  1  0.10392915  0.30745768  0.89122341  1
  Zr  Zr89  1  0.69983419  0.70742431  0.30169133  1
  Zr  Zr90  1  0.79716014  0.81196154  0.59921637  1
  Zr  Zr91  1  0.00480582  0.39231333  0.59424662  1
  Zr  Zr92  1  0.30387124  0.50448058  0.89086110  1
  Zr  Zr93  1  0.30965944  0.30231245  0.49727020  1
  Zr  Zr94  1  0.09939578  0.70159009  0.10159524  1
  Zr  Zr95  1  0.19993263  0.80518110  0.60536940  1
  Zr  Zr96  1  0.30389337  0.90327795  0.89389969  1
  Zr  Zr97  1  -0.00064690  0.00615689  0.81050136  1
  Zr  Zr98  1  0.08902335  0.90292143  0.09753846  1
  Zr  Zr99  1  0.30255897  0.10012578  0.70215853  1
  Ta  Ta100  1  0.39662389  0.19637695  0.19719788  1
  Ta  Ta101  1  0.49942222  0.90213821  0.89114556  1
  Ta  Ta102  1  0.60433842  0.20055069  0.59983277  1
  Ta  Ta103  1  -0.00748167  0.00259140  0.59871761  1
  Ta  Ta104  1  0.88813401  0.70772664  0.49329198  1
  Ta  Ta105  1  0.20169502  0.60225131  0.20498685  1
  Ta  Ta106  1  0.20077811  0.39266969  0.60414544  1
  Ta  Ta107  1  -0.00543064  0.40139222  0.20089359  1
  Ta  Ta108  1  0.69936102  0.70578752  0.89922627  1
  Ta  Ta109  1  0.10617640  0.70878472  0.89799698  1
  Ta  Ta110  1  0.79805950  0.80496680  0.00251761  1
  Ta  Ta111  1  0.40685986  0.39287902  0.79346037  1
  Ta  Ta112  1  -0.00572609  0.80236431  0.21292539  1
  Ta  Ta113  1  0.69878370  0.70269395  0.09901690  1
  Ta  Ta114  1  0.69828342  0.70538707  0.49872806  1
  Ta  Ta115  1  0.20376423  0.19468215  -0.00598165  1
  Ta  Ta116  1  0.70356305  0.28241989  0.09189669  1
  Ta  Ta117  1  0.88838340  0.90098042  0.31072405  1
  Ta  Ta118  1  0.89463906  0.90702052  0.91015977  1
  Ta  Ta119  1  0.89380425  0.30599398  0.30860849  1
  Ta  Ta120  1  0.89657228  0.09073568  0.49644190  1
  Ta  Ta121  1  0.79671712  -0.00399657  0.20534406  1
  Ta  Ta122  1  0.40730294  0.79909928  0.80371567  1
  Ta  Ta123  1  0.09594533  0.90153551  0.70568448  1
  Ta  Ta124  1  0.09343424  0.10098419  0.49613156  1
  Ta  Ta125  1  0.30346848  0.49855963  0.29812563  1
  Ta  Ta126  1  0.09857020  0.70254770  0.70913338  1
  Ta  Ta127  1  0.18938266  -0.00000759  0.80514670  1
  Ta  Ta128  1  0.88993522  0.69860668  0.70211536  1
  Ta  Ta129  1  0.80399559  0.80626763  0.20064665  1
  Ta  Ta130  1  0.20247462  0.80900166  -0.00285941  1
  Ta  Ta131  1  0.89509284  0.29858949  0.90602323  1
  Ta  Ta132  1  -0.00603344  0.19830497  0.59051993  1
  Ta  Ta133  1  0.60536937  -0.00684787  0.60331229  1
  Ta  Ta134  1  0.00427469  0.60301818  0.20720486  1
  Ta  Ta135  1  0.10460969  0.49062119  0.71233527  1
  Ta  Ta136  1  0.19352500  -0.00062173  -0.00643232  1
  Ta  Ta137  1  0.10296590  0.49755500  0.29826569  1
  Ta  Ta138  1  0.09832198  0.09708039  0.30528206  1
  Ta  Ta139  1  0.30252148  0.10293228  0.30095841  1
  Ta  Ta140  1  0.49947175  0.09120550  0.70088465  1
  Ta  Ta141  1  -0.00702211  0.80438983  0.39435488  1
  Ta  Ta142  1  0.19996362  0.80216909  0.20232539  1
  Ta  Ta143  1  0.40036976  0.60836856  0.20698493  1
  Ta  Ta144  1  0.90265783  0.50661348  0.10950224  1
  Ta  Ta145  1  -0.00829299  0.19686449  0.40197042  1
  Ta  Ta146  1  0.29767444  0.10049520  0.09858893  1
  Ta  Ta147  1  0.70402302  0.49944538  0.49248982  1
  Ta  Ta148  1  0.69938333  0.89720745  0.10634875  1
  Ta  Ta149  1  0.40501695  0.20176900  0.79997390  1
  Ti  Ti150  1  0.50663059  0.89964146  0.31146294  1
  Ti  Ti151  1  -0.00784549  0.00043394  0.39703126  1
  Ti  Ti152  1  0.10546928  0.49112821  0.88959842  1
  Ti  Ti153  1  0.40479356  0.39797040  0.39452256  1
  Ti  Ti154  1  0.50658146  0.09953948  0.88768197  1
  Ti  Ti155  1  0.39882466  -0.00133361  0.40161741  1
  Ti  Ti156  1  0.60347485  0.40202228  0.39717240  1
  Ti  Ti157  1  0.29701825  0.30346510  0.70516753  1
  Ti  Ti158  1  0.79658594  0.38515011  0.59500003  1
  Ti  Ti159  1  0.59822177  0.80596662  0.79566569  1
  Ti  Ti160  1  0.40316458  0.18948540  0.00175580  1
  Ti  Ti161  1  0.60380291  0.40388057  0.00279917  1
  Ti  Ti162  1  0.20728540  0.19950800  0.20420614  1
  Ti  Ti163  1  0.70568297  0.89481052  0.48987420  1
  Ti  Ti164  1  0.50508544  0.71260415  0.50627889  1
  Ti  Ti165  1  0.19474827  0.00211284  0.39773284  1
  Ti  Ti166  1  -0.00699847  0.39401253  0.40274836  1
  Ti  Ti167  1  0.70134751  0.89413465  0.89227546  1
  Ti  Ti168  1  0.69263324  0.50929007  0.90464599  1
  Ti  Ti169  1  0.49354920  0.69539221  0.89933978  1
  Ti  Ti170  1  0.79432014  0.00079082  0.59260555  1
  Ti  Ti171  1  0.21252903  0.39811027  0.39441296  1
  Ti  Ti172  1  0.80237093  0.60808144  0.20705200  1
  Ti  Ti173  1  0.29903830  0.28793356  0.09314934  1
  Ti  Ti174  1  0.10068864  0.50177569  0.10873349  1
  Ti  Ti175  1  0.70180315  0.50327783  0.30239792  1
  Ti  Ti176  1  0.60357021  0.19030924  0.19668387  1
  Ti  Ti177  1  0.61141477  0.17043534  0.00578155  1
  Ti  Ti178  1  0.60125861  -0.00698435  0.79737074  1
  Ti  Ti179  1  0.20561784  0.39846180  -0.00171448  1
  Ti  Ti180  1  0.10083675  0.29775560  0.49568307  1
  Ti  Ti181  1  0.30078804  0.29784950  0.89400387  1
  Ti  Ti182  1  0.70044151  0.89860844  0.30580633  1
  Ti  Ti183  1  0.50011001  0.29997156  0.49458756  1
  Ti  Ti184  1  0.50668609  0.29161421  0.70402789  1
  Ti  Ti185  1  0.79732361  0.60758623  0.39895017  1
  Ti  Ti186  1  0.80565318  0.60643119  0.81096103  1
  Ti  Ti187  1  0.50273354  0.51134878  0.09420475  1
  Ti  Ti188  1  0.19579778  0.20718593  0.59754499  1
  Ti  Ti189  1  0.19994812  0.19798848  0.80277238  1
  Ti  Ti190  1  0.39864790  0.80330484  -0.00456534  1
  Ti  Ti191  1  0.60498578  0.81224299  0.60503107  1
  Ti  Ti192  1  0.59653644  -0.00140922  0.19076495  1
  Ti  Ti193  1  0.30291737  0.89728405  0.50111124  1
  Ti  Ti194  1  0.90509827  0.48669258  0.89444420  1
  Ti  Ti195  1  0.19898110  0.80545128  0.80497356  1
  Ti  Ti196  1  0.10328497  0.30406942  0.70496057  1
  Ti  Ti197  1  0.89319841  0.10082128  0.91137522  1
  Ti  Ti198  1  0.10682609  0.71018632  0.30202869  1
  Ti  Ti199  1  0.19761508  0.60628931  0.80463276  1
  Mo  Mo200  1  0.50240622  0.47912431  0.49829725  1
  Mo  Mo201  1  0.79959052  -0.00353917  0.40362048  1
  Mo  Mo202  1  0.90183133  0.09382804  0.30589222  1
  Mo  Mo203  1  0.40836958  0.39489385  0.61015021  1
  Mo  Mo204  1  0.79885759  0.80266415  0.80856769  1
  Mo  Mo205  1  0.89074461  0.89975758  0.10462749  1
  Mo  Mo206  1  0.19806065  0.80218199  0.39709777  1
  Mo  Mo207  1  0.69884076  0.09563261  0.50722090  1
  Mo  Mo208  1  0.89760052  0.90631667  0.49459542  1
  Mo  Mo209  1  0.59704030  0.19548989  0.79166756  1
  Mo  Mo210  1  0.40239216  0.80144883  0.60566790  1
  Mo  Mo211  1  0.50176019  0.89639555  0.08837611  1
  Mo  Mo212  1  0.69568218  0.09250247  0.11264325  1
  Mo  Mo213  1  0.89338432  0.71169035  0.89834774  1
  Mo  Mo214  1  0.79894614  0.19577121  -0.00087683  1
  Mo  Mo215  1  0.79547827  0.61283533  0.58769114  1
  Mo  Mo216  1  0.30915019  0.29974002  0.29706232  1
  Mo  Mo217  1  0.29633916  0.69948683  0.28939057  1
  Mo  Mo218  1  0.89940627  0.29746971  0.49354324  1
  Mo  Mo219  1  0.20719983  0.39393068  0.79390659  1
  Mo  Mo220  1  0.41454289  0.59360176  0.59781159  1
  Mo  Mo221  1  0.48756093  0.49902365  0.69723842  1
  Mo  Mo222  1  0.60309169  0.60871897  -0.00654376  1
  Mo  Mo223  1  0.29439799  0.89827011  0.09167153  1
  Mo  Mo224  1  0.40173899  0.19921525  0.39374595  1
  Mo  Mo225  1  0.60107864  0.19833109  0.40758666  1
  Mo  Mo226  1  0.09382542  0.89832703  0.30584233  1
  Mo  Mo227  1  0.59932478  0.60553568  0.19997778  1
  Mo  Mo228  1  0.29896012  0.70661385  0.89883607  1
  Mo  Mo229  1  0.09945927  0.90147896  0.89930972  1
  Mo  Mo230  1  0.89568558  0.30325942  0.10135037  1
  Mo  Mo231  1  0.50810678  0.89918907  0.70418364  1
  Mo  Mo232  1  0.60093632  0.80298958  0.40589604  1
  Mo  Mo233  1  0.69648384  0.90245308  0.70336451  1
  Mo  Mo234  1  0.10621685  0.10061669  0.90352993  1
  Mo  Mo235  1  0.69032280  0.09802926  0.89304058  1
  Mo  Mo236  1  0.69540902  0.29655076  0.69547884  1
  Mo  Mo237  1  -0.00524056  0.00016634  -0.00076838  1
  Mo  Mo238  1  0.89784107  0.09608359  0.68601288  1
  Mo  Mo239  1  0.00265041  0.40243436  0.80518236  1
  Mo  Mo240  1  0.78855452  0.39887937  0.39366511  1
  Mo  Mo241  1  0.41366527  0.00371507  0.80208180  1
  Mo  Mo242  1  0.49861681  0.09945591  0.10770783  1
  Mo  Mo243  1  0.40069655  0.60604130  -0.00332458  1
  Mo  Mo244  1  0.79756287  0.80384107  0.39925999  1
  Mo  Mo245  1  0.50185394  0.70181111  0.29201094  1
  Mo  Mo246  1  0.40635590  -0.00079446  0.60221987  1
  Mo  Mo247  1  0.89680534  0.70479179  0.29984267  1
  Mo  Mo248  1  0.69552029  0.29597300  0.29888697  1
  Mo  Mo249  1  0.40168640  0.60619417  0.80295872  1
