# generated using pymatgen
data_HfZrTaTiMo
_symmetry_space_group_name_H-M   'P 1'
_cell_length_a   16.88262811
_cell_length_b   16.87882660
_cell_length_c   16.87400769
_cell_angle_alpha   89.95416885
_cell_angle_beta   90.03196798
_cell_angle_gamma   90.04763492
_symmetry_Int_Tables_number   1
_chemical_formula_structural   HfZrTaTiMo
_chemical_formula_sum   'Hf50 Zr50 Ta50 Ti50 Mo50'
_cell_volume   4808.39560805
_cell_formula_units_Z   50
loop_
 _symmetry_equiv_pos_site_id
 _symmetry_equiv_pos_as_xyz
  1  'x, y, z'
loop_
 _atom_site_type_symbol
 _atom_site_label
 _atom_site_symmetry_multiplicity
 _atom_site_fract_x
 _atom_site_fract_y
 _atom_site_fract_z
 _atom_site_occupancy
  Hf  Hf0  1  0.79665059  0.19847782  0.59570675  1
  Hf  Hf1  1  0.10204033  0.90322655  0.69421950  1
  Hf  Hf2  1  0.30032703  0.91377984  0.08669408  1
  Hf  Hf3  1  0.59484434  0.20274987  0.60201688  1
  Hf  Hf4  1  0.00065990  0.59381042  0.79596752  1
  Hf  Hf5  1  0.79817693  0.39657466  0.40354711  1
  Hf  Hf6  1  0.10918844  0.70491250  0.69552683  1
  Hf  Hf7  1  0.00102549  0.01497270  -0.00323334  1
  Hf  Hf8  1  0.60001670  0.80334157  0.80053147  1
  Hf  Hf9  1  0.39215751  0.19968702  0.19743260  1
  Hf  Hf10  1  0.80595592  0.39647196  -0.00236565  1
  Hf  Hf11  1  0.70289308  0.10016344  0.69652906  1
  Hf  Hf12  1  0.89591841  0.49810784  0.30411751  1
  Hf  Hf13  1  0.29707234  0.49710383  0.29399007  1
  Hf  Hf14  1  -0.00094681  0.39814809  -0.01136628  1
  Hf  Hf15  1  0.59752281  0.79795932  -0.00628479  1
  Hf  Hf16  1  0.19030577  0.39655948  0.40173081  1
  Hf  Hf17  1  0.60943666  0.39016821  -0.00982889  1
  Hf  Hf18  1  0.89916909  0.10050294  0.29999224  1
  Hf  Hf19  1  0.39501914  0.40011371  0.40524464  1
  Hf  Hf20  1  0.00098102  0.79243009  0.58814072  1
  Hf  Hf21  1  0.29714040  0.08014008  0.91387910  1
  Hf  Hf22  1  0.70965627  0.49676209  0.70295829  1
  Hf  Hf23  1  0.10312035  0.91242382  0.89709353  1
  Hf  Hf24  1  0.90269659  0.90908344  0.10555416  1
  Hf  Hf25  1  -0.00300616  0.40127803  0.59817649  1
  Hf  Hf26  1  0.00738845  0.59797521  0.41017470  1
  Hf  Hf27  1  0.78624036  0.00409346  0.40651769  1
  Hf  Hf28  1  0.19730674  0.20119469  0.40374609  1
  Hf  Hf29  1  0.49332225  0.09975159  0.90210602  1
  Hf  Hf30  1  0.89967350  0.69805383  0.30708634  1
  Hf  Hf31  1  0.69387626  0.70006428  0.29892991  1
  Hf  Hf32  1  0.19809899  0.40190732  0.59448320  1
  Hf  Hf33  1  0.01185090  0.60431722  0.19640273  1
  Hf  Hf34  1  0.00974361  -0.01163745  0.40200975  1
  Hf  Hf35  1  0.89999284  0.69741890  0.89812519  1
  Hf  Hf36  1  0.10201102  0.09587445  0.69877844  1
  Hf  Hf37  1  0.60389745  0.20002614  0.20331788  1
  Hf  Hf38  1  0.59967465  0.60244368  -0.00098571  1
  Hf  Hf39  1  0.39820480  0.59938649  0.59431091  1
  Hf  Hf40  1  0.19616797  0.41053033  0.79605311  1
  Hf  Hf41  1  0.20641976  0.79588156  0.19524206  1
  Hf  Hf42  1  0.19874136  -0.00073269  0.20752159  1
  Hf  Hf43  1  0.47731247  0.90096858  0.89449142  1
  Hf  Hf44  1  0.70844933  0.10482151  0.10207273  1
  Hf  Hf45  1  0.89598095  0.50224723  0.50683930  1
  Hf  Hf46  1  0.00407528  0.39699429  0.20604910  1
  Hf  Hf47  1  0.80381624  0.00291714  0.79491420  1
  Hf  Hf48  1  0.90151986  0.09035989  0.50784244  1
  Hf  Hf49  1  0.39709552  0.79376683  0.00188737  1
  Zr  Zr50  1  0.39591040  0.40467970  0.60733440  1
  Zr  Zr51  1  0.10749564  0.28985906  0.70215647  1
  Zr  Zr52  1  0.89758401  0.11296181  0.89577799  1
  Zr  Zr53  1  0.70495120  0.10871611  0.90284940  1
  Zr  Zr54  1  0.79942830  0.79846126  -0.00120069  1
  Zr  Zr55  1  0.48957482  0.88978086  0.50874085  1
  Zr  Zr56  1  0.00244252  0.40423809  0.79754551  1
  Zr  Zr57  1  0.19598455  0.20384602  0.20256365  1
  Zr  Zr58  1  0.50373684  0.29964342  0.31430613  1
  Zr  Zr59  1  0.20078646  -0.01250961  0.40987540  1
  Zr  Zr60  1  0.48863434  0.09928696  0.69979797  1
  Zr  Zr61  1  0.30346508  0.89277875  0.69264410  1
  Zr  Zr62  1  0.10001199  0.52236549  0.67247571  1
  Zr  Zr63  1  -0.00546640  0.19825407  0.60423305  1
  Zr  Zr64  1  0.10397458  0.30686676  0.09465184  1
  Zr  Zr65  1  0.90344451  0.90897760  0.69257189  1
  Zr  Zr66  1  0.29388018  0.49187181  0.10028918  1
  Zr  Zr67  1  0.79678237  0.59836828  0.20074955  1
  Zr  Zr68  1  0.39488588  0.59155103  0.78431866  1
  Zr  Zr69  1  0.69914981  0.69921600  0.70173916  1
  Zr  Zr70  1  -0.00139981  0.20507582  0.19694629  1
  Zr  Zr71  1  0.39217862  0.19944974  0.00193756  1
  Zr  Zr72  1  0.19880921  0.79695004  -0.00074757  1
  Zr  Zr73  1  0.50614680  0.49846303  0.89068024  1
  Zr  Zr74  1  0.59706534  0.21310362  0.80290055  1
  Zr  Zr75  1  0.60596736  0.40084817  0.20111097  1
  Zr  Zr76  1  0.60480845  0.60080616  0.59299755  1
  Zr  Zr77  1  0.59505508  0.79869084  0.39781409  1
  Zr  Zr78  1  0.40551511  0.39671867  -0.00605539  1
  Zr  Zr79  1  0.70016110  0.89978434  0.10757099  1
  Zr  Zr80  1  0.01043795  0.80257073  0.20428111  1
  Zr  Zr81  1  0.89103443  0.89868554  0.50867302  1
  Zr  Zr82  1  0.39836810  0.60886361  0.19930453  1
  Zr  Zr83  1  0.30020691  0.10071923  0.30778975  1
  Zr  Zr84  1  0.59893835  -0.00419140  0.79573287  1
  Zr  Zr85  1  0.01547789  0.79879581  0.40660313  1
  Zr  Zr86  1  0.49905429  0.10467759  0.30808328  1
  Zr  Zr87  1  0.59992437  -0.00331417  -0.00226764  1
  Zr  Zr88  1  0.29941723  0.50002046  0.89947233  1
  Zr  Zr89  1  0.51729479  0.49452834  0.70126814  1
  Zr  Zr90  1  0.90063563  0.49783078  0.09974139  1
  Zr  Zr91  1  0.59611111  -0.00095491  0.20983129  1
  Zr  Zr92  1  0.20886896  0.60126507  0.40213863  1
  Zr  Zr93  1  0.30344599  0.70026853  0.89025101  1
  Zr  Zr94  1  0.39962975  -0.00542944  0.40631598  1
  Zr  Zr95  1  0.00749552  0.79516705  0.00160748  1
  Zr  Zr96  1  0.89579055  0.90671042  0.29594258  1
  Zr  Zr97  1  0.50419691  0.29827055  0.09916783  1
  Zr  Zr98  1  0.89663086  0.69630483  0.69468593  1
  Zr  Zr99  1  0.50484542  0.50019676  0.30467121  1
  Ta  Ta100  1  0.50607345  0.70749077  0.10892135  1
  Ta  Ta101  1  0.69413629  0.30392181  0.50198478  1
  Ta  Ta102  1  0.88954345  0.30233010  0.70221170  1
  Ta  Ta103  1  0.69937289  0.49814206  0.30623836  1
  Ta  Ta104  1  0.09015666  0.10051534  0.30609574  1
  Ta  Ta105  1  0.89633028  0.50816378  0.89790169  1
  Ta  Ta106  1  0.59870746  0.60055636  0.19959703  1
  Ta  Ta107  1  0.40418162  0.60719595  0.39855274  1
  Ta  Ta108  1  0.79591152  0.19936959  0.40403536  1
  Ta  Ta109  1  0.90358323  0.90200273  0.89551132  1
  Ta  Ta110  1  0.49590916  0.89642871  0.10638146  1
  Ta  Ta111  1  0.69651219  0.89807503  0.50782221  1
  Ta  Ta112  1  0.40391284  0.60555946  0.00663110  1
  Ta  Ta113  1  0.70965816  0.90038474  0.89644021  1
  Ta  Ta114  1  0.09915632  0.91160658  0.10136337  1
  Ta  Ta115  1  0.50331704  0.30423540  0.50420598  1
  Ta  Ta116  1  0.70129990  0.49743335  0.09981050  1
  Ta  Ta117  1  0.11394055  0.70180061  0.30538717  1
  Ta  Ta118  1  0.39651020  -0.00246686  0.20045074  1
  Ta  Ta119  1  0.20095155  0.60789967  0.19397455  1
  Ta  Ta120  1  0.28879188  0.30655838  0.09743298  1
  Ta  Ta121  1  0.10250364  0.28617412  0.89521325  1
  Ta  Ta122  1  0.49522754  0.09429992  0.09839365  1
  Ta  Ta123  1  0.19542913  0.60631660  0.00537247  1
  Ta  Ta124  1  0.29973724  0.29649929  0.70494235  1
  Ta  Ta125  1  0.89505323  0.09966424  0.11020432  1
  Ta  Ta126  1  0.59632462  0.00170315  0.59359199  1
  Ta  Ta127  1  0.09879559  0.09821743  0.50273521  1
  Ta  Ta128  1  0.60009577  0.00001016  0.40572870  1
  Ta  Ta129  1  0.20260699  0.80381062  0.80349920  1
  Ta  Ta130  1  0.29248318  0.29837324  0.89606856  1
  Ta  Ta131  1  0.71571266  0.29852960  0.10734310  1
  Ta  Ta132  1  0.79650232  0.60016062  0.00052783  1
  Ta  Ta133  1  0.79930236  0.79673793  0.20197769  1
  Ta  Ta134  1  0.90175739  0.69623668  0.09778849  1
  Ta  Ta135  1  0.19602757  0.19128101  -0.00038725  1
  Ta  Ta136  1  0.89536326  0.29589305  0.30242834  1
  Ta  Ta137  1  0.49241468  0.89385042  0.69345260  1
  Ta  Ta138  1  0.80564633  0.00115604  -0.00129138  1
  Ta  Ta139  1  0.80157024  0.80454533  0.79718270  1
  Ta  Ta140  1  0.49851885  0.70182400  0.50049842  1
  Ta  Ta141  1  0.30328334  0.88500392  0.30810557  1
  Ta  Ta142  1  0.00418339  0.39477165  0.40255360  1
  Ta  Ta143  1  0.70055748  0.89781813  0.30074161  1
  Ta  Ta144  1  0.50896528  0.49390851  0.49587625  1
  Ta  Ta145  1  0.30085911  0.29697751  0.50627448  1
  Ta  Ta146  1  0.69714229  0.69982781  0.10306862  1
  Ta  Ta147  1  0.49801187  0.70943246  0.69527558  1
  Ta  Ta148  1  0.70484755  0.50596681  0.89136749  1
  Ta  Ta149  1  0.79630425  0.79749663  0.40425044  1
  Ti  Ti150  1  0.11390789  0.68253490  0.51295575  1
  Ti  Ti151  1  0.49759691  0.10532531  0.50040622  1
  Ti  Ti152  1  0.10590324  0.50023146  0.29807800  1
  Ti  Ti153  1  0.49705188  0.69514559  0.88621222  1
  Ti  Ti154  1  0.81040368  0.40172595  0.80262505  1
  Ti  Ti155  1  0.49092173  0.30459288  0.70519766  1
  Ti  Ti156  1  0.19144546  0.40267203  -0.01299864  1
  Ti  Ti157  1  0.20993404  0.00411943  0.59380729  1
  Ti  Ti158  1  0.80051776  0.60029260  0.59666903  1
  Ti  Ti159  1  0.40122584  0.39513060  0.19801175  1
  Ti  Ti160  1  0.72243849  0.29278403  0.89248607  1
  Ti  Ti161  1  0.10365562  0.50111660  0.09500080  1
  Ti  Ti162  1  0.70563524  0.30040567  0.30204818  1
  Ti  Ti163  1  0.19896701  0.59830446  0.79775645  1
  Ti  Ti164  1  0.39315885  0.19832301  0.60050915  1
  Ti  Ti165  1  0.20368768  0.80413312  0.58284708  1
  Ti  Ti166  1  0.39330538  0.20340746  0.41156187  1
  Ti  Ti167  1  0.10011697  0.09794450  0.10199099  1
  Ti  Ti168  1  0.38837376  0.00859281  0.59424576  1
  Ti  Ti169  1  0.50393470  0.50027293  0.09927631  1
  Ti  Ti170  1  0.39067209  0.20024914  0.80219876  1
  Ti  Ti171  1  0.21042798  0.19182340  0.59817311  1
  Ti  Ti172  1  0.29793871  0.50200551  0.50116903  1
  Ti  Ti173  1  0.39728599  0.79528735  0.20274669  1
  Ti  Ti174  1  0.70043294  0.89625411  0.68789739  1
  Ti  Ti175  1  -0.00041824  0.20403913  -0.00092253  1
  Ti  Ti176  1  0.09911729  0.69352510  0.89749949  1
  Ti  Ti177  1  0.49621750  0.89023906  0.29632706  1
  Ti  Ti178  1  0.09390695  0.28938053  0.49991009  1
  Ti  Ti179  1  0.30794702  0.71456294  0.49199001  1
  Ti  Ti180  1  0.60095095  0.20812850  -0.00368068  1
  Ti  Ti181  1  0.70643779  0.10019900  0.29725697  1
  Ti  Ti182  1  0.61117185  0.19457676  0.40772471  1
  Ti  Ti183  1  -0.00238461  0.01193874  0.79782174  1
  Ti  Ti184  1  0.00323772  0.80141160  0.79973783  1
  Ti  Ti185  1  0.20727259  0.18628872  0.80487424  1
  Ti  Ti186  1  0.70091705  0.71259647  0.50871085  1
  Ti  Ti187  1  0.38632483  -0.00044209  0.79138889  1
  Ti  Ti188  1  0.81714816  0.21021456  0.00764044  1
  Ti  Ti189  1  0.70591848  0.31033394  0.69401470  1
  Ti  Ti190  1  0.79000026  0.60415446  0.41143508  1
  Ti  Ti191  1  0.69443295  0.48728561  0.50401211  1
  Ti  Ti192  1  0.20611177  0.00030225  0.79874383  1
  Ti  Ti193  1  0.60537122  0.38864718  0.80544814  1
  Ti  Ti194  1  0.29437671  0.30666201  0.29710173  1
  Ti  Ti195  1  0.60005125  0.60147776  0.40273581  1
  Ti  Ti196  1  0.89743873  0.29773468  0.49780932  1
  Ti  Ti197  1  -0.00615614  0.20188553  0.79896159  1
  Ti  Ti198  1  0.70367198  0.69419780  0.89185612  1
  Ti  Ti199  1  0.29630132  0.70387751  0.69295559  1
  Mo  Mo200  1  0.60107923  0.39289486  0.60258263  1
  Mo  Mo201  1  0.69216584  0.10084840  0.49991457  1
  Mo  Mo202  1  -0.00270500  0.20212438  0.40420267  1
  Mo  Mo203  1  0.59748432  0.79853439  0.20193160  1
  Mo  Mo204  1  0.89177139  0.49759440  0.69861226  1
  Mo  Mo205  1  0.30018642  0.10553106  0.50698323  1
  Mo  Mo206  1  0.30570131  0.69797470  0.09854723  1
  Mo  Mo207  1  0.18898382  0.00739835  0.00397113  1
  Mo  Mo208  1  0.79753072  0.00120910  0.20244502  1
  Mo  Mo209  1  0.90186452  0.10431601  0.69970215  1
  Mo  Mo210  1  0.90505713  0.30098851  0.89414292  1
  Mo  Mo211  1  0.89932861  0.29615626  0.10419275  1
  Mo  Mo212  1  0.39492902  0.38688954  0.79747557  1
  Mo  Mo213  1  0.80093986  0.59893932  0.80436558  1
  Mo  Mo214  1  0.49955943  0.69914255  0.30158275  1
  Mo  Mo215  1  0.29496908  0.90149899  0.89286514  1
  Mo  Mo216  1  0.22202375  0.60631252  0.59511693  1
  Mo  Mo217  1  0.78385170  0.00086517  0.60109367  1
  Mo  Mo218  1  0.88356228  0.69584125  0.49835738  1
  Mo  Mo219  1  0.39920152  0.79204866  0.39318401  1
  Mo  Mo220  1  0.10770192  0.90209533  0.50970588  1
  Mo  Mo221  1  0.00786250  0.00654869  0.20026080  1
  Mo  Mo222  1  0.60334880  0.60918330  0.80349075  1
  Mo  Mo223  1  0.09957792  0.51334638  0.90800704  1
  Mo  Mo224  1  0.79951735  0.20231620  0.20830305  1
  Mo  Mo225  1  0.79888046  0.39559352  0.20547626  1
  Mo  Mo226  1  0.29706372  0.10009780  0.10263595  1
  Mo  Mo227  1  0.59578858  0.80289545  0.60228019  1
  Mo  Mo228  1  0.80240354  0.20805784  0.79000143  1
  Mo  Mo229  1  0.39728592  0.79655983  0.79269094  1
  Mo  Mo230  1  0.79879867  0.39433932  0.59891107  1
  Mo  Mo231  1  0.29323343  0.50028415  0.69721543  1
  Mo  Mo232  1  0.10952197  0.89604537  0.29680227  1
  Mo  Mo233  1  0.10085794  0.10789491  0.89292046  1
  Mo  Mo234  1  0.79321624  0.80107907  0.59976050  1
  Mo  Mo235  1  0.10084176  0.69633518  0.10158428  1
  Mo  Mo236  1  0.49021864  0.29738850  0.88952569  1
  Mo  Mo237  1  0.30030500  0.89351707  0.50119767  1
  Mo  Mo238  1  0.40589434  -0.00203433  0.00919221  1
  Mo  Mo239  1  0.39648675  0.79040927  0.59665288  1
  Mo  Mo240  1  -0.01410668  0.60417532  0.59448820  1
  Mo  Mo241  1  0.09744348  0.50101086  0.49550866  1
  Mo  Mo242  1  0.00377211  0.59738503  -0.00208778  1
  Mo  Mo243  1  0.01594544  -0.00020721  0.59778403  1
  Mo  Mo244  1  0.29691082  0.10229780  0.70063068  1
  Mo  Mo245  1  0.60570689  0.39848305  0.40522336  1
  Mo  Mo246  1  0.30373283  0.70240147  0.30047451  1
  Mo  Mo247  1  0.20351470  0.79647376  0.40309010  1
  Mo  Mo248  1  0.09074943  0.29686435  0.31024557  1
  Mo  Mo249  1  0.19489947  0.40480810  0.20504321  1
