# generated using pymatgen
data_HfZrTaTiMo
_symmetry_space_group_name_H-M   'P 1'
_cell_length_a   16.88409352
_cell_length_b   16.86738455
_cell_length_c   16.88274643
_cell_angle_alpha   89.87210789
_cell_angle_beta   89.94521808
_cell_angle_gamma   90.01527317
_symmetry_Int_Tables_number   1
_chemical_formula_structural   HfZrTaTiMo
_chemical_formula_sum   'Hf50 Zr50 Ta50 Ti50 Mo50'
_cell_volume   4808.03141870
_cell_formula_units_Z   50
loop_
 _symmetry_equiv_pos_site_id
 _symmetry_equiv_pos_as_xyz
  1  'x, y, z'
loop_
 _atom_site_type_symbol
 _atom_site_label
 _atom_site_symmetry_multiplicity
 _atom_site_fract_x
 _atom_site_fract_y
 _atom_site_fract_z
 _atom_site_occupancy
  Hf  Hf0  1  0.69417294  0.50116921  0.89856851  1
  Hf  Hf1  1  0.69778650  0.70274837  0.90054406  1
  Hf  Hf2  1  0.29712059  0.89961361  0.89561301  1
  Hf  Hf3  1  0.50404479  0.70369451  0.48868835  1
  Hf  Hf4  1  0.19956580  0.40773542  0.59951622  1
  Hf  Hf5  1  0.49356119  0.69826084  0.89610239  1
  Hf  Hf6  1  0.00491652  0.20401034  -0.00447429  1
  Hf  Hf7  1  0.80336325  0.38695666  0.61396831  1
  Hf  Hf8  1  0.80150969  0.19675003  -0.01447641  1
  Hf  Hf9  1  0.49405961  0.89261874  0.30548881  1
  Hf  Hf10  1  0.00456445  0.60257329  0.19794811  1
  Hf  Hf11  1  0.79878569  0.59678481  0.00296621  1
  Hf  Hf12  1  0.61046924  0.40442266  0.39021571  1
  Hf  Hf13  1  0.79692138  0.80335733  0.78911974  1
  Hf  Hf14  1  0.20083611  0.60347588  0.59110426  1
  Hf  Hf15  1  0.49294429  0.89585360  0.10004685  1
  Hf  Hf16  1  0.00439263  0.41252153  0.40362151  1
  Hf  Hf17  1  0.90410567  0.30800963  0.09299984  1
  Hf  Hf18  1  0.60697987  0.00495170  0.80485755  1
  Hf  Hf19  1  0.38516886  0.61337795  0.39654036  1
  Hf  Hf20  1  0.39204604  0.19977348  0.39595139  1
  Hf  Hf21  1  0.69602185  0.29297300  0.51033153  1
  Hf  Hf22  1  0.59560331  0.80121772  -0.00263633  1
  Hf  Hf23  1  0.39354676  0.79575397  0.59953081  1
  Hf  Hf24  1  0.10130974  0.29733181  0.49883990  1
  Hf  Hf25  1  0.00681383  0.60234048  -0.00217622  1
  Hf  Hf26  1  0.49913823  0.30327012  0.90128673  1
  Hf  Hf27  1  0.89676447  0.51232070  0.51272381  1
  Hf  Hf28  1  0.49542610  0.30371617  0.29502068  1
  Hf  Hf29  1  0.70774388  0.89512991  0.09199628  1
  Hf  Hf30  1  0.49620659  0.49923113  0.49189309  1
  Hf  Hf31  1  0.39644083  0.80321549  0.79380547  1
  Hf  Hf32  1  0.89978370  0.89835262  0.50454169  1
  Hf  Hf33  1  0.09888696  0.90346005  0.29793708  1
  Hf  Hf34  1  0.80694641  0.20237072  0.79727619  1
  Hf  Hf35  1  0.10916219  0.30973412  0.30088272  1
  Hf  Hf36  1  0.39038704  0.59706539  0.19860537  1
  Hf  Hf37  1  0.70956930  0.90385894  0.90342068  1
  Hf  Hf38  1  0.19646194  0.79458366  0.00127003  1
  Hf  Hf39  1  0.90561311  0.90293865  0.90223785  1
  Hf  Hf40  1  0.70208496  0.69315411  0.30375145  1
  Hf  Hf41  1  0.90219128  0.69690926  0.68914583  1
  Hf  Hf42  1  0.80399437  0.40148876  0.39954211  1
  Hf  Hf43  1  0.39589277  0.20346696  0.59644257  1
  Hf  Hf44  1  0.49595707  0.50298516  0.89663998  1
  Hf  Hf45  1  0.38947663  0.40514026  0.00502603  1
  Hf  Hf46  1  0.50055634  0.30572966  0.49818253  1
  Hf  Hf47  1  0.39359545  0.59820813  0.59951624  1
  Hf  Hf48  1  0.70716747  0.69603550  0.50378456  1
  Hf  Hf49  1  0.39695994  0.00527671  -0.00385076  1
  Zr  Zr50  1  0.90357191  0.71397793  0.90006410  1
  Zr  Zr51  1  0.70030019  0.30042803  0.10020214  1
  Zr  Zr52  1  0.49836426  0.09851977  0.29986816  1
  Zr  Zr53  1  0.49089141  0.70345617  0.10563378  1
  Zr  Zr54  1  0.00589630  0.20366415  0.19620935  1
  Zr  Zr55  1  0.30195939  0.29717075  0.90125952  1
  Zr  Zr56  1  0.89615559  0.70920440  0.10845372  1
  Zr  Zr57  1  0.09753740  0.69437195  0.30197889  1
  Zr  Zr58  1  0.90754879  0.50080258  0.70459478  1
  Zr  Zr59  1  0.29267075  0.89598639  0.50191693  1
  Zr  Zr60  1  0.90503329  0.30103937  0.30280655  1
  Zr  Zr61  1  0.80645210  0.19132572  0.19470027  1
  Zr  Zr62  1  0.69884282  0.50553992  0.50293828  1
  Zr  Zr63  1  0.10284957  0.09563685  0.50305080  1
  Zr  Zr64  1  0.61194954  0.80511125  0.39412360  1
  Zr  Zr65  1  0.51161604  0.09596538  0.49534527  1
  Zr  Zr66  1  0.60690304  0.19529690  -0.01011970  1
  Zr  Zr67  1  0.10059143  0.70492951  0.89220143  1
  Zr  Zr68  1  -0.00464974  0.19570349  0.61816977  1
  Zr  Zr69  1  0.60523684  -0.01103744  0.20180304  1
  Zr  Zr70  1  0.08617790  0.90088287  0.89396013  1
  Zr  Zr71  1  0.19942388  0.79077401  0.20323651  1
  Zr  Zr72  1  0.89995619  0.70430776  0.49700351  1
  Zr  Zr73  1  0.60127250  0.19840775  0.19848232  1
  Zr  Zr74  1  0.49436119  0.49697357  0.30075223  1
  Zr  Zr75  1  0.50320167  0.90210012  0.49766449  1
  Zr  Zr76  1  0.29623540  0.30161636  0.70192943  1
  Zr  Zr77  1  0.39601215  -0.00484090  0.60690609  1
  Zr  Zr78  1  0.61682204  0.20435443  0.80113744  1
  Zr  Zr79  1  0.09018308  0.09116662  0.89586747  1
  Zr  Zr80  1  0.50886232  0.10138705  0.69515517  1
  Zr  Zr81  1  0.90170349  0.49828619  0.09746520  1
  Zr  Zr82  1  0.10145523  0.09286492  0.10518925  1
  Zr  Zr83  1  0.70403605  0.08845706  0.31287688  1
  Zr  Zr84  1  0.60496366  0.40346183  0.78876403  1
  Zr  Zr85  1  0.20480698  0.21197813  0.19258799  1
  Zr  Zr86  1  0.28902064  0.09646380  0.50081352  1
  Zr  Zr87  1  0.39983045  0.19274489  0.80419203  1
  Zr  Zr88  1  0.80125175  0.59925741  0.79921740  1
  Zr  Zr89  1  0.59446994  0.60152112  0.61319742  1
  Zr  Zr90  1  0.09567924  0.90217281  0.10696450  1
  Zr  Zr91  1  0.39164937  -0.00098724  0.19870931  1
  Zr  Zr92  1  0.28895153  0.09644338  0.70593922  1
  Zr  Zr93  1  0.20991190  0.00531591  0.00198094  1
  Zr  Zr94  1  0.79723446  0.80562090  0.21028977  1
  Zr  Zr95  1  0.59503431  0.59416609  0.01219966  1
  Zr  Zr96  1  0.28694594  0.49636685  0.29802763  1
  Zr  Zr97  1  0.00382813  0.39579198  0.60513816  1
  Zr  Zr98  1  0.90174984  0.89570995  0.31211954  1
  Zr  Zr99  1  0.90556582  0.09479231  0.30878152  1
  Ta  Ta100  1  0.79644397  0.40771146  0.20218459  1
  Ta  Ta101  1  0.39771576  0.40929903  0.79216185  1
  Ta  Ta102  1  0.20045639  0.20080578  0.39619017  1
  Ta  Ta103  1  0.80140094  0.20001622  0.40908860  1
  Ta  Ta104  1  0.30195535  0.88978721  0.10627829  1
  Ta  Ta105  1  0.20740158  0.78980780  0.40210258  1
  Ta  Ta106  1  0.60665290  0.80396103  0.60676063  1
  Ta  Ta107  1  0.19758862  0.80690725  0.78720861  1
  Ta  Ta108  1  0.29060604  0.69986766  0.70182121  1
  Ta  Ta109  1  0.49861615  0.90201564  0.89563582  1
  Ta  Ta110  1  0.19181503  0.20259157  0.60823661  1
  Ta  Ta111  1  0.01452722  0.80203259  0.60341921  1
  Ta  Ta112  1  0.50219862  0.30281426  0.69244664  1
  Ta  Ta113  1  0.49768029  0.10521461  0.09635974  1
  Ta  Ta114  1  0.38859651  -0.00452661  0.39394260  1
  Ta  Ta115  1  0.80417168  -0.00257863  0.19584643  1
  Ta  Ta116  1  0.60684458  0.20172527  0.40068339  1
  Ta  Ta117  1  0.10505662  0.09266441  0.29848165  1
  Ta  Ta118  1  0.19492588  0.39827323  -0.00386249  1
  Ta  Ta119  1  0.39460234  0.59784182  0.79395689  1
  Ta  Ta120  1  0.19908755  0.40495299  0.80670978  1
  Ta  Ta121  1  0.70562076  0.09745219  0.50594380  1
  Ta  Ta122  1  0.70087076  0.69958548  0.10356521  1
  Ta  Ta123  1  0.18641051  0.19978319  0.80680156  1
  Ta  Ta124  1  0.70482044  0.10261204  0.68875463  1
  Ta  Ta125  1  0.20356105  0.59236134  -0.00353460  1
  Ta  Ta126  1  0.00528970  -0.00047236  0.40998142  1
  Ta  Ta127  1  0.60165473  0.59459488  0.20362132  1
  Ta  Ta128  1  0.39508243  0.40828397  0.60041446  1
  Ta  Ta129  1  0.50445974  0.90162165  0.70249762  1
  Ta  Ta130  1  0.79909528  0.39090328  0.80297119  1
  Ta  Ta131  1  0.71122482  0.90835070  0.49484867  1
  Ta  Ta132  1  0.10363994  0.50568720  0.70750065  1
  Ta  Ta133  1  0.79506894  0.40038282  -0.00672505  1
  Ta  Ta134  1  0.60125614  0.80184282  0.79291214  1
  Ta  Ta135  1  0.00776441  0.40440542  0.19667540  1
  Ta  Ta136  1  0.29568989  0.69388576  0.89377153  1
  Ta  Ta137  1  0.70215641  0.09014509  0.09151161  1
  Ta  Ta138  1  0.19990335  0.20567876  -0.00283226  1
  Ta  Ta139  1  0.29185298  0.09987438  0.29407548  1
  Ta  Ta140  1  0.00318485  -0.00204508  0.60806294  1
  Ta  Ta141  1  0.10499009  0.89710223  0.50147890  1
  Ta  Ta142  1  0.00577279  0.60177582  0.80019954  1
  Ta  Ta143  1  0.70490030  0.29802462  0.29962480  1
  Ta  Ta144  1  0.29546290  0.69433637  0.09731066  1
  Ta  Ta145  1  0.10270174  0.49846440  0.09506225  1
  Ta  Ta146  1  0.38776573  0.39374281  0.19078729  1
  Ta  Ta147  1  0.80313109  0.59504912  0.39211894  1
  Ta  Ta148  1  0.89734956  0.09683330  0.50420495  1
  Ta  Ta149  1  0.59933764  0.39937969  0.00750299  1
  Ti  Ti150  1  0.59847612  0.00337312  -0.00439001  1
  Ti  Ti151  1  0.59573966  0.60292277  0.78895773  1
  Ti  Ti152  1  0.19351004  -0.00292250  0.79546352  1
  Ti  Ti153  1  0.00603381  0.39700949  0.80586434  1
  Ti  Ti154  1  0.49811312  0.70441009  0.70121155  1
  Ti  Ti155  1  0.38837171  0.59381481  -0.00103246  1
  Ti  Ti156  1  0.80460898  0.00752999  0.79294755  1
  Ti  Ti157  1  0.90876777  0.89994232  0.70295935  1
  Ti  Ti158  1  0.39295597  0.79765481  -0.00443463  1
  Ti  Ti159  1  0.19713235  0.60133331  0.41147090  1
  Ti  Ti160  1  0.29711331  0.30608569  0.49585316  1
  Ti  Ti161  1  0.70015587  0.90694788  0.69596652  1
  Ti  Ti162  1  0.90876309  0.09169721  0.89264099  1
  Ti  Ti163  1  0.70891618  0.50677931  0.69514663  1
  Ti  Ti164  1  0.01769478  0.60417376  0.59447447  1
  Ti  Ti165  1  0.29194248  0.50596310  0.70760653  1
  Ti  Ti166  1  -0.00012345  0.80191364  0.01856612  1
  Ti  Ti167  1  0.60684053  0.40672931  0.19528889  1
  Ti  Ti168  1  0.91001910  0.30719996  0.89697946  1
  Ti  Ti169  1  0.79370729  0.80292013  0.60488139  1
  Ti  Ti170  1  0.90382359  0.50459067  0.29744996  1
  Ti  Ti171  1  0.38824408  0.78629960  0.22145420  1
  Ti  Ti172  1  0.00471957  0.19490011  0.40151567  1
  Ti  Ti173  1  0.01080780  0.79797067  0.40695977  1
  Ti  Ti174  1  0.49611549  0.10026752  0.90311665  1
  Ti  Ti175  1  0.60779347  -0.00355303  0.59866862  1
  Ti  Ti176  1  0.90745398  0.49304922  0.90034856  1
  Ti  Ti177  1  0.90261018  0.70175019  0.30635485  1
  Ti  Ti178  1  0.09759325  0.30029071  0.71319225  1
  Ti  Ti179  1  0.80730207  0.20166189  0.60882767  1
  Ti  Ti180  1  0.79363338  0.59087726  0.20280141  1
  Ti  Ti181  1  0.60093564  0.79527025  0.20465753  1
  Ti  Ti182  1  0.10714718  0.50265550  0.29538755  1
  Ti  Ti183  1  0.10382507  0.70095430  0.70159102  1
  Ti  Ti184  1  0.20301782  0.40102615  0.18153730  1
  Ti  Ti185  1  0.20238478  -0.00461402  0.39128417  1
  Ti  Ti186  1  -0.01596981  -0.00263796  0.19301199  1
  Ti  Ti187  1  0.90404396  0.29271759  0.50072634  1
  Ti  Ti188  1  0.81472584  0.00503443  0.00620892  1
  Ti  Ti189  1  0.19061662  -0.01140866  0.61566900  1
  Ti  Ti190  1  0.48730785  0.28878222  0.09831581  1
  Ti  Ti191  1  0.20037140  0.41051151  0.41186851  1
  Ti  Ti192  1  0.59815513  0.40305826  0.60791287  1
  Ti  Ti193  1  0.30939297  0.11534354  0.10010712  1
  Ti  Ti194  1  0.49594531  0.49473388  0.10485296  1
  Ti  Ti195  1  0.39636019  0.00022163  0.80098972  1
  Ti  Ti196  1  0.30011892  0.30570079  0.30046122  1
  Ti  Ti197  1  0.10148572  0.49962496  0.89676658  1
  Ti  Ti198  1  0.00657489  0.59687336  0.40570132  1
  Ti  Ti199  1  0.80824376  0.00195306  0.60770699  1
  Mo  Mo200  1  0.79644647  0.60062973  0.60105078  1
  Mo  Mo201  1  0.79849715  0.79929248  0.00129430  1
  Mo  Mo202  1  0.90041142  0.90235701  0.10018255  1
  Mo  Mo203  1  0.60334262  0.20089417  0.59894633  1
  Mo  Mo204  1  0.59784377  0.60195273  0.38900879  1
  Mo  Mo205  1  0.70542825  0.89977984  0.30366400  1
  Mo  Mo206  1  0.60721564  0.00024320  0.40623306  1
  Mo  Mo207  1  0.89886509  0.09941098  0.09523774  1
  Mo  Mo208  1  0.80510205  0.00134984  0.41038951  1
  Mo  Mo209  1  -0.01347649  0.00261675  0.01169494  1
  Mo  Mo210  1  0.38994184  0.79917496  0.39382581  1
  Mo  Mo211  1  0.19913736  0.60009887  0.79891058  1
  Mo  Mo212  1  0.49043500  0.49818444  0.69872970  1
  Mo  Mo213  1  0.29890657  0.49636893  0.49645488  1
  Mo  Mo214  1  0.38695672  0.39542987  0.40234074  1
  Mo  Mo215  1  0.70412244  0.50009134  0.29482510  1
  Mo  Mo216  1  0.09911736  0.70407370  0.49821119  1
  Mo  Mo217  1  0.70048655  0.29662291  0.69667472  1
  Mo  Mo218  1  0.69749105  0.70464958  0.69930717  1
  Mo  Mo219  1  0.10065029  0.30483424  0.89739641  1
  Mo  Mo220  1  0.29201760  0.09980510  0.89814392  1
  Mo  Mo221  1  0.71518829  0.08349490  0.89917261  1
  Mo  Mo222  1  0.39956553  0.19629340  0.00262103  1
  Mo  Mo223  1  0.50587832  0.69694477  0.29831046  1
  Mo  Mo224  1  0.10235555  0.69217797  0.09681060  1
  Mo  Mo225  1  0.19555686  0.59659252  0.18523420  1
  Mo  Mo226  1  0.89724610  0.09375515  0.69972178  1
  Mo  Mo227  1  0.29583983  0.89899048  0.70305951  1
  Mo  Mo228  1  0.70234320  0.31295104  0.90083976  1
  Mo  Mo229  1  0.29658127  0.89692966  0.30243003  1
  Mo  Mo230  1  0.09773252  0.09569558  0.70478278  1
  Mo  Mo231  1  0.29017379  0.69426120  0.29976704  1
  Mo  Mo232  1  0.90557599  0.29786460  0.71526059  1
  Mo  Mo233  1  0.00120188  0.80101110  0.78099810  1
  Mo  Mo234  1  -0.00217670  0.20154702  0.80307775  1
  Mo  Mo235  1  -0.00700907  0.00275085  0.78389925  1
  Mo  Mo236  1  0.09817912  0.50563000  0.50143986  1
  Mo  Mo237  1  0.21121981  -0.00099220  0.20209139  1
  Mo  Mo238  1  0.29748942  0.30081527  0.09498759  1
  Mo  Mo239  1  0.80314972  0.79658996  0.40461118  1
  Mo  Mo240  1  -0.00244532  0.79844633  0.20517311  1
  Mo  Mo241  1  0.39693577  0.20521094  0.19680144  1
  Mo  Mo242  1  0.29283304  0.49954132  0.09571740  1
  Mo  Mo243  1  0.19635743  0.79619040  0.60062947  1
  Mo  Mo244  1  0.29691771  0.50294681  0.89668595  1
  Mo  Mo245  1  0.10062237  0.31193792  0.09132563  1
  Mo  Mo246  1  0.69729924  0.49845313  0.10305423  1
  Mo  Mo247  1  0.00253585  0.40445080  -0.00822971  1
  Mo  Mo248  1  0.09880701  0.89910103  0.69826058  1
  Mo  Mo249  1  0.29588921  0.70177739  0.50068706  1
