# generated using pymatgen
data_HfZrTaTiMo
_symmetry_space_group_name_H-M   'P 1'
_cell_length_a   16.88843340
_cell_length_b   16.89281774
_cell_length_c   16.88302152
_cell_angle_alpha   89.98268866
_cell_angle_beta   90.01042073
_cell_angle_gamma   89.98899088
_symmetry_Int_Tables_number   1
_chemical_formula_structural   HfZrTaTiMo
_chemical_formula_sum   'Hf50 Zr50 Ta50 Ti50 Mo50'
_cell_volume   4816.61131001
_cell_formula_units_Z   50
loop_
 _symmetry_equiv_pos_site_id
 _symmetry_equiv_pos_as_xyz
  1  'x, y, z'
loop_
 _atom_site_type_symbol
 _atom_site_label
 _atom_site_symmetry_multiplicity
 _atom_site_fract_x
 _atom_site_fract_y
 _atom_site_fract_z
 _atom_site_occupancy
  Hf  Hf0  1  -0.00155050  0.21667586  0.59028873  1
  Hf  Hf1  1  0.39781341  0.19304444  0.19523985  1
  Hf  Hf2  1  0.69719164  0.30199798  0.92649862  1
  Hf  Hf3  1  0.49866726  0.90681548  0.89748096  1
  Hf  Hf4  1  0.39805490  0.40147034  -0.00232977  1
  Hf  Hf5  1  0.80788174  0.60793370  0.60402547  1
  Hf  Hf6  1  0.60168760  0.19646928  0.19780159  1
  Hf  Hf7  1  0.60427031  0.79271033  -0.00376667  1
  Hf  Hf8  1  0.40251147  0.60016131  0.80273749  1
  Hf  Hf9  1  0.29542482  0.90216559  0.08940113  1
  Hf  Hf10  1  0.70209472  0.89577239  0.30042465  1
  Hf  Hf11  1  0.29224454  0.50215458  0.89820001  1
  Hf  Hf12  1  0.80905659  0.40305974  0.40062750  1
  Hf  Hf13  1  0.38385569  0.00259695  0.59868809  1
  Hf  Hf14  1  0.09261454  0.10242406  0.69454079  1
  Hf  Hf15  1  0.10814611  0.51332073  0.89771458  1
  Hf  Hf16  1  0.91257282  0.69874837  0.29599910  1
  Hf  Hf17  1  0.59408478  0.79913561  0.19517716  1
  Hf  Hf18  1  0.61138259  0.39446842  0.61124112  1
  Hf  Hf19  1  0.09626959  0.69806163  0.29378272  1
  Hf  Hf20  1  0.19977501  0.19989205  0.00087772  1
  Hf  Hf21  1  0.70531589  0.70102404  0.29576065  1
  Hf  Hf22  1  0.49687307  0.30179868  0.30648696  1
  Hf  Hf23  1  0.80670744  -0.00841800  0.40778869  1
  Hf  Hf24  1  0.70993504  0.10203671  0.30449401  1
  Hf  Hf25  1  0.59733202  0.00420477  0.19264669  1
  Hf  Hf26  1  0.20195072  -0.00217931  0.20144184  1
  Hf  Hf27  1  0.60998047  0.20277302  0.79554030  1
  Hf  Hf28  1  0.19828745  -0.00113551  0.39715904  1
  Hf  Hf29  1  -0.00109889  0.60890765  0.59635387  1
  Hf  Hf30  1  0.18706084  0.80409732  0.79505468  1
  Hf  Hf31  1  0.69531074  0.69810845  0.50198469  1
  Hf  Hf32  1  0.38720640  0.20495662  0.60078235  1
  Hf  Hf33  1  0.51227331  0.69246182  0.69544780  1
  Hf  Hf34  1  0.09446851  0.30075217  0.30065889  1
  Hf  Hf35  1  0.80503087  0.00270366  0.19421077  1
  Hf  Hf36  1  0.60405192  0.39701493  0.80154237  1
  Hf  Hf37  1  0.10119470  0.30454218  0.70440840  1
  Hf  Hf38  1  0.91425387  0.69786803  0.09959698  1
  Hf  Hf39  1  0.80229441  0.21293403  0.59692845  1
  Hf  Hf40  1  0.09603274  0.10469345  0.29993952  1
  Hf  Hf41  1  0.50540140  0.90406597  0.69617720  1
  Hf  Hf42  1  0.90545057  0.29941761  0.29463660  1
  Hf  Hf43  1  0.28283479  0.69521291  0.89759835  1
  Hf  Hf44  1  0.90236416  0.88949670  0.70142633  1
  Hf  Hf45  1  0.01049565  0.20272172  -0.00492677  1
  Hf  Hf46  1  0.09644253  0.90040961  0.91232731  1
  Hf  Hf47  1  0.69992434  0.09374226  0.68905427  1
  Hf  Hf48  1  0.38875475  0.39159487  0.18823357  1
  Hf  Hf49  1  0.37831770  0.40584361  0.41728648  1
  Zr  Zr50  1  0.38983233  0.19112326  0.40512804  1
  Zr  Zr51  1  0.50484221  0.50877026  0.51197437  1
  Zr  Zr52  1  0.49000384  0.50256733  0.29538839  1
  Zr  Zr53  1  0.69777968  0.50421802  0.49906226  1
  Zr  Zr54  1  0.60612052  0.20000985  0.40182391  1
  Zr  Zr55  1  0.80902391  0.59915065  0.39904928  1
  Zr  Zr56  1  0.80295071  0.61163564  -0.00873097  1
  Zr  Zr57  1  0.28816646  0.49898902  0.70863496  1
  Zr  Zr58  1  0.39380683  0.79292951  -0.00457628  1
  Zr  Zr59  1  0.80116639  0.40122686  0.80604474  1
  Zr  Zr60  1  0.80505735  0.80456612  0.18585204  1
  Zr  Zr61  1  0.28839963  0.50692565  0.29012176  1
  Zr  Zr62  1  0.70879412  0.89521342  0.90432987  1
  Zr  Zr63  1  0.28590457  0.68510280  0.68791183  1
  Zr  Zr64  1  0.28712415  0.29672491  0.31137286  1
  Zr  Zr65  1  0.50456906  0.30198758  0.50265740  1
  Zr  Zr66  1  0.50191615  0.29479421  0.89929046  1
  Zr  Zr67  1  0.91030927  0.89108601  0.30171615  1
  Zr  Zr68  1  0.19347114  0.60185743  0.40904998  1
  Zr  Zr69  1  0.70470252  0.51491621  0.70572825  1
  Zr  Zr70  1  0.39197708  0.39857469  0.60743647  1
  Zr  Zr71  1  0.38811875  0.79304069  0.59860638  1
  Zr  Zr72  1  0.20533573  0.19861645  0.18949226  1
  Zr  Zr73  1  0.28419536  0.10345803  0.69958559  1
  Zr  Zr74  1  0.50132883  0.69971884  0.50314079  1
  Zr  Zr75  1  0.51526102  0.29610979  0.08468401  1
  Zr  Zr76  1  0.48803921  0.89573096  0.30596526  1
  Zr  Zr77  1  0.01334598  0.40241348  0.00999618  1
  Zr  Zr78  1  0.80026414  0.20509691  0.80179818  1
  Zr  Zr79  1  0.90233520  0.09351930  0.50264525  1
  Zr  Zr80  1  0.90518190  0.50305853  0.10371491  1
  Zr  Zr81  1  0.49407153  0.91367921  0.08543417  1
  Zr  Zr82  1  0.60002153  0.40309969  0.20023542  1
  Zr  Zr83  1  0.81245802  -0.00283479  0.00406164  1
  Zr  Zr84  1  0.39663538  0.79993135  0.79629990  1
  Zr  Zr85  1  0.89894644  0.30408204  0.10361447  1
  Zr  Zr86  1  0.51328979  0.09605433  0.51594201  1
  Zr  Zr87  1  0.90417438  0.09754379  0.69700416  1
  Zr  Zr88  1  0.10114846  0.50471017  0.70293091  1
  Zr  Zr89  1  0.29865005  0.89093000  0.48903651  1
  Zr  Zr90  1  0.00195383  0.39784292  0.81593487  1
  Zr  Zr91  1  0.00397564  -0.00567952  0.80631979  1
  Zr  Zr92  1  0.50498782  0.09350570  0.91024851  1
  Zr  Zr93  1  0.19836491  0.39010516  0.00462739  1
  Zr  Zr94  1  0.90765005  0.10018419  0.90142808  1
  Zr  Zr95  1  0.18647454  0.40024046  0.18335169  1
  Zr  Zr96  1  0.39134393  0.60775444  0.40519782  1
  Zr  Zr97  1  0.50086081  0.89587420  0.50178226  1
  Zr  Zr98  1  0.50538645  0.09825057  0.69973220  1
  Zr  Zr99  1  0.60507558  -0.00348867  0.40567906  1
  Ta  Ta100  1  0.49598402  0.09551406  0.30040166  1
  Ta  Ta101  1  0.38985752  -0.00057474  0.79790915  1
  Ta  Ta102  1  0.80074824  -0.01746293  0.59808293  1
  Ta  Ta103  1  0.70895251  0.30268247  0.29805298  1
  Ta  Ta104  1  0.59877439  0.60110855  0.38489000  1
  Ta  Ta105  1  0.50691555  0.50280537  0.89997708  1
  Ta  Ta106  1  0.50512255  0.50518984  0.70532656  1
  Ta  Ta107  1  0.18819453  0.19660932  0.81174291  1
  Ta  Ta108  1  0.70128157  0.69749489  0.09701324  1
  Ta  Ta109  1  0.39308180  0.79796202  0.19323390  1
  Ta  Ta110  1  0.80620378  0.79281134  0.60092645  1
  Ta  Ta111  1  0.29076394  0.90664166  0.89796753  1
  Ta  Ta112  1  0.61199516  -0.00582992  0.79995983  1
  Ta  Ta113  1  0.49529756  0.69367362  0.10193660  1
  Ta  Ta114  1  0.70729316  0.30523487  0.09980693  1
  Ta  Ta115  1  0.90592134  0.10260640  0.30076781  1
  Ta  Ta116  1  0.49806893  0.50748929  0.09611228  1
  Ta  Ta117  1  0.39984174  0.60226214  -0.00161689  1
  Ta  Ta118  1  0.80223304  -0.00670587  0.80003057  1
  Ta  Ta119  1  0.18299325  0.79349849  0.58951800  1
  Ta  Ta120  1  0.29795410  0.89003590  0.29786993  1
  Ta  Ta121  1  0.40207074  0.39700071  0.79976575  1
  Ta  Ta122  1  0.19977991  0.79513533  0.18993332  1
  Ta  Ta123  1  0.60074553  0.60098848  0.19540846  1
  Ta  Ta124  1  0.30113080  0.29567106  0.89293206  1
  Ta  Ta125  1  0.90625162  0.50399128  0.70682240  1
  Ta  Ta126  1  0.70087887  0.50336969  0.90620132  1
  Ta  Ta127  1  0.70365620  0.50217776  0.29282466  1
  Ta  Ta128  1  0.19734604  0.39892250  0.58854284  1
  Ta  Ta129  1  0.09136975  0.09111863  0.09943198  1
  Ta  Ta130  1  0.28468950  0.90149779  0.69939247  1
  Ta  Ta131  1  0.70087083  0.09595936  0.90496681  1
  Ta  Ta132  1  0.18760247  -0.01065816  0.59340903  1
  Ta  Ta133  1  0.70131383  0.49891429  0.09418624  1
  Ta  Ta134  1  0.29887545  0.51566026  0.09971843  1
  Ta  Ta135  1  0.39566307  0.19368756  0.00179277  1
  Ta  Ta136  1  0.10005013  0.88940226  0.29853654  1
  Ta  Ta137  1  0.00630055  -0.00643478  0.40294705  1
  Ta  Ta138  1  0.29733547  0.70290047  0.29320133  1
  Ta  Ta139  1  -0.00116209  0.20368265  0.40604975  1
  Ta  Ta140  1  0.60868746  0.79577874  0.80001808  1
  Ta  Ta141  1  0.09584973  0.09817704  0.50157012  1
  Ta  Ta142  1  0.59974272  0.60389009  -0.00045005  1
  Ta  Ta143  1  0.59727394  0.79228317  0.39517827  1
  Ta  Ta144  1  0.70468784  0.30395283  0.49614338  1
  Ta  Ta145  1  0.80030411  0.19723709  0.19627435  1
  Ta  Ta146  1  0.39341461  0.00357045  0.20123721  1
  Ta  Ta147  1  0.08913115  0.69689304  0.90398873  1
  Ta  Ta148  1  0.90660455  0.30648351  0.70433324  1
  Ta  Ta149  1  0.81155267  0.40209952  0.60072968  1
  Ti  Ti150  1  0.00179605  0.40240099  0.40409870  1
  Ti  Ti151  1  0.09410592  0.89822761  0.09990898  1
  Ti  Ti152  1  0.69555746  0.10211024  0.08992053  1
  Ti  Ti153  1  0.70140626  0.10011953  0.50870566  1
  Ti  Ti154  1  0.30421956  0.09081890  0.09202286  1
  Ti  Ti155  1  0.49979181  0.29509545  0.69979940  1
  Ti  Ti156  1  0.91441967  0.70822672  0.49026244  1
  Ti  Ti157  1  0.89742876  0.30094258  0.90800042  1
  Ti  Ti158  1  0.61371848  0.79787424  0.60818517  1
  Ti  Ti159  1  0.80321728  0.19570234  0.00763603  1
  Ti  Ti160  1  0.29829042  0.09535400  0.89685408  1
  Ti  Ti161  1  -0.00194431  0.40115789  0.59385138  1
  Ti  Ti162  1  0.00079166  -0.00433754  0.20195770  1
  Ti  Ti163  1  0.79987819  0.59799886  0.19749001  1
  Ti  Ti164  1  0.69993793  0.89916593  0.09202697  1
  Ti  Ti165  1  0.29511507  0.52757710  0.52803021  1
  Ti  Ti166  1  0.91467371  0.89823312  0.09267404  1
  Ti  Ti167  1  0.90268660  0.69715258  0.71434339  1
  Ti  Ti168  1  0.09045330  0.69898327  0.70425127  1
  Ti  Ti169  1  0.60524893  0.40573113  0.39541472  1
  Ti  Ti170  1  -0.00564151  0.79772010  -0.00457753  1
  Ti  Ti171  1  0.80814003  0.20467705  0.40385309  1
  Ti  Ti172  1  0.19254422  0.00013381  0.79797597  1
  Ti  Ti173  1  0.08764282  0.89602980  0.68607899  1
  Ti  Ti174  1  0.61430573  0.61086320  0.80851339  1
  Ti  Ti175  1  0.91414480  0.50304497  0.29246693  1
  Ti  Ti176  1  0.28165705  0.10414730  0.49798164  1
  Ti  Ti177  1  0.19199219  0.00964834  -0.00449386  1
  Ti  Ti178  1  0.91286621  0.10338095  0.10563147  1
  Ti  Ti179  1  0.19520347  0.79355871  0.40139623  1
  Ti  Ti180  1  0.39468700  0.19664189  0.79911817  1
  Ti  Ti181  1  0.09258509  0.50400327  0.49997732  1
  Ti  Ti182  1  0.50390427  0.69714213  0.89945960  1
  Ti  Ti183  1  0.90386790  0.51326348  0.90010281  1
  Ti  Ti184  1  0.19303570  0.61060144  0.01569985  1
  Ti  Ti185  1  0.70899133  0.89194972  0.70318723  1
  Ti  Ti186  1  0.80056038  0.40423946  0.20142819  1
  Ti  Ti187  1  0.49048878  0.69886056  0.29345683  1
  Ti  Ti188  1  0.09164243  0.50425155  0.29201098  1
  Ti  Ti189  1  0.19273135  0.79409049  0.00564137  1
  Ti  Ti190  1  -0.00368581  0.79740448  0.80756118  1
  Ti  Ti191  1  0.19347715  0.40242276  0.41292416  1
  Ti  Ti192  1  0.39100357  0.00692993  0.39653582  1
  Ti  Ti193  1  0.80392326  0.79999088  0.40765301  1
  Ti  Ti194  1  0.28817689  0.30017774  0.70788331  1
  Ti  Ti195  1  0.90928577  0.50401613  0.49838092  1
  Ti  Ti196  1  0.19259463  0.21264937  0.58741936  1
  Ti  Ti197  1  0.80077113  0.78626845  0.81065454  1
  Ti  Ti198  1  0.69915375  0.89010400  0.50382742  1
  Ti  Ti199  1  0.91757346  0.88980925  0.50804908  1
  Mo  Mo200  1  0.20464834  0.38725739  0.80363253  1
  Mo  Mo201  1  0.18981334  0.19585449  0.40993718  1
  Mo  Mo202  1  0.00159170  0.20710664  0.80325102  1
  Mo  Mo203  1  0.70229515  0.69874982  0.89956784  1
  Mo  Mo204  1  0.28927607  0.69996835  0.49729908  1
  Mo  Mo205  1  0.80842969  0.80055911  -0.00016565  1
  Mo  Mo206  1  0.90182108  0.31278616  0.49514553  1
  Mo  Mo207  1  0.90415211  0.70344797  0.89772737  1
  Mo  Mo208  1  0.28706197  0.29612468  0.50291583  1
  Mo  Mo209  1  0.00911611  0.59827613  0.19783775  1
  Mo  Mo210  1  0.10441929  0.09545152  0.90131584  1
  Mo  Mo211  1  0.09261489  0.70402942  0.49493263  1
  Mo  Mo212  1  0.80134008  0.40870155  0.00053489  1
  Mo  Mo213  1  0.10459312  0.29701134  0.89695348  1
  Mo  Mo214  1  -0.00351721  0.19373721  0.20001664  1
  Mo  Mo215  1  0.61246509  0.21462614  0.60164982  1
  Mo  Mo216  1  0.17872690  0.60207598  0.59821727  1
  Mo  Mo217  1  0.62210397  -0.02092732  0.60493389  1
  Mo  Mo218  1  0.00054524  0.59307172  0.39927987  1
  Mo  Mo219  1  0.09710658  0.30952433  0.49390890  1
  Mo  Mo220  1  0.70824746  0.70813577  0.70504243  1
  Mo  Mo221  1  0.80771683  0.60425917  0.80341880  1
  Mo  Mo222  1  0.90173799  0.88923268  0.90064838  1
  Mo  Mo223  1  0.09657864  0.89597428  0.49505159  1
  Mo  Mo224  1  0.39620600  0.79208192  0.38790378  1
  Mo  Mo225  1  0.08901798  0.28239225  0.11069768  1
  Mo  Mo226  1  0.71020408  0.30194498  0.69318472  1
  Mo  Mo227  1  -0.00241802  0.79315527  0.60202066  1
  Mo  Mo228  1  0.18950793  0.61359423  0.80109535  1
  Mo  Mo229  1  0.00268896  0.40734011  0.20551480  1
  Mo  Mo230  1  0.00331118  -0.00245828  0.00854703  1
  Mo  Mo231  1  0.30999878  0.29502973  0.08737876  1
  Mo  Mo232  1  0.60311500  0.18609356  0.00538605  1
  Mo  Mo233  1  0.00213108  -0.01111909  0.59515733  1
  Mo  Mo234  1  0.61233416  -0.00199838  -0.00152710  1
  Mo  Mo235  1  0.30039846  0.09118326  0.30238140  1
  Mo  Mo236  1  0.29738543  0.70045130  0.09869846  1
  Mo  Mo237  1  0.00407703  0.60289169  -0.00126168  1
  Mo  Mo238  1  0.49588374  0.09682063  0.10119996  1
  Mo  Mo239  1  0.60182343  0.41751021  0.00091112  1
  Mo  Mo240  1  0.01110666  0.80435846  0.19094693  1
  Mo  Mo241  1  0.39777697  0.60681851  0.19242246  1
  Mo  Mo242  1  0.60756218  0.60134851  0.60974288  1
  Mo  Mo243  1  0.38215433  0.00534650  -0.00862766  1
  Mo  Mo244  1  0.00803427  0.79925513  0.40427733  1
  Mo  Mo245  1  0.09871055  0.70752941  0.09627899  1
  Mo  Mo246  1  -0.00502040  0.60531689  0.80188697  1
  Mo  Mo247  1  0.10138321  0.52065719  0.10305206  1
  Mo  Mo248  1  0.41018380  0.59601588  0.60610303  1
  Mo  Mo249  1  0.19835663  0.60480354  0.19490223  1
