# generated using pymatgen
data_HfZrTaTiMo
_symmetry_space_group_name_H-M   'P 1'
_cell_length_a   16.88857961
_cell_length_b   16.87928478
_cell_length_c   16.87179768
_cell_angle_alpha   89.99240090
_cell_angle_beta   89.99521288
_cell_angle_gamma   89.98016227
_symmetry_Int_Tables_number   1
_chemical_formula_structural   HfZrTaTiMo
_chemical_formula_sum   'Hf50 Zr50 Ta50 Ti50 Mo50'
_cell_volume   4809.59484371
_cell_formula_units_Z   50
loop_
 _symmetry_equiv_pos_site_id
 _symmetry_equiv_pos_as_xyz
  1  'x, y, z'
loop_
 _atom_site_type_symbol
 _atom_site_label
 _atom_site_symmetry_multiplicity
 _atom_site_fract_x
 _atom_site_fract_y
 _atom_site_fract_z
 _atom_site_occupancy
  Hf  Hf0  1  0.79969858  -0.00234523  0.40010538  1
  Hf  Hf1  1  0.09879274  0.90012506  0.49442413  1
  Hf  Hf2  1  0.00206221  0.39779865  0.79375743  1
  Hf  Hf3  1  0.69441802  0.70405647  0.10299661  1
  Hf  Hf4  1  0.10482824  0.70041794  0.09495091  1
  Hf  Hf5  1  0.59422702  0.60532060  0.40069491  1
  Hf  Hf6  1  0.70146674  0.50053421  0.30242358  1
  Hf  Hf7  1  0.09392673  0.10224982  0.50556289  1
  Hf  Hf8  1  0.19317075  0.80860912  0.20106259  1
  Hf  Hf9  1  0.69865793  0.70585987  0.50505041  1
  Hf  Hf10  1  0.70145141  0.89632093  0.29257887  1
  Hf  Hf11  1  0.59725962  0.40412487  0.60353669  1
  Hf  Hf12  1  0.08722264  0.49609525  0.50205718  1
  Hf  Hf13  1  0.90062499  0.09489604  0.29915241  1
  Hf  Hf14  1  0.30231688  0.90564337  0.69882861  1
  Hf  Hf15  1  0.19843860  0.17691272  0.21492508  1
  Hf  Hf16  1  0.80620373  0.60463041  0.20017880  1
  Hf  Hf17  1  0.69588817  0.69016285  0.90618586  1
  Hf  Hf18  1  0.10519491  0.70635794  0.88807582  1
  Hf  Hf19  1  0.49527270  0.90280858  0.69714857  1
  Hf  Hf20  1  0.60456183  0.39940568  0.79894030  1
  Hf  Hf21  1  0.20050777  0.19887125  0.79555408  1
  Hf  Hf22  1  0.10768637  0.89270666  0.71534417  1
  Hf  Hf23  1  0.60208634  0.20140812  0.00063262  1
  Hf  Hf24  1  0.29969478  0.30906036  0.69993525  1
  Hf  Hf25  1  0.60675067  0.20061282  0.80943495  1
  Hf  Hf26  1  0.10440098  0.30291311  0.89719855  1
  Hf  Hf27  1  0.19642723  0.00381927  0.37974611  1
  Hf  Hf28  1  0.49865546  0.89995644  0.50452871  1
  Hf  Hf29  1  0.49153316  0.30106378  0.30604168  1
  Hf  Hf30  1  0.59764629  0.58900759  0.79164075  1
  Hf  Hf31  1  0.30200558  0.89927569  0.49680018  1
  Hf  Hf32  1  0.70154716  0.30232913  0.29987346  1
  Hf  Hf33  1  0.69833963  0.89375845  0.50352392  1
  Hf  Hf34  1  0.19497460  0.79449179  0.59373730  1
  Hf  Hf35  1  0.49525476  0.68722950  0.91238877  1
  Hf  Hf36  1  -0.00058969  0.20227814  0.79493926  1
  Hf  Hf37  1  0.49008997  0.69456115  0.10065183  1
  Hf  Hf38  1  0.90598218  0.89966809  0.50286524  1
  Hf  Hf39  1  0.29966767  0.70500163  0.30069854  1
  Hf  Hf40  1  -0.00822656  0.60179972  0.79369684  1
  Hf  Hf41  1  0.90538138  0.90210695  0.10805822  1
  Hf  Hf42  1  0.38408753  0.39988217  0.40171271  1
  Hf  Hf43  1  0.49241645  0.09951486  0.70082902  1
  Hf  Hf44  1  0.19031370  0.41292842  0.00928928  1
  Hf  Hf45  1  0.39950331  0.79147542  0.79765221  1
  Hf  Hf46  1  0.48961869  0.30330560  0.90699517  1
  Hf  Hf47  1  0.00728775  0.59356075  -0.00122320  1
  Hf  Hf48  1  0.40383291  0.59703404  0.59712217  1
  Hf  Hf49  1  0.49340570  0.70098936  0.29412282  1
  Zr  Zr50  1  0.69987466  0.09405307  0.50159622  1
  Zr  Zr51  1  0.90510144  0.70470737  0.50134885  1
  Zr  Zr52  1  0.59458730  0.20081638  0.19199956  1
  Zr  Zr53  1  0.30375589  0.09299740  0.50736395  1
  Zr  Zr54  1  0.49215073  0.49889158  0.09991596  1
  Zr  Zr55  1  0.90692603  0.09166281  0.09733334  1
  Zr  Zr56  1  0.81163288  0.60388367  0.00026544  1
  Zr  Zr57  1  0.49607037  0.10142615  0.50124021  1
  Zr  Zr58  1  0.70176766  0.49663695  0.09293972  1
  Zr  Zr59  1  0.59610593  0.79942806  0.80531466  1
  Zr  Zr60  1  0.80456330  0.20302795  0.59516608  1
  Zr  Zr61  1  0.81045000  0.78837964  0.79835426  1
  Zr  Zr62  1  0.10793651  0.49532857  0.31589986  1
  Zr  Zr63  1  0.21241196  0.20299613  0.40940489  1
  Zr  Zr64  1  0.90955604  0.90501962  0.90659791  1
  Zr  Zr65  1  0.90209683  0.29585799  0.08896093  1
  Zr  Zr66  1  0.90303572  0.90003243  0.29161530  1
  Zr  Zr67  1  0.28370297  0.49853461  0.50074558  1
  Zr  Zr68  1  0.59896110  0.00711698  -0.00110126  1
  Zr  Zr69  1  0.00237919  0.60376360  0.19991141  1
  Zr  Zr70  1  0.29803399  0.30048530  0.10429191  1
  Zr  Zr71  1  0.80612106  0.20568619  0.39848771  1
  Zr  Zr72  1  0.71224705  0.90252394  0.10832048  1
  Zr  Zr73  1  0.09603000  0.30101175  0.31382783  1
  Zr  Zr74  1  0.80177637  0.00197453  0.79987956  1
  Zr  Zr75  1  0.58596688  0.81447525  0.00523298  1
  Zr  Zr76  1  0.41597602  0.41431342  0.78337576  1
  Zr  Zr77  1  0.20149815  0.59596251  0.19658133  1
  Zr  Zr78  1  0.49895365  0.50352096  0.91836159  1
  Zr  Zr79  1  0.89993046  0.49268910  0.68418896  1
  Zr  Zr80  1  0.69671588  0.89115412  0.69363000  1
  Zr  Zr81  1  0.29920055  0.50374134  0.89795603  1
  Zr  Zr82  1  0.30475619  0.89842466  0.30024856  1
  Zr  Zr83  1  0.49396776  0.89798538  0.29926749  1
  Zr  Zr84  1  0.28570265  0.50522899  0.69899173  1
  Zr  Zr85  1  0.30417812  0.90155851  0.10518147  1
  Zr  Zr86  1  0.00329989  0.40004427  0.19793556  1
  Zr  Zr87  1  0.90735259  0.50022687  0.31386045  1
  Zr  Zr88  1  0.59567070  0.39555815  0.19676780  1
  Zr  Zr89  1  0.10369253  0.29059555  0.10292009  1
  Zr  Zr90  1  0.70268771  0.10571438  0.70274262  1
  Zr  Zr91  1  0.60129239  0.20336991  0.40457847  1
  Zr  Zr92  1  0.30102557  0.31025674  0.89961610  1
  Zr  Zr93  1  0.18926537  -0.00247316  -0.00499897  1
  Zr  Zr94  1  0.90634940  0.09950160  0.69461167  1
  Zr  Zr95  1  0.70881741  0.49903329  0.49862384  1
  Zr  Zr96  1  0.29262815  0.90215870  0.88833095  1
  Zr  Zr97  1  0.29457094  0.68933065  0.90152176  1
  Zr  Zr98  1  0.70695723  0.89716661  0.90545770  1
  Zr  Zr99  1  0.29893221  0.09463236  0.09981556  1
  Ta  Ta100  1  0.80195251  0.39696917  0.79731140  1
  Ta  Ta101  1  0.48830434  0.10153679  0.89984139  1
  Ta  Ta102  1  0.81496746  0.79108309  0.00835585  1
  Ta  Ta103  1  0.39235853  0.20562495  0.59985369  1
  Ta  Ta104  1  0.30559876  0.09706786  0.89429463  1
  Ta  Ta105  1  0.90365048  0.10287622  0.90042674  1
  Ta  Ta106  1  -0.00314906  0.19735072  0.20730867  1
  Ta  Ta107  1  0.48974515  0.30340351  0.50402763  1
  Ta  Ta108  1  0.50057700  0.29555236  0.69351241  1
  Ta  Ta109  1  0.80288789  0.60153595  0.60122077  1
  Ta  Ta110  1  0.59831046  0.00558881  0.80672196  1
  Ta  Ta111  1  0.69818765  0.09589825  0.29224325  1
  Ta  Ta112  1  0.70714616  0.49496547  0.90271301  1
  Ta  Ta113  1  0.39827838  0.78993005  0.59744500  1
  Ta  Ta114  1  0.81037064  0.39750697  0.40379921  1
  Ta  Ta115  1  0.71168911  0.30181842  0.09455015  1
  Ta  Ta116  1  0.39534012  0.59715695  0.40050389  1
  Ta  Ta117  1  0.00579747  0.80320044  0.00043801  1
  Ta  Ta118  1  0.89572793  0.49294761  0.89856129  1
  Ta  Ta119  1  0.02523056  -0.00012193  0.20728426  1
  Ta  Ta120  1  0.69866986  0.69585483  0.69397334  1
  Ta  Ta121  1  0.00843121  -0.00077729  0.80540033  1
  Ta  Ta122  1  0.80264276  0.20191563  0.19790087  1
  Ta  Ta123  1  0.10070331  0.50126883  0.69204827  1
  Ta  Ta124  1  0.90034123  0.49306930  0.09492210  1
  Ta  Ta125  1  0.09518904  0.70099830  0.69674638  1
  Ta  Ta126  1  0.80128413  0.79495394  0.39319939  1
  Ta  Ta127  1  0.80949535  0.39462539  0.20369635  1
  Ta  Ta128  1  0.79591617  0.19447744  -0.00809179  1
  Ta  Ta129  1  0.59132243  0.00347482  0.19473880  1
  Ta  Ta130  1  0.91189994  0.30826650  0.50450972  1
  Ta  Ta131  1  0.39890352  0.19880749  0.20529471  1
  Ta  Ta132  1  0.91562768  0.09827243  0.49816818  1
  Ta  Ta133  1  0.50646085  0.70156304  0.68988342  1
  Ta  Ta134  1  0.00293449  0.40543212  -0.00567222  1
  Ta  Ta135  1  0.59754095  0.79564356  0.40023743  1
  Ta  Ta136  1  0.00644360  0.80006529  0.39490621  1
  Ta  Ta137  1  0.59827200  0.59916391  0.20325365  1
  Ta  Ta138  1  0.18985875  0.38813012  0.59715325  1
  Ta  Ta139  1  0.49142325  0.10172573  0.09694029  1
  Ta  Ta140  1  0.49588233  0.49577908  0.49636691  1
  Ta  Ta141  1  0.10233522  0.09806598  0.69760206  1
  Ta  Ta142  1  0.49304185  0.50029793  0.30150015  1
  Ta  Ta143  1  0.59936040  0.59814985  0.59637544  1
  Ta  Ta144  1  0.29396865  0.69639646  0.49958882  1
  Ta  Ta145  1  0.28829945  0.69481030  0.69973878  1
  Ta  Ta146  1  0.20033064  0.19272385  -0.00693685  1
  Ta  Ta147  1  0.19920152  0.80177611  -0.00094618  1
  Ta  Ta148  1  0.70740936  0.30165780  0.69915509  1
  Ta  Ta149  1  0.59890221  0.00100288  0.60429237  1
  Ti  Ti150  1  0.80407486  -0.00373141  0.60311761  1
  Ti  Ti151  1  0.39600527  0.20170916  0.00561119  1
  Ti  Ti152  1  0.10964204  0.50577794  0.88663546  1
  Ti  Ti153  1  0.29977873  0.50559591  0.09566140  1
  Ti  Ti154  1  0.10173007  0.70883553  0.30405526  1
  Ti  Ti155  1  0.40301650  -0.00250831  0.00006467  1
  Ti  Ti156  1  0.40793286  0.60052242  0.78712644  1
  Ti  Ti157  1  0.71223969  0.30449393  0.90151630  1
  Ti  Ti158  1  0.89619337  0.29964315  0.89922792  1
  Ti  Ti159  1  0.39442616  0.80206350  0.00521197  1
  Ti  Ti160  1  0.58810533  0.80576718  0.19624701  1
  Ti  Ti161  1  0.91673186  0.88687812  0.70167039  1
  Ti  Ti162  1  0.60074141  0.39127644  0.00320778  1
  Ti  Ti163  1  0.59943421  0.20378739  0.59977290  1
  Ti  Ti164  1  0.80260537  0.59830617  0.79503105  1
  Ti  Ti165  1  0.08118548  0.10518778  0.31918320  1
  Ti  Ti166  1  0.81092794  0.79372192  0.60698011  1
  Ti  Ti167  1  0.20490748  0.40900516  0.20592455  1
  Ti  Ti168  1  0.49878310  0.10471907  0.30179989  1
  Ti  Ti169  1  0.09570994  0.90299032  0.09811468  1
  Ti  Ti170  1  0.69955960  0.70680602  0.29453123  1
  Ti  Ti171  1  0.59773123  0.40117689  0.40408834  1
  Ti  Ti172  1  0.00276043  0.61181057  0.40363145  1
  Ti  Ti173  1  0.19959319  0.20399137  0.60423223  1
  Ti  Ti174  1  0.70328646  0.30867471  0.50659770  1
  Ti  Ti175  1  0.80451021  0.60700344  0.40109118  1
  Ti  Ti176  1  0.19749892  -0.00006236  0.60443263  1
  Ti  Ti177  1  0.00525803  -0.00678579  0.60789376  1
  Ti  Ti178  1  0.09673393  0.09858772  0.09657062  1
  Ti  Ti179  1  0.19676090  0.60837767  0.40279966  1
  Ti  Ti180  1  0.40411435  0.78756932  0.41124630  1
  Ti  Ti181  1  0.79803430  0.00823897  -0.00226603  1
  Ti  Ti182  1  0.39053707  0.40163690  0.20284248  1
  Ti  Ti183  1  0.70911024  0.49747434  0.69652744  1
  Ti  Ti184  1  0.38938689  0.59535553  0.20341354  1
  Ti  Ti185  1  0.90476064  0.71032591  0.29409316  1
  Ti  Ti186  1  0.89955234  0.30109014  0.69102936  1
  Ti  Ti187  1  0.30184565  0.09246329  0.70244666  1
  Ti  Ti188  1  0.09073697  0.29662190  0.50262303  1
  Ti  Ti189  1  0.40429863  0.00730057  0.20213508  1
  Ti  Ti190  1  0.39753505  0.20179396  0.79701510  1
  Ti  Ti191  1  0.29526600  0.30038922  0.30191413  1
  Ti  Ti192  1  0.90939468  0.70238445  0.89956532  1
  Ti  Ti193  1  0.00428254  0.19670555  -0.00642425  1
  Ti  Ti194  1  0.40031287  0.00814819  0.39487534  1
  Ti  Ti195  1  0.70410760  0.10176801  0.10420386  1
  Ti  Ti196  1  -0.00160049  0.60814036  0.59722977  1
  Ti  Ti197  1  0.48784707  0.90998248  0.89399835  1
  Ti  Ti198  1  0.59851824  -0.00212245  0.39572974  1
  Ti  Ti199  1  0.09921674  0.09608023  0.89648851  1
  Mo  Mo200  1  0.39328871  0.39818894  0.01401803  1
  Mo  Mo201  1  0.19661909  0.79421613  0.39983951  1
  Mo  Mo202  1  0.89988265  0.69651916  0.69727588  1
  Mo  Mo203  1  0.09796890  0.50024931  0.10102894  1
  Mo  Mo204  1  0.89942037  0.29651128  0.30273746  1
  Mo  Mo205  1  0.91100447  0.70608667  0.10161895  1
  Mo  Mo206  1  0.31777789  0.10007275  0.30160349  1
  Mo  Mo207  1  0.00552234  0.00308901  0.00005142  1
  Mo  Mo208  1  0.39938997  0.20433806  0.39883955  1
  Mo  Mo209  1  0.00140053  0.80075051  0.80172014  1
  Mo  Mo210  1  0.60906222  0.59246520  0.00515698  1
  Mo  Mo211  1  0.48797528  0.29871881  0.09798989  1
  Mo  Mo212  1  0.09874974  0.89599521  0.30114329  1
  Mo  Mo213  1  -0.00568317  0.20141615  0.40506909  1
  Mo  Mo214  1  0.80588766  0.21218371  0.80596509  1
  Mo  Mo215  1  0.19734668  0.39308174  0.40808378  1
  Mo  Mo216  1  0.39852416  0.00187258  0.60199342  1
  Mo  Mo217  1  0.38382831  0.60128096  0.01434623  1
  Mo  Mo218  1  0.00061401  -0.00220087  0.40044546  1
  Mo  Mo219  1  0.70564334  0.10372982  0.90129938  1
  Mo  Mo220  1  0.10073199  0.29713699  0.69394884  1
  Mo  Mo221  1  0.00255388  0.39438140  0.60006302  1
  Mo  Mo222  1  0.18801457  0.60516652  0.59626492  1
  Mo  Mo223  1  0.18868366  0.59887905  0.79061026  1
  Mo  Mo224  1  0.30015294  0.50079813  0.30045042  1
  Mo  Mo225  1  0.80790407  0.78691329  0.20038837  1
  Mo  Mo226  1  0.40106122  0.00526031  0.80190878  1
  Mo  Mo227  1  0.78907805  0.01128422  0.19804641  1
  Mo  Mo228  1  0.49025830  0.90795895  0.10298283  1
  Mo  Mo229  1  0.18962915  0.00301090  0.20140366  1
  Mo  Mo230  1  0.19911432  0.01303172  0.79767354  1
  Mo  Mo231  1  0.49637235  0.69673337  0.49778784  1
  Mo  Mo232  1  0.39617466  0.79704834  0.19257692  1
  Mo  Mo233  1  0.19743918  0.59953321  -0.00124143  1
  Mo  Mo234  1  0.00274699  0.79945325  0.60383978  1
  Mo  Mo235  1  0.29854509  0.29955290  0.50854921  1
  Mo  Mo236  1  -0.00300116  0.39499244  0.40729910  1
  Mo  Mo237  1  0.90222151  0.50502043  0.49776846  1
  Mo  Mo238  1  0.80574334  0.39408990  -0.00732347  1
  Mo  Mo239  1  0.40017554  0.39721824  0.59450212  1
  Mo  Mo240  1  0.80017955  0.39917567  0.59804596  1
  Mo  Mo241  1  0.09961783  0.89769567  0.90008561  1
  Mo  Mo242  1  0.29986849  0.70236876  0.09773238  1
  Mo  Mo243  1  0.09830100  0.69839332  0.49612813  1
  Mo  Mo244  1  0.18853747  0.40252062  0.79079902  1
  Mo  Mo245  1  0.50672144  0.50298374  0.68801711  1
  Mo  Mo246  1  0.00563228  0.80282531  0.19903881  1
  Mo  Mo247  1  0.00462147  0.20353032  0.60177032  1
  Mo  Mo248  1  0.59351595  0.79576006  0.59635197  1
  Mo  Mo249  1  0.20236648  0.79325773  0.79632371  1
