# generated using pymatgen
data_HfZrTaTiMo
_symmetry_space_group_name_H-M   'P 1'
_cell_length_a   16.89238165
_cell_length_b   16.88647697
_cell_length_c   16.87564829
_cell_angle_alpha   89.97421249
_cell_angle_beta   89.94667679
_cell_angle_gamma   89.95454294
_symmetry_Int_Tables_number   1
_chemical_formula_structural   HfZrTaTiMo
_chemical_formula_sum   'Hf50 Zr50 Ta50 Ti50 Mo50'
_cell_volume   4813.82207166
_cell_formula_units_Z   50
loop_
 _symmetry_equiv_pos_site_id
 _symmetry_equiv_pos_as_xyz
  1  'x, y, z'
loop_
 _atom_site_type_symbol
 _atom_site_label
 _atom_site_symmetry_multiplicity
 _atom_site_fract_x
 _atom_site_fract_y
 _atom_site_fract_z
 _atom_site_occupancy
  Hf  Hf0  1  0.69315912  0.29379117  0.70165799  1
  Hf  Hf1  1  0.79683615  0.59646919  0.59842590  1
  Hf  Hf2  1  0.58777643  0.01613730  0.00039921  1
  Hf  Hf3  1  0.59346770  0.78944223  0.00854505  1
  Hf  Hf4  1  0.09143596  0.10087069  0.89684229  1
  Hf  Hf5  1  0.40543896  0.19272194  0.60663851  1
  Hf  Hf6  1  0.30412158  0.48845255  0.69104301  1
  Hf  Hf7  1  0.90137720  0.48785164  0.70120538  1
  Hf  Hf8  1  0.79325304  -0.00012420  0.60217690  1
  Hf  Hf9  1  0.21361017  0.79930660  0.39954792  1
  Hf  Hf10  1  0.50215480  0.29018143  0.88870298  1
  Hf  Hf11  1  0.40585513  0.39792266  0.19877728  1
  Hf  Hf12  1  0.49967192  0.10046867  0.49455263  1
  Hf  Hf13  1  0.21347163  0.80833761  0.80991000  1
  Hf  Hf14  1  0.91022127  0.71520399  0.69423966  1
  Hf  Hf15  1  0.21405616  0.00225916  -0.01096138  1
  Hf  Hf16  1  0.50472609  0.69405374  0.29035726  1
  Hf  Hf17  1  0.00192067  0.59721274  0.59833296  1
  Hf  Hf18  1  0.30647904  0.30112658  0.70219639  1
  Hf  Hf19  1  0.89984725  0.12086156  0.11017493  1
  Hf  Hf20  1  0.00481611  0.60168713  -0.00189658  1
  Hf  Hf21  1  0.80160482  0.00420067  -0.00598159  1
  Hf  Hf22  1  0.39672684  0.80410644  0.40262704  1
  Hf  Hf23  1  0.10058155  0.89865662  0.69941679  1
  Hf  Hf24  1  0.90757428  0.10440837  0.30376931  1
  Hf  Hf25  1  0.29913672  0.50769890  0.10039074  1
  Hf  Hf26  1  0.69175003  0.09404396  0.29820131  1
  Hf  Hf27  1  0.49924857  0.30193651  0.50371632  1
  Hf  Hf28  1  0.79717707  0.39671550  0.20511762  1
  Hf  Hf29  1  0.90112665  0.10522694  0.49570627  1
  Hf  Hf30  1  0.29550641  0.28955848  0.09717813  1
  Hf  Hf31  1  0.79118692  0.80512098  0.39190759  1
  Hf  Hf32  1  0.08903689  0.89643603  0.90105201  1
  Hf  Hf33  1  0.49099907  0.30284094  0.31594758  1
  Hf  Hf34  1  0.89940210  0.50162968  0.10795110  1
  Hf  Hf35  1  0.90157511  0.69947623  0.10123278  1
  Hf  Hf36  1  0.69648622  0.49995439  0.89732038  1
  Hf  Hf37  1  0.21338492  0.80020109  0.00372356  1
  Hf  Hf38  1  0.89982525  0.70511315  0.49820045  1
  Hf  Hf39  1  0.00370885  0.80534199  0.38786271  1
  Hf  Hf40  1  0.31003752  0.28686605  0.89417575  1
  Hf  Hf41  1  0.49278001  0.48706279  0.49913316  1
  Hf  Hf42  1  0.68176156  0.70196891  0.88814810  1
  Hf  Hf43  1  0.10053333  0.71523727  0.69940188  1
  Hf  Hf44  1  0.10724434  0.70200913  0.49408079  1
  Hf  Hf45  1  0.40244174  0.19826622  0.19544715  1
  Hf  Hf46  1  0.31002033  0.70385606  0.69435839  1
  Hf  Hf47  1  0.50031120  0.90144837  0.11156788  1
  Hf  Hf48  1  0.80121859  0.60643480  0.79635017  1
  Hf  Hf49  1  0.79402510  0.81169863  0.79833507  1
  Zr  Zr50  1  0.00482293  0.00530233  0.59672089  1
  Zr  Zr51  1  0.30405930  0.30491949  0.50054774  1
  Zr  Zr52  1  0.59033178  0.20789772  0.19559626  1
  Zr  Zr53  1  0.00676020  0.39740656  -0.00892586  1
  Zr  Zr54  1  0.80028655  -0.01282474  0.39849043  1
  Zr  Zr55  1  0.89925771  0.49797180  0.89540219  1
  Zr  Zr56  1  0.30001618  0.10665799  0.49399034  1
  Zr  Zr57  1  0.39594996  0.79592692  0.20261748  1
  Zr  Zr58  1  0.79287374  0.61187067  -0.00056955  1
  Zr  Zr59  1  0.80794968  0.38671353  -0.00487961  1
  Zr  Zr60  1  0.00924366  0.59880598  0.39010567  1
  Zr  Zr61  1  0.68722584  0.70444911  0.69830731  1
  Zr  Zr62  1  0.18853408  0.39937387  0.81075419  1
  Zr  Zr63  1  0.19925599  0.39840798  0.20684466  1
  Zr  Zr64  1  0.39698127  0.00130932  0.80995316  1
  Zr  Zr65  1  -0.00101861  0.20100975  0.60648902  1
  Zr  Zr66  1  0.18896149  0.19693242  0.79734766  1
  Zr  Zr67  1  0.11475496  0.90491319  0.28962260  1
  Zr  Zr68  1  0.70435997  0.29686384  0.09756669  1
  Zr  Zr69  1  0.79105841  0.20968627  0.40099307  1
  Zr  Zr70  1  0.59331899  0.00651169  0.79904639  1
  Zr  Zr71  1  0.92199682  0.29579573  0.29752490  1
  Zr  Zr72  1  0.78675968  0.81109198  0.59351557  1
  Zr  Zr73  1  0.79262976  0.39946449  0.39396068  1
  Zr  Zr74  1  0.09341524  0.29024071  0.11170496  1
  Zr  Zr75  1  0.81082472  -0.01102836  0.20461038  1
  Zr  Zr76  1  0.59231503  0.80143348  0.40060767  1
  Zr  Zr77  1  0.90424797  0.90225231  0.70174681  1
  Zr  Zr78  1  0.19502115  0.39861399  -0.00613046  1
  Zr  Zr79  1  0.20110696  0.59825411  0.80523050  1
  Zr  Zr80  1  0.40571688  0.39990031  -0.00055232  1
  Zr  Zr81  1  0.40187973  0.80159319  0.80799235  1
  Zr  Zr82  1  0.29871038  0.09851191  0.70418556  1
  Zr  Zr83  1  0.59964107  0.59163444  0.39688348  1
  Zr  Zr84  1  0.79488521  0.79941137  0.20233836  1
  Zr  Zr85  1  0.49755097  0.69737389  0.51035885  1
  Zr  Zr86  1  0.59721368  -0.00212602  0.60401619  1
  Zr  Zr87  1  0.89796008  0.49370849  0.49002527  1
  Zr  Zr88  1  0.70495663  0.10352956  0.10266198  1
  Zr  Zr89  1  0.89085800  0.68974734  0.29621962  1
  Zr  Zr90  1  0.69336267  0.90500175  0.89693902  1
  Zr  Zr91  1  0.10571119  0.89894693  0.09943336  1
  Zr  Zr92  1  0.40756414  0.59623348  0.80306867  1
  Zr  Zr93  1  0.69197917  0.90409934  0.10218112  1
  Zr  Zr94  1  0.00629166  0.60110591  0.80330951  1
  Zr  Zr95  1  0.59831431  0.39403603  0.00178497  1
  Zr  Zr96  1  0.10584862  0.10154366  0.10636279  1
  Zr  Zr97  1  0.20783726  0.60372588  0.59734199  1
  Zr  Zr98  1  -0.01199338  0.00454503  0.00387887  1
  Zr  Zr99  1  0.10741943  0.49366210  0.49939593  1
  Ta  Ta100  1  0.09965261  0.71041506  0.90680363  1
  Ta  Ta101  1  0.29643993  0.68161649  0.30178351  1
  Ta  Ta102  1  0.29782750  0.10314101  0.30140387  1
  Ta  Ta103  1  0.89214405  0.10647707  0.70761776  1
  Ta  Ta104  1  0.00524911  0.79642270  0.20122355  1
  Ta  Ta105  1  -0.00358673  0.00643082  0.79635601  1
  Ta  Ta106  1  0.21376771  0.80737504  0.58888245  1
  Ta  Ta107  1  0.09698578  0.48986837  0.69969871  1
  Ta  Ta108  1  0.39854053  -0.00803021  0.39899682  1
  Ta  Ta109  1  0.69426640  0.69440822  0.49938246  1
  Ta  Ta110  1  0.79606262  0.38930325  0.79676867  1
  Ta  Ta111  1  0.66934253  0.90029802  0.28624818  1
  Ta  Ta112  1  0.70529207  0.10327350  0.70726066  1
  Ta  Ta113  1  0.50425070  0.50629334  0.10437457  1
  Ta  Ta114  1  0.69543651  0.49330281  0.50761655  1
  Ta  Ta115  1  0.30887658  0.69280700  0.91288327  1
  Ta  Ta116  1  0.30321483  0.90654394  0.10613651  1
  Ta  Ta117  1  0.50651266  0.69964024  0.70562646  1
  Ta  Ta118  1  0.10542279  0.10623928  0.29889384  1
  Ta  Ta119  1  0.49479425  0.09902514  0.30515454  1
  Ta  Ta120  1  -0.00284260  0.39037610  0.59973409  1
  Ta  Ta121  1  0.40267409  -0.00736830  0.59760974  1
  Ta  Ta122  1  0.59441230  0.19794340  -0.00505975  1
  Ta  Ta123  1  -0.00045021  -0.00247157  0.20385784  1
  Ta  Ta124  1  0.79686969  0.80039410  -0.00010798  1
  Ta  Ta125  1  0.69704447  0.50493853  0.10244185  1
  Ta  Ta126  1  0.01266820  0.60251944  0.20289053  1
  Ta  Ta127  1  0.30393526  0.49528371  0.49825096  1
  Ta  Ta128  1  0.20368739  -0.00117011  0.40195003  1
  Ta  Ta129  1  0.20090398  0.39896160  0.39731288  1
  Ta  Ta130  1  0.30076089  0.29388248  0.30662237  1
  Ta  Ta131  1  0.00782886  -0.00116789  0.39640677  1
  Ta  Ta132  1  0.40010158  0.00663143  0.20187474  1
  Ta  Ta133  1  0.69743901  0.49526392  0.70312315  1
  Ta  Ta134  1  0.09628633  0.29680021  0.49459289  1
  Ta  Ta135  1  -0.00935686  0.20852223  -0.00501373  1
  Ta  Ta136  1  0.68821596  0.30337121  0.50541786  1
  Ta  Ta137  1  0.18766136  0.20009466  0.60395833  1
  Ta  Ta138  1  0.50078706  0.29843174  0.70353766  1
  Ta  Ta139  1  0.10386086  0.10283518  0.49319060  1
  Ta  Ta140  1  0.30637184  0.49928695  0.30688969  1
  Ta  Ta141  1  0.59599190  0.58988336  0.60604226  1
  Ta  Ta142  1  0.59548305  0.40299807  0.20423955  1
  Ta  Ta143  1  0.79923956  0.38981397  0.60004696  1
  Ta  Ta144  1  0.20166551  0.00175871  0.59620735  1
  Ta  Ta145  1  0.10400478  0.50738688  0.10221587  1
  Ta  Ta146  1  0.59064670  0.60448765  0.00242561  1
  Ta  Ta147  1  0.10520603  0.69996089  0.10164141  1
  Ta  Ta148  1  0.49836994  0.89549955  0.90988476  1
  Ta  Ta149  1  0.60145592  0.20189508  0.40044540  1
  Ti  Ti150  1  0.08320931  0.30151144  0.71039462  1
  Ti  Ti151  1  0.60535350  0.40304121  0.39047117  1
  Ti  Ti152  1  0.39927864  0.80898626  0.59168818  1
  Ti  Ti153  1  0.40612362  0.59357391  0.60268201  1
  Ti  Ti154  1  0.69668101  0.10283210  0.49910362  1
  Ti  Ti155  1  0.69681463  0.51122613  0.28684695  1
  Ti  Ti156  1  0.29487217  0.10043317  0.10457184  1
  Ti  Ti157  1  0.91260574  0.29713163  0.87497900  1
  Ti  Ti158  1  0.80590194  0.20951811  -0.01164316  1
  Ti  Ti159  1  0.19622104  0.19760981  -0.00963712  1
  Ti  Ti160  1  0.89554921  0.10430264  0.88937442  1
  Ti  Ti161  1  0.30100744  0.90316935  0.69430954  1
  Ti  Ti162  1  0.30401421  0.68849377  0.10163560  1
  Ti  Ti163  1  0.89961632  0.50389646  0.29607459  1
  Ti  Ti164  1  0.20326251  -0.00091033  0.80351180  1
  Ti  Ti165  1  0.78762405  0.59858135  0.39681433  1
  Ti  Ti166  1  0.90158718  0.89916044  0.89867907  1
  Ti  Ti167  1  0.30029961  0.90921636  0.29126101  1
  Ti  Ti168  1  0.90965942  0.89666544  0.50050502  1
  Ti  Ti169  1  0.40498708  0.59405309  0.20056632  1
  Ti  Ti170  1  0.59924943  0.40105064  0.79909849  1
  Ti  Ti171  1  0.40297175  0.79186435  0.00659205  1
  Ti  Ti172  1  0.50565555  0.50660415  0.90101305  1
  Ti  Ti173  1  0.41005562  0.40643357  0.79878766  1
  Ti  Ti174  1  0.19013090  0.38811348  0.60168850  1
  Ti  Ti175  1  0.11873597  0.51361818  0.29765563  1
  Ti  Ti176  1  0.59532440  0.80802883  0.60045302  1
  Ti  Ti177  1  0.79839613  0.20610089  0.80164973  1
  Ti  Ti178  1  0.10369383  0.90000682  0.49981010  1
  Ti  Ti179  1  0.00828460  0.40683861  0.20518131  1
  Ti  Ti180  1  0.20673987  0.78838893  0.20042962  1
  Ti  Ti181  1  0.59861599  0.19170200  0.60548175  1
  Ti  Ti182  1  0.49984485  0.89343155  0.70275194  1
  Ti  Ti183  1  0.39920616  0.00709999  0.00166184  1
  Ti  Ti184  1  0.90531577  0.88965632  0.09650198  1
  Ti  Ti185  1  0.39894806  0.59760927  0.40298561  1
  Ti  Ti186  1  0.68682626  0.90284621  0.49487009  1
  Ti  Ti187  1  0.59665308  0.40317440  0.60937944  1
  Ti  Ti188  1  0.90554219  0.29936726  0.49460021  1
  Ti  Ti189  1  0.90826126  0.71897740  0.90076229  1
  Ti  Ti190  1  0.19731034  0.60048989  -0.00319212  1
  Ti  Ti191  1  0.30499817  0.50313315  0.90577823  1
  Ti  Ti192  1  0.79860232  0.20544777  0.59790272  1
  Ti  Ti193  1  0.01442347  0.40004296  0.39127582  1
  Ti  Ti194  1  0.40814833  0.18577371  0.00039715  1
  Ti  Ti195  1  0.19477544  0.20580288  0.39770069  1
  Ti  Ti196  1  0.79711255  0.21297286  0.21161799  1
  Ti  Ti197  1  0.70073502  0.11154336  0.89246437  1
  Ti  Ti198  1  0.68901729  0.69116204  0.12001554  1
  Ti  Ti199  1  0.58762189  -0.00540952  0.39782194  1
  Mo  Mo200  1  0.31246691  0.89788078  0.91615553  1
  Mo  Mo201  1  0.10611861  0.30120912  0.30723565  1
  Mo  Mo202  1  0.58908936  0.80889558  0.79766725  1
  Mo  Mo203  1  0.59581605  0.78940877  0.20020656  1
  Mo  Mo204  1  0.49457008  0.90656419  0.29958006  1
  Mo  Mo205  1  0.69533471  0.69798241  0.30003943  1
  Mo  Mo206  1  0.49824925  0.69900226  0.90319744  1
  Mo  Mo207  1  0.40511986  0.60025135  0.00144658  1
  Mo  Mo208  1  0.00750972  0.19624568  0.20432582  1
  Mo  Mo209  1  0.49667372  0.49822350  0.29882840  1
  Mo  Mo210  1  0.21122231  0.00746207  0.20146910  1
  Mo  Mo211  1  0.10309898  0.51178102  0.89995574  1
  Mo  Mo212  1  0.40630124  0.39793916  0.60625983  1
  Mo  Mo213  1  0.59818555  0.59388359  0.19751503  1
  Mo  Mo214  1  0.60188536  0.19625059  0.79941504  1
  Mo  Mo215  1  0.79472881  0.59427672  0.20111552  1
  Mo  Mo216  1  0.49818209  0.30014560  0.08972351  1
  Mo  Mo217  1  0.01081381  0.19721851  0.40297485  1
  Mo  Mo218  1  0.20537113  0.19879726  0.20984528  1
  Mo  Mo219  1  0.89097391  0.29669149  0.69703661  1
  Mo  Mo220  1  0.80151626  0.00939991  0.80154420  1
  Mo  Mo221  1  0.40793047  0.19281975  0.79796616  1
  Mo  Mo222  1  0.50209525  0.10505672  0.70344559  1
  Mo  Mo223  1  0.90327216  0.29782406  0.10884968  1
  Mo  Mo224  1  0.30819199  0.69307069  0.49905315  1
  Mo  Mo225  1  0.01337783  0.80505979  0.58410149  1
  Mo  Mo226  1  0.69257650  0.90601164  0.69890785  1
  Mo  Mo227  1  0.49503529  0.90225903  0.50392269  1
  Mo  Mo228  1  0.91608132  0.89963783  0.29789863  1
  Mo  Mo229  1  0.49431529  0.10259372  0.90142862  1
  Mo  Mo230  1  0.20388688  0.60174886  0.19847722  1
  Mo  Mo231  1  0.68597384  0.30381178  0.30267820  1
  Mo  Mo232  1  0.59473567  0.59074077  0.79848494  1
  Mo  Mo233  1  -0.00072608  0.80590724  0.80956511  1
  Mo  Mo234  1  0.08964223  0.28910742  0.89930772  1
  Mo  Mo235  1  0.21115548  0.59520916  0.39885581  1
  Mo  Mo236  1  0.11364490  0.70166008  0.29209188  1
  Mo  Mo237  1  0.58477080  0.01084112  0.20111385  1
  Mo  Mo238  1  0.40003258  0.19573279  0.39899084  1
  Mo  Mo239  1  0.30000739  0.90700649  0.50253076  1
  Mo  Mo240  1  -0.00166275  0.39645664  0.79456664  1
  Mo  Mo241  1  0.49274503  0.10114910  0.09998396  1
  Mo  Mo242  1  0.50443134  0.49460756  0.70034397  1
  Mo  Mo243  1  -0.00587266  0.79777598  0.00536975  1
  Mo  Mo244  1  -0.00653869  0.19531213  0.79727766  1
  Mo  Mo245  1  0.10040899  0.09226241  0.69841697  1
  Mo  Mo246  1  0.39309731  0.40192757  0.39915763  1
  Mo  Mo247  1  0.69862391  0.29132637  0.89234218  1
  Mo  Mo248  1  0.49215101  0.69058685  0.10047115  1
  Mo  Mo249  1  0.30099112  0.10257017  0.90397122  1
