# generated using pymatgen
data_HfZrTaTiMo
_symmetry_space_group_name_H-M   'P 1'
_cell_length_a   16.88644295
_cell_length_b   16.89070880
_cell_length_c   16.88018514
_cell_angle_alpha   90.03735470
_cell_angle_beta   89.97899872
_cell_angle_gamma   90.00756018
_symmetry_Int_Tables_number   1
_chemical_formula_structural   HfZrTaTiMo
_chemical_formula_sum   'Hf50 Zr50 Ta50 Ti50 Mo50'
_cell_volume   4814.63237959
_cell_formula_units_Z   50
loop_
 _symmetry_equiv_pos_site_id
 _symmetry_equiv_pos_as_xyz
  1  'x, y, z'
loop_
 _atom_site_type_symbol
 _atom_site_label
 _atom_site_symmetry_multiplicity
 _atom_site_fract_x
 _atom_site_fract_y
 _atom_site_fract_z
 _atom_site_occupancy
  Hf  Hf0  1  -0.00038468  -0.00617454  0.59589451  1
  Hf  Hf1  1  0.20395197  -0.00228779  0.39502516  1
  Hf  Hf2  1  0.00925409  0.19699866  -0.00556817  1
  Hf  Hf3  1  0.10883770  0.70834981  0.50193140  1
  Hf  Hf4  1  0.79907140  0.00209611  0.20032840  1
  Hf  Hf5  1  0.49623943  0.49833694  0.30328094  1
  Hf  Hf6  1  0.10654276  0.31136227  0.30755128  1
  Hf  Hf7  1  0.39702453  0.20300944  0.20132431  1
  Hf  Hf8  1  0.79095226  0.39269386  -0.00575701  1
  Hf  Hf9  1  0.50453953  0.30476814  0.10138951  1
  Hf  Hf10  1  0.80027280  -0.00452732  0.80757399  1
  Hf  Hf11  1  0.30018837  0.09610087  0.09617101  1
  Hf  Hf12  1  0.29923412  0.70468814  0.30559708  1
  Hf  Hf13  1  0.30048853  0.49908966  0.30963483  1
  Hf  Hf14  1  0.59332223  -0.00475762  0.60042497  1
  Hf  Hf15  1  0.60167441  0.58706987  0.00057481  1
  Hf  Hf16  1  -0.00663634  0.20138819  0.59385887  1
  Hf  Hf17  1  0.88891638  0.51160065  0.09833522  1
  Hf  Hf18  1  0.00309041  0.60748123  0.19252673  1
  Hf  Hf19  1  0.00258118  0.40364259  -0.00464986  1
  Hf  Hf20  1  0.58874379  0.79617522  0.80606001  1
  Hf  Hf21  1  0.69651037  0.10266494  0.90315119  1
  Hf  Hf22  1  0.20650606  0.19058558  0.38885117  1
  Hf  Hf23  1  0.79724450  0.20684124  0.80390775  1
  Hf  Hf24  1  0.48622290  0.10979402  0.51000894  1
  Hf  Hf25  1  0.10086449  0.69976682  0.30842224  1
  Hf  Hf26  1  0.49311588  0.49493936  0.89901602  1
  Hf  Hf27  1  0.00782726  0.60896448  -0.00152967  1
  Hf  Hf28  1  0.69765221  0.10937257  0.10289946  1
  Hf  Hf29  1  0.59878305  0.59552779  0.78742528  1
  Hf  Hf30  1  0.90326752  0.09884282  0.09924726  1
  Hf  Hf31  1  0.39820672  0.20613952  -0.00329509  1
  Hf  Hf32  1  0.79586000  0.81171502  0.00058762  1
  Hf  Hf33  1  0.59597784  0.21692017  0.79552456  1
  Hf  Hf34  1  0.10214653  0.50300792  0.30914938  1
  Hf  Hf35  1  0.90315516  0.29782407  0.09541211  1
  Hf  Hf36  1  0.29778123  0.30164619  0.50286351  1
  Hf  Hf37  1  0.70355244  0.50123783  0.49557820  1
  Hf  Hf38  1  0.20313443  0.19644209  0.20165167  1
  Hf  Hf39  1  0.49610496  0.69711307  0.10100933  1
  Hf  Hf40  1  0.59709231  0.59846336  0.19952114  1
  Hf  Hf41  1  0.10471692  0.49645874  0.10385892  1
  Hf  Hf42  1  0.60020914  0.80526072  -0.00060027  1
  Hf  Hf43  1  0.69438652  0.90035269  0.49537593  1
  Hf  Hf44  1  0.70460438  0.69891228  0.89582803  1
  Hf  Hf45  1  0.80976724  0.80291510  0.59692437  1
  Hf  Hf46  1  0.39834163  0.00483517  0.20754760  1
  Hf  Hf47  1  0.09962829  0.89881122  0.09889177  1
  Hf  Hf48  1  0.29902602  0.09585479  0.90164791  1
  Hf  Hf49  1  0.69717745  0.69651055  0.49604177  1
  Zr  Zr50  1  0.90427481  0.70584406  0.70154404  1
  Zr  Zr51  1  0.50284617  0.09740854  0.89736993  1
  Zr  Zr52  1  0.09803239  0.09906082  0.69675051  1
  Zr  Zr53  1  0.90716590  0.90906722  0.29646280  1
  Zr  Zr54  1  0.49724595  0.31341036  0.90284896  1
  Zr  Zr55  1  0.29370107  0.88388532  0.49721990  1
  Zr  Zr56  1  0.01180671  0.59431492  0.79670395  1
  Zr  Zr57  1  0.58771336  0.00809417  0.40226436  1
  Zr  Zr58  1  0.40957419  0.80553687  -0.00975408  1
  Zr  Zr59  1  0.20329101  0.20927855  0.80542354  1
  Zr  Zr60  1  0.59972529  0.39514472  0.40394932  1
  Zr  Zr61  1  0.39823392  0.78837220  0.80216255  1
  Zr  Zr62  1  0.69451271  0.90904023  0.29850593  1
  Zr  Zr63  1  0.89239264  0.69633511  0.90682963  1
  Zr  Zr64  1  0.70482331  0.50839683  0.30208318  1
  Zr  Zr65  1  0.38065545  0.39418383  0.78697845  1
  Zr  Zr66  1  -0.01101630  0.40030037  0.41730582  1
  Zr  Zr67  1  0.29773955  0.90092506  0.09755529  1
  Zr  Zr68  1  0.49790975  0.89843562  0.29882273  1
  Zr  Zr69  1  0.49066530  0.49745755  0.69264225  1
  Zr  Zr70  1  0.89511392  0.69535960  0.29742568  1
  Zr  Zr71  1  0.49708247  0.10017124  0.69892307  1
  Zr  Zr72  1  0.69919460  0.89128223  0.70832412  1
  Zr  Zr73  1  0.80081992  0.59269928  0.60217907  1
  Zr  Zr74  1  0.70360426  0.11256074  0.50817614  1
  Zr  Zr75  1  0.80510380  0.20656359  0.21046997  1
  Zr  Zr76  1  0.79393075  0.58891353  0.79053040  1
  Zr  Zr77  1  0.80748388  -0.00270774  0.60208052  1
  Zr  Zr78  1  0.79674769  0.80131946  0.39391149  1
  Zr  Zr79  1  0.29747964  0.09867114  0.69079006  1
  Zr  Zr80  1  0.59872614  0.39491129  0.59841923  1
  Zr  Zr81  1  0.91012542  0.90210528  0.09738773  1
  Zr  Zr82  1  0.29827000  0.70402604  0.09234008  1
  Zr  Zr83  1  0.89749300  0.51264439  0.31726227  1
  Zr  Zr84  1  0.20988427  0.40017457  -0.00928718  1
  Zr  Zr85  1  0.10235719  0.30095788  0.69421383  1
  Zr  Zr86  1  0.49057227  0.89170397  0.69326101  1
  Zr  Zr87  1  0.01380446  0.79076058  0.80816943  1
  Zr  Zr88  1  0.21244688  0.39825757  0.20038035  1
  Zr  Zr89  1  0.11120151  0.29967246  0.50315539  1
  Zr  Zr90  1  0.90863578  0.68202422  0.48502377  1
  Zr  Zr91  1  0.71579394  0.68644685  0.09834047  1
  Zr  Zr92  1  0.18915134  -0.00710468  0.80304488  1
  Zr  Zr93  1  0.69593813  0.10264675  0.69977044  1
  Zr  Zr94  1  0.39765104  -0.01273325  0.80350012  1
  Zr  Zr95  1  0.00827434  0.58323941  0.59925577  1
  Zr  Zr96  1  0.80328102  0.39441627  0.20991236  1
  Zr  Zr97  1  0.90813697  0.89650064  0.89991823  1
  Zr  Zr98  1  0.01010757  0.19490222  0.20903137  1
  Zr  Zr99  1  0.59667398  0.21006721  0.40872685  1
  Ta  Ta100  1  0.59060831  0.78916054  0.59754637  1
  Ta  Ta101  1  0.39480664  0.21014878  0.79753352  1
  Ta  Ta102  1  0.19411986  0.00584540  0.20647026  1
  Ta  Ta103  1  0.89952436  0.10018173  0.49336217  1
  Ta  Ta104  1  0.89633477  0.49508936  0.89526146  1
  Ta  Ta105  1  0.79453683  0.00077168  -0.00073402  1
  Ta  Ta106  1  0.69894413  0.10655514  0.30310202  1
  Ta  Ta107  1  0.80499769  0.21093593  0.40305990  1
  Ta  Ta108  1  0.00955889  0.00939449  -0.00573766  1
  Ta  Ta109  1  0.20387275  0.59606690  0.60319537  1
  Ta  Ta110  1  0.10106465  0.09994080  0.49746865  1
  Ta  Ta111  1  0.89839629  0.30071329  0.70142615  1
  Ta  Ta112  1  0.18864059  0.00597237  -0.00124357  1
  Ta  Ta113  1  0.49085479  0.89133142  0.49781088  1
  Ta  Ta114  1  0.59763574  -0.00273626  0.00433485  1
  Ta  Ta115  1  0.20401486  0.60457815  0.19667631  1
  Ta  Ta116  1  0.49193530  0.50542015  0.49859255  1
  Ta  Ta117  1  0.79953049  0.79735390  0.19585564  1
  Ta  Ta118  1  0.90074290  0.10305632  0.70442356  1
  Ta  Ta119  1  0.60055167  0.20455453  0.00257248  1
  Ta  Ta120  1  0.00350107  0.79457853  0.19559527  1
  Ta  Ta121  1  0.89820255  0.48212708  0.70250476  1
  Ta  Ta122  1  0.39909504  0.40533576  0.19224440  1
  Ta  Ta123  1  0.10136368  0.89064922  0.69430265  1
  Ta  Ta124  1  0.10169656  0.30137467  0.10085298  1
  Ta  Ta125  1  0.39557815  0.59257002  0.19624934  1
  Ta  Ta126  1  0.60541053  0.79324842  0.20211465  1
  Ta  Ta127  1  0.30895803  0.50046837  0.50361075  1
  Ta  Ta128  1  -0.00215423  0.20126667  0.80437645  1
  Ta  Ta129  1  0.00418107  0.39844782  0.80036042  1
  Ta  Ta130  1  0.19529982  0.20014581  0.00054563  1
  Ta  Ta131  1  0.20166089  0.79235915  0.80286838  1
  Ta  Ta132  1  0.59118423  0.79094170  0.39664813  1
  Ta  Ta133  1  0.19926811  0.40896422  0.79586175  1
  Ta  Ta134  1  0.20659909  0.60079582  0.41059841  1
  Ta  Ta135  1  0.39544677  0.19989707  0.39113742  1
  Ta  Ta136  1  0.19405774  -0.00782498  0.59142932  1
  Ta  Ta137  1  0.29072851  0.89645466  0.90648263  1
  Ta  Ta138  1  0.21267796  0.41118576  0.61220331  1
  Ta  Ta139  1  0.10108560  0.89871706  0.29896748  1
  Ta  Ta140  1  0.89762738  0.30201833  0.89621321  1
  Ta  Ta141  1  0.00522207  0.80923728  0.40235684  1
  Ta  Ta142  1  0.29879137  0.70293369  0.69219476  1
  Ta  Ta143  1  0.29116492  0.88852602  0.69298924  1
  Ta  Ta144  1  0.49848739  0.30340365  0.29448669  1
  Ta  Ta145  1  0.61485155  0.40040936  0.79295902  1
  Ta  Ta146  1  0.19877191  0.80175284  0.20299254  1
  Ta  Ta147  1  0.90144238  0.09718995  0.31025278  1
  Ta  Ta148  1  0.70813628  0.29791525  0.68633687  1
  Ta  Ta149  1  0.39178765  0.00660716  0.39696971  1
  Ti  Ti150  1  0.01049972  0.00274977  0.39882532  1
  Ti  Ti151  1  0.50368400  0.90092900  0.10647023  1
  Ti  Ti152  1  0.30250649  0.50620146  0.89844701  1
  Ti  Ti153  1  0.41051265  -0.00286580  0.00308828  1
  Ti  Ti154  1  0.70094813  0.70645827  0.69869758  1
  Ti  Ti155  1  -0.00555564  0.39803785  0.20603218  1
  Ti  Ti156  1  0.39809836  0.39162253  0.39825995  1
  Ti  Ti157  1  -0.00238211  0.20260031  0.39918121  1
  Ti  Ti158  1  0.69448237  0.90510293  0.10531285  1
  Ti  Ti159  1  0.39083321  -0.01008887  0.59233704  1
  Ti  Ti160  1  0.60015724  0.40427860  0.19607535  1
  Ti  Ti161  1  0.60602023  0.40137721  0.00047209  1
  Ti  Ti162  1  0.48772032  0.30322758  0.50732918  1
  Ti  Ti163  1  0.19884736  0.60225615  0.00273223  1
  Ti  Ti164  1  0.59191615  0.01251412  0.19384572  1
  Ti  Ti165  1  0.29882393  0.10498821  0.50598602  1
  Ti  Ti166  1  0.80569571  0.39412159  0.59184481  1
  Ti  Ti167  1  0.10697634  0.50368455  0.89659835  1
  Ti  Ti168  1  0.10056592  0.30392723  0.89876737  1
  Ti  Ti169  1  0.69034950  0.29608738  0.29729989  1
  Ti  Ti170  1  0.40090887  0.60627481  0.40320658  1
  Ti  Ti171  1  0.20215923  0.59894691  0.79225735  1
  Ti  Ti172  1  -0.00106413  0.40170954  0.59989854  1
  Ti  Ti173  1  0.80345214  0.38654872  0.40599896  1
  Ti  Ti174  1  0.49301454  0.69958210  0.50375544  1
  Ti  Ti175  1  0.39628161  0.21872978  0.61454447  1
  Ti  Ti176  1  0.30185995  0.30432763  0.09267745  1
  Ti  Ti177  1  0.29410253  0.69508168  0.90223352  1
  Ti  Ti178  1  0.00045977  0.80951560  0.58971849  1
  Ti  Ti179  1  0.10796092  0.70410270  0.69207265  1
  Ti  Ti180  1  0.00425079  0.00493137  0.80722678  1
  Ti  Ti181  1  0.10176425  0.88829837  0.90970582  1
  Ti  Ti182  1  0.39378941  0.60252856  0.79249045  1
  Ti  Ti183  1  0.29931339  0.70268625  0.50301063  1
  Ti  Ti184  1  0.90793121  0.89631019  0.71083421  1
  Ti  Ti185  1  0.39682674  0.58397000  0.01049998  1
  Ti  Ti186  1  0.39718235  0.60491696  0.60184440  1
  Ti  Ti187  1  0.11402206  0.49413970  0.49881737  1
  Ti  Ti188  1  0.69699924  0.29524421  0.10131827  1
  Ti  Ti189  1  0.59312795  0.60846532  0.39733293  1
  Ti  Ti190  1  0.49500993  0.68209158  0.90315019  1
  Ti  Ti191  1  0.89803110  0.91078201  0.48428615  1
  Ti  Ti192  1  0.89708006  0.10421802  0.90346088  1
  Ti  Ti193  1  0.50504184  0.11151579  0.29616956  1
  Ti  Ti194  1  0.40044602  0.80050461  0.39699424  1
  Ti  Ti195  1  0.70696697  0.49904596  0.10356434  1
  Ti  Ti196  1  0.70421305  0.49363363  0.89411464  1
  Ti  Ti197  1  0.49391718  0.69998479  0.29602053  1
  Ti  Ti198  1  0.59769902  0.60093232  0.60442283  1
  Ti  Ti199  1  0.39731819  0.80264330  0.20195296  1
  Mo  Mo200  1  0.00712645  0.00202516  0.20329687  1
  Mo  Mo201  1  0.39278542  0.40672499  0.00438568  1
  Mo  Mo202  1  0.20176483  0.18971673  0.59253725  1
  Mo  Mo203  1  0.30880121  0.30404583  0.30410731  1
  Mo  Mo204  1  0.78472624  0.60378840  0.40084965  1
  Mo  Mo205  1  0.39797958  0.78872691  0.59361248  1
  Mo  Mo206  1  0.30040280  0.50554968  0.10003555  1
  Mo  Mo207  1  0.69741293  0.30219771  0.90382479  1
  Mo  Mo208  1  0.58827916  0.21094913  0.60343728  1
  Mo  Mo209  1  0.79829562  0.58571424  -0.00732619  1
  Mo  Mo210  1  0.10647696  0.70472960  0.10028995  1
  Mo  Mo211  1  0.49586058  0.69255488  0.69160164  1
  Mo  Mo212  1  0.09773114  0.10311088  0.89888382  1
  Mo  Mo213  1  0.69366292  0.70225966  0.29758309  1
  Mo  Mo214  1  0.19783049  0.79578435  0.60407827  1
  Mo  Mo215  1  0.71113412  0.30091230  0.50339796  1
  Mo  Mo216  1  0.69403021  0.90533273  0.90255799  1
  Mo  Mo217  1  0.12012446  0.69522387  0.90477642  1
  Mo  Mo218  1  0.79765418  0.80220810  0.79782144  1
  Mo  Mo219  1  0.29737180  0.51489430  0.69992795  1
  Mo  Mo220  1  0.00802142  0.79002254  0.00732976  1
  Mo  Mo221  1  0.79762107  0.20126415  -0.00316599  1
  Mo  Mo222  1  0.10186545  0.49664859  0.70116135  1
  Mo  Mo223  1  0.39767578  0.40312982  0.59426214  1
  Mo  Mo224  1  0.59847353  0.20398292  0.20192635  1
  Mo  Mo225  1  0.49987262  0.30120036  0.69702732  1
  Mo  Mo226  1  0.80034103  0.39459630  0.79627858  1
  Mo  Mo227  1  0.29730427  0.89661980  0.29858019  1
  Mo  Mo228  1  0.90306261  0.70621624  0.09859450  1
  Mo  Mo229  1  0.80046483  0.60398347  0.20147865  1
  Mo  Mo230  1  0.89326181  0.49185923  0.50627354  1
  Mo  Mo231  1  0.49889614  0.49424766  0.09984806  1
  Mo  Mo232  1  0.30394503  0.09644933  0.29802269  1
  Mo  Mo233  1  0.29591349  0.29996985  0.90065866  1
  Mo  Mo234  1  0.50101686  0.90665828  0.90268441  1
  Mo  Mo235  1  0.10343190  0.09915144  0.10052965  1
  Mo  Mo236  1  0.19811975  0.79959986  -0.00447600  1
  Mo  Mo237  1  0.80032700  0.01464330  0.39785002  1
  Mo  Mo238  1  0.59952945  -0.01253795  0.81240548  1
  Mo  Mo239  1  0.90847921  0.29540878  0.30937438  1
  Mo  Mo240  1  0.19930770  0.80092355  0.39598599  1
  Mo  Mo241  1  0.09465837  0.09276795  0.30376314  1
  Mo  Mo242  1  0.29414130  0.29860848  0.69457181  1
  Mo  Mo243  1  0.89886352  0.29558205  0.50644974  1
  Mo  Mo244  1  0.70185174  0.48843797  0.69310875  1
  Mo  Mo245  1  0.01821626  0.59652981  0.40879778  1
  Mo  Mo246  1  0.81099550  0.20267885  0.60137020  1
  Mo  Mo247  1  0.50419956  0.10069312  0.09875929  1
  Mo  Mo248  1  0.20971704  0.40782121  0.40936406  1
  Mo  Mo249  1  0.09626526  0.90172051  0.49790839  1
