# generated using pymatgen
data_HfZrTaTiMo
_symmetry_space_group_name_H-M   'P 1'
_cell_length_a   16.88412000
_cell_length_b   16.88268910
_cell_length_c   16.88317736
_cell_angle_alpha   89.99323546
_cell_angle_beta   90.00073469
_cell_angle_gamma   90.01887743
_symmetry_Int_Tables_number   1
_chemical_formula_structural   HfZrTaTiMo
_chemical_formula_sum   'Hf50 Zr50 Ta50 Ti50 Mo50'
_cell_volume   4812.53841426
_cell_formula_units_Z   50
loop_
 _symmetry_equiv_pos_site_id
 _symmetry_equiv_pos_as_xyz
  1  'x, y, z'
loop_
 _atom_site_type_symbol
 _atom_site_label
 _atom_site_symmetry_multiplicity
 _atom_site_fract_x
 _atom_site_fract_y
 _atom_site_fract_z
 _atom_site_occupancy
  Hf  Hf0  1  0.08982248  0.50000548  0.48834426  1
  Hf  Hf1  1  0.30871668  0.49290194  0.50723043  1
  Hf  Hf2  1  0.49825161  0.08822253  0.90106795  1
  Hf  Hf3  1  0.10247649  0.90300046  0.09895579  1
  Hf  Hf4  1  0.00322460  0.21361513  -0.00165262  1
  Hf  Hf5  1  0.49902893  0.10306762  0.29235073  1
  Hf  Hf6  1  0.70275350  0.10520880  0.29743325  1
  Hf  Hf7  1  0.31031053  0.30292408  0.70017801  1
  Hf  Hf8  1  0.50104816  0.49789220  0.90120419  1
  Hf  Hf9  1  0.80286681  -0.00493799  0.59066100  1
  Hf  Hf10  1  0.41070651  0.19648020  0.59433416  1
  Hf  Hf11  1  0.80502156  -0.00313181  -0.01079092  1
  Hf  Hf12  1  0.10050535  0.10529927  0.49342587  1
  Hf  Hf13  1  0.20728166  -0.00704016  0.39572172  1
  Hf  Hf14  1  0.70052779  0.50384901  0.70582713  1
  Hf  Hf15  1  0.79351327  0.80687078  0.80571259  1
  Hf  Hf16  1  0.81107141  0.20069466  0.59003891  1
  Hf  Hf17  1  0.80167633  0.79441599  0.20170298  1
  Hf  Hf18  1  0.49094788  0.90218793  0.29342887  1
  Hf  Hf19  1  0.69692347  0.29143214  0.69331150  1
  Hf  Hf20  1  0.90342769  0.10075138  0.70420455  1
  Hf  Hf21  1  0.30762181  0.49459893  0.70735438  1
  Hf  Hf22  1  0.19018508  0.19064144  0.00199031  1
  Hf  Hf23  1  0.00257316  0.40413137  0.61517447  1
  Hf  Hf24  1  0.60261309  0.60868022  0.80261290  1
  Hf  Hf25  1  0.39248821  0.80035655  0.40282843  1
  Hf  Hf26  1  0.90300981  0.70031228  0.48658613  1
  Hf  Hf27  1  0.20556201  0.80011550  0.39552014  1
  Hf  Hf28  1  0.79298797  0.80425283  0.59690770  1
  Hf  Hf29  1  0.39608268  0.39801104  0.00392298  1
  Hf  Hf30  1  0.80417572  0.40863741  0.59855596  1
  Hf  Hf31  1  0.80073966  0.19994323  0.80997894  1
  Hf  Hf32  1  0.50879555  0.09973473  0.70254002  1
  Hf  Hf33  1  0.70440276  0.10205785  0.10112714  1
  Hf  Hf34  1  0.10071022  0.91310900  0.70534545  1
  Hf  Hf35  1  0.60580384  -0.00515915  0.20087198  1
  Hf  Hf36  1  0.70019059  0.49404660  0.91445721  1
  Hf  Hf37  1  0.41185474  -0.00282395  0.58783647  1
  Hf  Hf38  1  0.18804601  0.40131591  0.60966280  1
  Hf  Hf39  1  0.60385419  -0.00977575  0.59170106  1
  Hf  Hf40  1  0.90851916  0.31465193  0.49101911  1
  Hf  Hf41  1  0.40849176  0.38652249  0.39688746  1
  Hf  Hf42  1  0.29985162  0.69835316  0.70751681  1
  Hf  Hf43  1  0.60278173  0.81095034  0.40341772  1
  Hf  Hf44  1  0.20051548  0.79328907  0.59998333  1
  Hf  Hf45  1  0.40581360  0.59987285  0.19663176  1
  Hf  Hf46  1  0.09437394  0.89584673  0.49529828  1
  Hf  Hf47  1  0.79984264  0.60235784  0.20055063  1
  Hf  Hf48  1  0.51185894  0.49085076  0.10164277  1
  Hf  Hf49  1  -0.00532852  0.38719340  0.19207413  1
  Zr  Zr50  1  0.30429778  0.90286828  0.70736510  1
  Zr  Zr51  1  0.69935316  0.10812212  0.49487987  1
  Zr  Zr52  1  0.08869594  0.69203380  0.30656151  1
  Zr  Zr53  1  0.09851135  0.50222761  0.09874407  1
  Zr  Zr54  1  0.49430964  0.70828846  0.70095992  1
  Zr  Zr55  1  0.50017327  0.30269159  0.89946306  1
  Zr  Zr56  1  0.61102785  0.20094432  -0.01063992  1
  Zr  Zr57  1  0.29907697  0.90021851  0.09975754  1
  Zr  Zr58  1  0.90529126  0.90690572  0.70732565  1
  Zr  Zr59  1  0.09821453  0.29650082  0.30613824  1
  Zr  Zr60  1  0.89816599  0.89703077  0.09170134  1
  Zr  Zr61  1  0.00158035  0.79367073  0.80559069  1
  Zr  Zr62  1  0.89826689  0.10124194  0.09744549  1
  Zr  Zr63  1  0.80218946  0.39251525  0.80934307  1
  Zr  Zr64  1  0.50134088  0.30514448  0.70191447  1
  Zr  Zr65  1  0.19726136  0.79828543  -0.00498105  1
  Zr  Zr66  1  0.29610277  0.10442706  0.49400537  1
  Zr  Zr67  1  0.50285939  0.50219969  0.49327644  1
  Zr  Zr68  1  -0.00117844  0.80028079  0.60150882  1
  Zr  Zr69  1  0.49314625  0.89813914  0.90613445  1
  Zr  Zr70  1  0.21665741  0.60766144  0.41052421  1
  Zr  Zr71  1  0.50142066  0.09569970  0.09821280  1
  Zr  Zr72  1  0.50982346  0.29529066  0.10745905  1
  Zr  Zr73  1  0.11169321  0.10408154  0.29857087  1
  Zr  Zr74  1  0.20803562  0.39306353  0.39986909  1
  Zr  Zr75  1  0.30742709  0.50088418  0.29808391  1
  Zr  Zr76  1  0.60724394  0.60747031  0.20002114  1
  Zr  Zr77  1  0.60768000  0.79829141  0.79539392  1
  Zr  Zr78  1  0.39649383  0.60798677  0.59559248  1
  Zr  Zr79  1  0.18913054  0.39481082  0.80474301  1
  Zr  Zr80  1  0.61116835  -0.01296614  0.79558699  1
  Zr  Zr81  1  0.29293099  0.50033662  0.09470598  1
  Zr  Zr82  1  0.49990438  0.70381445  0.49676092  1
  Zr  Zr83  1  0.10033445  0.91321321  0.89764275  1
  Zr  Zr84  1  0.09944117  0.50212884  0.29665733  1
  Zr  Zr85  1  -0.00031419  0.00404491  0.20378651  1
  Zr  Zr86  1  -0.00663894  0.79717560  0.20483581  1
  Zr  Zr87  1  0.30120544  0.09286131  0.70389523  1
  Zr  Zr88  1  0.40417434  0.20500621  0.39725966  1
  Zr  Zr89  1  0.89312466  0.69252509  0.70764667  1
  Zr  Zr90  1  0.49900140  0.89833660  0.09577430  1
  Zr  Zr91  1  0.90709693  0.49851440  0.31033551  1
  Zr  Zr92  1  -0.01628113  0.19412059  0.39610590  1
  Zr  Zr93  1  0.30112619  0.29843618  0.90072920  1
  Zr  Zr94  1  0.60740200  0.40751953  0.59274563  1
  Zr  Zr95  1  0.69881529  0.31213922  0.09549215  1
  Zr  Zr96  1  0.18630439  0.19610405  0.79882317  1
  Zr  Zr97  1  0.10313048  0.67855385  0.89268012  1
  Zr  Zr98  1  -0.00333079  0.59819651  0.60598701  1
  Zr  Zr99  1  -0.01505225  -0.00821406  0.39545195  1
  Ta  Ta100  1  0.19829762  0.79492933  0.79970566  1
  Ta  Ta101  1  0.40090773  0.19249171  0.80528886  1
  Ta  Ta102  1  0.60218970  0.60633078  0.00540105  1
  Ta  Ta103  1  0.79846744  0.60323792  0.00993116  1
  Ta  Ta104  1  0.89121913  0.69842718  0.90823943  1
  Ta  Ta105  1  0.09371597  0.49905434  0.90858010  1
  Ta  Ta106  1  0.70265142  0.70002438  0.49451563  1
  Ta  Ta107  1  0.10191208  0.69535285  0.09905048  1
  Ta  Ta108  1  0.30233372  0.69537233  0.90540697  1
  Ta  Ta109  1  0.80841430  0.21469182  0.19885575  1
  Ta  Ta110  1  0.79492754  0.59898613  0.59542487  1
  Ta  Ta111  1  0.18965863  0.20279795  0.60646209  1
  Ta  Ta112  1  0.59546108  0.20610840  0.39765701  1
  Ta  Ta113  1  0.60899159  0.60837040  0.60146052  1
  Ta  Ta114  1  0.20324677  0.38756705  0.19465339  1
  Ta  Ta115  1  0.29248842  0.08902075  0.89661087  1
  Ta  Ta116  1  0.00250790  0.20095743  0.60322309  1
  Ta  Ta117  1  0.50568767  0.49501525  0.29872847  1
  Ta  Ta118  1  0.69944024  0.89643893  0.09461881  1
  Ta  Ta119  1  0.19317596  0.00511824  0.60026683  1
  Ta  Ta120  1  0.60616369  0.80785135  0.59915755  1
  Ta  Ta121  1  0.49651927  0.49661131  0.70362905  1
  Ta  Ta122  1  0.90065260  0.50072866  0.90845278  1
  Ta  Ta123  1  0.90403172  0.29933245  0.70441270  1
  Ta  Ta124  1  -0.00487778  0.79337543  -0.00123898  1
  Ta  Ta125  1  0.09567291  0.69815842  0.49709977  1
  Ta  Ta126  1  0.40169307  0.59872351  0.80933104  1
  Ta  Ta127  1  0.39964819  0.38754190  0.20524976  1
  Ta  Ta128  1  0.00379380  0.20573057  0.80450164  1
  Ta  Ta129  1  0.29949786  0.69820199  0.09429804  1
  Ta  Ta130  1  0.20340243  0.79226726  0.20336166  1
  Ta  Ta131  1  0.39588489  0.79324301  0.19860243  1
  Ta  Ta132  1  0.49437788  0.70189793  0.91045982  1
  Ta  Ta133  1  0.09895211  0.29766006  0.49928232  1
  Ta  Ta134  1  0.19403161  0.60174508  0.60606098  1
  Ta  Ta135  1  0.70209428  0.10023112  0.69811422  1
  Ta  Ta136  1  0.38419105  0.00280465  0.00287505  1
  Ta  Ta137  1  0.39299751  0.20081212  0.19553216  1
  Ta  Ta138  1  0.70125843  0.70414124  0.30966259  1
  Ta  Ta139  1  0.80111687  0.39990946  0.20350176  1
  Ta  Ta140  1  -0.00342286  0.20300814  0.19236607  1
  Ta  Ta141  1  -0.00717401  0.60262950  0.00530903  1
  Ta  Ta142  1  0.80042653  -0.00353621  0.80447684  1
  Ta  Ta143  1  0.59586270  -0.00128032  0.40372784  1
  Ta  Ta144  1  0.80739472  0.21249121  -0.00815290  1
  Ta  Ta145  1  -0.00393529  0.01006963  0.59078025  1
  Ta  Ta146  1  0.30172440  0.09959363  0.29125317  1
  Ta  Ta147  1  0.89500521  0.49456062  0.09497485  1
  Ta  Ta148  1  0.49594796  0.70676991  0.09402147  1
  Ta  Ta149  1  0.09652356  0.52073106  0.72697282  1
  Ti  Ti150  1  0.90108499  0.50295848  0.49084212  1
  Ti  Ti151  1  0.40036071  0.59944326  0.00056916  1
  Ti  Ti152  1  0.70019915  0.70970011  0.09510775  1
  Ti  Ti153  1  0.39229077  0.19169473  0.00209140  1
  Ti  Ti154  1  0.10180808  0.89688664  0.29542867  1
  Ti  Ti155  1  0.80099941  0.21067003  0.39376527  1
  Ti  Ti156  1  0.79831220  0.60228471  0.39522763  1
  Ti  Ti157  1  0.28999208  0.50434815  0.90246490  1
  Ti  Ti158  1  0.70280086  0.70196354  0.91324564  1
  Ti  Ti159  1  0.90947223  0.09816976  0.89687462  1
  Ti  Ti160  1  0.60257276  0.60267314  0.39749875  1
  Ti  Ti161  1  0.29215660  0.28585427  0.29662831  1
  Ti  Ti162  1  0.69522231  0.49811928  0.30071814  1
  Ti  Ti163  1  0.30435474  0.90881393  0.28521065  1
  Ti  Ti164  1  0.20347271  0.01122096  0.18671435  1
  Ti  Ti165  1  0.19550738  0.19897398  0.18586064  1
  Ti  Ti166  1  0.39491488  0.79928293  0.81151067  1
  Ti  Ti167  1  0.29525371  0.90589479  0.89695398  1
  Ti  Ti168  1  -0.01470135  0.60666394  0.19465888  1
  Ti  Ti169  1  0.49968208  0.69760694  0.30169761  1
  Ti  Ti170  1  0.70032838  0.09392446  0.89916993  1
  Ti  Ti171  1  0.60111536  0.39306507  0.39254029  1
  Ti  Ti172  1  0.69973168  0.49379595  0.10036646  1
  Ti  Ti173  1  0.69297430  0.29942913  0.29252903  1
  Ti  Ti174  1  0.69889964  0.29970122  0.49627594  1
  Ti  Ti175  1  0.60519171  0.39620075  0.80523370  1
  Ti  Ti176  1  0.29701042  0.29921488  0.51004508  1
  Ti  Ti177  1  0.60611994  0.19877548  0.80390793  1
  Ti  Ti178  1  0.59940564  0.79743967  0.00080232  1
  Ti  Ti179  1  0.60036943  0.79746760  0.20275061  1
  Ti  Ti180  1  0.30767543  0.69555977  0.29746895  1
  Ti  Ti181  1  0.89864400  0.50316355  0.71649372  1
  Ti  Ti182  1  0.70245258  0.50556004  0.48995129  1
  Ti  Ti183  1  0.69874684  0.89647174  0.91388946  1
  Ti  Ti184  1  0.49054421  0.89634582  0.70106329  1
  Ti  Ti185  1  0.70432138  0.89985844  0.30083162  1
  Ti  Ti186  1  0.18479844  0.38526883  0.00321460  1
  Ti  Ti187  1  0.80079253  -0.00694758  0.40414757  1
  Ti  Ti188  1  0.79405839  0.60386918  0.80804147  1
  Ti  Ti189  1  0.29711771  0.29454189  0.09913274  1
  Ti  Ti190  1  0.00023647  0.39424563  0.81008223  1
  Ti  Ti191  1  0.40262604  -0.00087395  0.40154349  1
  Ti  Ti192  1  0.30177062  0.89759234  0.50908362  1
  Ti  Ti193  1  0.80277180  -0.00870227  0.20291583  1
  Ti  Ti194  1  0.80769471  0.81098092  0.39781186  1
  Ti  Ti195  1  0.51251866  0.29813065  0.50727546  1
  Ti  Ti196  1  0.00666191  0.00961970  -0.00399946  1
  Ti  Ti197  1  0.20365215  0.60589417  0.19736202  1
  Ti  Ti198  1  0.88678040  0.10096109  0.29629755  1
  Ti  Ti199  1  0.79395508  0.39632859  0.39303805  1
  Mo  Mo200  1  0.09589719  0.09884870  0.89652426  1
  Mo  Mo201  1  0.60954546  0.20098102  0.20647005  1
  Mo  Mo202  1  0.09436086  0.10038900  0.69681411  1
  Mo  Mo203  1  0.90336424  0.30703661  0.90077230  1
  Mo  Mo204  1  -0.00084699  0.01356934  0.80460483  1
  Mo  Mo205  1  0.89603224  0.30470374  0.09705964  1
  Mo  Mo206  1  0.50567091  0.09984759  0.48909272  1
  Mo  Mo207  1  -0.00653716  0.60162942  0.40239035  1
  Mo  Mo208  1  0.60700736  0.40380758  0.21136069  1
  Mo  Mo209  1  0.29847770  0.10262902  0.09879765  1
  Mo  Mo210  1  0.80441628  0.40247637  0.00548939  1
  Mo  Mo211  1  0.89703161  0.10208144  0.49605347  1
  Mo  Mo212  1  0.61320902  -0.00476470  0.00053997  1
  Mo  Mo213  1  -0.00268811  0.40339208  -0.00224564  1
  Mo  Mo214  1  0.09940348  0.10029098  0.09920562  1
  Mo  Mo215  1  0.60238992  0.40523729  0.00014474  1
  Mo  Mo216  1  0.49670627  0.90083026  0.49429873  1
  Mo  Mo217  1  0.21293719  0.59603055  0.80545317  1
  Mo  Mo218  1  0.50839918  0.29942269  0.29271489  1
  Mo  Mo219  1  0.90383663  0.90019736  0.90271158  1
  Mo  Mo220  1  0.39327004  0.79911802  -0.00073038  1
  Mo  Mo221  1  0.40038038  0.80807235  0.59584733  1
  Mo  Mo222  1  0.20758922  0.20248616  0.40721625  1
  Mo  Mo223  1  0.70062873  0.30125693  0.89937010  1
  Mo  Mo224  1  0.19991237  0.59827962  0.00045766  1
  Mo  Mo225  1  0.70176107  0.89800753  0.49098651  1
  Mo  Mo226  1  0.39332904  0.00399672  0.19795877  1
  Mo  Mo227  1  0.19881314  0.00433830  -0.00271842  1
  Mo  Mo228  1  0.08901420  0.29857057  0.70044550  1
  Mo  Mo229  1  0.40950828  0.60373772  0.39104356  1
  Mo  Mo230  1  -0.00278626  0.80053344  0.39405242  1
  Mo  Mo231  1  0.00225186  0.39964116  0.39846530  1
  Mo  Mo232  1  0.90165602  0.69439665  0.09746536  1
  Mo  Mo233  1  0.10121973  0.29914754  0.10264490  1
  Mo  Mo234  1  0.89084823  0.30232379  0.29905708  1
  Mo  Mo235  1  0.70141999  0.69756287  0.69084822  1
  Mo  Mo236  1  0.70480849  0.90347411  0.69583729  1
  Mo  Mo237  1  0.89998832  0.89883011  0.49345327  1
  Mo  Mo238  1  0.09453697  0.30594588  0.90250268  1
  Mo  Mo239  1  0.40151699  0.40647052  0.80407445  1
  Mo  Mo240  1  0.19769521  0.00044255  0.79841950  1
  Mo  Mo241  1  0.39952834  -0.00242934  0.80758016  1
  Mo  Mo242  1  0.10659971  0.69314075  0.70250578  1
  Mo  Mo243  1  0.79775057  0.79664365  -0.00075892  1
  Mo  Mo244  1  0.89159022  0.69840712  0.30406880  1
  Mo  Mo245  1  -0.01696595  0.59339291  0.81056276  1
  Mo  Mo246  1  0.29694298  0.70362349  0.50509512  1
  Mo  Mo247  1  0.60597757  0.19549747  0.59252775  1
  Mo  Mo248  1  0.88826443  0.90004234  0.29951371  1
  Mo  Mo249  1  0.40810872  0.39340043  0.59890823  1
