# generated using pymatgen
data_HfZrTaTiMo
_symmetry_space_group_name_H-M   'P 1'
_cell_length_a   16.89025618
_cell_length_b   16.88487635
_cell_length_c   16.89131452
_cell_angle_alpha   89.96958327
_cell_angle_beta   89.95505083
_cell_angle_gamma   90.03268462
_symmetry_Int_Tables_number   1
_chemical_formula_structural   HfZrTaTiMo
_chemical_formula_sum   'Hf50 Zr50 Ta50 Ti50 Mo50'
_cell_volume   4817.22913515
_cell_formula_units_Z   50
loop_
 _symmetry_equiv_pos_site_id
 _symmetry_equiv_pos_as_xyz
  1  'x, y, z'
loop_
 _atom_site_type_symbol
 _atom_site_label
 _atom_site_symmetry_multiplicity
 _atom_site_fract_x
 _atom_site_fract_y
 _atom_site_fract_z
 _atom_site_occupancy
  Hf  Hf0  1  0.69039596  0.10862301  0.11033267  1
  Hf  Hf1  1  0.40334641  0.00141475  -0.00406176  1
  Hf  Hf2  1  0.19170856  0.78145534  0.19875048  1
  Hf  Hf3  1  -0.00586744  0.60551686  0.60437176  1
  Hf  Hf4  1  0.09801776  0.50032305  0.90986549  1
  Hf  Hf5  1  0.09464999  0.69746469  0.90210884  1
  Hf  Hf6  1  0.40198424  0.19439855  -0.00329698  1
  Hf  Hf7  1  0.51127371  0.90405179  0.89705304  1
  Hf  Hf8  1  0.40742903  -0.00613801  0.40788724  1
  Hf  Hf9  1  0.80180897  0.59197987  0.79967887  1
  Hf  Hf10  1  0.09212330  0.30347606  0.49870109  1
  Hf  Hf11  1  0.00143983  0.79511760  0.20331285  1
  Hf  Hf12  1  0.60094228  0.39727065  0.40265328  1
  Hf  Hf13  1  0.70950847  0.49697629  0.28798734  1
  Hf  Hf14  1  0.29612963  0.50283311  0.49792388  1
  Hf  Hf15  1  0.69522307  0.90249656  0.89916497  1
  Hf  Hf16  1  0.19090582  0.78880708  0.39313139  1
  Hf  Hf17  1  0.59941483  0.79597189  0.19937521  1
  Hf  Hf18  1  0.60804108  0.59544260  0.39762769  1
  Hf  Hf19  1  -0.00278473  0.80147582  0.59074910  1
  Hf  Hf20  1  0.09814726  0.29220624  0.70847447  1
  Hf  Hf21  1  0.89251748  0.09660873  0.49847341  1
  Hf  Hf22  1  0.80128782  -0.00690396  0.39820840  1
  Hf  Hf23  1  0.40488242  0.79976511  0.00242432  1
  Hf  Hf24  1  0.09871291  0.50814770  0.48930191  1
  Hf  Hf25  1  0.80232315  0.00473925  0.21187628  1
  Hf  Hf26  1  0.50539349  0.29517963  0.09825555  1
  Hf  Hf27  1  0.80506567  0.79614142  0.20637825  1
  Hf  Hf28  1  0.50372507  0.29127655  0.69702701  1
  Hf  Hf29  1  0.49766852  0.49736420  0.29982923  1
  Hf  Hf30  1  0.20834268  0.79754480  0.80614164  1
  Hf  Hf31  1  0.40227378  0.39806500  0.59450772  1
  Hf  Hf32  1  0.50019181  0.10863755  0.30361637  1
  Hf  Hf33  1  0.80244863  0.39929075  0.00071792  1
  Hf  Hf34  1  0.31395610  0.69632646  0.89714111  1
  Hf  Hf35  1  0.69347868  0.30628040  0.69996351  1
  Hf  Hf36  1  0.89781388  0.50107206  0.49181374  1
  Hf  Hf37  1  0.39772940  0.40006632  0.80169803  1
  Hf  Hf38  1  0.09652679  0.09340821  0.49858239  1
  Hf  Hf39  1  0.70204041  0.70851626  0.49530183  1
  Hf  Hf40  1  0.89310553  0.89455050  0.89558972  1
  Hf  Hf41  1  0.79432463  0.19384284  0.60295616  1
  Hf  Hf42  1  0.19559154  0.60675934  0.01368092  1
  Hf  Hf43  1  0.69848080  0.49761572  0.09769602  1
  Hf  Hf44  1  0.80686766  0.59721061  -0.00443983  1
  Hf  Hf45  1  0.79003653  0.19356048  0.80729545  1
  Hf  Hf46  1  0.00041144  0.40529863  0.38492059  1
  Hf  Hf47  1  0.09869125  0.10669781  0.90297293  1
  Hf  Hf48  1  0.20134870  0.39412340  0.80817664  1
  Hf  Hf49  1  0.28513954  0.89637497  0.50591035  1
  Zr  Zr50  1  0.10586877  0.10637023  0.10182735  1
  Zr  Zr51  1  0.29533483  0.10327323  0.11075149  1
  Zr  Zr52  1  0.68169326  0.50760096  0.90240353  1
  Zr  Zr53  1  -0.00029291  0.00362608  0.00124990  1
  Zr  Zr54  1  0.20228844  0.20896992  0.40614515  1
  Zr  Zr55  1  -0.01383257  -0.01207991  0.60103821  1
  Zr  Zr56  1  0.69075731  0.70093624  0.69691433  1
  Zr  Zr57  1  0.49954115  0.29193810  0.29850932  1
  Zr  Zr58  1  0.50475027  0.51217208  0.69578658  1
  Zr  Zr59  1  0.41509503  -0.00340811  0.60560422  1
  Zr  Zr60  1  -0.00627786  0.00499339  0.20609404  1
  Zr  Zr61  1  0.88783536  0.30183327  0.28763988  1
  Zr  Zr62  1  0.50250978  0.70024223  0.30303318  1
  Zr  Zr63  1  0.70149158  0.30282098  0.50348329  1
  Zr  Zr64  1  0.10228246  0.89500892  0.69811581  1
  Zr  Zr65  1  0.51172418  0.69939370  0.50163888  1
  Zr  Zr66  1  0.41184821  -0.00917469  0.20367351  1
  Zr  Zr67  1  0.50381494  0.69515582  0.88847512  1
  Zr  Zr68  1  0.30458792  0.89197113  0.70285177  1
  Zr  Zr69  1  0.30317370  0.50886893  0.90209598  1
  Zr  Zr70  1  -0.00555138  0.19623262  0.60341344  1
  Zr  Zr71  1  0.89940428  0.89744565  0.09834227  1
  Zr  Zr72  1  0.40856382  0.80078729  0.60122733  1
  Zr  Zr73  1  0.10868678  0.50148740  0.70365205  1
  Zr  Zr74  1  0.69402351  0.70482447  0.89493504  1
  Zr  Zr75  1  0.30293898  0.10471745  0.29753320  1
  Zr  Zr76  1  0.20037978  0.61815999  0.60032568  1
  Zr  Zr77  1  0.89120233  0.29813513  0.70871489  1
  Zr  Zr78  1  0.30460153  0.28566143  0.69517060  1
  Zr  Zr79  1  0.79903643  0.01007201  0.00053177  1
  Zr  Zr80  1  0.09946921  0.29637776  0.08921148  1
  Zr  Zr81  1  0.20523589  0.39251948  0.59452814  1
  Zr  Zr82  1  0.40019829  0.40340443  0.19234727  1
  Zr  Zr83  1  0.59292939  0.40383088  0.80186179  1
  Zr  Zr84  1  0.20340155  -0.00290898  0.80584361  1
  Zr  Zr85  1  0.00845912  0.40791822  0.19594414  1
  Zr  Zr86  1  0.29783999  0.89644203  0.10563191  1
  Zr  Zr87  1  -0.00866407  0.59349825  0.79846691  1
  Zr  Zr88  1  0.69436448  0.90328398  0.09641124  1
  Zr  Zr89  1  0.30982906  0.10945022  0.50607136  1
  Zr  Zr90  1  0.69003307  0.30275855  0.90382210  1
  Zr  Zr91  1  0.79497062  0.20194502  0.00328671  1
  Zr  Zr92  1  0.80495514  0.60212061  0.59758592  1
  Zr  Zr93  1  -0.00465591  0.19506413  0.38773265  1
  Zr  Zr94  1  0.30631316  0.29454141  0.29596171  1
  Zr  Zr95  1  0.89005815  0.72213151  0.71271772  1
  Zr  Zr96  1  0.29172454  0.89947418  0.29774118  1
  Zr  Zr97  1  0.39911220  0.79903262  0.40055889  1
  Zr  Zr98  1  -0.00897271  0.40668171  0.60900227  1
  Zr  Zr99  1  0.80672552  0.82673412  0.58838210  1
  Ta  Ta100  1  -0.00207773  -0.00116643  0.80174883  1
  Ta  Ta101  1  0.80048890  0.79058543  0.00407869  1
  Ta  Ta102  1  0.70076106  0.29700880  0.28832418  1
  Ta  Ta103  1  0.79915183  0.40467203  0.39468919  1
  Ta  Ta104  1  0.69773973  0.09246936  0.50233612  1
  Ta  Ta105  1  0.20506461  -0.00794755  -0.00356122  1
  Ta  Ta106  1  0.19547962  0.59578571  0.20076176  1
  Ta  Ta107  1  0.40210932  0.40175922  -0.00032035  1
  Ta  Ta108  1  0.19639284  0.00315801  0.60286762  1
  Ta  Ta109  1  0.90303721  0.70336841  0.90567434  1
  Ta  Ta110  1  0.39321307  0.59883048  0.40018442  1
  Ta  Ta111  1  0.60614870  0.19865015  0.40513325  1
  Ta  Ta112  1  0.59465764  0.19416163  -0.00388466  1
  Ta  Ta113  1  0.10067476  0.90622003  0.30037970  1
  Ta  Ta114  1  0.40777616  -0.00070381  0.80129223  1
  Ta  Ta115  1  0.50008511  0.29692034  0.90080057  1
  Ta  Ta116  1  0.19986146  0.79883295  0.00145829  1
  Ta  Ta117  1  0.39704528  0.60754438  0.59703950  1
  Ta  Ta118  1  0.20174398  0.60514419  0.38723519  1
  Ta  Ta119  1  0.40860270  0.18717575  0.80187432  1
  Ta  Ta120  1  0.67862182  0.08757717  0.89557372  1
  Ta  Ta121  1  -0.00704063  0.40262097  0.80777685  1
  Ta  Ta122  1  0.90305084  0.50462541  0.10422489  1
  Ta  Ta123  1  0.19935119  0.40728849  0.19604276  1
  Ta  Ta124  1  0.70322681  0.69162168  0.10300468  1
  Ta  Ta125  1  0.50804790  0.10152145  0.50176184  1
  Ta  Ta126  1  0.11228375  0.09877690  0.29219177  1
  Ta  Ta127  1  0.30001034  0.50104456  0.29802040  1
  Ta  Ta128  1  0.90675623  0.29706565  0.90510222  1
  Ta  Ta129  1  0.30356590  0.09929225  0.70083162  1
  Ta  Ta130  1  0.30161828  0.50227462  0.09866579  1
  Ta  Ta131  1  0.09864228  0.89590552  0.90699223  1
  Ta  Ta132  1  0.89295033  0.30303201  0.49291312  1
  Ta  Ta133  1  0.90424866  0.68809169  0.10537695  1
  Ta  Ta134  1  0.60097520  0.18887857  0.60357757  1
  Ta  Ta135  1  0.80430713  0.60375030  0.39105140  1
  Ta  Ta136  1  0.60293602  0.81914155  0.59717100  1
  Ta  Ta137  1  0.00387270  0.79350391  0.00756256  1
  Ta  Ta138  1  0.88940257  0.08699945  0.70816676  1
  Ta  Ta139  1  0.60284321  0.39787883  0.19177785  1
  Ta  Ta140  1  0.49260196  0.51029196  0.90534657  1
  Ta  Ta141  1  0.39779555  0.39753018  0.40842388  1
  Ta  Ta142  1  0.30413466  0.50961528  0.70089112  1
  Ta  Ta143  1  0.59501266  0.59823375  0.19420425  1
  Ta  Ta144  1  0.60123107  -0.00056208  0.21128899  1
  Ta  Ta145  1  0.30175063  0.09701484  0.89636456  1
  Ta  Ta146  1  0.09977571  0.09931852  0.70457623  1
  Ta  Ta147  1  0.80753229  0.80295652  0.39298717  1
  Ta  Ta148  1  0.39983337  0.60180146  0.19764851  1
  Ta  Ta149  1  0.69306296  0.49941863  0.69004817  1
  Ti  Ti150  1  0.20680488  0.20134675  -0.00549533  1
  Ti  Ti151  1  0.19846172  0.00217102  0.40003538  1
  Ti  Ti152  1  0.80495872  0.40902529  0.80677785  1
  Ti  Ti153  1  0.69498600  0.89356281  0.30540295  1
  Ti  Ti154  1  0.69583799  0.09126089  0.70519455  1
  Ti  Ti155  1  -0.00507141  0.40542549  0.00097982  1
  Ti  Ti156  1  0.89873181  0.11566907  0.10639061  1
  Ti  Ti157  1  0.50076883  0.70099617  0.70083363  1
  Ti  Ti158  1  0.59770977  0.79087481  0.00961831  1
  Ti  Ti159  1  0.09838611  0.90076427  0.49265407  1
  Ti  Ti160  1  0.49885469  0.28988899  0.50408088  1
  Ti  Ti161  1  0.89970504  0.51413490  0.28773964  1
  Ti  Ti162  1  0.08079194  0.68136600  0.30078436  1
  Ti  Ti163  1  0.19806216  0.19576360  0.59972210  1
  Ti  Ti164  1  0.79613165  0.19919438  0.39531504  1
  Ti  Ti165  1  0.90017548  0.10136457  0.89852158  1
  Ti  Ti166  1  0.59709178  0.81125714  0.78348091  1
  Ti  Ti167  1  0.20524246  0.60729891  0.79587230  1
  Ti  Ti168  1  0.80130584  0.40472377  0.60024960  1
  Ti  Ti169  1  0.09262845  0.69832377  0.49128265  1
  Ti  Ti170  1  -0.00715564  -0.00197873  0.38994750  1
  Ti  Ti171  1  0.30768688  0.69601332  0.10257789  1
  Ti  Ti172  1  0.40446099  0.79364305  0.20055984  1
  Ti  Ti173  1  0.09146388  0.29555523  0.90489017  1
  Ti  Ti174  1  0.29887405  0.29683369  0.10142613  1
  Ti  Ti175  1  0.90500839  0.69941437  0.48262513  1
  Ti  Ti176  1  0.20263845  0.40162393  0.39180969  1
  Ti  Ti177  1  0.71382774  0.91018574  0.70855908  1
  Ti  Ti178  1  0.60416025  -0.00350648  0.40343679  1
  Ti  Ti179  1  0.30562257  0.29466032  0.90229986  1
  Ti  Ti180  1  0.50513724  0.50408851  0.50484735  1
  Ti  Ti181  1  0.69821052  0.50061464  0.50636147  1
  Ti  Ti182  1  0.60537628  -0.00555033  0.60301820  1
  Ti  Ti183  1  -0.00054624  0.19958940  0.20236104  1
  Ti  Ti184  1  0.69705541  0.10929012  0.30042064  1
  Ti  Ti185  1  0.10167726  0.70845134  0.70172385  1
  Ti  Ti186  1  0.50447123  0.10233041  0.10913149  1
  Ti  Ti187  1  0.29712809  0.70465883  0.49940910  1
  Ti  Ti188  1  0.20551430  0.39927542  0.00365795  1
  Ti  Ti189  1  0.51074319  0.89333065  0.30961611  1
  Ti  Ti190  1  -0.00599488  0.19514376  0.80266044  1
  Ti  Ti191  1  0.50859288  0.90285273  0.09903198  1
  Ti  Ti192  1  0.58391154  0.60313344  0.01393719  1
  Ti  Ti193  1  0.00178442  0.80625279  0.80296391  1
  Ti  Ti194  1  0.10741235  0.29662168  0.29102071  1
  Ti  Ti195  1  0.10475297  0.90101731  0.10221302  1
  Ti  Ti196  1  0.70425210  0.69571193  0.29660418  1
  Ti  Ti197  1  0.20556236  0.19772851  0.80488626  1
  Ti  Ti198  1  -0.00573428  0.80363505  0.39168808  1
  Ti  Ti199  1  0.89749194  0.29942362  0.10252028  1
  Mo  Mo200  1  0.69492663  0.30266106  0.10311914  1
  Mo  Mo201  1  0.60166485  0.20050638  0.20418252  1
  Mo  Mo202  1  0.18961114  0.79899770  0.59025583  1
  Mo  Mo203  1  0.79665584  0.00293837  0.80304190  1
  Mo  Mo204  1  0.39932743  0.60512800  0.78525331  1
  Mo  Mo205  1  0.40061283  0.19810668  0.18812800  1
  Mo  Mo206  1  0.89617451  0.10602541  0.29958461  1
  Mo  Mo207  1  0.49921178  0.50066794  0.09731616  1
  Mo  Mo208  1  0.30622983  0.30285229  0.49706571  1
  Mo  Mo209  1  0.00298776  0.59752393  0.19833096  1
  Mo  Mo210  1  0.89581767  0.90674186  0.71608639  1
  Mo  Mo211  1  0.59726522  0.60112539  0.79003762  1
  Mo  Mo212  1  -0.00131072  0.60008821  0.00633485  1
  Mo  Mo213  1  0.30483817  0.89857318  0.90408513  1
  Mo  Mo214  1  0.50624421  0.09667065  0.69996746  1
  Mo  Mo215  1  0.40646665  0.80258019  0.79836553  1
  Mo  Mo216  1  0.88700715  0.49159661  0.70397718  1
  Mo  Mo217  1  0.40204692  0.60015461  0.01526253  1
  Mo  Mo218  1  0.80121748  0.60152911  0.19752677  1
  Mo  Mo219  1  0.41040615  0.19429929  0.60442351  1
  Mo  Mo220  1  0.50690259  0.90118815  0.70208033  1
  Mo  Mo221  1  0.40936411  0.20488556  0.41587070  1
  Mo  Mo222  1  0.59552184  0.18971306  0.80027989  1
  Mo  Mo223  1  0.70001090  0.90581559  0.49382723  1
  Mo  Mo224  1  0.59996410  0.60260648  0.59385067  1
  Mo  Mo225  1  0.50202184  0.09817330  0.89400713  1
  Mo  Mo226  1  0.90517013  0.89986874  0.48302987  1
  Mo  Mo227  1  0.51783300  0.90468149  0.49711793  1
  Mo  Mo228  1  0.59835264  -0.00101356  0.78355128  1
  Mo  Mo229  1  0.61338268  0.80457659  0.39852159  1
  Mo  Mo230  1  0.90527679  0.49406257  0.90618184  1
  Mo  Mo231  1  0.79321599  0.00230299  0.60250629  1
  Mo  Mo232  1  0.11056200  0.50186334  0.29794991  1
  Mo  Mo233  1  0.59893126  0.40278249  0.59214323  1
  Mo  Mo234  1  0.09419999  0.69475601  0.10087120  1
  Mo  Mo235  1  -0.00899838  0.20359764  -0.00162275  1
  Mo  Mo236  1  0.50109347  0.70113639  0.10306192  1
  Mo  Mo237  1  0.30376428  0.69183429  0.29376796  1
  Mo  Mo238  1  0.90133396  0.69509787  0.30128070  1
  Mo  Mo239  1  -0.00276249  0.59954318  0.39510209  1
  Mo  Mo240  1  0.59096299  0.00685482  0.01490540  1
  Mo  Mo241  1  0.79760735  0.20178338  0.19941149  1
  Mo  Mo242  1  0.19947256  0.21382742  0.20009319  1
  Mo  Mo243  1  0.79452088  0.80349187  0.80912190  1
  Mo  Mo244  1  0.10309953  0.49725051  0.09851846  1
  Mo  Mo245  1  0.30722924  0.69979565  0.70112412  1
  Mo  Mo246  1  0.90685521  0.89600389  0.30116753  1
  Mo  Mo247  1  0.80039124  0.40013429  0.19362424  1
  Mo  Mo248  1  0.58671939  0.40001222  0.00256566  1
  Mo  Mo249  1  0.19027075  -0.00988964  0.19832481  1
