# generated using pymatgen
data_HfZrTaTiMo
_symmetry_space_group_name_H-M   'P 1'
_cell_length_a   16.89450272
_cell_length_b   16.88524156
_cell_length_c   16.87474123
_cell_angle_alpha   90.02800866
_cell_angle_beta   90.06671634
_cell_angle_gamma   89.99745360
_symmetry_Int_Tables_number   1
_chemical_formula_structural   HfZrTaTiMo
_chemical_formula_sum   'Hf50 Zr50 Ta50 Ti50 Mo50'
_cell_volume   4813.81577839
_cell_formula_units_Z   50
loop_
 _symmetry_equiv_pos_site_id
 _symmetry_equiv_pos_as_xyz
  1  'x, y, z'
loop_
 _atom_site_type_symbol
 _atom_site_label
 _atom_site_symmetry_multiplicity
 _atom_site_fract_x
 _atom_site_fract_y
 _atom_site_fract_z
 _atom_site_occupancy
  Hf  Hf0  1  0.39636535  0.40124306  0.00447673  1
  Hf  Hf1  1  0.60610989  0.20608053  0.79503133  1
  Hf  Hf2  1  0.40908501  0.00039793  0.60336313  1
  Hf  Hf3  1  0.00492242  0.80223921  0.79004070  1
  Hf  Hf4  1  0.61070966  0.79786030  0.39048796  1
  Hf  Hf5  1  0.10527527  0.30177504  0.49857092  1
  Hf  Hf6  1  0.90102756  0.09280543  0.29352664  1
  Hf  Hf7  1  0.80467842  0.60081779  0.79758778  1
  Hf  Hf8  1  0.90055682  0.71169977  0.11207453  1
  Hf  Hf9  1  0.69655186  0.89895215  0.89146138  1
  Hf  Hf10  1  -0.00350923  0.20091531  0.00022187  1
  Hf  Hf11  1  0.20095711  0.80074154  0.40002667  1
  Hf  Hf12  1  0.80703039  0.79968450  0.79723326  1
  Hf  Hf13  1  0.30774599  0.90283601  0.89187764  1
  Hf  Hf14  1  0.59718215  0.59999861  0.20557616  1
  Hf  Hf15  1  0.41759457  0.58968237  0.19432337  1
  Hf  Hf16  1  0.01597514  -0.00715367  0.60165145  1
  Hf  Hf17  1  0.71629570  0.68251274  0.48237886  1
  Hf  Hf18  1  0.00058706  0.59506069  0.21196962  1
  Hf  Hf19  1  0.20690198  0.20112255  0.80821242  1
  Hf  Hf20  1  0.30512362  0.70524671  0.11045510  1
  Hf  Hf21  1  0.10061290  0.70516955  0.11274508  1
  Hf  Hf22  1  0.39510964  0.00787586  0.00114682  1
  Hf  Hf23  1  0.50654184  0.91259767  0.49013233  1
  Hf  Hf24  1  0.60040246  0.79726633  0.20510215  1
  Hf  Hf25  1  0.00034437  0.60034860  -0.00108547  1
  Hf  Hf26  1  0.60890714  0.58611600  0.59787082  1
  Hf  Hf27  1  0.19784030  -0.00005572  0.39620884  1
  Hf  Hf28  1  0.29681664  0.30414105  0.69185309  1
  Hf  Hf29  1  0.70897213  0.70371108  0.10441033  1
  Hf  Hf30  1  -0.00136814  0.20343507  0.80399793  1
  Hf  Hf31  1  0.19871513  0.81159862  0.00121879  1
  Hf  Hf32  1  0.80273355  0.60054858  0.21881662  1
  Hf  Hf33  1  0.59235242  0.59942929  0.00573190  1
  Hf  Hf34  1  0.29886150  0.68476817  0.49871275  1
  Hf  Hf35  1  0.41046339  0.60357032  -0.00115923  1
  Hf  Hf36  1  0.49544387  0.69233574  0.49655633  1
  Hf  Hf37  1  0.00389462  0.81009430  0.00400259  1
  Hf  Hf38  1  0.18865370  0.59835985  0.78751720  1
  Hf  Hf39  1  0.20088140  0.00211266  0.79855830  1
  Hf  Hf40  1  0.29675419  0.69303363  0.29690704  1
  Hf  Hf41  1  0.00926455  0.40076399  0.79723491  1
  Hf  Hf42  1  0.80431765  0.79443546  0.59910601  1
  Hf  Hf43  1  0.39973440  0.20108594  0.59915705  1
  Hf  Hf44  1  0.49951993  0.90132240  0.88667396  1
  Hf  Hf45  1  0.79401176  0.20940696  0.59836888  1
  Hf  Hf46  1  0.30344017  0.90160643  0.69792842  1
  Hf  Hf47  1  0.69712904  0.70213041  0.70159832  1
  Hf  Hf48  1  0.59532380  0.00111402  0.00292053  1
  Hf  Hf49  1  0.01542958  0.59970771  0.61348124  1
  Zr  Zr50  1  0.39928882  0.80330272  0.39964571  1
  Zr  Zr51  1  0.20559631  0.00820590  0.00472880  1
  Zr  Zr52  1  0.49406278  0.10408642  0.89267634  1
  Zr  Zr53  1  0.19407958  0.79885033  0.60446453  1
  Zr  Zr54  1  0.28795725  0.50005535  0.10028892  1
  Zr  Zr55  1  0.70889635  0.09410204  0.90689437  1
  Zr  Zr56  1  0.50315580  0.29920173  0.50360022  1
  Zr  Zr57  1  0.90090888  0.90871905  0.69976735  1
  Zr  Zr58  1  0.59911045  0.39671279  0.00246467  1
  Zr  Zr59  1  0.89204693  0.08750316  0.08675445  1
  Zr  Zr60  1  0.80394387  0.19828953  0.40317067  1
  Zr  Zr61  1  -0.00592491  0.20401364  0.59503682  1
  Zr  Zr62  1  0.81022662  0.38572682  0.20952815  1
  Zr  Zr63  1  0.10608920  0.10167562  0.69742688  1
  Zr  Zr64  1  0.39489928  0.39734763  0.79737617  1
  Zr  Zr65  1  0.59886700  0.79986936  0.59344021  1
  Zr  Zr66  1  -0.00618906  0.21521926  0.19176507  1
  Zr  Zr67  1  0.50774033  0.49004302  0.48980815  1
  Zr  Zr68  1  0.58938874  0.79179323  -0.00245546  1
  Zr  Zr69  1  0.70349424  0.49692999  0.32199617  1
  Zr  Zr70  1  -0.00546130  0.20588671  0.40077851  1
  Zr  Zr71  1  0.49999224  0.30313663  0.31565901  1
  Zr  Zr72  1  0.80385523  0.60182567  -0.00517482  1
  Zr  Zr73  1  0.29870505  0.70463042  0.89316701  1
  Zr  Zr74  1  0.38638712  0.20260398  0.19656392  1
  Zr  Zr75  1  0.68881814  0.09096542  0.50181124  1
  Zr  Zr76  1  0.59309333  0.59832079  0.80112693  1
  Zr  Zr77  1  0.19643371  0.60589827  -0.00137323  1
  Zr  Zr78  1  0.90005241  0.49229265  0.10340542  1
  Zr  Zr79  1  0.89921053  0.49537178  0.70237860  1
  Zr  Zr80  1  0.49487678  0.29343348  0.09511807  1
  Zr  Zr81  1  0.39534537  0.39785026  0.20619405  1
  Zr  Zr82  1  0.89949830  0.09588672  0.70052758  1
  Zr  Zr83  1  0.08724908  0.90091657  0.29325352  1
  Zr  Zr84  1  0.79691888  0.20199110  0.79580597  1
  Zr  Zr85  1  0.40086142  0.59515105  0.79447218  1
  Zr  Zr86  1  0.28126921  0.50780613  0.29816242  1
  Zr  Zr87  1  0.00027620  0.39170161  0.01118614  1
  Zr  Zr88  1  0.90260344  0.92490787  0.90523782  1
  Zr  Zr89  1  0.89818516  0.89497318  0.49394448  1
  Zr  Zr90  1  0.00211504  0.00480312  0.40298542  1
  Zr  Zr91  1  0.20158471  0.81697410  0.20194655  1
  Zr  Zr92  1  0.70204201  0.90187517  0.10220089  1
  Zr  Zr93  1  0.41475794  0.79080767  0.78947267  1
  Zr  Zr94  1  0.90069592  0.50320379  0.50144385  1
  Zr  Zr95  1  0.88650201  0.31079247  0.90146574  1
  Zr  Zr96  1  0.49927193  0.09570165  0.30956498  1
  Zr  Zr97  1  0.60228512  0.20454752  0.19937697  1
  Zr  Zr98  1  0.70582057  0.49416885  0.10309732  1
  Zr  Zr99  1  0.29513954  0.10591756  0.30745024  1
  Ta  Ta100  1  0.89958086  0.90011239  0.10822739  1
  Ta  Ta101  1  0.19459826  0.20476466  0.19218742  1
  Ta  Ta102  1  0.10295561  0.49665293  0.90456137  1
  Ta  Ta103  1  0.61249857  0.39852889  0.60767170  1
  Ta  Ta104  1  0.11028667  0.30128839  0.90967990  1
  Ta  Ta105  1  0.00488140  0.59905823  0.39792308  1
  Ta  Ta106  1  0.60225636  0.39867225  0.79630405  1
  Ta  Ta107  1  0.50280103  0.91078078  0.29620388  1
  Ta  Ta108  1  0.69812983  0.09865200  0.10358674  1
  Ta  Ta109  1  0.19315122  0.40242973  0.39719790  1
  Ta  Ta110  1  0.59575756  0.40408946  0.20778583  1
  Ta  Ta111  1  0.10134594  0.49428817  0.10888170  1
  Ta  Ta112  1  0.90529266  0.70375476  0.89801722  1
  Ta  Ta113  1  0.69921946  0.70331691  0.89691745  1
  Ta  Ta114  1  0.20165890  0.00792077  0.19246141  1
  Ta  Ta115  1  0.19883920  0.40148821  0.80153343  1
  Ta  Ta116  1  0.30433775  0.09740617  0.69933104  1
  Ta  Ta117  1  0.60359044  0.20037944  -0.00108493  1
  Ta  Ta118  1  0.69421370  0.09323415  0.29821502  1
  Ta  Ta119  1  0.00520176  0.79186658  0.60315624  1
  Ta  Ta120  1  0.49590755  0.29610077  0.89605672  1
  Ta  Ta121  1  0.79389259  -0.00324458  0.20356224  1
  Ta  Ta122  1  0.70248759  0.49531338  0.89789565  1
  Ta  Ta123  1  0.00569008  0.39994042  0.59845875  1
  Ta  Ta124  1  0.50227948  0.09998983  0.49740545  1
  Ta  Ta125  1  0.10410056  0.69181595  0.49838177  1
  Ta  Ta126  1  0.89727493  0.70880960  0.31131284  1
  Ta  Ta127  1  0.19073799  0.38767942  0.19920696  1
  Ta  Ta128  1  0.09524929  0.09856955  0.90473868  1
  Ta  Ta129  1  0.69158388  0.90364720  0.69805236  1
  Ta  Ta130  1  0.29890652  0.09778447  0.50055884  1
  Ta  Ta131  1  0.39492654  0.00481749  0.19782497  1
  Ta  Ta132  1  0.09712610  0.90845988  0.89605027  1
  Ta  Ta133  1  0.49486328  0.90205553  0.11005652  1
  Ta  Ta134  1  0.29334179  0.49748040  0.90045815  1
  Ta  Ta135  1  0.38392283  0.40209355  0.40234004  1
  Ta  Ta136  1  0.69943347  0.29753216  0.30837882  1
  Ta  Ta137  1  0.79322786  -0.00891619  0.39244654  1
  Ta  Ta138  1  0.80513334  0.80316917  -0.00542531  1
  Ta  Ta139  1  0.79891864  0.19809199  0.20158750  1
  Ta  Ta140  1  0.29903074  0.69383866  0.68727384  1
  Ta  Ta141  1  0.50007919  0.09879207  0.10314111  1
  Ta  Ta142  1  0.90603975  0.69465989  0.49929269  1
  Ta  Ta143  1  0.00481829  0.79357284  0.40445988  1
  Ta  Ta144  1  0.30166616  0.90979774  0.50136457  1
  Ta  Ta145  1  0.89656142  0.89257140  0.29465305  1
  Ta  Ta146  1  0.80809823  0.38882676  0.41078805  1
  Ta  Ta147  1  0.09648699  0.70443723  0.89616181  1
  Ta  Ta148  1  0.50264372  0.29997204  0.69753833  1
  Ta  Ta149  1  0.50016109  0.49144902  0.89934073  1
  Ti  Ti150  1  0.10595443  0.89734618  0.50177575  1
  Ti  Ti151  1  0.40422882  0.80245555  0.59816165  1
  Ti  Ti152  1  0.38382249  0.19475617  -0.00019434  1
  Ti  Ti153  1  0.91222750  0.48488719  0.31122385  1
  Ti  Ti154  1  0.89646733  0.30762805  0.69582573  1
  Ti  Ti155  1  0.10687806  0.30087069  0.69716753  1
  Ti  Ti156  1  0.60438388  0.19940375  0.40318736  1
  Ti  Ti157  1  0.09218634  0.30681366  0.30288513  1
  Ti  Ti158  1  0.69314523  0.30271586  0.50059144  1
  Ti  Ti159  1  0.10268625  0.50351082  0.49212210  1
  Ti  Ti160  1  0.80126573  0.59637286  0.60606126  1
  Ti  Ti161  1  0.00572875  -0.00005705  0.18808051  1
  Ti  Ti162  1  0.79199848  -0.00430154  0.59869356  1
  Ti  Ti163  1  0.50063239  0.48919686  0.69659050  1
  Ti  Ti164  1  0.40665787  0.58630904  0.38952347  1
  Ti  Ti165  1  0.50407020  0.10432596  0.69555821  1
  Ti  Ti166  1  0.28994471  0.50424853  0.49792480  1
  Ti  Ti167  1  0.29379605  0.50125902  0.69163074  1
  Ti  Ti168  1  0.79880062  0.20395904  0.00398363  1
  Ti  Ti169  1  0.31080703  0.89969895  0.10404607  1
  Ti  Ti170  1  0.69954675  0.30565128  0.90378745  1
  Ti  Ti171  1  0.00233039  0.60244123  0.79946620  1
  Ti  Ti172  1  0.10214976  0.10484770  0.09606295  1
  Ti  Ti173  1  0.28510572  0.29657000  0.31030295  1
  Ti  Ti174  1  0.59361625  0.00092283  0.78599494  1
  Ti  Ti175  1  0.10257901  0.69605490  0.30204708  1
  Ti  Ti176  1  0.10100522  0.10833092  0.29471604  1
  Ti  Ti177  1  0.40203821  0.58830847  0.60002476  1
  Ti  Ti178  1  0.70525606  0.29937301  0.10043680  1
  Ti  Ti179  1  0.39084024  0.20421939  0.40892363  1
  Ti  Ti180  1  0.20542458  0.19641861  0.59754195  1
  Ti  Ti181  1  0.31165344  0.90852623  0.30099599  1
  Ti  Ti182  1  0.11317996  0.10553908  0.49776935  1
  Ti  Ti183  1  0.28948326  0.30290382  0.49777519  1
  Ti  Ti184  1  0.39645382  0.40395073  0.59306054  1
  Ti  Ti185  1  0.40831338  0.79560453  0.00203647  1
  Ti  Ti186  1  0.29570160  0.30262812  0.91018967  1
  Ti  Ti187  1  0.89318647  0.08934850  0.50375262  1
  Ti  Ti188  1  0.39475053  0.19982928  0.79880965  1
  Ti  Ti189  1  0.19120096  0.41355507  0.60206229  1
  Ti  Ti190  1  0.48915716  0.70702382  0.29644492  1
  Ti  Ti191  1  0.78439524  0.40043738  0.78963475  1
  Ti  Ti192  1  0.89811650  0.49572696  0.89987277  1
  Ti  Ti193  1  0.59471947  0.60127414  0.38910107  1
  Ti  Ti194  1  0.19295908  0.79955547  0.79258002  1
  Ti  Ti195  1  0.50275119  0.69710558  0.68966437  1
  Ti  Ti196  1  0.69969548  0.90106432  0.49627213  1
  Ti  Ti197  1  0.69099588  0.09704928  0.68977397  1
  Ti  Ti198  1  0.79623442  0.00621029  0.79616218  1
  Ti  Ti199  1  0.79199034  0.40110923  0.59848241  1
  Mo  Mo200  1  0.60037159  0.00139739  0.60269738  1
  Mo  Mo201  1  0.39780272  0.00413579  0.40121077  1
  Mo  Mo202  1  0.89898337  0.29789671  0.30763669  1
  Mo  Mo203  1  0.90222247  0.31056514  0.50772467  1
  Mo  Mo204  1  0.70260543  0.49723822  0.70222468  1
  Mo  Mo205  1  0.50328436  0.69686601  0.90046039  1
  Mo  Mo206  1  0.29887297  0.10464664  0.10286955  1
  Mo  Mo207  1  0.10478997  0.30004654  0.09837246  1
  Mo  Mo208  1  0.40128104  0.00900846  0.79223605  1
  Mo  Mo209  1  0.40262527  0.81065924  0.20392064  1
  Mo  Mo210  1  0.00459297  0.39693735  0.20783517  1
  Mo  Mo211  1  0.79381222  0.39714696  -0.00345241  1
  Mo  Mo212  1  0.70866429  0.49502950  0.50398862  1
  Mo  Mo213  1  0.00280666  0.40140898  0.40361975  1
  Mo  Mo214  1  0.90407418  0.69650848  0.69768954  1
  Mo  Mo215  1  0.50686217  0.90291693  0.69533703  1
  Mo  Mo216  1  0.81910718  0.59573010  0.39929268  1
  Mo  Mo217  1  0.09355426  0.48970552  0.30126970  1
  Mo  Mo218  1  0.61336502  0.39507222  0.40672983  1
  Mo  Mo219  1  0.59685450  0.00151335  0.20010494  1
  Mo  Mo220  1  0.49613389  0.71051748  0.10353639  1
  Mo  Mo221  1  0.10210116  0.69939042  0.70070308  1
  Mo  Mo222  1  0.50442218  0.49232470  0.10221397  1
  Mo  Mo223  1  0.60174150  0.79834787  0.79343132  1
  Mo  Mo224  1  0.19977802  0.20164804  0.00205276  1
  Mo  Mo225  1  0.00883311  0.00299919  0.00437875  1
  Mo  Mo226  1  0.18698958  0.59686645  0.20287388  1
  Mo  Mo227  1  0.50264132  0.49332175  0.30759402  1
  Mo  Mo228  1  0.30035373  0.10706948  0.89560302  1
  Mo  Mo229  1  0.10367001  0.89942711  0.70152851  1
  Mo  Mo230  1  0.90170928  0.10020797  0.89872457  1
  Mo  Mo231  1  0.70184218  0.90132130  0.29974732  1
  Mo  Mo232  1  0.18932253  0.59762112  0.40036698  1
  Mo  Mo233  1  0.59723802  0.20111979  0.60326292  1
  Mo  Mo234  1  0.10230629  0.49221989  0.70400849  1
  Mo  Mo235  1  0.88693656  0.29292993  0.09943442  1
  Mo  Mo236  1  0.79287019  -0.00555225  0.00653410  1
  Mo  Mo237  1  0.19520866  0.20468871  0.39806186  1
  Mo  Mo238  1  0.70895823  0.69947468  0.30333221  1
  Mo  Mo239  1  0.28810670  0.29635057  0.09145671  1
  Mo  Mo240  1  0.19874715  0.39895896  -0.00035480  1
  Mo  Mo241  1  0.00804723  0.00615826  0.80358137  1
  Mo  Mo242  1  0.20266333  0.59144055  0.59731695  1
  Mo  Mo243  1  0.80342843  0.80056584  0.40068286  1
  Mo  Mo244  1  0.69872974  0.30268196  0.69631236  1
  Mo  Mo245  1  0.09445542  0.91113472  0.09866382  1
  Mo  Mo246  1  0.60449807  -0.00350469  0.39585653  1
  Mo  Mo247  1  -0.00298830  0.80003777  0.20748474  1
  Mo  Mo248  1  0.79886584  0.80440869  0.20908150  1
  Mo  Mo249  1  0.20586341  0.00208367  0.59416881  1
