# generated using pymatgen
data_HfZrTaTiMo
_symmetry_space_group_name_H-M   'P 1'
_cell_length_a   16.89213727
_cell_length_b   16.88347746
_cell_length_c   16.88013417
_cell_angle_alpha   89.98505321
_cell_angle_beta   89.90556343
_cell_angle_gamma   90.03940596
_symmetry_Int_Tables_number   1
_chemical_formula_structural   HfZrTaTiMo
_chemical_formula_sum   'Hf50 Zr50 Ta50 Ti50 Mo50'
_cell_volume   4814.17298081
_cell_formula_units_Z   50
loop_
 _symmetry_equiv_pos_site_id
 _symmetry_equiv_pos_as_xyz
  1  'x, y, z'
loop_
 _atom_site_type_symbol
 _atom_site_label
 _atom_site_symmetry_multiplicity
 _atom_site_fract_x
 _atom_site_fract_y
 _atom_site_fract_z
 _atom_site_occupancy
  Hf  Hf0  1  0.30074952  0.50722173  0.49217194  1
  Hf  Hf1  1  0.49746737  0.70713200  0.29607200  1
  Hf  Hf2  1  0.20211869  0.20078110  0.80463253  1
  Hf  Hf3  1  0.29087112  0.30517005  0.90824124  1
  Hf  Hf4  1  0.41589172  0.39092883  0.40160521  1
  Hf  Hf5  1  0.10232419  0.50864515  0.70214578  1
  Hf  Hf6  1  0.20078219  -0.00226164  0.20433894  1
  Hf  Hf7  1  0.59910692  0.40727344  -0.00303853  1
  Hf  Hf8  1  0.20119263  0.40196375  0.20069093  1
  Hf  Hf9  1  0.70848456  0.70173719  0.89989848  1
  Hf  Hf10  1  0.21028330  0.19402518  0.59910406  1
  Hf  Hf11  1  0.60441949  0.80815825  0.39559261  1
  Hf  Hf12  1  0.10155208  0.69183573  0.90088062  1
  Hf  Hf13  1  0.40688693  0.40305680  0.20055717  1
  Hf  Hf14  1  0.70209438  0.30151474  0.09976560  1
  Hf  Hf15  1  0.49832228  0.90253884  0.50805350  1
  Hf  Hf16  1  0.29616661  0.49298889  0.70862315  1
  Hf  Hf17  1  0.90029402  0.88558600  0.09239872  1
  Hf  Hf18  1  0.59473873  0.39318698  0.80281366  1
  Hf  Hf19  1  0.09941607  0.50643976  0.50020423  1
  Hf  Hf20  1  0.89895758  0.69692865  0.90437434  1
  Hf  Hf21  1  0.20701268  0.18580029  0.19898429  1
  Hf  Hf22  1  0.41308945  0.40089069  -0.00572935  1
  Hf  Hf23  1  -0.00543236  0.39754636  0.40111300  1
  Hf  Hf24  1  0.48931405  0.90985123  0.30067866  1
  Hf  Hf25  1  0.09755480  0.09275811  0.50317531  1
  Hf  Hf26  1  0.09863154  0.50877084  0.09097334  1
  Hf  Hf27  1  -0.00309000  -0.00294328  0.80957584  1
  Hf  Hf28  1  0.09764226  0.29658838  0.09615565  1
  Hf  Hf29  1  0.79684748  0.80673608  0.19974701  1
  Hf  Hf30  1  -0.01126252  0.20101703  0.40287099  1
  Hf  Hf31  1  -0.02953987  0.19994009  0.01980481  1
  Hf  Hf32  1  0.89570428  0.70848319  0.30685782  1
  Hf  Hf33  1  0.69327286  0.29092665  0.89939381  1
  Hf  Hf34  1  0.80032252  0.38948661  0.59171817  1
  Hf  Hf35  1  0.60445296  0.60814538  0.39965701  1
  Hf  Hf36  1  0.20405361  0.00680369  0.81171631  1
  Hf  Hf37  1  0.09091381  0.29097709  0.29017326  1
  Hf  Hf38  1  0.60765840  0.61023959  0.59994615  1
  Hf  Hf39  1  0.79936937  0.60916431  0.60217123  1
  Hf  Hf40  1  0.39855696  0.79689408  -0.00511034  1
  Hf  Hf41  1  0.79988229  0.00378077  0.60065949  1
  Hf  Hf42  1  0.20222145  0.00870622  0.00666628  1
  Hf  Hf43  1  0.70578944  0.49656895  0.30049466  1
  Hf  Hf44  1  0.39789204  0.19615635  0.80853895  1
  Hf  Hf45  1  0.69038985  0.89603094  0.69736533  1
  Hf  Hf46  1  0.08412726  0.09962617  0.11082171  1
  Hf  Hf47  1  0.79611514  0.19732199  0.40047250  1
  Hf  Hf48  1  0.39301657  0.60797580  0.80695760  1
  Hf  Hf49  1  0.19880531  -0.00374830  0.39762137  1
  Zr  Zr50  1  0.88856468  0.29689494  0.90087697  1
  Zr  Zr51  1  0.20509019  0.39424936  0.39926584  1
  Zr  Zr52  1  0.00236478  0.81700298  0.39124592  1
  Zr  Zr53  1  0.09578425  0.29706584  0.70032909  1
  Zr  Zr54  1  0.49228239  0.71494892  0.49891340  1
  Zr  Zr55  1  0.29347492  0.50034584  0.09337722  1
  Zr  Zr56  1  0.09481298  0.11654045  0.91544078  1
  Zr  Zr57  1  0.50150775  0.90529975  0.09892060  1
  Zr  Zr58  1  0.00180624  0.79780571  0.79701683  1
  Zr  Zr59  1  0.89516179  0.29485868  0.70505569  1
  Zr  Zr60  1  0.10123382  0.70046075  0.49935875  1
  Zr  Zr61  1  0.50426468  0.09722483  0.70060691  1
  Zr  Zr62  1  0.79405256  0.00098705  0.19696724  1
  Zr  Zr63  1  0.79827831  0.58994111  0.00475183  1
  Zr  Zr64  1  0.50976528  0.28926271  0.10401446  1
  Zr  Zr65  1  0.29857789  0.29604748  0.09372589  1
  Zr  Zr66  1  0.60907484  0.60264182  0.79167842  1
  Zr  Zr67  1  0.30610364  0.90149940  0.49941321  1
  Zr  Zr68  1  0.20576563  0.39466843  0.59663671  1
  Zr  Zr69  1  0.20703601  0.19231906  0.40047954  1
  Zr  Zr70  1  0.78801268  -0.00337169  0.80579799  1
  Zr  Zr71  1  0.49671803  0.28751256  0.69227583  1
  Zr  Zr72  1  0.31395958  0.29003474  0.29859397  1
  Zr  Zr73  1  0.70213434  0.50008039  0.49084369  1
  Zr  Zr74  1  0.51024196  0.70253224  0.90383758  1
  Zr  Zr75  1  0.39934997  0.59936198  0.59883435  1
  Zr  Zr76  1  0.50179985  0.72234482  0.69309571  1
  Zr  Zr77  1  0.40083155  0.00876753  -0.01050266  1
  Zr  Zr78  1  0.09777075  0.50262081  0.29706576  1
  Zr  Zr79  1  0.69906429  0.30335940  0.29540081  1
  Zr  Zr80  1  0.59900759  0.38644365  0.58255899  1
  Zr  Zr81  1  0.30312459  0.90365899  0.69690040  1
  Zr  Zr82  1  0.49742873  0.49390494  0.69728224  1
  Zr  Zr83  1  0.81003235  0.80015269  0.59900380  1
  Zr  Zr84  1  0.49991331  0.10446577  0.29935876  1
  Zr  Zr85  1  0.79828847  0.60495724  0.19871219  1
  Zr  Zr86  1  0.00603073  0.61713108  0.19836730  1
  Zr  Zr87  1  -0.00588854  -0.02561641  0.21450394  1
  Zr  Zr88  1  0.78949704  -0.00653729  -0.00020070  1
  Zr  Zr89  1  -0.00601744  0.39716559  0.59262608  1
  Zr  Zr90  1  0.89712509  0.50351402  0.70271797  1
  Zr  Zr91  1  0.10705313  0.90122521  0.69798747  1
  Zr  Zr92  1  0.80880232  0.18949511  0.18657561  1
  Zr  Zr93  1  -0.00488655  0.39913568  -0.00407435  1
  Zr  Zr94  1  0.50716732  0.50507046  0.30023177  1
  Zr  Zr95  1  0.60749000  0.01203559  0.39838367  1
  Zr  Zr96  1  0.29227304  0.70552170  0.70033441  1
  Zr  Zr97  1  0.39894923  0.60252073  0.00195324  1
  Zr  Zr98  1  0.30144036  0.89970996  0.10598682  1
  Zr  Zr99  1  0.09538950  0.09707831  0.69872694  1
  Ta  Ta100  1  -0.00535663  -0.00604680  0.00074246  1
  Ta  Ta101  1  0.69511764  0.28908937  0.69870980  1
  Ta  Ta102  1  0.78879580  0.18819917  0.79882777  1
  Ta  Ta103  1  -0.00098652  0.59711818  0.80213664  1
  Ta  Ta104  1  0.00098603  0.40159213  0.80766496  1
  Ta  Ta105  1  0.10221555  0.50362072  0.90165977  1
  Ta  Ta106  1  0.79398805  0.39894899  0.80147318  1
  Ta  Ta107  1  0.90029789  0.90134699  0.70216744  1
  Ta  Ta108  1  0.60457252  0.00451174  0.59989828  1
  Ta  Ta109  1  0.60741166  0.80914581  0.19970914  1
  Ta  Ta110  1  0.49898183  0.90501241  0.69882177  1
  Ta  Ta111  1  -0.00301988  0.60838046  0.39810133  1
  Ta  Ta112  1  0.90512018  0.49539769  0.10810201  1
  Ta  Ta113  1  0.19569743  0.80169596  0.59244312  1
  Ta  Ta114  1  0.49818608  0.10755157  0.50843673  1
  Ta  Ta115  1  0.60855873  0.81105340  -0.00005003  1
  Ta  Ta116  1  0.70331990  0.49284760  0.69942979  1
  Ta  Ta117  1  0.61050417  0.00100729  0.19740559  1
  Ta  Ta118  1  0.78884554  0.18341041  0.00256669  1
  Ta  Ta119  1  0.90009143  0.30431579  0.28447169  1
  Ta  Ta120  1  0.30134935  0.70901556  0.49353868  1
  Ta  Ta121  1  0.69869667  0.70774266  0.09620198  1
  Ta  Ta122  1  0.89877260  0.09863094  0.70445730  1
  Ta  Ta123  1  0.30779706  0.89689638  0.30050643  1
  Ta  Ta124  1  0.89347961  0.09839873  0.90105672  1
  Ta  Ta125  1  0.28587227  0.49962335  0.89826418  1
  Ta  Ta126  1  -0.00904587  -0.00639766  0.59642435  1
  Ta  Ta127  1  0.89492478  0.51263858  0.48984385  1
  Ta  Ta128  1  0.31832197  0.08566905  0.30218777  1
  Ta  Ta129  1  0.09838397  0.88939242  0.10139559  1
  Ta  Ta130  1  0.39997861  0.79772873  0.19710123  1
  Ta  Ta131  1  0.50922372  0.70344119  0.10332691  1
  Ta  Ta132  1  0.08522559  0.09453444  0.30428995  1
  Ta  Ta133  1  0.71070835  0.71115524  0.49251303  1
  Ta  Ta134  1  0.89791288  0.49908266  0.29880426  1
  Ta  Ta135  1  0.09685508  0.29083248  0.50152118  1
  Ta  Ta136  1  0.39653129  0.60689117  0.19774962  1
  Ta  Ta137  1  0.59912167  0.21057532  0.40750249  1
  Ta  Ta138  1  0.20197269  0.79496947  0.00286355  1
  Ta  Ta139  1  0.10207259  0.89518063  0.91085955  1
  Ta  Ta140  1  0.89992623  0.09131730  0.30366238  1
  Ta  Ta141  1  0.19777728  0.80338932  0.39402256  1
  Ta  Ta142  1  0.30098015  0.70548319  0.30062187  1
  Ta  Ta143  1  0.80598930  0.39072683  0.40189086  1
  Ta  Ta144  1  -0.01451794  0.19410043  0.59410152  1
  Ta  Ta145  1  -0.00434564  0.80091475  0.59674794  1
  Ta  Ta146  1  0.39878439  0.80780831  0.80707764  1
  Ta  Ta147  1  0.40407053  0.19295796  -0.00456481  1
  Ta  Ta148  1  0.79781110  0.19517700  0.59718986  1
  Ta  Ta149  1  0.70607691  0.90190007  0.49860723  1
  Ti  Ti150  1  0.29594280  0.89859020  0.90172267  1
  Ti  Ti151  1  0.39667183  0.01020507  0.59557007  1
  Ti  Ti152  1  0.40350043  0.19166791  0.19248482  1
  Ti  Ti153  1  0.69955712  0.49594731  0.10899141  1
  Ti  Ti154  1  0.40249597  0.39514903  0.59079896  1
  Ti  Ti155  1  0.10200067  0.69752496  0.70034389  1
  Ti  Ti156  1  0.30674608  0.30358014  0.70228098  1
  Ti  Ti157  1  0.89854788  0.08798403  0.49409689  1
  Ti  Ti158  1  0.60825061  0.00020097  -0.00662593  1
  Ti  Ti159  1  0.71012524  0.90751422  0.30955532  1
  Ti  Ti160  1  0.50269197  0.50844099  0.89672614  1
  Ti  Ti161  1  0.30274806  0.50772575  0.30029589  1
  Ti  Ti162  1  0.18662644  0.39514352  0.80754871  1
  Ti  Ti163  1  0.60399233  0.80431058  0.80280425  1
  Ti  Ti164  1  -0.00401209  0.20314953  0.80716593  1
  Ti  Ti165  1  0.29821314  0.70269870  0.10541537  1
  Ti  Ti166  1  0.50869497  0.90590611  0.89051487  1
  Ti  Ti167  1  0.79627960  0.80109831  0.79870652  1
  Ti  Ti168  1  0.20052494  0.61035501  0.20281184  1
  Ti  Ti169  1  0.89768999  0.88747272  0.90399157  1
  Ti  Ti170  1  0.18995157  0.79453237  0.20443232  1
  Ti  Ti171  1  0.01042107  0.79029082  0.00532553  1
  Ti  Ti172  1  0.19751868  0.61046288  0.38922268  1
  Ti  Ti173  1  0.09887108  0.90559702  0.50312975  1
  Ti  Ti174  1  0.59496517  0.39834555  0.20340075  1
  Ti  Ti175  1  0.50418439  0.09479515  0.10138235  1
  Ti  Ti176  1  0.39754690  0.00279374  0.80696388  1
  Ti  Ti177  1  0.31167491  0.29124327  0.50388129  1
  Ti  Ti178  1  0.61063695  0.18735740  0.20462052  1
  Ti  Ti179  1  0.60580599  0.61007462  0.19815219  1
  Ti  Ti180  1  0.70631903  0.70544007  0.30366833  1
  Ti  Ti181  1  0.20316682  0.79665865  0.80924420  1
  Ti  Ti182  1  0.40560570  0.39566728  0.81053403  1
  Ti  Ti183  1  0.51479409  0.09975232  0.89093567  1
  Ti  Ti184  1  0.20319184  0.60577996  0.59910135  1
  Ti  Ti185  1  0.30184317  0.09446948  0.69600137  1
  Ti  Ti186  1  0.40026807  0.60490396  0.39539741  1
  Ti  Ti187  1  0.89669062  0.69893283  0.71088756  1
  Ti  Ti188  1  0.50673969  0.51111542  0.10529108  1
  Ti  Ti189  1  0.59852149  0.18943169  -0.00342607  1
  Ti  Ti190  1  0.50387690  0.50138704  0.49461185  1
  Ti  Ti191  1  0.89833191  0.50465008  0.89884552  1
  Ti  Ti192  1  0.70556193  0.50177525  0.89226680  1
  Ti  Ti193  1  0.40667165  0.19724639  0.40787918  1
  Ti  Ti194  1  0.90274351  0.70086539  0.09307417  1
  Ti  Ti195  1  0.79929611  0.40172836  0.00185886  1
  Ti  Ti196  1  0.69771986  0.10292642  0.50279119  1
  Ti  Ti197  1  0.60629175  0.59848652  0.00463214  1
  Ti  Ti198  1  -0.00945891  0.61360628  0.59772836  1
  Ti  Ti199  1  0.20517595  0.61071867  -0.00196419  1
  Mo  Mo200  1  0.89908358  0.07909625  0.09752242  1
  Mo  Mo201  1  0.88429977  0.90174042  0.31128938  1
  Mo  Mo202  1  -0.00345392  0.59854328  -0.00158463  1
  Mo  Mo203  1  0.50731396  0.29263465  0.29941245  1
  Mo  Mo204  1  0.29891004  0.10524726  0.90520183  1
  Mo  Mo205  1  0.68509375  0.09950920  0.09608653  1
  Mo  Mo206  1  0.31284662  0.10017972  0.10362812  1
  Mo  Mo207  1  0.00273178  0.79711413  0.19654872  1
  Mo  Mo208  1  0.60221900  0.19372210  0.80031948  1
  Mo  Mo209  1  0.70011999  0.10255184  0.30143489  1
  Mo  Mo210  1  0.60989899  0.19252689  0.59707971  1
  Mo  Mo211  1  0.90435116  0.70117162  0.49754665  1
  Mo  Mo212  1  0.80133082  0.00395072  0.40396552  1
  Mo  Mo213  1  0.80206097  0.59311107  0.79772051  1
  Mo  Mo214  1  0.69308293  0.89446463  0.89573934  1
  Mo  Mo215  1  0.69843711  0.10109260  0.69856861  1
  Mo  Mo216  1  0.89689139  0.29296896  0.49725423  1
  Mo  Mo217  1  0.39479680  0.80216545  0.39309161  1
  Mo  Mo218  1  0.59942374  0.39059395  0.39528949  1
  Mo  Mo219  1  0.19533238  0.59740575  0.80173885  1
  Mo  Mo220  1  -0.00214079  -0.00124223  0.40392272  1
  Mo  Mo221  1  0.90051116  0.90408892  0.50110307  1
  Mo  Mo222  1  0.69535147  0.89868125  0.09664516  1
  Mo  Mo223  1  0.49816126  0.28882911  0.49905487  1
  Mo  Mo224  1  0.60941377  0.80739246  0.59416341  1
  Mo  Mo225  1  0.80214305  0.40561343  0.19788156  1
  Mo  Mo226  1  0.10636251  0.70423029  0.29924684  1
  Mo  Mo227  1  0.20862536  0.19743657  0.00570737  1
  Mo  Mo228  1  0.40304936  0.00236921  0.19513752  1
  Mo  Mo229  1  -0.00845198  0.19453198  0.20504618  1
  Mo  Mo230  1  0.59503178  -0.00361960  0.79908942  1
  Mo  Mo231  1  0.09646313  0.30327358  0.90363761  1
  Mo  Mo232  1  0.19764161  -0.00042613  0.59668438  1
  Mo  Mo233  1  -0.00302729  0.40192270  0.19790215  1
  Mo  Mo234  1  0.29339957  0.70484311  0.89902139  1
  Mo  Mo235  1  0.39151693  0.19651659  0.60012956  1
  Mo  Mo236  1  0.79664371  0.79665136  -0.00017698  1
  Mo  Mo237  1  0.39294348  0.80755222  0.60629705  1
  Mo  Mo238  1  0.70474661  0.70583181  0.70220387  1
  Mo  Mo239  1  0.50036635  0.28986052  0.90366937  1
  Mo  Mo240  1  0.70093318  0.29312688  0.49915626  1
  Mo  Mo241  1  0.11447034  0.89760217  0.29636692  1
  Mo  Mo242  1  0.88945641  0.31667731  0.10355263  1
  Mo  Mo243  1  0.80038820  0.80748422  0.40156610  1
  Mo  Mo244  1  0.69114568  0.09804424  0.89875513  1
  Mo  Mo245  1  0.80437383  0.60456101  0.39891888  1
  Mo  Mo246  1  0.30776493  0.09635061  0.49827783  1
  Mo  Mo247  1  0.40199649  0.00628202  0.40736402  1
  Mo  Mo248  1  0.10723868  0.70256349  0.09746781  1
  Mo  Mo249  1  0.18992194  0.39981756  -0.00705179  1
