# generated using pymatgen
data_HfZrTaTiMo
_symmetry_space_group_name_H-M   'P 1'
_cell_length_a   16.87910630
_cell_length_b   16.87608906
_cell_length_c   16.88265279
_cell_angle_alpha   90.05685098
_cell_angle_beta   90.00890634
_cell_angle_gamma   89.97629258
_symmetry_Int_Tables_number   1
_chemical_formula_structural   HfZrTaTiMo
_chemical_formula_sum   'Hf50 Zr50 Ta50 Ti50 Mo50'
_cell_volume   4809.07654311
_cell_formula_units_Z   50
loop_
 _symmetry_equiv_pos_site_id
 _symmetry_equiv_pos_as_xyz
  1  'x, y, z'
loop_
 _atom_site_type_symbol
 _atom_site_label
 _atom_site_symmetry_multiplicity
 _atom_site_fract_x
 _atom_site_fract_y
 _atom_site_fract_z
 _atom_site_occupancy
  Hf  Hf0  1  0.39759976  0.00187240  0.81318387  1
  Hf  Hf1  1  0.50541677  0.90206448  0.70501435  1
  Hf  Hf2  1  0.69229094  0.89336302  0.09775333  1
  Hf  Hf3  1  0.49957023  0.12074851  0.91686093  1
  Hf  Hf4  1  0.90429791  0.89683443  0.48850326  1
  Hf  Hf5  1  0.88889183  0.50732294  0.29084598  1
  Hf  Hf6  1  0.59048741  0.59749037  -0.00159473  1
  Hf  Hf7  1  0.21007003  0.60344012  0.80567677  1
  Hf  Hf8  1  -0.00382837  0.19896740  0.59341878  1
  Hf  Hf9  1  0.59833596  0.21305750  0.80386803  1
  Hf  Hf10  1  0.70254966  0.30226705  0.91096417  1
  Hf  Hf11  1  0.10751010  0.09841073  0.69786025  1
  Hf  Hf12  1  0.09221006  0.89238236  0.29312296  1
  Hf  Hf13  1  0.39674168  0.80066337  0.60959718  1
  Hf  Hf14  1  0.20808091  0.39360824  0.80410203  1
  Hf  Hf15  1  0.00316049  0.59702363  0.40243566  1
  Hf  Hf16  1  0.80168387  0.80683168  -0.00605343  1
  Hf  Hf17  1  0.09923942  0.08795974  0.90092981  1
  Hf  Hf18  1  0.70332156  0.50036340  0.90619394  1
  Hf  Hf19  1  0.79021902  0.39468693  0.78913412  1
  Hf  Hf20  1  0.79972657  0.20303801  0.79417826  1
  Hf  Hf21  1  0.28926023  0.09369476  0.29240425  1
  Hf  Hf22  1  0.10332914  0.09394472  0.49898775  1
  Hf  Hf23  1  0.70591280  0.90157199  0.70993190  1
  Hf  Hf24  1  0.00182200  0.80433104  0.79889974  1
  Hf  Hf25  1  0.89356790  0.51496454  0.09468180  1
  Hf  Hf26  1  0.69139430  0.89598567  0.50048778  1
  Hf  Hf27  1  0.71008597  0.69471295  0.09848140  1
  Hf  Hf28  1  0.10375553  0.48802624  0.69582758  1
  Hf  Hf29  1  0.29227730  0.10441976  0.10335311  1
  Hf  Hf30  1  0.39928795  0.60795242  0.19434217  1
  Hf  Hf31  1  0.91793093  0.49240993  0.69821393  1
  Hf  Hf32  1  0.00441026  0.19824520  0.80134961  1
  Hf  Hf33  1  0.10787770  0.50988796  0.10703311  1
  Hf  Hf34  1  0.39743483  0.60943861  0.00220398  1
  Hf  Hf35  1  0.00032916  0.40098511  0.20106995  1
  Hf  Hf36  1  0.70306632  0.50054669  0.09789503  1
  Hf  Hf37  1  0.40316735  0.00127928  0.39673806  1
  Hf  Hf38  1  0.20531874  0.80505723  0.80194953  1
  Hf  Hf39  1  0.60171226  0.20212969  0.61119454  1
  Hf  Hf40  1  0.90500440  0.91072147  0.89606248  1
  Hf  Hf41  1  0.89420091  0.29775433  0.29492779  1
  Hf  Hf42  1  0.92017959  0.30904296  0.70012486  1
  Hf  Hf43  1  0.60358630  0.80717416  0.81233487  1
  Hf  Hf44  1  0.40889261  0.59548760  0.80375653  1
  Hf  Hf45  1  0.68919594  0.70456501  0.50476733  1
  Hf  Hf46  1  0.39485594  0.80217747  0.81081082  1
  Hf  Hf47  1  0.40149280  0.00167623  0.00541072  1
  Hf  Hf48  1  0.68937541  0.30331107  0.50018833  1
  Hf  Hf49  1  0.20667306  0.39125085  0.00698096  1
  Zr  Zr50  1  0.80009982  0.40038490  0.59487944  1
  Zr  Zr51  1  0.39641724  -0.00247982  0.60459391  1
  Zr  Zr52  1  0.89873610  0.70628504  0.70033853  1
  Zr  Zr53  1  0.69798374  0.09483361  0.49535959  1
  Zr  Zr54  1  0.69818477  0.29288431  0.28835997  1
  Zr  Zr55  1  0.10404824  0.70136238  0.30106010  1
  Zr  Zr56  1  -0.00304999  0.20057927  0.39970561  1
  Zr  Zr57  1  0.29812667  0.69987933  0.30022537  1
  Zr  Zr58  1  0.90524967  0.70881664  0.29091549  1
  Zr  Zr59  1  0.90096700  0.49485525  0.90334594  1
  Zr  Zr60  1  0.79598515  0.80193487  0.39191324  1
  Zr  Zr61  1  0.70176354  0.70058334  0.89813151  1
  Zr  Zr62  1  0.90318864  0.09688990  0.90051063  1
  Zr  Zr63  1  0.79695106  0.00297466  0.00846367  1
  Zr  Zr64  1  0.50171502  0.69910902  0.50009436  1
  Zr  Zr65  1  0.80119912  0.20354053  0.60187171  1
  Zr  Zr66  1  0.58943988  0.40104724  0.38781525  1
  Zr  Zr67  1  0.90161950  0.69219373  0.90808631  1
  Zr  Zr68  1  0.10192922  0.69356377  0.69674300  1
  Zr  Zr69  1  0.40291604  0.39606237  0.80501272  1
  Zr  Zr70  1  0.20564919  -0.01045763  0.60232289  1
  Zr  Zr71  1  0.80193811  -0.00238027  0.59858934  1
  Zr  Zr72  1  0.39911924  0.20900854  0.39489959  1
  Zr  Zr73  1  0.30073537  0.50148631  0.91216332  1
  Zr  Zr74  1  0.89859139  0.09333637  0.29418194  1
  Zr  Zr75  1  0.20860531  0.20236095  0.40095511  1
  Zr  Zr76  1  0.00182621  0.39354711  0.01090831  1
  Zr  Zr77  1  0.59110732  0.20098476  0.38891089  1
  Zr  Zr78  1  0.39971476  0.20548496  0.19971146  1
  Zr  Zr79  1  0.40837163  -0.00543955  0.19134753  1
  Zr  Zr80  1  0.11180617  0.30579254  0.50887083  1
  Zr  Zr81  1  0.21157197  0.19899686  0.80839741  1
  Zr  Zr82  1  0.59599230  0.58763868  0.61041436  1
  Zr  Zr83  1  0.09612924  0.50384897  0.90723296  1
  Zr  Zr84  1  0.79206194  0.59757458  0.39892808  1
  Zr  Zr85  1  0.49819236  0.28951000  0.08387971  1
  Zr  Zr86  1  0.09549577  0.70293204  0.91220360  1
  Zr  Zr87  1  0.19621488  0.79760506  0.60188550  1
  Zr  Zr88  1  0.10629216  0.30572684  0.30026289  1
  Zr  Zr89  1  0.49911138  0.10297306  0.50497503  1
  Zr  Zr90  1  0.00398802  0.59414276  0.58544545  1
  Zr  Zr91  1  0.29688544  0.88950078  0.48346428  1
  Zr  Zr92  1  -0.01238053  0.40632015  0.41314860  1
  Zr  Zr93  1  0.29960541  0.69537311  0.49436787  1
  Zr  Zr94  1  0.51097065  0.89184533  0.49884351  1
  Zr  Zr95  1  0.59782307  0.00508636  0.19184510  1
  Zr  Zr96  1  0.29426734  0.89228759  0.29298229  1
  Zr  Zr97  1  0.39199250  0.40147783  0.39562981  1
  Zr  Zr98  1  0.79877274  0.59444448  0.59505345  1
  Zr  Zr99  1  0.79276308  0.59131132  0.78760835  1
  Ta  Ta100  1  0.49303412  0.50042436  0.28906641  1
  Ta  Ta101  1  0.19561287  0.79603711  0.18376502  1
  Ta  Ta102  1  0.09776860  0.29754024  0.90329120  1
  Ta  Ta103  1  0.59686281  0.79298006  0.19875466  1
  Ta  Ta104  1  0.09406861  0.90553507  0.90881795  1
  Ta  Ta105  1  0.10213550  0.09567231  0.28925772  1
  Ta  Ta106  1  0.59499864  0.40094538  0.19379093  1
  Ta  Ta107  1  0.50167102  0.70430200  0.90236872  1
  Ta  Ta108  1  0.69846212  0.09457330  0.71173410  1
  Ta  Ta109  1  0.70156257  0.10227049  0.90256041  1
  Ta  Ta110  1  0.09476918  0.88983119  0.48842288  1
  Ta  Ta111  1  0.59677240  0.59757456  0.20060217  1
  Ta  Ta112  1  0.20915701  0.61939556  0.01593130  1
  Ta  Ta113  1  0.50441403  0.89218447  0.29435141  1
  Ta  Ta114  1  0.90267386  0.08716054  0.70392921  1
  Ta  Ta115  1  0.80152412  0.79997496  0.60203523  1
  Ta  Ta116  1  0.79443206  0.40142145  0.39882849  1
  Ta  Ta117  1  0.90275234  0.30216255  0.90477140  1
  Ta  Ta118  1  0.90521519  0.70753981  0.49715323  1
  Ta  Ta119  1  0.50563551  0.69975847  0.70736806  1
  Ta  Ta120  1  0.10762300  0.30164954  0.69617401  1
  Ta  Ta121  1  0.30674834  0.69413348  0.70140876  1
  Ta  Ta122  1  0.59799238  0.00448301  0.81480105  1
  Ta  Ta123  1  0.59338262  0.40909631  0.79849839  1
  Ta  Ta124  1  0.00064128  -0.00765755  0.59895093  1
  Ta  Ta125  1  0.11902958  0.49410543  0.49743695  1
  Ta  Ta126  1  0.00434209  0.19872713  0.00912376  1
  Ta  Ta127  1  0.40191660  0.59155137  0.60344586  1
  Ta  Ta128  1  0.30211927  0.09893410  0.70760805  1
  Ta  Ta129  1  0.59655700  0.00307336  0.00174256  1
  Ta  Ta130  1  0.79238716  0.40234802  0.19901758  1
  Ta  Ta131  1  0.19313856  -0.00455709  0.39542883  1
  Ta  Ta132  1  0.80159785  0.20101848  0.40408585  1
  Ta  Ta133  1  0.91253101  0.89550789  0.10195530  1
  Ta  Ta134  1  0.20070142  0.19931594  0.00023753  1
  Ta  Ta135  1  0.29896441  0.49923528  0.10965864  1
  Ta  Ta136  1  0.59577736  0.59271440  0.39014670  1
  Ta  Ta137  1  0.49374947  0.30786404  0.51462652  1
  Ta  Ta138  1  0.49293115  0.49517176  0.09927395  1
  Ta  Ta139  1  0.68774582  0.49400370  0.49675891  1
  Ta  Ta140  1  0.90056204  0.09237902  0.49606867  1
  Ta  Ta141  1  0.00128601  0.19761668  0.19221755  1
  Ta  Ta142  1  0.11130055  0.29250443  0.10941814  1
  Ta  Ta143  1  0.49378555  0.30546103  0.69612814  1
  Ta  Ta144  1  0.19810434  -0.00143140  0.00470613  1
  Ta  Ta145  1  0.69797514  0.89908976  0.29152196  1
  Ta  Ta146  1  0.49662806  0.10478925  0.71089696  1
  Ta  Ta147  1  0.59999380  -0.00188154  0.38633719  1
  Ta  Ta148  1  0.59045515  0.39990394  -0.00517507  1
  Ta  Ta149  1  0.69517841  0.70655530  0.70264623  1
  Ti  Ti150  1  0.40346355  0.80052336  0.18996486  1
  Ti  Ti151  1  0.20128661  0.59637482  0.40381899  1
  Ti  Ti152  1  0.70299385  0.10031132  0.29392348  1
  Ti  Ti153  1  0.79682224  -0.00240848  0.38982154  1
  Ti  Ti154  1  0.39076604  0.80015804  0.00296680  1
  Ti  Ti155  1  0.28671171  0.30854861  0.28391094  1
  Ti  Ti156  1  0.50023918  0.69679125  0.29771313  1
  Ti  Ti157  1  0.80193612  -0.00567349  0.19824489  1
  Ti  Ti158  1  -0.00039292  -0.00301992  0.39313584  1
  Ti  Ti159  1  0.21603730  0.40366833  0.59811424  1
  Ti  Ti160  1  0.40411476  0.59052235  0.40152632  1
  Ti  Ti161  1  0.50428110  0.71077124  0.09363019  1
  Ti  Ti162  1  0.39578012  0.20642033  0.81056379  1
  Ti  Ti163  1  0.70144593  0.69340285  0.28828535  1
  Ti  Ti164  1  0.39965975  0.39416833  -0.00279721  1
  Ti  Ti165  1  0.49973127  0.09956320  0.29293098  1
  Ti  Ti166  1  0.30664083  0.49899858  0.69515115  1
  Ti  Ti167  1  0.30236233  0.29485854  0.69181451  1
  Ti  Ti168  1  0.69476936  0.11036478  0.09502125  1
  Ti  Ti169  1  0.59899999  0.00526888  0.60870997  1
  Ti  Ti170  1  0.20059549  0.80273451  0.00369297  1
  Ti  Ti171  1  0.00303195  -0.00436023  0.19442490  1
  Ti  Ti172  1  0.00435874  0.59929679  0.80005317  1
  Ti  Ti173  1  0.89749829  0.90301214  0.70580371  1
  Ti  Ti174  1  0.89330702  0.30056543  0.09992002  1
  Ti  Ti175  1  0.08757962  0.70732774  0.10026193  1
  Ti  Ti176  1  0.80235295  0.19439365  0.19145929  1
  Ti  Ti177  1  0.80645337  0.20001141  0.00474188  1
  Ti  Ti178  1  0.49517280  0.49041483  0.50572532  1
  Ti  Ti179  1  0.59334133  0.20005806  0.19207812  1
  Ti  Ti180  1  0.90450724  0.70185384  0.09862327  1
  Ti  Ti181  1  0.00466182  0.60377582  0.20034490  1
  Ti  Ti182  1  0.09949039  0.90850052  0.70737123  1
  Ti  Ti183  1  0.11486887  0.49786233  0.29878800  1
  Ti  Ti184  1  0.50602805  0.89431979  0.91866146  1
  Ti  Ti185  1  0.00274577  0.80253471  0.59717186  1
  Ti  Ti186  1  0.30499395  0.30575197  0.50873497  1
  Ti  Ti187  1  0.28914076  0.90718374  0.90638358  1
  Ti  Ti188  1  0.60185803  0.79390037  0.38245119  1
  Ti  Ti189  1  0.39803716  0.39653746  0.19560182  1
  Ti  Ti190  1  0.90776869  0.09509320  0.09956500  1
  Ti  Ti191  1  0.29243966  0.50198365  0.29379561  1
  Ti  Ti192  1  0.29542285  0.10173520  0.50577160  1
  Ti  Ti193  1  0.20832294  0.59697886  0.59580106  1
  Ti  Ti194  1  0.29274949  0.90113186  0.10127828  1
  Ti  Ti195  1  0.70268325  0.30179049  0.09556215  1
  Ti  Ti196  1  0.40955757  0.79706417  0.39199805  1
  Ti  Ti197  1  0.80398291  0.80603823  0.19912812  1
  Ti  Ti198  1  0.10326410  0.09525151  0.10539518  1
  Ti  Ti199  1  0.39648082  0.19764689  0.60454599  1
  Mo  Mo200  1  0.80176204  0.80807835  0.79698408  1
  Mo  Mo201  1  0.59492687  0.60106769  0.80181977  1
  Mo  Mo202  1  0.00012164  0.79942455  0.19310475  1
  Mo  Mo203  1  0.59405834  0.39960172  0.60650125  1
  Mo  Mo204  1  0.19532792  0.19890455  0.19858069  1
  Mo  Mo205  1  0.29883865  0.09951186  0.90693281  1
  Mo  Mo206  1  0.10030865  0.69731296  0.49756129  1
  Mo  Mo207  1  -0.00168371  0.79782789  0.40084906  1
  Mo  Mo208  1  0.68738456  0.30328708  0.70286501  1
  Mo  Mo209  1  0.30150646  0.29686909  0.90714986  1
  Mo  Mo210  1  0.88751923  0.50078888  0.49487481  1
  Mo  Mo211  1  0.00525429  0.60864403  0.01064533  1
  Mo  Mo212  1  0.37997302  0.20409884  -0.00417608  1
  Mo  Mo213  1  0.19182574  -0.00750652  0.19474179  1
  Mo  Mo214  1  0.09965408  0.89982714  0.09646094  1
  Mo  Mo215  1  0.30129397  0.71153774  0.10126045  1
  Mo  Mo216  1  0.50458000  0.10651483  0.09606410  1
  Mo  Mo217  1  0.79569660  0.00315746  0.80274296  1
  Mo  Mo218  1  0.89060669  0.29805274  0.49660061  1
  Mo  Mo219  1  0.20434387  -0.00496146  0.80672312  1
  Mo  Mo220  1  0.68822271  0.49606466  0.70009824  1
  Mo  Mo221  1  0.50028322  0.88685834  0.09660138  1
  Mo  Mo222  1  0.79405906  0.60458294  0.19891480  1
  Mo  Mo223  1  0.01076199  0.39826526  0.59160167  1
  Mo  Mo224  1  0.01167407  0.39178503  0.80607039  1
  Mo  Mo225  1  0.69942794  0.91136018  0.90289000  1
  Mo  Mo226  1  -0.00044400  0.80673767  0.00327120  1
  Mo  Mo227  1  0.80030144  0.39102964  0.00850038  1
  Mo  Mo228  1  0.20290388  0.60326692  0.19825544  1
  Mo  Mo229  1  0.21533683  0.20055075  0.60494086  1
  Mo  Mo230  1  0.80371967  0.60557789  0.00095244  1
  Mo  Mo231  1  0.59701490  0.80100124  0.00322991  1
  Mo  Mo232  1  0.29916335  0.30260013  0.10058461  1
  Mo  Mo233  1  0.00483002  -0.00297294  0.78824094  1
  Mo  Mo234  1  0.20399377  0.40515744  0.20101773  1
  Mo  Mo235  1  0.61573548  0.20104426  0.00173052  1
  Mo  Mo236  1  0.89657277  0.90560572  0.28927348  1
  Mo  Mo237  1  0.30131374  0.50318968  0.50162243  1
  Mo  Mo238  1  0.30221559  0.70897244  0.90613753  1
  Mo  Mo239  1  0.18948205  0.79692267  0.39839184  1
  Mo  Mo240  1  0.49782101  0.30521331  0.89874341  1
  Mo  Mo241  1  0.00502460  0.00373371  0.01602245  1
  Mo  Mo242  1  0.39720395  0.40142491  0.60305833  1
  Mo  Mo243  1  0.49743762  0.49818732  0.70340621  1
  Mo  Mo244  1  0.69191954  0.50075424  0.29406795  1
  Mo  Mo245  1  0.50178517  0.49989267  0.90581288  1
  Mo  Mo246  1  0.49696564  0.30787527  0.28246220  1
  Mo  Mo247  1  0.21165774  0.40775616  0.39856733  1
  Mo  Mo248  1  0.29922539  0.90243832  0.71521884  1
  Mo  Mo249  1  0.60242058  0.79733247  0.61523467  1
