# generated using pymatgen
data_HfZrTaTiMo
_symmetry_space_group_name_H-M   'P 1'
_cell_length_a   16.87937881
_cell_length_b   16.89058669
_cell_length_c   16.88783445
_cell_angle_alpha   89.97392114
_cell_angle_beta   89.98422619
_cell_angle_gamma   90.02430279
_symmetry_Int_Tables_number   1
_chemical_formula_structural   HfZrTaTiMo
_chemical_formula_sum   'Hf50 Zr50 Ta50 Ti50 Mo50'
_cell_volume   4814.76458026
_cell_formula_units_Z   50
loop_
 _symmetry_equiv_pos_site_id
 _symmetry_equiv_pos_as_xyz
  1  'x, y, z'
loop_
 _atom_site_type_symbol
 _atom_site_label
 _atom_site_symmetry_multiplicity
 _atom_site_fract_x
 _atom_site_fract_y
 _atom_site_fract_z
 _atom_site_occupancy
  Hf  Hf0  1  0.88116510  0.88503915  0.50562186  1
  Hf  Hf1  1  0.60932267  0.59478018  0.59477321  1
  Hf  Hf2  1  0.19976375  0.58915478  0.19443876  1
  Hf  Hf3  1  0.78870333  0.20696587  0.61208508  1
  Hf  Hf4  1  0.89380604  0.69633520  0.50758054  1
  Hf  Hf5  1  0.78909375  -0.00391866  0.40124701  1
  Hf  Hf6  1  0.79870388  0.00775546  0.79682334  1
  Hf  Hf7  1  0.60272632  0.59126681  0.19725749  1
  Hf  Hf8  1  -0.00164839  -0.00049251  0.40268038  1
  Hf  Hf9  1  0.29775191  0.90280168  0.68935491  1
  Hf  Hf10  1  0.20370916  0.59830684  0.59620005  1
  Hf  Hf11  1  0.58585116  0.79972879  0.80659533  1
  Hf  Hf12  1  0.30317488  0.91043807  0.89059039  1
  Hf  Hf13  1  0.30341875  0.30634626  0.50612942  1
  Hf  Hf14  1  0.20135205  0.80444838  -0.00729386  1
  Hf  Hf15  1  0.09986923  0.30255124  0.70726358  1
  Hf  Hf16  1  0.20832139  0.19123588  0.60354877  1
  Hf  Hf17  1  0.49656470  0.89916209  0.09916378  1
  Hf  Hf18  1  0.01027673  0.80490490  0.19341244  1
  Hf  Hf19  1  0.39316383  0.01112981  -0.00342877  1
  Hf  Hf20  1  0.89440115  0.89412415  0.30309039  1
  Hf  Hf21  1  -0.00125431  0.20383244  0.60018646  1
  Hf  Hf22  1  0.61398024  0.21010934  0.79622313  1
  Hf  Hf23  1  0.60109066  0.59859430  0.80422000  1
  Hf  Hf24  1  0.60014339  0.21009481  0.19699005  1
  Hf  Hf25  1  0.30898941  0.69342469  0.08173387  1
  Hf  Hf26  1  0.00462893  0.00083010  0.19729047  1
  Hf  Hf27  1  0.30016354  0.49785095  0.70727644  1
  Hf  Hf28  1  0.10288459  0.90434840  0.89272255  1
  Hf  Hf29  1  0.70526876  0.89726745  0.89693185  1
  Hf  Hf30  1  0.50497646  0.09352951  0.30704107  1
  Hf  Hf31  1  0.89856953  0.90436358  0.09344956  1
  Hf  Hf32  1  0.70238374  0.69538776  0.90060242  1
  Hf  Hf33  1  0.40090074  0.19097592  0.60727951  1
  Hf  Hf34  1  0.29946172  0.31378662  0.70686670  1
  Hf  Hf35  1  0.60600835  0.40098141  -0.00213132  1
  Hf  Hf36  1  -0.00155258  0.20311880  -0.00095618  1
  Hf  Hf37  1  0.49902342  0.49972858  0.30289385  1
  Hf  Hf38  1  0.19854639  0.40437644  0.19357277  1
  Hf  Hf39  1  0.11413839  0.89648553  0.51711486  1
  Hf  Hf40  1  0.80264496  0.58824951  -0.00594934  1
  Hf  Hf41  1  0.70471669  0.70217593  0.69727861  1
  Hf  Hf42  1  0.59720791  0.21648524  -0.00466580  1
  Hf  Hf43  1  0.69765703  0.69365485  0.30905104  1
  Hf  Hf44  1  0.89513742  0.69997131  0.31249472  1
  Hf  Hf45  1  0.50011173  0.69963798  0.50291774  1
  Hf  Hf46  1  0.78647776  0.00351322  0.60290063  1
  Hf  Hf47  1  0.90117389  0.89980577  0.89911273  1
  Hf  Hf48  1  0.19890972  -0.00065178  0.18951170  1
  Hf  Hf49  1  0.10442883  0.69882649  0.69794152  1
  Zr  Zr50  1  0.90110229  0.49341533  0.31179002  1
  Zr  Zr51  1  0.50065378  0.69945014  0.29747038  1
  Zr  Zr52  1  0.40515591  0.39632282  0.00698818  1
  Zr  Zr53  1  0.90510056  0.48818885  0.90007886  1
  Zr  Zr54  1  0.09238134  0.30605124  0.49872714  1
  Zr  Zr55  1  0.40260689  0.79767338  0.80724678  1
  Zr  Zr56  1  0.69701730  0.10541421  0.30226683  1
  Zr  Zr57  1  0.00683548  0.79777228  0.41176824  1
  Zr  Zr58  1  0.50030262  0.30609292  0.30465136  1
  Zr  Zr59  1  -0.00087641  0.59513606  0.19744503  1
  Zr  Zr60  1  0.29930101  0.49929723  0.89451143  1
  Zr  Zr61  1  0.49245755  0.91236440  0.69385242  1
  Zr  Zr62  1  0.29787226  0.30299134  0.89779433  1
  Zr  Zr63  1  0.39341524  0.19970567  0.40444874  1
  Zr  Zr64  1  0.50400681  0.09370487  0.49871918  1
  Zr  Zr65  1  0.60749845  0.40100867  0.60290727  1
  Zr  Zr66  1  0.10621641  0.89551888  0.70397581  1
  Zr  Zr67  1  -0.00814038  -0.00588154  0.60363754  1
  Zr  Zr68  1  0.10174726  0.09494445  0.70173393  1
  Zr  Zr69  1  0.39321594  0.59269293  0.19265920  1
  Zr  Zr70  1  0.10928338  0.69090777  0.31428906  1
  Zr  Zr71  1  0.20303266  0.40030591  0.39662203  1
  Zr  Zr72  1  0.80215771  0.58588362  0.19903636  1
  Zr  Zr73  1  -0.00440125  0.40235396  0.19594947  1
  Zr  Zr74  1  0.49717797  0.50212908  0.70568135  1
  Zr  Zr75  1  0.79646624  0.79813035  0.19804029  1
  Zr  Zr76  1  0.20485975  0.79922915  0.19385504  1
  Zr  Zr77  1  0.50218155  0.10081043  0.10004011  1
  Zr  Zr78  1  0.49658642  0.30741115  0.70637745  1
  Zr  Zr79  1  0.69286460  0.69817547  0.09410403  1
  Zr  Zr80  1  0.90084417  0.11322575  0.71049916  1
  Zr  Zr81  1  0.60187942  0.80932428  0.40358595  1
  Zr  Zr82  1  0.39186140  0.80232824  0.40160906  1
  Zr  Zr83  1  0.60315712  -0.00009838  -0.00976363  1
  Zr  Zr84  1  0.19903190  0.20245293  0.19869433  1
  Zr  Zr85  1  0.69720522  0.29655568  0.49593301  1
  Zr  Zr86  1  0.90703078  0.69496866  0.08585370  1
  Zr  Zr87  1  0.39897856  0.20394552  0.18912591  1
  Zr  Zr88  1  0.38608120  0.60082663  0.40563854  1
  Zr  Zr89  1  0.20068780  0.19929468  0.40008262  1
  Zr  Zr90  1  0.10081404  0.69249005  0.08558933  1
  Zr  Zr91  1  0.69736940  0.89456375  0.69896350  1
  Zr  Zr92  1  0.58916247  0.80117683  -0.00508522  1
  Zr  Zr93  1  0.49789156  0.10337123  0.88907077  1
  Zr  Zr94  1  -0.00469058  0.59944471  0.79659117  1
  Zr  Zr95  1  0.79778645  0.20794501  -0.00809758  1
  Zr  Zr96  1  0.89414987  0.10673380  0.49671882  1
  Zr  Zr97  1  0.70875436  0.10267848  0.10369569  1
  Zr  Zr98  1  0.11091387  0.89828168  0.31074565  1
  Zr  Zr99  1  0.30074233  0.09366647  0.29963415  1
  Ta  Ta100  1  0.09934769  0.30231723  0.89929395  1
  Ta  Ta101  1  0.49534152  0.70065680  0.69014718  1
  Ta  Ta102  1  0.71080178  0.30675099  0.10838844  1
  Ta  Ta103  1  0.40410722  0.40949439  0.59172984  1
  Ta  Ta104  1  0.70652241  0.70632741  0.50331052  1
  Ta  Ta105  1  0.59958737  0.19371793  0.60961498  1
  Ta  Ta106  1  0.08804147  0.49785500  0.07821614  1
  Ta  Ta107  1  0.30559627  0.69960348  0.69582195  1
  Ta  Ta108  1  0.20839414  -0.00147101  0.41060590  1
  Ta  Ta109  1  0.70324538  0.90166085  0.09857087  1
  Ta  Ta110  1  0.10322950  0.09578802  0.49942703  1
  Ta  Ta111  1  0.78928125  0.58839497  0.41258655  1
  Ta  Ta112  1  0.79683104  0.40205280  0.40278462  1
  Ta  Ta113  1  0.49999833  0.49968577  0.90144603  1
  Ta  Ta114  1  0.20376339  0.19647299  0.80382408  1
  Ta  Ta115  1  0.09749698  0.49822123  0.31481205  1
  Ta  Ta116  1  0.90416561  0.10380020  0.89995163  1
  Ta  Ta117  1  0.09409928  0.50142355  0.49869591  1
  Ta  Ta118  1  0.60870647  0.40987196  0.39938005  1
  Ta  Ta119  1  0.19407059  0.40133087  -0.00234552  1
  Ta  Ta120  1  0.60266264  -0.00921360  0.20187951  1
  Ta  Ta121  1  0.30204007  0.90157289  0.09310174  1
  Ta  Ta122  1  0.20783445  0.78731525  0.80269779  1
  Ta  Ta123  1  0.09634776  0.10314042  0.30411421  1
  Ta  Ta124  1  0.19959889  0.01237492  -0.00114087  1
  Ta  Ta125  1  0.80258330  0.40305526  0.60266096  1
  Ta  Ta126  1  0.09952004  0.10766435  0.09670475  1
  Ta  Ta127  1  0.59979265  0.40254882  0.19570900  1
  Ta  Ta128  1  0.49549823  0.90586910  0.29967470  1
  Ta  Ta129  1  0.89864119  0.30740768  0.49899159  1
  Ta  Ta130  1  0.29456284  0.30088502  0.09377199  1
  Ta  Ta131  1  0.09698871  0.30010993  0.09399690  1
  Ta  Ta132  1  0.70503397  0.30633190  0.29687813  1
  Ta  Ta133  1  0.70891221  0.49829717  0.70878878  1
  Ta  Ta134  1  0.68749094  0.10077508  0.49581654  1
  Ta  Ta135  1  0.90047950  0.10434446  0.10308400  1
  Ta  Ta136  1  0.50468456  0.30080941  0.49893557  1
  Ta  Ta137  1  0.39873916  0.60727719  0.80426680  1
  Ta  Ta138  1  0.80424119  0.59224818  0.60570615  1
  Ta  Ta139  1  -0.00149659  0.00240395  0.80527577  1
  Ta  Ta140  1  0.49624670  0.90729884  0.50503759  1
  Ta  Ta141  1  0.89510244  0.30206460  0.10501843  1
  Ta  Ta142  1  0.90111392  0.30670061  0.70801369  1
  Ta  Ta143  1  0.39560443  -0.00331518  0.19598245  1
  Ta  Ta144  1  0.08703515  0.30174130  0.30014919  1
  Ta  Ta145  1  0.80070406  0.20569392  0.39576789  1
  Ta  Ta146  1  0.00603467  0.00522177  -0.00026585  1
  Ta  Ta147  1  0.39488346  0.19485858  0.79826291  1
  Ta  Ta148  1  0.10192152  0.69023118  0.89562716  1
  Ta  Ta149  1  0.39722989  0.80131918  0.19688701  1
  Ti  Ti150  1  -0.00254387  0.40638356  0.60502966  1
  Ti  Ti151  1  0.29575487  0.49951075  0.49921063  1
  Ti  Ti152  1  0.59912814  0.80542341  0.59710177  1
  Ti  Ti153  1  -0.00450076  0.20130884  0.39697921  1
  Ti  Ti154  1  0.30102489  0.89916973  0.29753302  1
  Ti  Ti155  1  0.80404829  0.79545175  -0.00414464  1
  Ti  Ti156  1  0.29366128  0.69663978  0.30070723  1
  Ti  Ti157  1  0.79871179  0.00046799  0.20206359  1
  Ti  Ti158  1  -0.00326845  0.79259075  0.80163720  1
  Ti  Ti159  1  0.69725458  0.89713478  0.29890108  1
  Ti  Ti160  1  0.89627245  0.30039485  0.30011110  1
  Ti  Ti161  1  0.90298683  0.49376903  0.50306134  1
  Ti  Ti162  1  0.59621640  0.80268726  0.19837562  1
  Ti  Ti163  1  0.40204461  0.80377268  -0.01030926  1
  Ti  Ti164  1  0.80041513  0.39817062  -0.00255245  1
  Ti  Ti165  1  -0.00350118  0.59385419  0.60545700  1
  Ti  Ti166  1  0.60075552  0.00908407  0.78979282  1
  Ti  Ti167  1  -0.00044532  0.59769445  0.41122399  1
  Ti  Ti168  1  0.89621094  0.49231030  0.70463459  1
  Ti  Ti169  1  0.49811117  0.50323634  0.09456557  1
  Ti  Ti170  1  0.39757591  0.59797728  0.59763442  1
  Ti  Ti171  1  0.90490376  0.29750459  0.88955846  1
  Ti  Ti172  1  0.70608065  0.49211151  0.10004901  1
  Ti  Ti173  1  0.20881129  0.01462614  0.80090831  1
  Ti  Ti174  1  0.09955102  0.10834542  0.89821771  1
  Ti  Ti175  1  0.10651458  0.49931851  0.70721118  1
  Ti  Ti176  1  0.20078306  0.59293401  -0.01110301  1
  Ti  Ti177  1  0.30075094  0.49619306  0.29960695  1
  Ti  Ti178  1  0.39848739  0.20344432  -0.00236494  1
  Ti  Ti179  1  0.80608730  0.59926589  0.80077104  1
  Ti  Ti180  1  -0.00206993  0.20076047  0.20141313  1
  Ti  Ti181  1  0.49712340  0.69344861  0.09301152  1
  Ti  Ti182  1  0.19632777  0.40574184  0.59973981  1
  Ti  Ti183  1  -0.00772777  0.79174042  0.61082033  1
  Ti  Ti184  1  0.50450930  0.50199363  0.49446386  1
  Ti  Ti185  1  0.00778111  0.40144174  0.80306280  1
  Ti  Ti186  1  0.40166988  0.40345119  0.40486712  1
  Ti  Ti187  1  0.89667408  0.10638367  0.29431162  1
  Ti  Ti188  1  0.80276064  0.00643734  -0.00294177  1
  Ti  Ti189  1  0.00537038  0.80117305  -0.00802033  1
  Ti  Ti190  1  0.30791970  0.30992333  0.29207786  1
  Ti  Ti191  1  0.10553551  0.69620802  0.50616860  1
  Ti  Ti192  1  0.81605309  0.78577775  0.79809452  1
  Ti  Ti193  1  0.89706786  0.89274362  0.70289344  1
  Ti  Ti194  1  0.49439206  0.68154320  0.91610804  1
  Ti  Ti195  1  0.39086981  -0.00604445  0.40699530  1
  Ti  Ti196  1  0.70574206  0.10552716  0.89337391  1
  Ti  Ti197  1  0.60792431  0.39815023  0.81142623  1
  Ti  Ti198  1  0.79055309  0.38990208  0.80301182  1
  Ti  Ti199  1  0.21391158  0.79483843  0.41737973  1
  Mo  Mo200  1  -0.00371450  0.39242400  -0.00169901  1
  Mo  Mo201  1  0.10087185  0.49768069  0.89726069  1
  Mo  Mo202  1  0.49673761  0.91444798  0.89490278  1
  Mo  Mo203  1  0.89895102  0.48726096  0.09160280  1
  Mo  Mo204  1  0.81044109  0.20496321  0.20629576  1
  Mo  Mo205  1  0.79699663  0.79526138  0.60609571  1
  Mo  Mo206  1  0.40159222  0.59307299  -0.00224897  1
  Mo  Mo207  1  0.30475310  0.89865230  0.50580994  1
  Mo  Mo208  1  0.80289678  0.20734593  0.80284186  1
  Mo  Mo209  1  0.69330419  0.10058353  0.69951514  1
  Mo  Mo210  1  0.68962205  0.90132073  0.50356071  1
  Mo  Mo211  1  0.69752365  0.49517224  0.30327422  1
  Mo  Mo212  1  0.79813541  0.39739038  0.20307256  1
  Mo  Mo213  1  0.60618354  0.59276269  0.40646932  1
  Mo  Mo214  1  0.90484629  0.70295265  0.89659078  1
  Mo  Mo215  1  0.20184371  0.60355350  0.79756339  1
  Mo  Mo216  1  0.70265256  0.49684685  0.89458767  1
  Mo  Mo217  1  0.30359025  0.09426636  0.70499456  1
  Mo  Mo218  1  0.79084880  0.79579003  0.40398185  1
  Mo  Mo219  1  0.10110502  0.90936481  0.08422651  1
  Mo  Mo220  1  0.70450069  0.30798090  0.70372513  1
  Mo  Mo221  1  0.18559161  0.40400575  0.80290936  1
  Mo  Mo222  1  0.70589925  0.49902402  0.50582394  1
  Mo  Mo223  1  0.29573865  0.10842391  0.89897255  1
  Mo  Mo224  1  0.50105366  0.10108402  0.69923041  1
  Mo  Mo225  1  0.60335637  0.21045123  0.40063954  1
  Mo  Mo226  1  0.20841778  0.79015474  0.60115783  1
  Mo  Mo227  1  0.29963305  0.70171909  0.50962264  1
  Mo  Mo228  1  0.39703444  0.01080290  0.79453882  1
  Mo  Mo229  1  0.20660354  0.00231051  0.59680764  1
  Mo  Mo230  1  0.00124046  0.59359268  -0.01104087  1
  Mo  Mo231  1  0.29888094  0.69582532  0.89759832  1
  Mo  Mo232  1  0.28959784  0.49525719  0.09192241  1
  Mo  Mo233  1  0.70710403  0.30669913  0.90153489  1
  Mo  Mo234  1  0.00374658  0.20365611  0.80697714  1
  Mo  Mo235  1  0.39656605  0.40164910  0.19451959  1
  Mo  Mo236  1  0.60022686  -0.00938426  0.39749260  1
  Mo  Mo237  1  0.19593782  0.20286488  -0.00188162  1
  Mo  Mo238  1  0.39692005  0.00189238  0.59660005  1
  Mo  Mo239  1  0.41157366  0.40030453  0.80626250  1
  Mo  Mo240  1  0.90036309  0.69757350  0.69793075  1
  Mo  Mo241  1  0.49871246  0.30781533  0.10168224  1
  Mo  Mo242  1  0.29497425  0.10453626  0.09193679  1
  Mo  Mo243  1  0.59899318  0.00229816  0.59630474  1
  Mo  Mo244  1  0.29974632  0.08820290  0.50784191  1
  Mo  Mo245  1  0.49760951  0.30271280  0.89719393  1
  Mo  Mo246  1  0.19892971  0.59612707  0.40421970  1
  Mo  Mo247  1  -0.00602718  0.39742465  0.40272889  1
  Mo  Mo248  1  0.59945811  0.58946124  0.00180569  1
  Mo  Mo249  1  0.40146578  0.79831935  0.59767340  1
