# generated using pymatgen
data_HfZrTaTiMo
_symmetry_space_group_name_H-M   'P 1'
_cell_length_a   16.88754652
_cell_length_b   16.88797869
_cell_length_c   16.88418128
_cell_angle_alpha   90.04590547
_cell_angle_beta   89.98395953
_cell_angle_gamma   90.00157522
_symmetry_Int_Tables_number   1
_chemical_formula_structural   HfZrTaTiMo
_chemical_formula_sum   'Hf50 Zr50 Ta50 Ti50 Mo50'
_cell_volume   4815.30810467
_cell_formula_units_Z   50
loop_
 _symmetry_equiv_pos_site_id
 _symmetry_equiv_pos_as_xyz
  1  'x, y, z'
loop_
 _atom_site_type_symbol
 _atom_site_label
 _atom_site_symmetry_multiplicity
 _atom_site_fract_x
 _atom_site_fract_y
 _atom_site_fract_z
 _atom_site_occupancy
  Hf  Hf0  1  0.20200794  0.60141138  0.39751737  1
  Hf  Hf1  1  0.20248758  0.60056059  0.79786070  1
  Hf  Hf2  1  0.50707198  0.10466111  0.09742130  1
  Hf  Hf3  1  0.49559658  0.09165256  0.70296331  1
  Hf  Hf4  1  0.00992988  0.80409743  -0.00642033  1
  Hf  Hf5  1  0.00382794  0.19876130  0.19365972  1
  Hf  Hf6  1  0.61336479  -0.00471075  0.59887547  1
  Hf  Hf7  1  -0.00303069  0.00020822  0.20018121  1
  Hf  Hf8  1  0.28499805  0.09983970  0.11504381  1
  Hf  Hf9  1  0.69798747  0.68743674  0.68774401  1
  Hf  Hf10  1  0.10271021  0.29695462  0.90022972  1
  Hf  Hf11  1  0.30871985  0.70909316  0.29533965  1
  Hf  Hf12  1  -0.01037368  0.79654865  0.40199938  1
  Hf  Hf13  1  0.30692611  0.29334906  0.49660883  1
  Hf  Hf14  1  0.10011557  0.09374450  0.49734513  1
  Hf  Hf15  1  0.80098340  0.80453716  0.40632344  1
  Hf  Hf16  1  0.30937126  0.50724700  0.89698767  1
  Hf  Hf17  1  0.19449421  0.00499471  0.79619843  1
  Hf  Hf18  1  0.30124248  0.49044016  0.29745465  1
  Hf  Hf19  1  0.50338085  0.29280185  0.09311851  1
  Hf  Hf20  1  0.59895475  0.59841130  0.00273744  1
  Hf  Hf21  1  0.29706617  0.91190125  0.30399869  1
  Hf  Hf22  1  0.60364601  0.80518182  -0.00835487  1
  Hf  Hf23  1  -0.00059175  0.79988489  0.59996391  1
  Hf  Hf24  1  0.00615440  0.00316433  -0.00260823  1
  Hf  Hf25  1  0.80252899  0.39548794  0.80680501  1
  Hf  Hf26  1  0.60443064  0.60184648  0.19436583  1
  Hf  Hf27  1  0.29961753  0.89454670  0.10863631  1
  Hf  Hf28  1  0.20694169  0.40438367  0.79432262  1
  Hf  Hf29  1  0.60838651  0.01167848  0.40761451  1
  Hf  Hf30  1  0.79803195  -0.00566814  -0.00971400  1
  Hf  Hf31  1  0.39096827  0.01049046  -0.00235132  1
  Hf  Hf32  1  0.60088055  0.80777780  0.79445586  1
  Hf  Hf33  1  0.50733707  0.89545452  0.50335772  1
  Hf  Hf34  1  -0.00509376  0.39890931  0.80449639  1
  Hf  Hf35  1  0.79421888  0.19340021  0.40465783  1
  Hf  Hf36  1  0.49773321  0.11152720  0.31127083  1
  Hf  Hf37  1  0.79553761  0.38914213  0.40565565  1
  Hf  Hf38  1  0.10892841  0.09490144  0.29618382  1
  Hf  Hf39  1  0.70194844  0.10563799  0.70193913  1
  Hf  Hf40  1  0.89505284  0.70496148  0.70650235  1
  Hf  Hf41  1  0.80009391  0.80102047  0.20074740  1
  Hf  Hf42  1  0.28879903  0.88956230  0.89399862  1
  Hf  Hf43  1  0.10119191  0.29550782  0.69650781  1
  Hf  Hf44  1  0.89990241  0.29691315  0.29692944  1
  Hf  Hf45  1  -0.01020021  0.19060555  0.59588325  1
  Hf  Hf46  1  0.39690452  0.01372454  0.41907818  1
  Hf  Hf47  1  0.50716100  0.71402745  0.30986752  1
  Hf  Hf48  1  0.20612115  0.59367828  0.60899705  1
  Hf  Hf49  1  0.40759595  0.39850805  0.59855706  1
  Zr  Zr50  1  -0.00804289  0.61523254  0.40101610  1
  Zr  Zr51  1  0.60723160  0.00624739  0.20904736  1
  Zr  Zr52  1  0.09924044  0.49939313  0.49875052  1
  Zr  Zr53  1  0.70059516  0.29679300  0.09291596  1
  Zr  Zr54  1  -0.00476252  0.19673866  0.79458761  1
  Zr  Zr55  1  0.69218353  0.50929412  0.50369863  1
  Zr  Zr56  1  0.20290149  0.39915534  -0.00458252  1
  Zr  Zr57  1  0.69924352  0.49995003  0.30738116  1
  Zr  Zr58  1  0.50465233  0.69192538  0.69560465  1
  Zr  Zr59  1  0.10654164  0.89895807  0.11331135  1
  Zr  Zr60  1  0.29311013  0.49992401  0.10485780  1
  Zr  Zr61  1  0.49360059  0.91671231  0.89248333  1
  Zr  Zr62  1  0.40944103  0.59619979  0.40807012  1
  Zr  Zr63  1  0.50205896  0.49302829  0.30764467  1
  Zr  Zr64  1  0.90249017  0.90732596  0.69694881  1
  Zr  Zr65  1  0.20608233  0.40196682  0.60572570  1
  Zr  Zr66  1  0.80321216  0.59037267  0.80826789  1
  Zr  Zr67  1  0.09922659  0.90384313  0.50549340  1
  Zr  Zr68  1  0.68646523  0.29241863  0.89461630  1
  Zr  Zr69  1  0.10912048  0.49663360  0.28686336  1
  Zr  Zr70  1  0.50371819  0.50244506  0.69915506  1
  Zr  Zr71  1  0.10564811  0.70201029  0.10411295  1
  Zr  Zr72  1  0.30045977  0.29730460  0.29491162  1
  Zr  Zr73  1  0.30823375  0.69955363  0.51119031  1
  Zr  Zr74  1  0.91253812  0.90100740  0.88686357  1
  Zr  Zr75  1  0.51055071  0.11238473  0.89788382  1
  Zr  Zr76  1  0.00108631  0.60438264  0.60059305  1
  Zr  Zr77  1  0.49148756  0.70790434  0.10393322  1
  Zr  Zr78  1  0.49589573  0.90623408  0.10313857  1
  Zr  Zr79  1  0.00029235  0.39215308  0.39851477  1
  Zr  Zr80  1  0.79485032  0.19816926  0.20410930  1
  Zr  Zr81  1  0.69310812  0.68757379  0.89263091  1
  Zr  Zr82  1  0.60724287  0.39883919  0.19750463  1
  Zr  Zr83  1  0.39579467  0.79106151  -0.00993572  1
  Zr  Zr84  1  0.89496458  0.50352753  0.69449077  1
  Zr  Zr85  1  -0.00808116  0.60814525  0.20468902  1
  Zr  Zr86  1  0.10159213  0.29232614  0.49941368  1
  Zr  Zr87  1  0.10030415  0.50516357  0.09745229  1
  Zr  Zr88  1  0.40233497  0.60008126  0.19810709  1
  Zr  Zr89  1  0.89205026  0.09730308  0.09580514  1
  Zr  Zr90  1  0.19189147  -0.00094258  -0.00349844  1
  Zr  Zr91  1  0.89529881  0.49693333  0.29824342  1
  Zr  Zr92  1  0.79561409  0.60618899  0.19177451  1
  Zr  Zr93  1  0.79560860  0.79691503  0.00116436  1
  Zr  Zr94  1  0.61164252  0.80384307  0.19482508  1
  Zr  Zr95  1  0.79007349  0.80853424  0.80515345  1
  Zr  Zr96  1  0.50472213  0.28596710  0.70304309  1
  Zr  Zr97  1  0.20048435  0.80212645  0.40823184  1
  Zr  Zr98  1  0.30541207  0.90147421  0.70119449  1
  Zr  Zr99  1  0.49545719  0.29982950  0.30595712  1
  Ta  Ta100  1  -0.01178849  0.39343568  0.59634456  1
  Ta  Ta101  1  0.89961938  0.09957742  0.89232816  1
  Ta  Ta102  1  0.30809701  0.10013766  0.69825414  1
  Ta  Ta103  1  0.39806703  0.39462021  0.80079868  1
  Ta  Ta104  1  0.30780468  0.28778401  0.69906488  1
  Ta  Ta105  1  0.69683259  0.30030010  0.69632071  1
  Ta  Ta106  1  0.20241285  0.19666306  0.39812752  1
  Ta  Ta107  1  0.79638944  0.39277251  0.59548290  1
  Ta  Ta108  1  0.80258044  0.20004462  0.79841391  1
  Ta  Ta109  1  0.80357192  0.59510185  0.00165072  1
  Ta  Ta110  1  0.30844171  0.49418400  0.49781378  1
  Ta  Ta111  1  -0.00206312  0.20265872  0.00057101  1
  Ta  Ta112  1  0.20450932  0.61337071  -0.00625459  1
  Ta  Ta113  1  0.68935475  0.70668159  0.50304500  1
  Ta  Ta114  1  0.10847769  0.29540768  0.10239183  1
  Ta  Ta115  1  0.70015926  0.10351443  0.90017260  1
  Ta  Ta116  1  0.39151252  0.20338252  -0.00156768  1
  Ta  Ta117  1  0.39743925  0.19697015  0.19752291  1
  Ta  Ta118  1  0.59263814  0.40107903  -0.00883535  1
  Ta  Ta119  1  0.69617083  0.70187458  0.31233520  1
  Ta  Ta120  1  0.30971903  0.69623209  0.70443764  1
  Ta  Ta121  1  0.09829685  0.10669828  0.89724504  1
  Ta  Ta122  1  0.49487421  0.49398592  0.09069426  1
  Ta  Ta123  1  0.20078576  0.39259242  0.39661466  1
  Ta  Ta124  1  0.10053578  0.90546818  0.30735277  1
  Ta  Ta125  1  0.80031248  0.19972136  0.59389585  1
  Ta  Ta126  1  0.79704962  0.00363642  0.40419531  1
  Ta  Ta127  1  0.40547136  0.80042451  0.60274781  1
  Ta  Ta128  1  0.90533909  0.70087873  0.09145372  1
  Ta  Ta129  1  0.69292372  0.49436269  0.69791337  1
  Ta  Ta130  1  0.80862232  0.40018119  -0.00496229  1
  Ta  Ta131  1  0.40175582  0.79330474  0.79838947  1
  Ta  Ta132  1  0.40141117  0.39183411  -0.00789845  1
  Ta  Ta133  1  0.60164880  0.19249371  0.58982120  1
  Ta  Ta134  1  0.29581399  0.29551993  0.10197281  1
  Ta  Ta135  1  0.69580823  0.10302933  0.08887373  1
  Ta  Ta136  1  0.89111502  0.50101742  0.50125943  1
  Ta  Ta137  1  0.49559103  0.90018844  0.30743715  1
  Ta  Ta138  1  0.89172249  0.29774934  0.69612811  1
  Ta  Ta139  1  -0.00895136  0.00204403  0.40166136  1
  Ta  Ta140  1  0.80254006  0.61238852  0.40353811  1
  Ta  Ta141  1  0.00044506  0.39024151  0.19044993  1
  Ta  Ta142  1  0.79319580  -0.00181835  0.20900381  1
  Ta  Ta143  1  0.51176250  0.69879226  0.50647790  1
  Ta  Ta144  1  0.09538983  0.50907492  0.90466461  1
  Ta  Ta145  1  -0.00503567  0.39241356  0.00204966  1
  Ta  Ta146  1  0.89624734  0.91332446  0.50900467  1
  Ta  Ta147  1  0.20039348  0.00554355  0.60541577  1
  Ta  Ta148  1  0.49692537  0.90491140  0.69812261  1
  Ta  Ta149  1  0.80848144  0.20602004  -0.01014461  1
  Ti  Ti150  1  0.10698083  0.70155699  0.50676188  1
  Ti  Ti151  1  -0.00859827  0.79933487  0.20951171  1
  Ti  Ti152  1  0.20404041  0.80061834  0.60870920  1
  Ti  Ti153  1  0.29798853  0.29315779  0.89705890  1
  Ti  Ti154  1  0.40158530  0.00663708  0.20689380  1
  Ti  Ti155  1  0.49571243  0.68415902  0.88622169  1
  Ti  Ti156  1  0.10341309  0.70501864  0.29745134  1
  Ti  Ti157  1  0.40247008  0.18136060  0.58521026  1
  Ti  Ti158  1  0.10874660  0.70937273  0.89554336  1
  Ti  Ti159  1  0.69399944  0.89717504  0.31241184  1
  Ti  Ti160  1  0.29618382  0.10060564  0.30363766  1
  Ti  Ti161  1  0.10345263  0.70840694  0.70657637  1
  Ti  Ti162  1  0.09009098  0.49814608  0.70292460  1
  Ti  Ti163  1  0.89822139  0.90495075  0.30341088  1
  Ti  Ti164  1  0.20153695  0.19489159  0.79236232  1
  Ti  Ti165  1  0.40201906  0.39408356  0.18790059  1
  Ti  Ti166  1  0.90012705  0.89834123  0.10066285  1
  Ti  Ti167  1  0.59723112  0.39245437  0.40820916  1
  Ti  Ti168  1  0.49760367  0.28507148  0.49009398  1
  Ti  Ti169  1  0.00665091  0.60618376  0.80392441  1
  Ti  Ti170  1  0.20013613  0.80199656  0.21002402  1
  Ti  Ti171  1  0.19772574  0.19376232  0.00163481  1
  Ti  Ti172  1  0.09903076  0.89481304  0.70567075  1
  Ti  Ti173  1  0.87613356  0.69924594  0.52333232  1
  Ti  Ti174  1  0.39898457  0.20198464  0.80684453  1
  Ti  Ti175  1  0.29811240  0.10350277  0.89254940  1
  Ti  Ti176  1  0.49675429  0.50232896  0.89645090  1
  Ti  Ti177  1  0.89824291  0.09735818  0.30289667  1
  Ti  Ti178  1  0.39973899  0.80634874  0.40953267  1
  Ti  Ti179  1  0.90937942  0.69719065  0.90208496  1
  Ti  Ti180  1  0.20453589  0.18992001  0.60139729  1
  Ti  Ti181  1  0.69249804  0.49537555  0.89838179  1
  Ti  Ti182  1  0.91332072  0.50764708  0.91030066  1
  Ti  Ti183  1  0.70280878  0.49387094  0.08961542  1
  Ti  Ti184  1  0.90579618  0.50156369  0.09342460  1
  Ti  Ti185  1  0.39712400  0.60341618  -0.00053911  1
  Ti  Ti186  1  0.80394059  0.39584821  0.19005665  1
  Ti  Ti187  1  -0.00399536  0.19666785  0.40006882  1
  Ti  Ti188  1  0.78095522  0.82162483  0.60363332  1
  Ti  Ti189  1  0.89457358  0.09095121  0.69459671  1
  Ti  Ti190  1  0.79339679  -0.00093499  0.79796663  1
  Ti  Ti191  1  0.60996821  -0.00256396  0.80026767  1
  Ti  Ti192  1  0.59621955  0.39347781  0.59270591  1
  Ti  Ti193  1  0.69679634  0.91225850  0.09341816  1
  Ti  Ti194  1  0.29489761  0.70732400  0.10337916  1
  Ti  Ti195  1  0.01146845  0.00758085  0.79232006  1
  Ti  Ti196  1  0.60999729  0.20064948  0.21310313  1
  Ti  Ti197  1  0.59107717  0.39698805  0.80286545  1
  Ti  Ti198  1  0.29959484  0.90785420  0.51045610  1
  Ti  Ti199  1  0.69298757  0.29369828  0.50140173  1
  Mo  Mo200  1  0.39478145  0.19609718  0.40081060  1
  Mo  Mo201  1  0.39906347  0.81128681  0.20999355  1
  Mo  Mo202  1  0.50384509  0.49847557  0.50180471  1
  Mo  Mo203  1  0.70519749  0.90199683  0.50078335  1
  Mo  Mo204  1  0.60379168  0.80781068  0.40386543  1
  Mo  Mo205  1  0.60717234  0.00434553  -0.00200462  1
  Mo  Mo206  1  0.80316673  0.00825856  0.59657485  1
  Mo  Mo207  1  0.40031961  0.39689121  0.40994206  1
  Mo  Mo208  1  0.39231065  0.00461277  0.80070128  1
  Mo  Mo209  1  0.90140287  0.09666496  0.49869123  1
  Mo  Mo210  1  0.89085424  0.71141977  0.29432865  1
  Mo  Mo211  1  0.19779581  -0.00209068  0.20875488  1
  Mo  Mo212  1  0.40180584  0.59637408  0.60020563  1
  Mo  Mo213  1  0.30038658  0.69731597  0.89522573  1
  Mo  Mo214  1  0.60302459  0.60969661  0.40324711  1
  Mo  Mo215  1  0.70153927  0.09967762  0.30156956  1
  Mo  Mo216  1  0.19231872  0.38624530  0.20180058  1
  Mo  Mo217  1  0.70789975  0.69633058  0.09250526  1
  Mo  Mo218  1  0.20024001  0.79280395  -0.00847291  1
  Mo  Mo219  1  0.69814827  0.90795331  0.70124916  1
  Mo  Mo220  1  0.39830250  -0.00237755  0.60156987  1
  Mo  Mo221  1  0.00985991  0.79269959  0.79828645  1
  Mo  Mo222  1  0.79432415  0.59207590  0.59784664  1
  Mo  Mo223  1  0.20445041  0.61772655  0.19875815  1
  Mo  Mo224  1  0.60427831  0.19782442  0.79237764  1
  Mo  Mo225  1  0.90095407  0.30432534  0.09665565  1
  Mo  Mo226  1  0.60082022  0.80293195  0.60096373  1
  Mo  Mo227  1  0.60555416  0.20488777  0.40538042  1
  Mo  Mo228  1  0.60181246  0.20100545  -0.00461401  1
  Mo  Mo229  1  0.60014451  0.58383920  0.80203941  1
  Mo  Mo230  1  0.50425696  0.10292912  0.50479178  1
  Mo  Mo231  1  0.20003053  0.79373014  0.79358402  1
  Mo  Mo232  1  0.00265489  0.00093410  0.60504859  1
  Mo  Mo233  1  0.69545470  0.29795913  0.30610451  1
  Mo  Mo234  1  0.00064928  0.60596969  -0.00607045  1
  Mo  Mo235  1  0.20229135  0.00375202  0.40733635  1
  Mo  Mo236  1  0.59819100  0.59534211  0.59647904  1
  Mo  Mo237  1  0.10058531  0.10784127  0.09370695  1
  Mo  Mo238  1  0.31409451  0.50044856  0.69990572  1
  Mo  Mo239  1  0.69303811  0.91279495  0.89780926  1
  Mo  Mo240  1  0.40021085  0.59797817  0.80008118  1
  Mo  Mo241  1  0.89611878  0.29693338  0.50232737  1
  Mo  Mo242  1  0.70549848  0.10201801  0.50364412  1
  Mo  Mo243  1  0.10174176  0.29294127  0.29706719  1
  Mo  Mo244  1  0.10629293  0.10054795  0.69690293  1
  Mo  Mo245  1  0.10078606  0.89561384  0.88229508  1
  Mo  Mo246  1  0.29215124  0.10099917  0.50538213  1
  Mo  Mo247  1  0.90064043  0.29686092  0.89969063  1
  Mo  Mo248  1  0.19910684  0.19899426  0.20344601  1
  Mo  Mo249  1  0.49163871  0.30246478  0.89820448  1
