# generated using pymatgen
data_HfZrTaTiMo
_symmetry_space_group_name_H-M   'P 1'
_cell_length_a   16.89083995
_cell_length_b   16.89365325
_cell_length_c   16.89456745
_cell_angle_alpha   89.99184770
_cell_angle_beta   90.01421701
_cell_angle_gamma   89.99853382
_symmetry_Int_Tables_number   1
_chemical_formula_structural   HfZrTaTiMo
_chemical_formula_sum   'Hf50 Zr50 Ta50 Ti50 Mo50'
_cell_volume   4820.83071738
_cell_formula_units_Z   50
loop_
 _symmetry_equiv_pos_site_id
 _symmetry_equiv_pos_as_xyz
  1  'x, y, z'
loop_
 _atom_site_type_symbol
 _atom_site_label
 _atom_site_symmetry_multiplicity
 _atom_site_fract_x
 _atom_site_fract_y
 _atom_site_fract_z
 _atom_site_occupancy
  Hf  Hf0  1  0.40175551  0.40361455  0.59980162  1
  Hf  Hf1  1  0.19848639  0.00213318  0.39617380  1
  Hf  Hf2  1  0.90113784  0.69079602  0.50133039  1
  Hf  Hf3  1  0.80679059  0.81078739  0.59367961  1
  Hf  Hf4  1  0.49094254  0.09778276  0.70146628  1
  Hf  Hf5  1  -0.00323810  0.61067429  0.80616044  1
  Hf  Hf6  1  -0.00424176  0.79832205  0.20536007  1
  Hf  Hf7  1  0.60187469  0.60925484  0.79785059  1
  Hf  Hf8  1  0.90223299  0.29690566  0.70255074  1
  Hf  Hf9  1  0.49419036  0.70107519  0.90742957  1
  Hf  Hf10  1  0.89865479  0.11005063  0.70561677  1
  Hf  Hf11  1  0.79299307  0.60288603  0.80327260  1
  Hf  Hf12  1  0.20677097  0.80084849  -0.00179519  1
  Hf  Hf13  1  -0.00587904  0.80366771  0.39874001  1
  Hf  Hf14  1  0.09882790  0.29355315  0.28870661  1
  Hf  Hf15  1  0.39794035  0.39873640  0.79841660  1
  Hf  Hf16  1  0.19492250  0.19077545  0.79687564  1
  Hf  Hf17  1  0.18035632  0.60071687  0.78904878  1
  Hf  Hf18  1  0.00078653  0.40262826  0.19772361  1
  Hf  Hf19  1  0.90574375  0.50163615  0.50637963  1
  Hf  Hf20  1  0.49859952  0.90709120  0.50315132  1
  Hf  Hf21  1  0.09948645  0.29989816  0.70446399  1
  Hf  Hf22  1  0.89490982  0.89551054  0.90374814  1
  Hf  Hf23  1  0.79781351  0.00544010  0.00527205  1
  Hf  Hf24  1  0.29982758  0.90494335  0.49942086  1
  Hf  Hf25  1  0.89402179  0.29255986  0.29379989  1
  Hf  Hf26  1  0.70463155  0.89921939  0.29008981  1
  Hf  Hf27  1  0.49527951  0.11003949  0.50267256  1
  Hf  Hf28  1  0.00145201  0.78882426  -0.00398616  1
  Hf  Hf29  1  0.60811505  0.00829843  0.59938992  1
  Hf  Hf30  1  0.70591052  0.10861834  0.29506239  1
  Hf  Hf31  1  0.49960038  0.49620935  0.30142020  1
  Hf  Hf32  1  0.41404054  0.79505798  0.78059849  1
  Hf  Hf33  1  0.10204828  0.30203494  0.50081435  1
  Hf  Hf34  1  0.30166070  0.50967335  0.89609379  1
  Hf  Hf35  1  0.02744354  0.17908825  0.60204592  1
  Hf  Hf36  1  0.29801171  0.50526390  0.50158487  1
  Hf  Hf37  1  0.80441412  0.18875137  -0.00528967  1
  Hf  Hf38  1  0.40251663  0.60285403  0.39478326  1
  Hf  Hf39  1  0.80747925  -0.00089961  0.40351563  1
  Hf  Hf40  1  0.18787082  0.01980093  0.59521484  1
  Hf  Hf41  1  0.60065176  0.39490219  0.79577580  1
  Hf  Hf42  1  0.40815431  0.80016592  0.59856727  1
  Hf  Hf43  1  0.69774195  0.49889025  0.91082865  1
  Hf  Hf44  1  0.29603574  0.29770977  0.69990414  1
  Hf  Hf45  1  0.09872660  0.09769112  0.90586391  1
  Hf  Hf46  1  0.19876781  0.40070123  0.38565234  1
  Hf  Hf47  1  0.82027736  0.00956792  0.20324901  1
  Hf  Hf48  1  0.89256375  0.88868131  0.10200515  1
  Hf  Hf49  1  0.49974240  0.50469169  0.69890695  1
  Zr  Zr50  1  0.39600894  0.39207635  0.19821923  1
  Zr  Zr51  1  0.69780381  0.88798357  0.90823351  1
  Zr  Zr52  1  0.80131089  0.78739053  0.79964494  1
  Zr  Zr53  1  -0.00337127  0.80469310  0.60261341  1
  Zr  Zr54  1  0.00268483  0.60230032  0.20510443  1
  Zr  Zr55  1  0.30845118  0.89229491  0.89153220  1
  Zr  Zr56  1  0.69901422  0.29407370  0.10323700  1
  Zr  Zr57  1  0.19102972  0.79842835  0.60218595  1
  Zr  Zr58  1  0.89414801  0.50492457  0.90786526  1
  Zr  Zr59  1  0.50031209  0.50208021  0.90269475  1
  Zr  Zr60  1  0.88722945  0.51533293  0.10031988  1
  Zr  Zr61  1  0.00664765  0.41462480  0.80348819  1
  Zr  Zr62  1  0.30061967  0.30401448  0.49648690  1
  Zr  Zr63  1  0.30954599  0.09615059  0.90068062  1
  Zr  Zr64  1  0.69622258  0.29782932  0.90560763  1
  Zr  Zr65  1  0.11422916  0.68936318  0.09948115  1
  Zr  Zr66  1  0.49749281  0.30432464  0.31050159  1
  Zr  Zr67  1  0.30680052  0.09631866  0.70024378  1
  Zr  Zr68  1  0.30240892  0.69552924  0.89611366  1
  Zr  Zr69  1  0.48762461  0.09736306  0.90172337  1
  Zr  Zr70  1  0.60914861  0.18935653  0.80138499  1
  Zr  Zr71  1  -0.00073437  0.39909884  0.00521193  1
  Zr  Zr72  1  0.79825388  0.59830310  0.39186400  1
  Zr  Zr73  1  0.59667796  -0.00451709  0.00391297  1
  Zr  Zr74  1  0.70118017  0.70577848  0.49445963  1
  Zr  Zr75  1  0.20162040  0.39861472  -0.00146182  1
  Zr  Zr76  1  0.09684152  0.90655449  0.09949176  1
  Zr  Zr77  1  0.80217770  0.39600296  0.39923614  1
  Zr  Zr78  1  0.60268254  0.01033622  0.39634860  1
  Zr  Zr79  1  0.29627969  0.70646063  0.49038339  1
  Zr  Zr80  1  0.70347682  0.90587070  0.70086627  1
  Zr  Zr81  1  0.50082759  0.30544984  0.49681224  1
  Zr  Zr82  1  0.19679371  0.59734423  0.39114987  1
  Zr  Zr83  1  0.60025965  0.79605963  0.79203582  1
  Zr  Zr84  1  0.10254747  0.10066234  0.10461500  1
  Zr  Zr85  1  0.79053275  0.02352438  0.81818052  1
  Zr  Zr86  1  0.40234908  -0.02537696  0.01787108  1
  Zr  Zr87  1  0.00077599  0.00287708  0.80060142  1
  Zr  Zr88  1  0.59535408  0.80653310  0.39496489  1
  Zr  Zr89  1  0.29996479  0.68841921  0.69394459  1
  Zr  Zr90  1  0.00189919  0.79120875  0.79895910  1
  Zr  Zr91  1  0.40125154  0.00938042  0.39385969  1
  Zr  Zr92  1  0.90091777  0.10400787  0.50188449  1
  Zr  Zr93  1  0.30747462  0.10036611  0.10025818  1
  Zr  Zr94  1  0.90886429  0.30096232  0.50549953  1
  Zr  Zr95  1  0.69878388  0.49497932  0.49963687  1
  Zr  Zr96  1  0.20475427  0.80306552  0.20285214  1
  Zr  Zr97  1  0.60252392  0.60440813  0.19485597  1
  Zr  Zr98  1  0.40155760  0.39959798  0.00581336  1
  Zr  Zr99  1  0.20286808  0.18913578  0.40126354  1
  Ta  Ta100  1  0.49830476  0.09397006  0.11606984  1
  Ta  Ta101  1  0.09707696  0.50237501  0.50052797  1
  Ta  Ta102  1  0.59344722  0.19982712  0.20563422  1
  Ta  Ta103  1  0.30200020  0.29155039  0.90032274  1
  Ta  Ta104  1  0.89465080  0.50290924  0.69474587  1
  Ta  Ta105  1  0.19435724  0.41121340  0.60756879  1
  Ta  Ta106  1  0.70241300  0.69294451  0.68029165  1
  Ta  Ta107  1  0.10689761  0.70434890  0.30618687  1
  Ta  Ta108  1  0.09905509  0.69572827  0.49709317  1
  Ta  Ta109  1  0.69480522  0.09906271  0.10914057  1
  Ta  Ta110  1  0.29436542  0.51004560  0.10652904  1
  Ta  Ta111  1  0.11410431  0.50065947  0.10799913  1
  Ta  Ta112  1  0.69807464  0.30123104  0.29773720  1
  Ta  Ta113  1  0.80190019  0.39436727  0.00199629  1
  Ta  Ta114  1  0.49799981  0.28912643  0.69847062  1
  Ta  Ta115  1  -0.01210235  0.00707450  0.00481360  1
  Ta  Ta116  1  0.10326274  0.90363100  0.70159704  1
  Ta  Ta117  1  0.30164991  0.90675567  0.69583729  1
  Ta  Ta118  1  0.30496502  0.89667646  0.30040716  1
  Ta  Ta119  1  0.40328507  0.60109456  0.01249826  1
  Ta  Ta120  1  0.00164149  0.59750720  0.39166489  1
  Ta  Ta121  1  0.49972205  0.70459553  0.29212893  1
  Ta  Ta122  1  0.20048157  0.20088651  -0.00030873  1
  Ta  Ta123  1  0.20862146  -0.00348933  0.20264126  1
  Ta  Ta124  1  0.50401828  0.69885444  0.49292105  1
  Ta  Ta125  1  0.09364477  0.09248819  0.29044865  1
  Ta  Ta126  1  -0.00179794  0.20018470  0.00169950  1
  Ta  Ta127  1  0.29539889  0.29450386  0.10176670  1
  Ta  Ta128  1  0.59447032  0.79337821  0.01857245  1
  Ta  Ta129  1  0.40490701  0.80601058  0.19297177  1
  Ta  Ta130  1  0.19963266  -0.00673627  0.80064410  1
  Ta  Ta131  1  0.70350874  0.49970266  0.69471357  1
  Ta  Ta132  1  0.60212146  0.39573818  0.60315914  1
  Ta  Ta133  1  0.49368629  0.29007427  0.90246452  1
  Ta  Ta134  1  0.00235128  0.19196540  0.39389852  1
  Ta  Ta135  1  0.70073266  0.70710678  0.29205300  1
  Ta  Ta136  1  0.79981822  0.39967700  0.79910068  1
  Ta  Ta137  1  0.59824677  0.59645133  0.59090987  1
  Ta  Ta138  1  0.00150591  -0.00494684  0.59626362  1
  Ta  Ta139  1  0.59835881  0.39677538  0.19569440  1
  Ta  Ta140  1  0.59997426  0.60020733  0.39399588  1
  Ta  Ta141  1  0.60645481  0.20104684  0.40053072  1
  Ta  Ta142  1  0.90213155  0.29399954  0.89276298  1
  Ta  Ta143  1  0.60054080  0.60793571  0.01115436  1
  Ta  Ta144  1  0.30736845  0.69684530  0.10376679  1
  Ta  Ta145  1  0.89608970  0.49929039  0.29548001  1
  Ta  Ta146  1  0.10331824  0.29451434  0.10211499  1
  Ta  Ta147  1  0.69786747  0.89687531  0.11199788  1
  Ta  Ta148  1  0.09962526  0.29589774  0.90089250  1
  Ta  Ta149  1  0.29965093  0.49933263  0.28833449  1
  Ti  Ti150  1  0.69630864  0.30292675  0.49484722  1
  Ti  Ti151  1  0.79760353  0.39893687  0.19559921  1
  Ti  Ti152  1  0.80123329  0.00274943  0.59308259  1
  Ti  Ti153  1  0.30330334  0.70218662  0.29367884  1
  Ti  Ti154  1  0.60959352  0.20233336  0.59740709  1
  Ti  Ti155  1  0.89747088  0.29292210  0.10091439  1
  Ti  Ti156  1  0.59615543  -0.00206811  0.80222309  1
  Ti  Ti157  1  0.87460489  0.69457203  0.92949374  1
  Ti  Ti158  1  0.59466556  0.18969799  0.00487928  1
  Ti  Ti159  1  0.71708423  0.70801636  0.10595216  1
  Ti  Ti160  1  0.09925452  0.90233277  0.30012957  1
  Ti  Ti161  1  0.38887593  0.19834521  0.59521761  1
  Ti  Ti162  1  0.41108420  0.60379522  0.59455918  1
  Ti  Ti163  1  0.09853559  0.90019697  0.49376208  1
  Ti  Ti164  1  0.50372370  0.49347704  0.48967444  1
  Ti  Ti165  1  0.79702272  0.39696509  0.60400735  1
  Ti  Ti166  1  0.69904906  0.49524101  0.29291432  1
  Ti  Ti167  1  0.09982257  0.90016287  0.90073529  1
  Ti  Ti168  1  0.59358097  0.39933392  0.01080496  1
  Ti  Ti169  1  0.01446991  0.60089202  0.61083404  1
  Ti  Ti170  1  -0.01429671  0.18538308  0.19633423  1
  Ti  Ti171  1  0.81098602  0.81002329  0.39459892  1
  Ti  Ti172  1  -0.00605701  -0.00125459  0.39288155  1
  Ti  Ti173  1  0.20842486  0.19957397  0.20440750  1
  Ti  Ti174  1  0.49858976  0.89033080  0.90060254  1
  Ti  Ti175  1  0.29830474  0.50845308  0.69741551  1
  Ti  Ti176  1  0.00482129  0.60663777  0.00245685  1
  Ti  Ti177  1  0.00476797  0.40572359  0.39047604  1
  Ti  Ti178  1  0.70086778  0.49790043  0.10092148  1
  Ti  Ti179  1  0.19659953  0.40723402  0.79994898  1
  Ti  Ti180  1  0.40431448  0.80223586  0.39101639  1
  Ti  Ti181  1  0.10645887  0.51131545  0.91630991  1
  Ti  Ti182  1  0.89205410  0.68795094  0.68790597  1
  Ti  Ti183  1  0.49656333  0.28677062  0.09636484  1
  Ti  Ti184  1  0.30574682  0.09642563  0.29091967  1
  Ti  Ti185  1  0.79138992  0.20354896  0.59342250  1
  Ti  Ti186  1  0.70906517  0.10709805  0.69667910  1
  Ti  Ti187  1  0.89615147  0.91112258  0.70300080  1
  Ti  Ti188  1  0.20509324  -0.00624940  0.00156442  1
  Ti  Ti189  1  0.70551046  0.29751337  0.70137123  1
  Ti  Ti190  1  0.19132046  0.79684433  0.79648238  1
  Ti  Ti191  1  0.00632900  0.40646554  0.60653126  1
  Ti  Ti192  1  0.50262659  0.90807006  0.28404062  1
  Ti  Ti193  1  0.70005935  0.90136758  0.49777695  1
  Ti  Ti194  1  0.88702178  0.69886418  0.29014061  1
  Ti  Ti195  1  0.40151838  0.20002142  0.20690814  1
  Ti  Ti196  1  0.49614161  0.50542561  0.10768332  1
  Ti  Ti197  1  0.39177325  0.19936155  0.39230939  1
  Ti  Ti198  1  0.80003111  0.19874495  0.40273440  1
  Ti  Ti199  1  0.59441593  0.80021736  0.60430547  1
  Mo  Mo200  1  0.60790104  0.40039426  0.39458570  1
  Mo  Mo201  1  0.29944649  0.29667574  0.29252270  1
  Mo  Mo202  1  0.20574866  0.60115547  0.20501392  1
  Mo  Mo203  1  0.90406113  0.10428747  0.30243131  1
  Mo  Mo204  1  0.59869111  0.00466253  0.20117305  1
  Mo  Mo205  1  0.10111554  0.09350372  0.71209767  1
  Mo  Mo206  1  0.40472424  0.79305652  0.01114060  1
  Mo  Mo207  1  0.09478391  0.70328043  0.69664653  1
  Mo  Mo208  1  0.79148093  0.79830943  0.00827246  1
  Mo  Mo209  1  0.10679305  0.69968373  0.90251492  1
  Mo  Mo210  1  0.40007544  0.20501763  0.00722961  1
  Mo  Mo211  1  0.79805702  0.59561992  0.60153012  1
  Mo  Mo212  1  0.68452247  0.10030295  0.91251748  1
  Mo  Mo213  1  0.19908405  0.39709138  0.19584215  1
  Mo  Mo214  1  0.90239455  0.90736914  0.49917618  1
  Mo  Mo215  1  0.40210294  -0.00301374  0.20645219  1
  Mo  Mo216  1  0.19388341  0.80531104  0.39678057  1
  Mo  Mo217  1  0.39776294  0.00087737  0.59764805  1
  Mo  Mo218  1  0.49451662  0.70166229  0.10421115  1
  Mo  Mo219  1  0.50784181  0.89611837  0.11256557  1
  Mo  Mo220  1  0.29995377  0.89588683  0.10765110  1
  Mo  Mo221  1  0.80010243  0.20728553  0.79969643  1
  Mo  Mo222  1  0.79875031  0.20132740  0.19480204  1
  Mo  Mo223  1  0.39955841  0.60556452  0.20236996  1
  Mo  Mo224  1  0.50807927  0.69114792  0.68292016  1
  Mo  Mo225  1  0.09626274  0.49861572  0.29852142  1
  Mo  Mo226  1  0.80222785  0.79749638  0.20336720  1
  Mo  Mo227  1  0.69207922  0.69721265  0.91916610  1
  Mo  Mo228  1  0.20228645  0.20258471  0.59816621  1
  Mo  Mo229  1  0.20615025  0.59915710  0.00142996  1
  Mo  Mo230  1  0.40553135  -0.01848560  0.79377902  1
  Mo  Mo231  1  0.00350361  -0.00292727  0.20367568  1
  Mo  Mo232  1  0.78150107  0.60180430  0.00866080  1
  Mo  Mo233  1  0.09387032  0.49951797  0.69525670  1
  Mo  Mo234  1  0.40328251  0.59927132  0.79212764  1
  Mo  Mo235  1  0.79372466  0.60003779  0.20142798  1
  Mo  Mo236  1  0.09635840  0.09201102  0.48217830  1
  Mo  Mo237  1  0.39993142  0.20854701  0.80050157  1
  Mo  Mo238  1  0.39030929  0.40847537  0.39838603  1
  Mo  Mo239  1  0.89276088  0.69926211  0.10130728  1
  Mo  Mo240  1  0.00136552  0.20139763  0.80682548  1
  Mo  Mo241  1  0.60128568  0.80043898  0.19883273  1
  Mo  Mo242  1  0.90363303  0.89952835  0.30196091  1
  Mo  Mo243  1  0.18815368  0.59645516  0.59588253  1
  Mo  Mo244  1  0.70283493  0.11297027  0.50250643  1
  Mo  Mo245  1  0.90299604  0.10216028  0.10059853  1
  Mo  Mo246  1  0.50087362  0.91095065  0.69501396  1
  Mo  Mo247  1  0.30136802  0.10589403  0.50001769  1
  Mo  Mo248  1  0.90868501  0.10794415  0.90323462  1
  Mo  Mo249  1  0.49998973  0.11001668  0.29910896  1
