# generated using pymatgen
data_HfZrTaTiMo
_symmetry_space_group_name_H-M   'P 1'
_cell_length_a   16.88620410
_cell_length_b   16.89542730
_cell_length_c   16.87886261
_cell_angle_alpha   89.99666736
_cell_angle_beta   89.96322004
_cell_angle_gamma   90.04044229
_symmetry_Int_Tables_number   1
_chemical_formula_structural   HfZrTaTiMo
_chemical_formula_sum   'Hf50 Zr50 Ta50 Ti50 Mo50'
_cell_volume   4815.53111963
_cell_formula_units_Z   50
loop_
 _symmetry_equiv_pos_site_id
 _symmetry_equiv_pos_as_xyz
  1  'x, y, z'
loop_
 _atom_site_type_symbol
 _atom_site_label
 _atom_site_symmetry_multiplicity
 _atom_site_fract_x
 _atom_site_fract_y
 _atom_site_fract_z
 _atom_site_occupancy
  Hf  Hf0  1  0.39201273  0.80286538  0.59300369  1
  Hf  Hf1  1  0.80403787  0.00383436  0.00007338  1
  Hf  Hf2  1  0.90310567  0.28462834  0.51471189  1
  Hf  Hf3  1  0.49410344  0.90325250  0.69544972  1
  Hf  Hf4  1  0.59878130  0.79848771  0.59574000  1
  Hf  Hf5  1  0.20141826  0.78910442  0.20846647  1
  Hf  Hf6  1  0.59987397  0.00823771  0.79836105  1
  Hf  Hf7  1  0.28583689  0.49291080  0.30227406  1
  Hf  Hf8  1  0.80246251  0.19259548  0.40004838  1
  Hf  Hf9  1  0.48822731  0.69473855  0.50116780  1
  Hf  Hf10  1  0.20906105  0.40391228  0.59895533  1
  Hf  Hf11  1  0.39883734  0.19071177  0.39804051  1
  Hf  Hf12  1  0.48670301  0.70625266  0.29594136  1
  Hf  Hf13  1  0.79953569  0.60300567  0.19555664  1
  Hf  Hf14  1  0.89756357  0.68762469  0.49428812  1
  Hf  Hf15  1  0.89855725  0.88750717  0.09310521  1
  Hf  Hf16  1  0.69243671  0.11541891  0.09559557  1
  Hf  Hf17  1  -0.00633081  0.59298487  0.00396843  1
  Hf  Hf18  1  0.90315503  0.70295378  0.90168824  1
  Hf  Hf19  1  0.29801085  0.89791826  0.10996438  1
  Hf  Hf20  1  0.20744726  0.59166049  0.80728609  1
  Hf  Hf21  1  0.10717225  0.90808014  0.30416546  1
  Hf  Hf22  1  0.69362530  0.90616269  0.30170407  1
  Hf  Hf23  1  0.00532710  0.01327370  0.79370082  1
  Hf  Hf24  1  0.80646007  0.01516706  0.59344305  1
  Hf  Hf25  1  0.90747187  0.90503653  0.49939071  1
  Hf  Hf26  1  0.89561246  0.49989524  0.30400374  1
  Hf  Hf27  1  0.10203507  0.49354391  0.70709658  1
  Hf  Hf28  1  0.20323135  0.81065769  -0.00894746  1
  Hf  Hf29  1  0.79749746  0.60082110  0.80447684  1
  Hf  Hf30  1  0.20603303  0.20368281  -0.00119914  1
  Hf  Hf31  1  0.00444156  0.80570174  0.79781160  1
  Hf  Hf32  1  0.89603356  0.69615447  0.30395054  1
  Hf  Hf33  1  0.39521685  0.40119360  0.40401192  1
  Hf  Hf34  1  0.41398297  0.40770790  0.81391988  1
  Hf  Hf35  1  0.11909809  0.50586868  0.49251553  1
  Hf  Hf36  1  0.50146062  0.11114320  0.90891569  1
  Hf  Hf37  1  0.80053004  0.59418857  0.61000253  1
  Hf  Hf38  1  0.70199730  0.89451856  0.90026718  1
  Hf  Hf39  1  0.80083859  0.39049383  0.79840481  1
  Hf  Hf40  1  0.90196544  0.89781050  0.30000181  1
  Hf  Hf41  1  0.49085214  0.69585303  0.10073961  1
  Hf  Hf42  1  0.90458599  0.90495584  0.69464266  1
  Hf  Hf43  1  0.49996794  0.29661793  0.29057972  1
  Hf  Hf44  1  0.40533509  0.40431122  0.60164999  1
  Hf  Hf45  1  0.28678592  0.67351963  0.50849139  1
  Hf  Hf46  1  0.58616661  0.39994838  -0.00907006  1
  Hf  Hf47  1  0.59479592  0.80481795  0.40125120  1
  Hf  Hf48  1  0.20030473  0.79300257  0.40695079  1
  Hf  Hf49  1  0.70344800  0.49814594  0.29654173  1
  Zr  Zr50  1  0.80831749  0.00815541  0.80003456  1
  Zr  Zr51  1  0.90217564  0.49343256  0.49961639  1
  Zr  Zr52  1  0.39569352  0.80494266  -0.00654366  1
  Zr  Zr53  1  0.19646174  0.80373574  0.59787603  1
  Zr  Zr54  1  0.29487574  0.30630856  0.71011401  1
  Zr  Zr55  1  0.59394375  -0.00190192  0.00759423  1
  Zr  Zr56  1  0.49387672  0.49992837  0.10347776  1
  Zr  Zr57  1  0.00418656  0.39308406  0.39560632  1
  Zr  Zr58  1  0.49427120  0.89631537  0.88859201  1
  Zr  Zr59  1  0.70243710  0.11605942  0.90294885  1
  Zr  Zr60  1  0.80097483  0.20324680  0.20847919  1
  Zr  Zr61  1  0.30434742  0.69939957  0.89460147  1
  Zr  Zr62  1  0.68253460  0.09991411  0.49798990  1
  Zr  Zr63  1  0.49564191  0.88625798  0.11462550  1
  Zr  Zr64  1  0.59980165  0.59739897  0.60800246  1
  Zr  Zr65  1  0.00347622  0.39537622  0.20285485  1
  Zr  Zr66  1  0.69532599  0.29995620  0.09735529  1
  Zr  Zr67  1  0.60158389  0.60583789  0.38677173  1
  Zr  Zr68  1  0.79946097  0.00558553  0.39834971  1
  Zr  Zr69  1  0.80061322  0.39785404  -0.00342438  1
  Zr  Zr70  1  0.10647431  0.29456534  0.50475351  1
  Zr  Zr71  1  0.19758883  0.01447454  0.60292219  1
  Zr  Zr72  1  0.79734844  0.79726779  0.59636413  1
  Zr  Zr73  1  0.40756341  0.20695695  0.80279179  1
  Zr  Zr74  1  0.09711114  0.89924083  0.09766749  1
  Zr  Zr75  1  0.09928785  0.49449129  0.90014586  1
  Zr  Zr76  1  0.29744083  0.10538606  0.70199938  1
  Zr  Zr77  1  0.10736658  0.09943395  0.30262649  1
  Zr  Zr78  1  0.01009353  0.79450025  0.40143696  1
  Zr  Zr79  1  0.10885876  0.69200542  0.70219291  1
  Zr  Zr80  1  0.40168793  0.01175057  0.20544182  1
  Zr  Zr81  1  0.69756014  0.90344087  0.69746138  1
  Zr  Zr82  1  -0.00147423  0.00262229  0.19321672  1
  Zr  Zr83  1  0.51265823  0.29346732  0.49090477  1
  Zr  Zr84  1  0.69859611  0.70079085  0.09970255  1
  Zr  Zr85  1  0.10124707  0.69709519  0.09028029  1
  Zr  Zr86  1  0.30041452  0.30074103  0.29283938  1
  Zr  Zr87  1  0.59105519  0.01169675  0.20801876  1
  Zr  Zr88  1  0.71104891  0.49617131  0.48959428  1
  Zr  Zr89  1  0.20560204  0.19879670  0.18876570  1
  Zr  Zr90  1  0.50090530  0.50378400  0.49701918  1
  Zr  Zr91  1  0.60512620  0.39970915  0.60830965  1
  Zr  Zr92  1  0.39352860  0.00818725  0.00637892  1
  Zr  Zr93  1  0.09935063  0.69927007  0.90054714  1
  Zr  Zr94  1  0.80269714  0.38613480  0.61312905  1
  Zr  Zr95  1  0.00745194  0.79355605  0.59483495  1
  Zr  Zr96  1  0.39940929  0.20141746  0.59776800  1
  Zr  Zr97  1  0.79698572  0.00743295  0.19745817  1
  Zr  Zr98  1  0.29987259  0.49434143  0.09699732  1
  Zr  Zr99  1  0.59225663  0.59020926  0.80333826  1
  Ta  Ta100  1  0.69815106  0.89257173  0.10096291  1
  Ta  Ta101  1  -0.00076927  0.00525738  -0.00853309  1
  Ta  Ta102  1  0.00302300  0.59532926  0.19952184  1
  Ta  Ta103  1  0.00197480  0.39422553  0.00002585  1
  Ta  Ta104  1  0.79761308  0.59698499  -0.00224031  1
  Ta  Ta105  1  0.48785841  0.69889616  0.70603660  1
  Ta  Ta106  1  0.59987270  0.79230464  -0.00368540  1
  Ta  Ta107  1  0.30861919  0.50766079  0.70165105  1
  Ta  Ta108  1  0.60050405  0.79779756  0.20710313  1
  Ta  Ta109  1  0.70028197  0.10888778  0.69657725  1
  Ta  Ta110  1  -0.00002385  0.20020047  0.39523542  1
  Ta  Ta111  1  0.80628603  0.21023904  0.78835856  1
  Ta  Ta112  1  0.00443119  0.20575001  0.20052905  1
  Ta  Ta113  1  0.49652561  0.69849644  0.89455663  1
  Ta  Ta114  1  0.00541252  0.59502605  0.60106663  1
  Ta  Ta115  1  0.09751577  0.10152617  0.09123312  1
  Ta  Ta116  1  0.20039507  0.00574211  -0.00581430  1
  Ta  Ta117  1  0.70027004  0.29025195  0.50024351  1
  Ta  Ta118  1  0.90218413  0.29676476  0.09645835  1
  Ta  Ta119  1  0.40195148  0.00086629  0.39711809  1
  Ta  Ta120  1  0.89755887  0.49363021  0.10124801  1
  Ta  Ta121  1  0.30375481  0.90465824  0.70251740  1
  Ta  Ta122  1  0.90891632  0.10247246  0.29789979  1
  Ta  Ta123  1  0.69683547  0.70212429  0.70624288  1
  Ta  Ta124  1  0.49993857  0.09234649  0.50113740  1
  Ta  Ta125  1  0.80233831  0.37744393  0.39073884  1
  Ta  Ta126  1  0.59785881  0.20105287  0.60846958  1
  Ta  Ta127  1  0.90531616  0.11342314  0.09155605  1
  Ta  Ta128  1  0.90556017  0.29517343  0.89998661  1
  Ta  Ta129  1  0.69787985  0.49894242  0.09903843  1
  Ta  Ta130  1  0.91282541  0.49695928  0.70997567  1
  Ta  Ta131  1  0.78782809  0.79754571  0.40093433  1
  Ta  Ta132  1  0.30195687  0.89993638  0.30396849  1
  Ta  Ta133  1  0.10151455  0.92026031  0.49724104  1
  Ta  Ta134  1  0.20234576  0.38777762  -0.00601032  1
  Ta  Ta135  1  0.90346083  0.49557720  0.89596883  1
  Ta  Ta136  1  0.29911315  0.91516822  0.49775109  1
  Ta  Ta137  1  0.19491897  0.59737861  0.20009333  1
  Ta  Ta138  1  0.59951413  0.40060631  0.19885816  1
  Ta  Ta139  1  0.60227183  0.60172553  -0.00580111  1
  Ta  Ta140  1  0.30569972  0.69814130  0.70242435  1
  Ta  Ta141  1  0.90383006  0.11426098  0.90164740  1
  Ta  Ta142  1  0.19723337  0.00356963  0.80520943  1
  Ta  Ta143  1  0.10418686  0.49648376  0.09650384  1
  Ta  Ta144  1  0.00175727  0.78897579  0.20154426  1
  Ta  Ta145  1  0.29930031  0.69119119  0.09763944  1
  Ta  Ta146  1  0.38914732  0.59551074  0.39506449  1
  Ta  Ta147  1  0.38690937  0.59996039  0.20857683  1
  Ta  Ta148  1  0.69881099  0.49735609  0.90218315  1
  Ta  Ta149  1  0.29935508  0.10530183  0.89860200  1
  Ti  Ti150  1  0.29551368  0.09407037  0.30492558  1
  Ti  Ti151  1  0.90322529  0.11504787  0.69131285  1
  Ti  Ti152  1  0.20498591  0.00833813  0.19241233  1
  Ti  Ti153  1  0.19466404  0.20792025  0.80988744  1
  Ti  Ti154  1  0.79498838  0.79684230  0.20539407  1
  Ti  Ti155  1  0.90170835  0.70362017  0.09718818  1
  Ti  Ti156  1  0.49669163  0.91240168  0.50051025  1
  Ti  Ti157  1  0.90554395  0.69356148  0.70473950  1
  Ti  Ti158  1  0.01079192  0.59522303  0.39720599  1
  Ti  Ti159  1  0.39442389  0.00397161  0.80186443  1
  Ti  Ti160  1  0.09929300  0.30047437  0.09523513  1
  Ti  Ti161  1  0.79368113  0.79168434  -0.00564206  1
  Ti  Ti162  1  0.69099756  0.91176762  0.49990336  1
  Ti  Ti163  1  0.00674935  0.20604937  -0.00365769  1
  Ti  Ti164  1  0.00364109  0.39669493  0.60605401  1
  Ti  Ti165  1  0.49462370  0.49557616  0.29335544  1
  Ti  Ti166  1  0.40233007  0.59174157  -0.01114826  1
  Ti  Ti167  1  0.70313107  0.69142221  0.49579079  1
  Ti  Ti168  1  0.10331238  0.10311993  0.49996742  1
  Ti  Ti169  1  0.20629976  0.19311579  0.40829291  1
  Ti  Ti170  1  0.90284524  0.89689748  0.90239266  1
  Ti  Ti171  1  0.30113184  0.49198317  0.90507558  1
  Ti  Ti172  1  0.39752499  0.19245242  0.19048945  1
  Ti  Ti173  1  0.00481819  0.38536726  0.80371747  1
  Ti  Ti174  1  0.80001743  0.79601303  0.79837120  1
  Ti  Ti175  1  0.50080372  0.09329107  0.69131922  1
  Ti  Ti176  1  0.10022216  0.91082258  0.69419627  1
  Ti  Ti177  1  0.09945858  0.10630969  0.89985860  1
  Ti  Ti178  1  0.10154972  0.68774104  0.30265512  1
  Ti  Ti179  1  0.60493512  0.39697293  0.39268086  1
  Ti  Ti180  1  0.39384645  0.21225415  0.00344246  1
  Ti  Ti181  1  0.68795855  0.28971642  0.30063533  1
  Ti  Ti182  1  0.00466538  0.20433590  0.79658346  1
  Ti  Ti183  1  -0.00035252  0.01236069  0.40502326  1
  Ti  Ti184  1  0.11366849  0.30026755  0.30704526  1
  Ti  Ti185  1  0.50932556  0.30891604  0.70858057  1
  Ti  Ti186  1  0.01546498  0.19059570  0.60902829  1
  Ti  Ti187  1  0.79965923  0.39188998  0.20308872  1
  Ti  Ti188  1  0.69772628  0.49251088  0.71206783  1
  Ti  Ti189  1  0.10790461  0.29808686  0.70317699  1
  Ti  Ti190  1  0.39046265  0.80171131  0.40053011  1
  Ti  Ti191  1  0.49224633  0.30104283  0.10232844  1
  Ti  Ti192  1  0.60005470  0.79206144  0.80260446  1
  Ti  Ti193  1  0.19526360  0.39546262  0.19298689  1
  Ti  Ti194  1  0.09535965  0.90518196  0.90071785  1
  Ti  Ti195  1  0.29405839  0.29627360  0.49924987  1
  Ti  Ti196  1  0.59935856  0.60153597  0.20107467  1
  Ti  Ti197  1  0.69458276  0.29561357  0.89892932  1
  Ti  Ti198  1  0.59920517  0.20843397  0.79808902  1
  Ti  Ti199  1  0.20541198  0.81456651  0.80011365  1
  Mo  Mo200  1  0.19801841  0.59925728  0.38551221  1
  Mo  Mo201  1  0.69086498  0.29329622  0.70574153  1
  Mo  Mo202  1  0.10188972  0.50039332  0.29275195  1
  Mo  Mo203  1  0.30808698  0.30502062  0.09865787  1
  Mo  Mo204  1  0.20596146  0.58875445  0.00345296  1
  Mo  Mo205  1  0.40455270  0.40505900  0.19956689  1
  Mo  Mo206  1  0.19789719  0.20367671  0.59972597  1
  Mo  Mo207  1  0.49900263  0.50446230  0.90665432  1
  Mo  Mo208  1  0.39595207  0.80084581  0.79145966  1
  Mo  Mo209  1  0.39893911  0.59712834  0.60703521  1
  Mo  Mo210  1  0.49747212  0.12274938  0.10130424  1
  Mo  Mo211  1  0.39003844  0.79364786  0.20804251  1
  Mo  Mo212  1  0.69932216  0.70588142  0.29785788  1
  Mo  Mo213  1  0.30163959  0.30213391  0.90298278  1
  Mo  Mo214  1  0.59432335  0.00443904  0.60159244  1
  Mo  Mo215  1  0.79399274  0.19881190  0.60353128  1
  Mo  Mo216  1  0.00409426  0.01412044  0.59892741  1
  Mo  Mo217  1  0.30157366  0.49793690  0.49997110  1
  Mo  Mo218  1  -0.00462868  0.80789964  -0.00309863  1
  Mo  Mo219  1  0.09921059  0.29805431  0.89857760  1
  Mo  Mo220  1  0.29817961  0.10139651  0.09275854  1
  Mo  Mo221  1  0.92018533  0.29601270  0.70358340  1
  Mo  Mo222  1  0.49773417  0.10615070  0.30448725  1
  Mo  Mo223  1  0.60338938  0.39737927  0.80533246  1
  Mo  Mo224  1  0.20730719  0.00443538  0.40310742  1
  Mo  Mo225  1  0.29462456  0.91185569  0.88696998  1
  Mo  Mo226  1  0.90197209  0.29442892  0.29726917  1
  Mo  Mo227  1  0.29689492  0.69698627  0.30275613  1
  Mo  Mo228  1  0.58630560  0.21109853  0.00100205  1
  Mo  Mo229  1  0.20250743  0.39388782  0.40073952  1
  Mo  Mo230  1  0.49235125  0.89753095  0.30964784  1
  Mo  Mo231  1  0.20124555  0.59379854  0.61493130  1
  Mo  Mo232  1  0.09820694  0.68122152  0.49825848  1
  Mo  Mo233  1  0.59170491  0.20452302  0.19796820  1
  Mo  Mo234  1  0.30133613  0.10003113  0.49734097  1
  Mo  Mo235  1  0.40110769  0.59707240  0.80265221  1
  Mo  Mo236  1  0.68684206  0.10606183  0.30127366  1
  Mo  Mo237  1  0.50092127  0.29825872  0.90346818  1
  Mo  Mo238  1  0.39784004  0.00048010  0.59535453  1
  Mo  Mo239  1  0.20649393  0.39692024  0.80534707  1
  Mo  Mo240  1  0.10317939  0.11102182  0.70962434  1
  Mo  Mo241  1  0.69813903  0.69979869  0.89864148  1
  Mo  Mo242  1  0.49664147  0.50307319  0.70464288  1
  Mo  Mo243  1  0.79793813  0.60501120  0.39707198  1
  Mo  Mo244  1  0.80945209  0.20608504  -0.00643613  1
  Mo  Mo245  1  0.39546361  0.39061585  0.00000506  1
  Mo  Mo246  1  -0.00660342  0.59859545  0.79874716  1
  Mo  Mo247  1  0.59873484  0.19398474  0.39233692  1
  Mo  Mo248  1  0.58558509  -0.00200229  0.39933475  1
  Mo  Mo249  1  0.91810408  0.10496649  0.50134816  1
