# generated using pymatgen
data_HfZrTaTiMo
_symmetry_space_group_name_H-M   'P 1'
_cell_length_a   16.87971018
_cell_length_b   16.88968494
_cell_length_c   16.88771533
_cell_angle_alpha   90.00435901
_cell_angle_beta   90.08224884
_cell_angle_gamma   90.00437082
_symmetry_Int_Tables_number   1
_chemical_formula_structural   HfZrTaTiMo
_chemical_formula_sum   'Hf50 Zr50 Ta50 Ti50 Mo50'
_cell_volume   4814.56421537
_cell_formula_units_Z   50
loop_
 _symmetry_equiv_pos_site_id
 _symmetry_equiv_pos_as_xyz
  1  'x, y, z'
loop_
 _atom_site_type_symbol
 _atom_site_label
 _atom_site_symmetry_multiplicity
 _atom_site_fract_x
 _atom_site_fract_y
 _atom_site_fract_z
 _atom_site_occupancy
  Hf  Hf0  1  0.00447965  0.60130218  -0.00074693  1
  Hf  Hf1  1  0.39754504  0.00487989  0.20478466  1
  Hf  Hf2  1  0.10218207  0.50291770  0.29763218  1
  Hf  Hf3  1  0.10270317  0.68538882  0.68783697  1
  Hf  Hf4  1  0.58903139  0.59646685  0.80036819  1
  Hf  Hf5  1  0.49523954  0.49820714  0.09180410  1
  Hf  Hf6  1  -0.00184345  0.40361864  0.40375154  1
  Hf  Hf7  1  0.60566377  0.40064517  0.41079966  1
  Hf  Hf8  1  -0.00166940  0.19327599  0.59474964  1
  Hf  Hf9  1  0.60395622  0.60087122  0.39507804  1
  Hf  Hf10  1  -0.00791504  0.80131364  -0.00439602  1
  Hf  Hf11  1  0.90009275  0.29999226  0.29988409  1
  Hf  Hf12  1  0.00054484  0.79751037  0.79451087  1
  Hf  Hf13  1  0.19970895  0.59403895  0.80420187  1
  Hf  Hf14  1  0.69281242  0.29660982  0.10716595  1
  Hf  Hf15  1  0.10055601  0.30134181  0.70332891  1
  Hf  Hf16  1  0.39453441  0.19641176  0.20810063  1
  Hf  Hf17  1  0.89560423  0.90209632  0.69773357  1
  Hf  Hf18  1  0.90890208  0.50861576  0.10548212  1
  Hf  Hf19  1  0.48725454  0.49459396  0.49413380  1
  Hf  Hf20  1  0.48779714  0.50175377  0.30133112  1
  Hf  Hf21  1  0.69235073  0.10060493  0.49103892  1
  Hf  Hf22  1  0.50787337  0.91124325  0.49756138  1
  Hf  Hf23  1  0.90093339  0.50175897  0.89447393  1
  Hf  Hf24  1  0.40305100  -0.00172550  0.80348781  1
  Hf  Hf25  1  0.89222270  0.90237511  0.11093843  1
  Hf  Hf26  1  0.58895498  0.40573589  0.79355599  1
  Hf  Hf27  1  0.89469656  0.10559119  0.89531445  1
  Hf  Hf28  1  0.00471022  0.00667950  0.41154310  1
  Hf  Hf29  1  0.30226990  0.70172932  0.70455852  1
  Hf  Hf30  1  0.90074057  0.29831318  0.89643946  1
  Hf  Hf31  1  0.70293349  0.90116401  0.50112368  1
  Hf  Hf32  1  0.39687623  0.00738960  0.39074947  1
  Hf  Hf33  1  0.59007684  0.60961033  0.19898320  1
  Hf  Hf34  1  0.40011999  0.20755337  0.00165310  1
  Hf  Hf35  1  0.89934111  0.28694586  0.10121982  1
  Hf  Hf36  1  0.60878558  -0.00870366  0.81107233  1
  Hf  Hf37  1  0.40629646  0.79747814  0.20289589  1
  Hf  Hf38  1  0.60925580  0.00217010  0.19536880  1
  Hf  Hf39  1  0.49686304  0.10196657  0.89968023  1
  Hf  Hf40  1  0.79240062  0.00033004  -0.00351184  1
  Hf  Hf41  1  0.69153408  0.70286962  0.89212465  1
  Hf  Hf42  1  0.39614482  0.39311900  0.60754361  1
  Hf  Hf43  1  0.09925465  0.50627542  0.51495593  1
  Hf  Hf44  1  0.81030576  0.00599410  0.39017782  1
  Hf  Hf45  1  0.39448325  0.59373775  0.59962753  1
  Hf  Hf46  1  0.49775730  0.90143132  0.09394431  1
  Hf  Hf47  1  0.53330292  0.11003684  0.30978059  1
  Hf  Hf48  1  0.18404651  -0.00219746  0.58937171  1
  Hf  Hf49  1  0.80213009  0.80363296  -0.00660929  1
  Zr  Zr50  1  0.20261577  0.20391505  0.59923704  1
  Zr  Zr51  1  0.59442451  0.19861361  0.79841728  1
  Zr  Zr52  1  0.19638424  0.39995451  0.00094174  1
  Zr  Zr53  1  0.50096164  0.89345199  0.70578720  1
  Zr  Zr54  1  0.30278140  0.50360218  0.10033793  1
  Zr  Zr55  1  0.37590394  0.38467823  0.40357024  1
  Zr  Zr56  1  0.80984629  0.00825916  0.59406810  1
  Zr  Zr57  1  0.29790227  0.49790714  0.70740724  1
  Zr  Zr58  1  0.29899352  0.89797435  0.69475823  1
  Zr  Zr59  1  0.69839299  0.49348465  0.29561158  1
  Zr  Zr60  1  0.70876392  0.10519694  0.70663602  1
  Zr  Zr61  1  0.00167968  -0.00012819  0.59818868  1
  Zr  Zr62  1  0.70503060  0.29369834  0.89193107  1
  Zr  Zr63  1  0.09659105  0.90288752  0.10332035  1
  Zr  Zr64  1  0.51758143  0.30227554  0.29474799  1
  Zr  Zr65  1  0.39821673  0.80231801  0.39278589  1
  Zr  Zr66  1  0.79780618  0.60173971  0.19714133  1
  Zr  Zr67  1  0.39624679  0.20249409  0.39871542  1
  Zr  Zr68  1  0.20427229  0.79725638  -0.00095370  1
  Zr  Zr69  1  0.70914737  0.50305942  0.69472116  1
  Zr  Zr70  1  0.90645568  0.50723385  0.69439829  1
  Zr  Zr71  1  0.80335481  0.40138785  0.19798884  1
  Zr  Zr72  1  0.89961150  0.69908116  0.30671886  1
  Zr  Zr73  1  0.80132005  0.80526368  0.80374621  1
  Zr  Zr74  1  0.69796969  0.28187723  0.29632438  1
  Zr  Zr75  1  0.39773695  0.80099101  0.59113137  1
  Zr  Zr76  1  0.10068328  0.09852917  0.71341906  1
  Zr  Zr77  1  0.71547131  0.69735184  0.50358161  1
  Zr  Zr78  1  0.19846875  -0.01142153  0.80679529  1
  Zr  Zr79  1  -0.00644556  0.00729966  0.21152092  1
  Zr  Zr80  1  0.20342285  -0.00563389  -0.00506081  1
  Zr  Zr81  1  0.79899662  0.40379540  0.00018810  1
  Zr  Zr82  1  0.10038267  0.89524234  0.31279032  1
  Zr  Zr83  1  0.69504683  0.70351824  0.09268903  1
  Zr  Zr84  1  0.58884833  0.39550817  -0.01166154  1
  Zr  Zr85  1  0.09771423  0.69983932  0.49762574  1
  Zr  Zr86  1  0.70672602  0.29938265  0.50606736  1
  Zr  Zr87  1  0.29817055  0.68870490  0.30476261  1
  Zr  Zr88  1  0.09685161  0.69435489  0.10815300  1
  Zr  Zr89  1  0.20594001  0.79977128  0.20186939  1
  Zr  Zr90  1  0.30094812  0.10257680  0.70517088  1
  Zr  Zr91  1  0.00896805  0.39485724  0.00376575  1
  Zr  Zr92  1  0.59573907  0.59325583  0.60121405  1
  Zr  Zr93  1  0.50692574  0.10013977  0.50322369  1
  Zr  Zr94  1  0.29102345  0.10635116  0.09627099  1
  Zr  Zr95  1  0.39355175  0.39205631  0.19829067  1
  Zr  Zr96  1  0.20962378  0.21240739  0.39948092  1
  Zr  Zr97  1  0.59966028  0.79809090  0.39190458  1
  Zr  Zr98  1  0.49304632  0.69487010  0.49148792  1
  Zr  Zr99  1  0.09933537  0.10556005  0.09891410  1
  Ta  Ta100  1  0.81220209  0.19664345  0.59983026  1
  Ta  Ta101  1  0.20287910  0.39988385  0.60344887  1
  Ta  Ta102  1  0.00870751  0.40050046  0.19733675  1
  Ta  Ta103  1  0.69995339  0.50534051  0.89883250  1
  Ta  Ta104  1  -0.00009625  0.39914312  0.60172225  1
  Ta  Ta105  1  0.19602250  0.79890426  0.80036017  1
  Ta  Ta106  1  0.49918399  0.70427654  0.70572824  1
  Ta  Ta107  1  0.09204883  0.89676674  0.89770112  1
  Ta  Ta108  1  0.00186461  0.80245528  0.60067312  1
  Ta  Ta109  1  0.90310128  0.88498270  0.49413162  1
  Ta  Ta110  1  0.10042389  0.49905635  0.89710894  1
  Ta  Ta111  1  0.10811111  0.10675103  0.30415763  1
  Ta  Ta112  1  0.00135091  0.20099460  0.80176125  1
  Ta  Ta113  1  0.29880222  0.11423606  0.89547693  1
  Ta  Ta114  1  0.59362601  0.39828835  0.60620838  1
  Ta  Ta115  1  0.19963870  0.39434936  0.80793990  1
  Ta  Ta116  1  0.89975025  0.29908931  0.70198457  1
  Ta  Ta117  1  0.81024607  0.19252237  0.40068812  1
  Ta  Ta118  1  0.29049250  0.49557294  0.30149434  1
  Ta  Ta119  1  0.70993577  0.90004231  0.29117169  1
  Ta  Ta120  1  0.60244716  0.79828143  0.60279662  1
  Ta  Ta121  1  -0.00787670  0.00072141  -0.00706737  1
  Ta  Ta122  1  0.59833404  0.81336102  -0.01138104  1
  Ta  Ta123  1  -0.00213854  0.59813877  0.40277480  1
  Ta  Ta124  1  0.80090980  0.40067460  0.79618437  1
  Ta  Ta125  1  0.70765555  0.30072578  0.69692947  1
  Ta  Ta126  1  0.28959095  0.29798535  0.09960093  1
  Ta  Ta127  1  0.30608435  0.69789214  0.89783390  1
  Ta  Ta128  1  0.59872538  0.79957352  0.19863375  1
  Ta  Ta129  1  0.20162831  0.59712933  -0.00378897  1
  Ta  Ta130  1  0.00302281  0.20156913  0.20837292  1
  Ta  Ta131  1  0.20520921  0.00510714  0.20935633  1
  Ta  Ta132  1  0.60566801  0.00238196  -0.00169620  1
  Ta  Ta133  1  0.60088402  0.19232333  -0.00013048  1
  Ta  Ta134  1  0.20225532  0.59160072  0.40782859  1
  Ta  Ta135  1  0.79928668  0.60284381  -0.00408912  1
  Ta  Ta136  1  0.29187678  0.90687941  0.49329398  1
  Ta  Ta137  1  -0.00377637  0.79562334  0.20707380  1
  Ta  Ta138  1  0.70728777  0.70641445  0.29754126  1
  Ta  Ta139  1  0.39922665  -0.00096741  -0.00474902  1
  Ta  Ta140  1  0.50236741  0.29475984  0.50594631  1
  Ta  Ta141  1  0.90158928  0.69765541  0.50383140  1
  Ta  Ta142  1  0.31157627  0.49143832  0.90351655  1
  Ta  Ta143  1  0.29729076  0.09627945  0.49872917  1
  Ta  Ta144  1  0.40107465  0.19908322  0.60468997  1
  Ta  Ta145  1  0.10289452  0.30909415  0.49837502  1
  Ta  Ta146  1  0.68792260  0.50274350  0.09164688  1
  Ta  Ta147  1  0.70087631  0.70447703  0.69757666  1
  Ta  Ta148  1  0.00384998  0.20099836  0.40114310  1
  Ta  Ta149  1  0.10306501  0.69803000  0.89740441  1
  Ti  Ti150  1  0.40070477  0.00596810  0.60004811  1
  Ti  Ti151  1  0.79776036  -0.00082207  0.80664414  1
  Ti  Ti152  1  0.89537169  0.10292041  0.10596990  1
  Ti  Ti153  1  0.90371953  0.50538121  0.30046637  1
  Ti  Ti154  1  0.80174289  0.80034652  0.39864269  1
  Ti  Ti155  1  0.29203145  0.69356978  0.50215985  1
  Ti  Ti156  1  0.89787940  0.89223889  0.29960368  1
  Ti  Ti157  1  0.60006969  0.00325432  0.61677713  1
  Ti  Ti158  1  0.70351160  0.89595441  0.10466992  1
  Ti  Ti159  1  0.71353785  0.50352255  0.50372427  1
  Ti  Ti160  1  0.90197675  0.30080841  0.50117886  1
  Ti  Ti161  1  0.49576258  0.70708318  0.08652671  1
  Ti  Ti162  1  0.49155636  0.71945963  0.89306020  1
  Ti  Ti163  1  0.09789242  0.69516342  0.30438657  1
  Ti  Ti164  1  0.59733273  0.20225360  0.60751655  1
  Ti  Ti165  1  0.30819792  0.69789739  0.09115751  1
  Ti  Ti166  1  0.89933706  0.70128096  0.10722120  1
  Ti  Ti167  1  0.31486708  0.88323759  0.90065270  1
  Ti  Ti168  1  0.40473235  0.60317820  -0.01117773  1
  Ti  Ti169  1  0.70209738  0.89224251  0.69795091  1
  Ti  Ti170  1  0.29125940  0.90493281  0.30702149  1
  Ti  Ti171  1  0.40171351  0.60760385  0.20046694  1
  Ti  Ti172  1  0.19194340  0.80705986  0.59914202  1
  Ti  Ti173  1  0.50353262  0.29958923  0.10281138  1
  Ti  Ti174  1  0.50129665  0.10078111  0.09871676  1
  Ti  Ti175  1  0.10013802  0.10006465  0.90000863  1
  Ti  Ti176  1  0.58938676  0.60236024  -0.01181961  1
  Ti  Ti177  1  0.79895000  0.60253288  0.79864234  1
  Ti  Ti178  1  0.10574499  0.29486597  0.11044956  1
  Ti  Ti179  1  0.51134653  0.90753312  0.29962975  1
  Ti  Ti180  1  0.89199765  0.69706403  0.68606597  1
  Ti  Ti181  1  0.80760826  0.39823348  0.60021886  1
  Ti  Ti182  1  0.70744830  0.10505872  0.10976766  1
  Ti  Ti183  1  0.30572599  0.89968548  0.09929443  1
  Ti  Ti184  1  0.00576985  0.40148008  0.79732876  1
  Ti  Ti185  1  0.19840698  0.59608184  0.19466246  1
  Ti  Ti186  1  0.90103681  0.69322375  0.89352418  1
  Ti  Ti187  1  0.00584993  0.19893573  -0.00295112  1
  Ti  Ti188  1  0.10653398  0.30776738  0.29931468  1
  Ti  Ti189  1  0.40922731  0.59266539  0.80389833  1
  Ti  Ti190  1  -0.00426657  -0.00305117  0.80335384  1
  Ti  Ti191  1  0.30282281  0.29460208  0.71911967  1
  Ti  Ti192  1  0.89451501  0.51184210  0.50385297  1
  Ti  Ti193  1  0.48096766  0.30332372  0.89165787  1
  Ti  Ti194  1  0.79132079  0.19295548  -0.00081711  1
  Ti  Ti195  1  0.80506154  0.40356807  0.40260715  1
  Ti  Ti196  1  0.00549889  0.59941514  0.79604782  1
  Ti  Ti197  1  0.19273012  0.21198383  -0.01484798  1
  Ti  Ti198  1  0.49295215  0.29414057  0.70446517  1
  Ti  Ti199  1  0.19936788  0.79928508  0.40733182  1
  Mo  Mo200  1  0.29042569  0.49560830  0.50079131  1
  Mo  Mo201  1  0.19324518  0.20312879  0.20356703  1
  Mo  Mo202  1  0.39727624  0.20115093  0.79893765  1
  Mo  Mo203  1  0.90707191  0.10846729  0.29931853  1
  Mo  Mo204  1  0.20084363  0.00563617  0.40186335  1
  Mo  Mo205  1  0.71207852  0.09840490  0.29473342  1
  Mo  Mo206  1  0.80562757  0.18901322  0.20238954  1
  Mo  Mo207  1  0.59931208  0.79789176  0.79683353  1
  Mo  Mo208  1  0.49942319  0.69732152  0.29255136  1
  Mo  Mo209  1  0.80253995  0.80073707  0.60129490  1
  Mo  Mo210  1  0.50010530  0.90222250  0.90517447  1
  Mo  Mo211  1  0.80718075  0.20250130  0.79281185  1
  Mo  Mo212  1  0.79974925  0.00170059  0.20044569  1
  Mo  Mo213  1  0.27979944  0.30378199  0.28096937  1
  Mo  Mo214  1  0.38597295  0.59339562  0.40006203  1
  Mo  Mo215  1  0.80223636  0.60466132  0.60049964  1
  Mo  Mo216  1  0.69964081  0.90038643  0.90160682  1
  Mo  Mo217  1  0.59917904  0.19094469  0.17971212  1
  Mo  Mo218  1  0.39708767  0.39503133  0.80286750  1
  Mo  Mo219  1  0.09693641  0.29929553  0.89534097  1
  Mo  Mo220  1  0.48993244  0.49884836  0.89979478  1
  Mo  Mo221  1  0.10005439  0.88746416  0.50044881  1
  Mo  Mo222  1  0.28999311  0.10016091  0.30076231  1
  Mo  Mo223  1  0.39778244  0.79737106  0.80286421  1
  Mo  Mo224  1  0.40217784  0.79801465  0.00011953  1
  Mo  Mo225  1  0.90118525  0.10280100  0.71014401  1
  Mo  Mo226  1  0.60982254  0.20892205  0.41542750  1
  Mo  Mo227  1  0.90336600  0.91029745  0.89681804  1
  Mo  Mo228  1  0.19383337  0.40017041  0.19754320  1
  Mo  Mo229  1  0.19552337  0.40210003  0.40558792  1
  Mo  Mo230  1  0.09919920  0.49272331  0.70467051  1
  Mo  Mo231  1  0.70069013  0.10057053  0.90668514  1
  Mo  Mo232  1  0.49442971  0.49775517  0.70047329  1
  Mo  Mo233  1  0.79847919  0.80107530  0.20041328  1
  Mo  Mo234  1  0.90307175  0.10749157  0.49506150  1
  Mo  Mo235  1  -0.00596681  0.60152048  0.59876546  1
  Mo  Mo236  1  0.20539291  0.59525838  0.60008461  1
  Mo  Mo237  1  0.29836709  0.30111573  0.90102662  1
  Mo  Mo238  1  0.39526371  0.38889232  -0.00096547  1
  Mo  Mo239  1  0.10285363  0.50224413  0.10366678  1
  Mo  Mo240  1  0.10307618  0.11372050  0.48999364  1
  Mo  Mo241  1  -0.00252102  0.79610979  0.40095058  1
  Mo  Mo242  1  0.59422544  0.40830104  0.18788920  1
  Mo  Mo243  1  0.19754554  0.20695063  0.81173843  1
  Mo  Mo244  1  0.61281629  -0.00747657  0.38857308  1
  Mo  Mo245  1  0.09552497  0.89110939  0.70333080  1
  Mo  Mo246  1  0.30043996  0.29892556  0.51969596  1
  Mo  Mo247  1  0.50063025  0.09895528  0.69765544  1
  Mo  Mo248  1  0.00276772  0.60199656  0.20693540  1
  Mo  Mo249  1  0.80530676  0.59234483  0.40325462  1
