# generated using pymatgen
data_HfZrTaTiMo
_symmetry_space_group_name_H-M   'P 1'
_cell_length_a   16.89631069
_cell_length_b   16.89476506
_cell_length_c   16.89651518
_cell_angle_alpha   89.99367257
_cell_angle_beta   90.03997106
_cell_angle_gamma   90.04103020
_symmetry_Int_Tables_number   1
_chemical_formula_structural   HfZrTaTiMo
_chemical_formula_sum   'Hf50 Zr50 Ta50 Ti50 Mo50'
_cell_volume   4823.26326045
_cell_formula_units_Z   50
loop_
 _symmetry_equiv_pos_site_id
 _symmetry_equiv_pos_as_xyz
  1  'x, y, z'
loop_
 _atom_site_type_symbol
 _atom_site_label
 _atom_site_symmetry_multiplicity
 _atom_site_fract_x
 _atom_site_fract_y
 _atom_site_fract_z
 _atom_site_occupancy
  Hf  Hf0  1  0.59981414  0.40580205  0.02919813  1
  Hf  Hf1  1  0.30579393  0.10595681  0.10508900  1
  Hf  Hf2  1  0.80175763  0.40015506  0.79040023  1
  Hf  Hf3  1  0.09847639  0.50038393  0.70040503  1
  Hf  Hf4  1  0.19931382  0.20394300  0.00032650  1
  Hf  Hf5  1  0.40064691  0.79802298  -0.00042579  1
  Hf  Hf6  1  0.70124411  0.90590011  0.71086714  1
  Hf  Hf7  1  0.21114868  0.40674386  0.80234610  1
  Hf  Hf8  1  0.60289832  0.19970047  0.41075894  1
  Hf  Hf9  1  0.69344819  0.49831979  0.89555397  1
  Hf  Hf10  1  0.08775634  0.90396373  0.69971517  1
  Hf  Hf11  1  0.19273978  0.78985222  0.80146740  1
  Hf  Hf12  1  0.49835246  0.09423167  0.30151332  1
  Hf  Hf13  1  0.19919894  0.00524754  0.20565833  1
  Hf  Hf14  1  0.90176225  0.50046118  0.69072139  1
  Hf  Hf15  1  0.48879913  0.10358580  0.10004197  1
  Hf  Hf16  1  0.69706193  0.90009066  0.30416253  1
  Hf  Hf17  1  0.69496734  0.90169391  0.50139600  1
  Hf  Hf18  1  0.40405761  0.00121952  0.60098980  1
  Hf  Hf19  1  0.19399444  0.59292563  0.39569059  1
  Hf  Hf20  1  0.70637005  0.10281769  0.30704965  1
  Hf  Hf21  1  0.79275462  0.40117692  0.00820960  1
  Hf  Hf22  1  0.59181168  0.00546071  0.60547759  1
  Hf  Hf23  1  0.80711701  0.00051850  0.40688213  1
  Hf  Hf24  1  0.29082120  0.89288761  0.48646552  1
  Hf  Hf25  1  0.79569842  0.59769495  0.19707913  1
  Hf  Hf26  1  0.79574194  0.60323190  0.79220573  1
  Hf  Hf27  1  0.70305391  0.89704803  0.09307428  1
  Hf  Hf28  1  0.10298293  0.70170435  0.49748471  1
  Hf  Hf29  1  0.19558933  0.79169861  0.00375179  1
  Hf  Hf30  1  0.40822442  0.19569887  0.79826861  1
  Hf  Hf31  1  0.90313921  0.30043420  0.90711413  1
  Hf  Hf32  1  0.40111567  0.80253619  0.60468332  1
  Hf  Hf33  1  0.80304573  0.60497542  0.40554410  1
  Hf  Hf34  1  0.09638313  0.30037607  0.89447330  1
  Hf  Hf35  1  0.39022270  0.79506483  0.37703189  1
  Hf  Hf36  1  -0.01141579  0.79926912  0.40589275  1
  Hf  Hf37  1  0.80183592  0.61599988  0.59547783  1
  Hf  Hf38  1  0.30216698  0.49948536  0.10222083  1
  Hf  Hf39  1  0.50305808  0.49075353  0.69750261  1
  Hf  Hf40  1  0.50005817  0.70528655  0.49591694  1
  Hf  Hf41  1  0.19565039  0.00874084  0.80457599  1
  Hf  Hf42  1  0.59751140  0.19726769  -0.00125514  1
  Hf  Hf43  1  -0.01503506  0.01179465  0.81291931  1
  Hf  Hf44  1  0.59362048  0.59448226  0.00383718  1
  Hf  Hf45  1  0.69581310  0.71017821  0.90007072  1
  Hf  Hf46  1  0.40688252  0.39991722  0.20349568  1
  Hf  Hf47  1  0.40382142  -0.00071324  -0.00607820  1
  Hf  Hf48  1  0.51329257  0.29352374  0.70110916  1
  Hf  Hf49  1  0.60362462  0.21101087  0.19775531  1
  Zr  Zr50  1  0.39694233  0.59301754  0.79761882  1
  Zr  Zr51  1  0.30063286  0.89750514  0.89855544  1
  Zr  Zr52  1  0.30566892  0.10685087  0.90218985  1
  Zr  Zr53  1  0.80282687  0.79573121  0.41472954  1
  Zr  Zr54  1  0.69397801  0.49038236  0.30680722  1
  Zr  Zr55  1  0.39486323  0.38677141  0.59696899  1
  Zr  Zr56  1  0.90681086  0.49899581  0.10501470  1
  Zr  Zr57  1  0.00354486  0.20657796  0.39934279  1
  Zr  Zr58  1  0.50273845  0.70354180  0.89700705  1
  Zr  Zr59  1  0.90884990  0.50215288  0.90056505  1
  Zr  Zr60  1  0.30154479  0.68972678  0.10226629  1
  Zr  Zr61  1  0.61256277  0.60296144  0.60442909  1
  Zr  Zr62  1  0.69651549  0.70551797  0.09990783  1
  Zr  Zr63  1  0.19782797  0.79287736  0.60920228  1
  Zr  Zr64  1  0.20884299  0.79361939  0.20522553  1
  Zr  Zr65  1  0.59192278  0.80297717  0.20230231  1
  Zr  Zr66  1  0.29885657  0.49471295  0.30057053  1
  Zr  Zr67  1  0.00011186  0.59327883  0.39766153  1
  Zr  Zr68  1  0.89329045  0.90150375  0.69988787  1
  Zr  Zr69  1  0.50410721  0.90283062  0.47459700  1
  Zr  Zr70  1  0.59654726  0.80201488  0.60636783  1
  Zr  Zr71  1  0.69185807  0.10459429  0.70420183  1
  Zr  Zr72  1  0.09381439  0.10548803  0.69905987  1
  Zr  Zr73  1  0.09947848  0.90108414  0.50152845  1
  Zr  Zr74  1  0.59734254  0.00105836  0.19713560  1
  Zr  Zr75  1  0.80926856  -0.00052660  -0.01082582  1
  Zr  Zr76  1  0.80967216  0.19474974  0.80420419  1
  Zr  Zr77  1  0.20319538  0.00644012  0.59738710  1
  Zr  Zr78  1  0.39946662  0.60004131  0.39486431  1
  Zr  Zr79  1  0.61086620  0.60731747  0.40655393  1
  Zr  Zr80  1  0.89349022  0.30362081  0.30240983  1
  Zr  Zr81  1  0.50433656  0.49240021  0.49877440  1
  Zr  Zr82  1  -0.00293610  0.79043563  0.00462457  1
  Zr  Zr83  1  0.50386121  0.31128857  0.89401388  1
  Zr  Zr84  1  0.89798196  0.48983090  0.30029823  1
  Zr  Zr85  1  0.39718789  0.20337873  0.40461706  1
  Zr  Zr86  1  0.69325257  0.29902737  0.89679313  1
  Zr  Zr87  1  -0.00270409  0.00561824  0.39722723  1
  Zr  Zr88  1  0.10059895  0.89326214  0.30514456  1
  Zr  Zr89  1  0.19865176  0.40478101  -0.00382448  1
  Zr  Zr90  1  0.30678557  0.29781167  0.09700242  1
  Zr  Zr91  1  0.19236593  0.59205212  -0.00460037  1
  Zr  Zr92  1  0.09089858  0.89994740  0.10556179  1
  Zr  Zr93  1  0.09200752  0.90262162  0.90496867  1
  Zr  Zr94  1  0.30300606  0.90384056  0.70809404  1
  Zr  Zr95  1  0.71053164  0.10181802  0.09286893  1
  Zr  Zr96  1  0.20933730  0.20512176  0.59654218  1
  Zr  Zr97  1  -0.00474565  0.21266572  0.59413486  1
  Zr  Zr98  1  0.90372332  0.29731026  0.10695339  1
  Zr  Zr99  1  0.69500885  0.29493444  0.69860621  1
  Ta  Ta100  1  0.29585068  0.69648879  0.49705661  1
  Ta  Ta101  1  0.20164855  0.01445396  0.39194483  1
  Ta  Ta102  1  0.40557292  0.59094419  -0.00287461  1
  Ta  Ta103  1  0.09176766  0.68712494  0.89581269  1
  Ta  Ta104  1  0.19580988  0.40010069  0.59495309  1
  Ta  Ta105  1  0.09009725  0.69913908  0.29198196  1
  Ta  Ta106  1  -0.00527224  0.78961843  0.79794479  1
  Ta  Ta107  1  0.89635790  0.89578971  0.28721659  1
  Ta  Ta108  1  0.60616158  0.60022784  0.78935399  1
  Ta  Ta109  1  0.90409534  0.10160605  0.10059599  1
  Ta  Ta110  1  0.77615630  0.39612335  0.18947997  1
  Ta  Ta111  1  0.79951673  0.20104498  0.59103218  1
  Ta  Ta112  1  0.50833313  0.49414249  0.30185566  1
  Ta  Ta113  1  0.80901994  0.38753263  0.59820753  1
  Ta  Ta114  1  0.51056164  0.30832811  0.30901506  1
  Ta  Ta115  1  0.89482390  0.10597190  0.29270401  1
  Ta  Ta116  1  0.49734982  0.69947196  0.10228600  1
  Ta  Ta117  1  0.89561606  0.10242272  0.69370842  1
  Ta  Ta118  1  0.70294621  0.70846872  0.29773568  1
  Ta  Ta119  1  0.19566521  0.39661664  0.20483396  1
  Ta  Ta120  1  0.70952482  0.48673028  0.50315008  1
  Ta  Ta121  1  0.20090118  0.59409608  0.59966288  1
  Ta  Ta122  1  0.00072889  0.60088140  0.59330762  1
  Ta  Ta123  1  0.70138812  0.30288751  0.30876411  1
  Ta  Ta124  1  0.10362923  0.30314265  0.70046304  1
  Ta  Ta125  1  0.80546738  0.79876781  -0.00228265  1
  Ta  Ta126  1  0.89958490  0.49286470  0.49939697  1
  Ta  Ta127  1  0.29922059  0.69277782  0.89704636  1
  Ta  Ta128  1  0.59731253  -0.00716694  -0.01482770  1
  Ta  Ta129  1  0.19688530  0.00412324  0.00629032  1
  Ta  Ta130  1  0.89960782  0.69488005  0.90180671  1
  Ta  Ta131  1  0.18058188  0.58926698  0.19958216  1
  Ta  Ta132  1  0.09443402  0.10378839  0.90876348  1
  Ta  Ta133  1  0.10219629  0.10485840  0.49515726  1
  Ta  Ta134  1  0.40923418  0.19414483  0.59761785  1
  Ta  Ta135  1  0.09821501  0.29806669  0.10603515  1
  Ta  Ta136  1  0.80003991  0.60287469  0.00225169  1
  Ta  Ta137  1  0.40013616  0.39261414  0.40192035  1
  Ta  Ta138  1  0.29724205  0.49802870  0.50157812  1
  Ta  Ta139  1  0.09631104  0.10246725  0.10203812  1
  Ta  Ta140  1  -0.00063621  0.19794904  0.00335447  1
  Ta  Ta141  1  0.79974663  0.00648435  0.59458724  1
  Ta  Ta142  1  0.00559517  0.39719883  0.59105690  1
  Ta  Ta143  1  0.89945096  0.70529825  0.28736987  1
  Ta  Ta144  1  0.39967960  0.80305344  0.20279167  1
  Ta  Ta145  1  -0.01526208  0.78931980  0.60167414  1
  Ta  Ta146  1  0.49739621  0.89866513  0.09621617  1
  Ta  Ta147  1  0.19739173  0.20455702  0.21022307  1
  Ta  Ta148  1  0.19977257  0.20184251  0.39303516  1
  Ta  Ta149  1  -0.00301359  0.00604071  0.20341973  1
  Ti  Ti150  1  0.09578206  0.69188071  0.70002339  1
  Ti  Ti151  1  0.39138185  -0.00522479  0.38634928  1
  Ti  Ti152  1  0.42335354  0.00067034  0.79974832  1
  Ti  Ti153  1  0.40506550  0.60378204  0.20528353  1
  Ti  Ti154  1  0.40790237  0.41101277  -0.00047150  1
  Ti  Ti155  1  0.30384525  0.90551744  0.10506743  1
  Ti  Ti156  1  0.20274889  0.20252146  0.80030937  1
  Ti  Ti157  1  0.10200801  0.30385534  0.30195244  1
  Ti  Ti158  1  0.40448418  0.80225002  0.79859863  1
  Ti  Ti159  1  -0.00814633  0.60721336  0.79089828  1
  Ti  Ti160  1  0.90168264  0.70204506  0.10749774  1
  Ti  Ti161  1  0.50282995  0.09574274  0.49459157  1
  Ti  Ti162  1  -0.01224841  0.00341776  0.58870914  1
  Ti  Ti163  1  0.31548995  0.30734492  0.89940306  1
  Ti  Ti164  1  0.39584902  0.60208120  0.59838937  1
  Ti  Ti165  1  0.01074363  0.40204696  0.00771516  1
  Ti  Ti166  1  0.59855061  0.59070532  0.19565442  1
  Ti  Ti167  1  0.90146331  0.89942217  0.10513706  1
  Ti  Ti168  1  0.70643270  0.29849887  0.49540116  1
  Ti  Ti169  1  0.39709222  0.21374025  0.21596029  1
  Ti  Ti170  1  0.30091509  0.69441847  0.70099110  1
  Ti  Ti171  1  0.50247890  0.49245947  0.88696374  1
  Ti  Ti172  1  0.30191302  0.09863973  0.49443046  1
  Ti  Ti173  1  0.69710538  0.09886322  0.89747268  1
  Ti  Ti174  1  0.60836309  0.39252565  0.59311534  1
  Ti  Ti175  1  0.30302518  0.29897327  0.70445880  1
  Ti  Ti176  1  0.01039384  0.39823724  0.41065824  1
  Ti  Ti177  1  0.59187255  0.81740273  0.80609293  1
  Ti  Ti178  1  0.49989924  0.70001685  0.70398535  1
  Ti  Ti179  1  -0.00514286  0.39077286  0.78643441  1
  Ti  Ti180  1  0.80474986  0.00015707  0.19854920  1
  Ti  Ti181  1  0.00490151  0.59985767  0.01262993  1
  Ti  Ti182  1  0.29620737  0.30175598  0.49376999  1
  Ti  Ti183  1  0.00785127  0.19681864  0.20516299  1
  Ti  Ti184  1  0.79566466  0.20562434  0.19613984  1
  Ti  Ti185  1  0.90263504  0.89358334  0.90298097  1
  Ti  Ti186  1  0.49242684  0.29648992  0.10017676  1
  Ti  Ti187  1  0.20431798  0.59493751  0.80075462  1
  Ti  Ti188  1  0.80106514  0.00335352  0.80837768  1
  Ti  Ti189  1  0.89484696  0.11099978  0.49530228  1
  Ti  Ti190  1  0.19434099  0.39776535  0.40223190  1
  Ti  Ti191  1  0.30316098  0.49653534  0.69412646  1
  Ti  Ti192  1  0.80715026  0.80015173  0.80595083  1
  Ti  Ti193  1  0.70517260  0.71843142  0.70240360  1
  Ti  Ti194  1  0.50975373  0.69719103  0.29743160  1
  Ti  Ti195  1  0.30612649  0.10140210  0.70233755  1
  Ti  Ti196  1  0.30491804  0.10146736  0.29535823  1
  Ti  Ti197  1  0.01596301  0.40795354  0.20475365  1
  Ti  Ti198  1  0.08777774  0.50180087  0.89045184  1
  Ti  Ti199  1  -0.00450089  0.20076399  0.79874745  1
  Mo  Mo200  1  0.90604196  0.29809054  0.69566873  1
  Mo  Mo201  1  0.60076551  0.39449838  0.40913174  1
  Mo  Mo202  1  0.89809620  0.90192629  0.51179680  1
  Mo  Mo203  1  0.70334826  0.89725103  0.89795207  1
  Mo  Mo204  1  0.10968153  0.30309506  0.49620680  1
  Mo  Mo205  1  0.09756845  0.49187684  0.30194488  1
  Mo  Mo206  1  0.50576925  0.09743204  0.89812171  1
  Mo  Mo207  1  0.60150332  0.00469780  0.40004216  1
  Mo  Mo208  1  0.70010684  0.70913314  0.49991744  1
  Mo  Mo209  1  0.09745978  0.10717027  0.29682733  1
  Mo  Mo210  1  0.20208832  0.78378145  0.39213184  1
  Mo  Mo211  1  0.28908036  0.68988215  0.29608290  1
  Mo  Mo212  1  0.40413166  0.20656752  -0.00563243  1
  Mo  Mo213  1  -0.00565598  0.79944125  0.19992097  1
  Mo  Mo214  1  0.39679116  0.39663885  0.79667236  1
  Mo  Mo215  1  0.89993605  0.70069630  0.70452741  1
  Mo  Mo216  1  0.59568396  0.18285757  0.80790099  1
  Mo  Mo217  1  0.31239166  0.49940606  0.90041949  1
  Mo  Mo218  1  0.89668534  0.30521081  0.49596303  1
  Mo  Mo219  1  0.80340015  0.80153258  0.19433549  1
  Mo  Mo220  1  0.59701764  -0.00208416  0.80721315  1
  Mo  Mo221  1  0.80457473  0.19734951  0.00135704  1
  Mo  Mo222  1  0.49998041  0.90247099  0.71094667  1
  Mo  Mo223  1  0.79986143  0.80517776  0.60517837  1
  Mo  Mo224  1  0.49257974  0.90509091  0.29138140  1
  Mo  Mo225  1  0.10125968  0.49614621  0.50320622  1
  Mo  Mo226  1  0.49426109  0.50880860  0.11357146  1
  Mo  Mo227  1  0.09831749  0.49283681  0.10471230  1
  Mo  Mo228  1  0.29734429  0.30152250  0.30420295  1
  Mo  Mo229  1  0.29811786  0.90885052  0.29665831  1
  Mo  Mo230  1  0.09084845  0.68992299  0.10443281  1
  Mo  Mo231  1  0.59982075  0.79822483  0.39155106  1
  Mo  Mo232  1  0.70218989  0.49491943  0.68993220  1
  Mo  Mo233  1  0.70046095  0.29233594  0.10254168  1
  Mo  Mo234  1  0.50428093  0.29515384  0.50372841  1
  Mo  Mo235  1  0.70232856  0.10066064  0.50378294  1
  Mo  Mo236  1  0.59652599  0.39753818  0.20476410  1
  Mo  Mo237  1  0.79744984  0.39466791  0.40838476  1
  Mo  Mo238  1  0.50345348  0.89865572  0.90050935  1
  Mo  Mo239  1  -0.00111133  0.00627772  0.00883950  1
  Mo  Mo240  1  0.00029175  0.60221038  0.19918286  1
  Mo  Mo241  1  0.60713601  0.41584509  0.78498068  1
  Mo  Mo242  1  0.59930198  0.19764032  0.58770155  1
  Mo  Mo243  1  0.69767514  0.50875228  0.10246294  1
  Mo  Mo244  1  0.80138449  0.19993620  0.40333556  1
  Mo  Mo245  1  0.50005469  0.10087810  0.69974634  1
  Mo  Mo246  1  0.59652490  0.80632392  -0.00005949  1
  Mo  Mo247  1  0.39580848  -0.00990787  0.20012408  1
  Mo  Mo248  1  0.90258549  0.10808850  0.90631142  1
  Mo  Mo249  1  0.90351872  0.69644186  0.50498462  1
