# generated using pymatgen
data_HfZrTaTiMo
_symmetry_space_group_name_H-M   'P 1'
_cell_length_a   16.88597699
_cell_length_b   16.87383964
_cell_length_c   16.87470225
_cell_angle_alpha   89.97876491
_cell_angle_beta   89.96385473
_cell_angle_gamma   89.96016072
_symmetry_Int_Tables_number   1
_chemical_formula_structural   HfZrTaTiMo
_chemical_formula_sum   'Hf50 Zr50 Ta50 Ti50 Mo50'
_cell_volume   4808.12785886
_cell_formula_units_Z   50
loop_
 _symmetry_equiv_pos_site_id
 _symmetry_equiv_pos_as_xyz
  1  'x, y, z'
loop_
 _atom_site_type_symbol
 _atom_site_label
 _atom_site_symmetry_multiplicity
 _atom_site_fract_x
 _atom_site_fract_y
 _atom_site_fract_z
 _atom_site_occupancy
  Hf  Hf0  1  -0.00127741  0.39332497  0.60477698  1
  Hf  Hf1  1  0.40471239  0.40426067  0.39343412  1
  Hf  Hf2  1  0.20021150  0.39971921  0.19572104  1
  Hf  Hf3  1  0.08642578  0.70202451  0.89980031  1
  Hf  Hf4  1  0.50683376  0.10375621  0.70310735  1
  Hf  Hf5  1  0.60429577  0.79805619  0.80125155  1
  Hf  Hf6  1  0.89562219  0.09126267  0.70091439  1
  Hf  Hf7  1  0.80229096  0.80581186  0.79973674  1
  Hf  Hf8  1  0.50717260  0.28844857  0.49389384  1
  Hf  Hf9  1  0.19137056  0.00788960  0.60686331  1
  Hf  Hf10  1  0.90178616  0.90195656  0.09357069  1
  Hf  Hf11  1  0.60815443  0.19956081  0.60192199  1
  Hf  Hf12  1  0.50536289  0.90734616  0.91023945  1
  Hf  Hf13  1  0.51366627  0.89809769  0.50877005  1
  Hf  Hf14  1  0.19732856  -0.00523837  0.38468480  1
  Hf  Hf15  1  0.79766344  0.79252169  0.19534104  1
  Hf  Hf16  1  0.09382582  0.90749551  0.70340317  1
  Hf  Hf17  1  0.30414746  0.29693832  0.28534753  1
  Hf  Hf18  1  0.60589848  0.19755145  0.19662503  1
  Hf  Hf19  1  -0.00700100  0.80268963  0.60301573  1
  Hf  Hf20  1  0.69801096  0.50940915  0.69886351  1
  Hf  Hf21  1  0.41023063  -0.00600067  0.39702532  1
  Hf  Hf22  1  0.79476336  0.60376759  0.40180051  1
  Hf  Hf23  1  -0.00586072  0.59828659  0.60425476  1
  Hf  Hf24  1  0.70861358  0.30125908  0.30161332  1
  Hf  Hf25  1  0.30789852  0.70189016  0.50066977  1
  Hf  Hf26  1  0.30586429  0.09065780  0.27278669  1
  Hf  Hf27  1  0.40521964  0.39800924  -0.00193308  1
  Hf  Hf28  1  0.70842467  0.89457765  0.30243858  1
  Hf  Hf29  1  0.50055315  0.29608783  0.28945242  1
  Hf  Hf30  1  0.60614004  0.00055451  0.20407063  1
  Hf  Hf31  1  0.59659279  0.60171484  -0.00116031  1
  Hf  Hf32  1  0.30114070  0.70756822  0.69834517  1
  Hf  Hf33  1  0.79467041  0.39459419  0.80671718  1
  Hf  Hf34  1  0.01045697  0.19328299  0.60312560  1
  Hf  Hf35  1  0.88869882  0.49540732  0.91076618  1
  Hf  Hf36  1  0.60950744  0.39105362  0.60316751  1
  Hf  Hf37  1  0.88903418  0.49524454  0.50754521  1
  Hf  Hf38  1  -0.00752983  0.18495973  0.19528788  1
  Hf  Hf39  1  0.89734895  0.28822987  0.70942690  1
  Hf  Hf40  1  0.19583711  0.80737301  0.80217155  1
  Hf  Hf41  1  0.08372922  0.91244498  0.49824198  1
  Hf  Hf42  1  0.69764104  0.89873161  0.09264695  1
  Hf  Hf43  1  0.69382999  0.69863980  0.51177743  1
  Hf  Hf44  1  0.29857400  0.91028239  0.90482131  1
  Hf  Hf45  1  0.70020856  0.09378125  0.49565958  1
  Hf  Hf46  1  0.89911275  0.29507814  0.30371910  1
  Hf  Hf47  1  0.69782943  0.10615010  0.89267119  1
  Hf  Hf48  1  0.89541963  0.09802547  0.88821270  1
  Hf  Hf49  1  0.20537135  0.60664887  0.80582884  1
  Zr  Zr50  1  0.20791810  0.60014977  0.00639667  1
  Zr  Zr51  1  0.89389690  0.30819228  0.09566182  1
  Zr  Zr52  1  0.30005396  0.29849812  0.70550570  1
  Zr  Zr53  1  0.88950082  0.49579715  0.30413723  1
  Zr  Zr54  1  0.51158621  0.69737659  0.69206180  1
  Zr  Zr55  1  0.00165325  0.19251983  -0.00059064  1
  Zr  Zr56  1  0.08983298  0.70635150  0.09405260  1
  Zr  Zr57  1  0.19447894  0.39503903  0.59228241  1
  Zr  Zr58  1  0.50453679  0.50852032  0.50393745  1
  Zr  Zr59  1  0.30765037  0.70048812  0.30179754  1
  Zr  Zr60  1  0.50034985  0.90123186  0.10045560  1
  Zr  Zr61  1  0.19960964  0.59851767  0.40718410  1
  Zr  Zr62  1  0.41031928  0.60340081  0.81124339  1
  Zr  Zr63  1  0.09948771  0.50231105  0.30195662  1
  Zr  Zr64  1  0.19585188  0.80819148  0.00223726  1
  Zr  Zr65  1  0.19993169  0.40183359  0.00964824  1
  Zr  Zr66  1  0.30495210  0.92414605  0.10159441  1
  Zr  Zr67  1  0.40456113  0.60081923  -0.00274332  1
  Zr  Zr68  1  0.09045100  0.70096634  0.30230453  1
  Zr  Zr69  1  0.79330561  0.20063582  0.60017889  1
  Zr  Zr70  1  0.31889330  0.89542516  0.28844371  1
  Zr  Zr71  1  0.39912085  0.00186025  0.60270170  1
  Zr  Zr72  1  0.19111519  0.80562463  0.40123585  1
  Zr  Zr73  1  0.39717681  0.19429743  0.39701208  1
  Zr  Zr74  1  0.70363631  0.90449239  0.90270713  1
  Zr  Zr75  1  0.49795112  0.70409506  0.29935552  1
  Zr  Zr76  1  0.70927706  0.89353310  0.50720842  1
  Zr  Zr77  1  -0.00612588  0.80525081  0.20334895  1
  Zr  Zr78  1  0.50545387  0.10700454  0.90924436  1
  Zr  Zr79  1  0.60534481  0.40063110  0.39669918  1
  Zr  Zr80  1  0.00694599  0.39652280  0.40462357  1
  Zr  Zr81  1  0.19039630  0.81444404  0.20282157  1
  Zr  Zr82  1  0.00175628  0.40636463  0.19027785  1
  Zr  Zr83  1  0.19983080  0.59757177  0.19131098  1
  Zr  Zr84  1  0.19783422  0.19570696  0.60207778  1
  Zr  Zr85  1  0.89133060  0.69716937  0.69955822  1
  Zr  Zr86  1  0.39757492  0.00264638  0.79960830  1
  Zr  Zr87  1  0.10321341  0.50431565  0.70318154  1
  Zr  Zr88  1  -0.00745326  0.61055839  0.41133511  1
  Zr  Zr89  1  0.90631255  0.09493649  0.49708863  1
  Zr  Zr90  1  -0.00588977  0.39872324  0.80382599  1
  Zr  Zr91  1  0.48965772  0.09897263  0.09696365  1
  Zr  Zr92  1  0.69706577  0.30305899  0.09565871  1
  Zr  Zr93  1  0.40436679  0.39505190  0.60177048  1
  Zr  Zr94  1  0.30022620  0.29514862  0.90474784  1
  Zr  Zr95  1  0.29671511  0.09703966  0.49564776  1
  Zr  Zr96  1  0.30327343  0.49977111  0.70066838  1
  Zr  Zr97  1  0.41225521  0.59438995  0.19873377  1
  Zr  Zr98  1  0.80415529  0.21033396  -0.01146416  1
  Zr  Zr99  1  0.09789743  0.50025988  0.90228494  1
  Ta  Ta100  1  0.41462439  0.39978027  0.80906535  1
  Ta  Ta101  1  0.31474208  0.71834135  0.10715226  1
  Ta  Ta102  1  0.10389271  0.29333868  0.71440165  1
  Ta  Ta103  1  0.09401445  0.09932731  0.48248119  1
  Ta  Ta104  1  0.80405877  0.00083349  0.39342640  1
  Ta  Ta105  1  0.70248183  0.50071963  0.50270388  1
  Ta  Ta106  1  0.70272662  0.70021622  0.90524569  1
  Ta  Ta107  1  0.69822664  0.09898360  0.08750765  1
  Ta  Ta108  1  -0.00942237  0.80835839  0.80532832  1
  Ta  Ta109  1  0.50266398  0.70020846  0.50087300  1
  Ta  Ta110  1  0.50805539  0.89771133  0.69901633  1
  Ta  Ta111  1  0.70004227  0.69806650  0.29935889  1
  Ta  Ta112  1  0.60801323  -0.00043604  0.79318576  1
  Ta  Ta113  1  0.30375452  0.50204883  0.49577757  1
  Ta  Ta114  1  0.89418584  0.90419892  0.50060506  1
  Ta  Ta115  1  0.60668584  0.59998996  0.19544060  1
  Ta  Ta116  1  0.29943317  0.89737359  0.50467297  1
  Ta  Ta117  1  0.10166959  0.29434551  0.90370121  1
  Ta  Ta118  1  0.70108392  0.49882670  0.09511194  1
  Ta  Ta119  1  0.50670847  0.70981329  0.09729531  1
  Ta  Ta120  1  0.19851762  0.19745567  0.38775205  1
  Ta  Ta121  1  0.40241174  0.19830326  0.60354275  1
  Ta  Ta122  1  0.30938514  0.49909721  0.30135852  1
  Ta  Ta123  1  0.50452879  0.10140204  0.29989973  1
  Ta  Ta124  1  0.10263059  0.29301811  0.09954272  1
  Ta  Ta125  1  0.89714344  0.29613319  0.49446921  1
  Ta  Ta126  1  0.40333674  0.80420877  0.60179192  1
  Ta  Ta127  1  0.51237634  0.09842253  0.49713444  1
  Ta  Ta128  1  0.10051878  0.28900494  0.29440350  1
  Ta  Ta129  1  0.89519614  0.70048688  0.09047658  1
  Ta  Ta130  1  0.49451757  0.29449610  0.09610512  1
  Ta  Ta131  1  0.79619319  0.39273463  0.60450050  1
  Ta  Ta132  1  0.20012635  0.19191570  0.00486655  1
  Ta  Ta133  1  0.60267327  0.79744654  0.39800014  1
  Ta  Ta134  1  0.20336216  0.39358558  0.39725507  1
  Ta  Ta135  1  0.09577619  0.70394387  0.70323872  1
  Ta  Ta136  1  0.80486506  0.00429967  -0.00335578  1
  Ta  Ta137  1  0.59727620  0.40764138  0.19715617  1
  Ta  Ta138  1  0.50704924  0.29733340  0.71302995  1
  Ta  Ta139  1  0.51036630  0.49867613  0.70556743  1
  Ta  Ta140  1  0.70055551  0.50213388  0.29585704  1
  Ta  Ta141  1  0.40084841  0.20125147  0.80526809  1
  Ta  Ta142  1  0.19779145  0.18862758  0.80860220  1
  Ta  Ta143  1  -0.01475704  0.59692485  0.19013529  1
  Ta  Ta144  1  -0.00768680  0.59225964  0.00737198  1
  Ta  Ta145  1  0.29959100  0.29753438  0.49421875  1
  Ta  Ta146  1  0.79685564  0.60037313  0.80563907  1
  Ta  Ta147  1  0.59846001  0.59943310  0.39295210  1
  Ta  Ta148  1  0.59442961  0.39982431  -0.00613586  1
  Ta  Ta149  1  0.40198115  0.60049519  0.60003144  1
  Ti  Ti150  1  0.09220028  0.91277293  0.09821820  1
  Ti  Ti151  1  0.89211292  0.70158361  0.30117026  1
  Ti  Ti152  1  0.61364223  -0.00060214  0.61157763  1
  Ti  Ti153  1  0.20027295  0.19414746  0.18842961  1
  Ti  Ti154  1  0.60349809  0.79532234  0.20054229  1
  Ti  Ti155  1  0.09931128  0.70528374  0.50958675  1
  Ti  Ti156  1  -0.00018139  0.39969354  0.00302692  1
  Ti  Ti157  1  0.40569971  0.80017235  -0.00211083  1
  Ti  Ti158  1  0.80077554  0.19594563  0.40068804  1
  Ti  Ti159  1  0.30489232  0.71129681  0.90484413  1
  Ti  Ti160  1  0.31359287  0.49119684  0.10833922  1
  Ti  Ti161  1  0.69597711  0.29034707  0.71766127  1
  Ti  Ti162  1  0.20043117  0.60363679  0.60004480  1
  Ti  Ti163  1  0.80855106  0.01043573  0.19917804  1
  Ti  Ti164  1  0.41088039  0.80648074  0.40536373  1
  Ti  Ti165  1  0.79708228  0.40943413  0.19344657  1
  Ti  Ti166  1  0.10319901  0.08805945  0.09969519  1
  Ti  Ti167  1  0.30339283  0.49625437  0.89921853  1
  Ti  Ti168  1  0.70214715  0.69889849  0.69370334  1
  Ti  Ti169  1  0.88968276  0.90902710  0.69135066  1
  Ti  Ti170  1  0.89893854  0.70065829  0.90617585  1
  Ti  Ti171  1  0.87887221  0.71359349  0.50824466  1
  Ti  Ti172  1  0.79770065  0.60152085  0.19154331  1
  Ti  Ti173  1  -0.00581487  0.00365030  -0.00142673  1
  Ti  Ti174  1  0.10259437  0.50124578  0.50265319  1
  Ti  Ti175  1  0.19771891  0.80585148  0.60113630  1
  Ti  Ti176  1  0.70363686  0.10266596  0.30317510  1
  Ti  Ti177  1  0.40569012  0.80269830  0.80139075  1
  Ti  Ti178  1  0.20130637  0.39709771  0.80573337  1
  Ti  Ti179  1  0.80315729  0.18811023  0.19464709  1
  Ti  Ti180  1  0.89665575  0.90229993  0.30077415  1
  Ti  Ti181  1  0.29604082  0.10094452  0.70955893  1
  Ti  Ti182  1  0.69529047  0.49785961  0.90266505  1
  Ti  Ti183  1  -0.00891542  0.00572259  0.37991995  1
  Ti  Ti184  1  0.80141212  0.79799862  -0.00372280  1
  Ti  Ti185  1  0.79469783  0.60173987  0.00442649  1
  Ti  Ti186  1  0.10501276  0.08704317  0.89845511  1
  Ti  Ti187  1  -0.00474486  -0.00676570  0.80198502  1
  Ti  Ti188  1  0.09323592  0.90734239  0.90649884  1
  Ti  Ti189  1  -0.01168751  0.80229082  0.40177137  1
  Ti  Ti190  1  0.10013285  0.28635057  0.48744529  1
  Ti  Ti191  1  0.60128564  0.60227699  0.81078127  1
  Ti  Ti192  1  0.29866263  0.90189294  0.70052358  1
  Ti  Ti193  1  0.29967478  0.09499667  0.91295482  1
  Ti  Ti194  1  0.09723187  0.09676052  0.29181368  1
  Ti  Ti195  1  0.60255943  -0.00457778  0.39335061  1
  Ti  Ti196  1  0.00741485  0.19578121  0.80610603  1
  Ti  Ti197  1  0.68234831  0.29594672  0.89669257  1
  Ti  Ti198  1  -0.01346000  0.59781541  0.80018117  1
  Ti  Ti199  1  0.50420836  0.49386352  0.10054468  1
  Mo  Mo200  1  0.40543359  0.39995172  0.19421167  1
  Mo  Mo201  1  0.50284754  0.29727515  0.90166744  1
  Mo  Mo202  1  0.88793590  0.50492333  0.09548882  1
  Mo  Mo203  1  0.29662318  0.10230829  0.09363469  1
  Mo  Mo204  1  0.60081076  0.40010239  0.80346692  1
  Mo  Mo205  1  0.78566291  0.40363544  -0.00677357  1
  Mo  Mo206  1  0.59975708  0.59802300  0.59903069  1
  Mo  Mo207  1  0.70898956  0.30059432  0.49241604  1
  Mo  Mo208  1  0.90235920  0.90313059  0.90120777  1
  Mo  Mo209  1  0.30324425  0.28957473  0.10120801  1
  Mo  Mo210  1  0.40058161  0.20017946  0.19192371  1
  Mo  Mo211  1  0.00521087  0.19729210  0.39296941  1
  Mo  Mo212  1  0.70082803  0.69680806  0.09849285  1
  Mo  Mo213  1  -0.00437626  0.00102732  0.20037102  1
  Mo  Mo214  1  0.59688531  0.20656834  -0.00028240  1
  Mo  Mo215  1  0.79421370  0.20308813  0.80024961  1
  Mo  Mo216  1  0.79957563  -0.00207580  0.59867777  1
  Mo  Mo217  1  0.89115708  0.09308218  0.09688103  1
  Mo  Mo218  1  0.07947478  0.90841360  0.30147586  1
  Mo  Mo219  1  0.17999807  0.00210248  0.19719870  1
  Mo  Mo220  1  0.70308211  0.09482164  0.70359521  1
  Mo  Mo221  1  0.19655057  0.00460627  0.80394703  1
  Mo  Mo222  1  0.09097107  0.49882753  0.09827591  1
  Mo  Mo223  1  -0.00189126  0.00043304  0.60161799  1
  Mo  Mo224  1  0.79699261  -0.00179804  0.79504072  1
  Mo  Mo225  1  0.79648466  0.39694617  0.40774640  1
  Mo  Mo226  1  0.19040546  0.00687583  -0.00047868  1
  Mo  Mo227  1  0.80512757  0.79793344  0.39707487  1
  Mo  Mo228  1  0.50960670  0.49534757  0.89682055  1
  Mo  Mo229  1  0.41255589  0.80283770  0.19548455  1
  Mo  Mo230  1  0.70285743  0.90259736  0.69894422  1
  Mo  Mo231  1  0.60992093  0.00473340  -0.00001294  1
  Mo  Mo232  1  0.60833046  0.19046247  0.39530918  1
  Mo  Mo233  1  0.40350263  0.59697941  0.40379593  1
  Mo  Mo234  1  0.39062417  0.20205250  0.00032413  1
  Mo  Mo235  1  0.41950354  0.00227807  0.20252589  1
  Mo  Mo236  1  0.39390934  0.00544324  -0.00136447  1
  Mo  Mo237  1  0.60402385  0.79275737  -0.00143609  1
  Mo  Mo238  1  0.90959770  0.30029910  0.89880606  1
  Mo  Mo239  1  -0.00953739  0.80399081  -0.00839842  1
  Mo  Mo240  1  0.79653251  0.59610570  0.60509639  1
  Mo  Mo241  1  0.89115896  0.09978719  0.29696766  1
  Mo  Mo242  1  0.88684323  0.49961559  0.70244984  1
  Mo  Mo243  1  0.50652680  0.50199045  0.29417705  1
  Mo  Mo244  1  0.59820988  0.20163798  0.80007363  1
  Mo  Mo245  1  0.09489324  0.09741203  0.71894736  1
  Mo  Mo246  1  0.79817910  0.80332645  0.60549749  1
  Mo  Mo247  1  0.51354491  0.89816975  0.30427171  1
  Mo  Mo248  1  0.60040229  0.79990320  0.60412619  1
  Mo  Mo249  1  0.50684070  0.71167956  0.90384533  1
