# generated using pymatgen
data_HfZrTaTiMo
_symmetry_space_group_name_H-M   'P 1'
_cell_length_a   16.88662520
_cell_length_b   16.88315655
_cell_length_c   16.89050067
_cell_angle_alpha   89.98537210
_cell_angle_beta   90.03349231
_cell_angle_gamma   90.00122050
_symmetry_Int_Tables_number   1
_chemical_formula_structural   HfZrTaTiMo
_chemical_formula_sum   'Hf50 Zr50 Ta50 Ti50 Mo50'
_cell_volume   4815.47294018
_cell_formula_units_Z   50
loop_
 _symmetry_equiv_pos_site_id
 _symmetry_equiv_pos_as_xyz
  1  'x, y, z'
loop_
 _atom_site_type_symbol
 _atom_site_label
 _atom_site_symmetry_multiplicity
 _atom_site_fract_x
 _atom_site_fract_y
 _atom_site_fract_z
 _atom_site_occupancy
  Hf  Hf0  1  0.30104231  0.69846170  0.10416410  1
  Hf  Hf1  1  0.19244558  0.80017331  0.40363464  1
  Hf  Hf2  1  0.60686547  0.40034665  -0.00620609  1
  Hf  Hf3  1  0.49348364  0.10486556  0.89889483  1
  Hf  Hf4  1  -0.00063741  0.20182777  -0.00532043  1
  Hf  Hf5  1  0.80043055  0.40763615  0.39922901  1
  Hf  Hf6  1  0.90871585  0.50686100  0.51602682  1
  Hf  Hf7  1  0.59689605  0.40093905  0.20406985  1
  Hf  Hf8  1  0.00546739  0.79026936  0.00909237  1
  Hf  Hf9  1  0.49817606  0.70037190  0.30807113  1
  Hf  Hf10  1  0.79716444  0.59321864  0.80719362  1
  Hf  Hf11  1  0.90167608  0.31371731  0.08905930  1
  Hf  Hf12  1  0.10058218  0.29774402  0.70351308  1
  Hf  Hf13  1  0.80234043  0.19653337  -0.00360077  1
  Hf  Hf14  1  0.60640807  0.40587400  0.80823370  1
  Hf  Hf15  1  0.40788776  0.00426428  0.20851140  1
  Hf  Hf16  1  0.30067566  0.90055560  0.10163832  1
  Hf  Hf17  1  0.00877969  0.20554585  0.19390939  1
  Hf  Hf18  1  0.39459033  0.20233204  0.20674331  1
  Hf  Hf19  1  0.59758415  0.60929007  -0.00013149  1
  Hf  Hf20  1  0.19447370  0.60981790  0.41209020  1
  Hf  Hf21  1  0.89967908  0.69704922  0.90403511  1
  Hf  Hf22  1  0.00057279  0.79710086  0.79259980  1
  Hf  Hf23  1  0.80579068  0.40413051  0.20561775  1
  Hf  Hf24  1  0.60374454  0.80133244  0.19659832  1
  Hf  Hf25  1  0.39822753  0.19647671  0.39867173  1
  Hf  Hf26  1  0.20337139  -0.00195917  0.79607473  1
  Hf  Hf27  1  0.39890357  0.61450028  0.59398247  1
  Hf  Hf28  1  0.49996479  0.51437141  0.70779630  1
  Hf  Hf29  1  0.79730562  0.20497145  0.39633514  1
  Hf  Hf30  1  0.40947020  0.79341573  -0.00734516  1
  Hf  Hf31  1  0.00224746  -0.00307928  0.40349884  1
  Hf  Hf32  1  0.90095117  0.68781352  0.68675462  1
  Hf  Hf33  1  0.40456360  -0.00012988  -0.00214921  1
  Hf  Hf34  1  0.31025590  0.09779374  0.69729324  1
  Hf  Hf35  1  0.20007120  0.00123047  -0.00354166  1
  Hf  Hf36  1  0.49052685  0.09389430  0.70469076  1
  Hf  Hf37  1  0.89724873  0.10141429  0.70241023  1
  Hf  Hf38  1  0.90193227  0.89646456  0.10920848  1
  Hf  Hf39  1  0.09480578  0.31013458  0.49834768  1
  Hf  Hf40  1  0.59341497  -0.00597987  0.38993293  1
  Hf  Hf41  1  0.60197605  0.60053830  0.40751985  1
  Hf  Hf42  1  0.49242554  0.89393788  0.50664384  1
  Hf  Hf43  1  0.79298468  -0.00299052  0.18783789  1
  Hf  Hf44  1  0.09573907  0.49885959  0.09495336  1
  Hf  Hf45  1  0.79920829  0.20376872  0.58615188  1
  Hf  Hf46  1  0.09880823  0.69428455  0.88991775  1
  Hf  Hf47  1  0.20345474  0.40472079  0.60718532  1
  Hf  Hf48  1  0.80001024  0.40236785  0.81116630  1
  Hf  Hf49  1  0.60229457  -0.01141638  0.80445264  1
  Zr  Zr50  1  0.59605630  0.60628396  0.19687856  1
  Zr  Zr51  1  0.91272911  0.49544397  0.92183948  1
  Zr  Zr52  1  0.70618175  0.10301999  0.29297741  1
  Zr  Zr53  1  0.70715185  0.50209108  0.10099672  1
  Zr  Zr54  1  0.70100149  0.09850446  0.70281732  1
  Zr  Zr55  1  0.60315489  0.79708155  0.40007890  1
  Zr  Zr56  1  0.90676437  0.29604811  0.30277515  1
  Zr  Zr57  1  0.49057850  0.29029090  0.70274932  1
  Zr  Zr58  1  0.70447547  0.29728695  0.70271538  1
  Zr  Zr59  1  -0.00299156  0.60757415  0.39932728  1
  Zr  Zr60  1  0.49581587  0.29444868  0.09350220  1
  Zr  Zr61  1  0.48179050  0.30173144  0.90946261  1
  Zr  Zr62  1  0.29896887  0.49696213  0.09297199  1
  Zr  Zr63  1  0.59776926  -0.00127311  0.19700385  1
  Zr  Zr64  1  0.09569790  0.89766071  0.68792877  1
  Zr  Zr65  1  0.69773351  0.50496452  0.30180143  1
  Zr  Zr66  1  0.49912958  0.49977024  0.49689682  1
  Zr  Zr67  1  0.50412671  0.30630655  0.31179465  1
  Zr  Zr68  1  0.40627541  0.80357835  0.78673960  1
  Zr  Zr69  1  0.39562443  0.39925715  0.20522843  1
  Zr  Zr70  1  0.39366988  0.40157674  0.60670633  1
  Zr  Zr71  1  0.60018957  0.40503484  0.59760715  1
  Zr  Zr72  1  0.79834787  -0.00203938  0.59616010  1
  Zr  Zr73  1  0.00224742  0.40697394  0.20041959  1
  Zr  Zr74  1  0.79274757  0.79900001  0.79926404  1
  Zr  Zr75  1  -0.00829081  0.20188633  0.81075093  1
  Zr  Zr76  1  0.90633901  0.30784779  0.69496794  1
  Zr  Zr77  1  0.20411252  0.20241467  0.59728007  1
  Zr  Zr78  1  0.79283958  0.40730400  0.59574367  1
  Zr  Zr79  1  0.09492186  0.90594141  0.10418618  1
  Zr  Zr80  1  0.29785084  0.69742644  0.30220256  1
  Zr  Zr81  1  0.40719403  0.80653778  0.20450424  1
  Zr  Zr82  1  0.90114524  0.89915127  0.69275150  1
  Zr  Zr83  1  0.90821602  0.09629262  0.29070125  1
  Zr  Zr84  1  0.20418137  0.80052534  0.79055102  1
  Zr  Zr85  1  0.80439424  -0.00888859  0.39926713  1
  Zr  Zr86  1  0.49022157  0.09158317  0.50862409  1
  Zr  Zr87  1  0.20176196  0.79743374  -0.00274437  1
  Zr  Zr88  1  0.59717131  0.19856790  0.59183603  1
  Zr  Zr89  1  0.08779677  0.90188866  0.29470048  1
  Zr  Zr90  1  0.09990473  0.09898757  0.69910317  1
  Zr  Zr91  1  0.29833132  0.10757120  0.09623240  1
  Zr  Zr92  1  0.80287642  0.60577101  0.40326559  1
  Zr  Zr93  1  0.30185762  0.50342552  0.89514995  1
  Zr  Zr94  1  0.60985160  0.20597169  0.81596690  1
  Zr  Zr95  1  0.30700128  0.08873359  0.50646556  1
  Zr  Zr96  1  0.89996196  0.89613479  0.90791968  1
  Zr  Zr97  1  0.40967622  0.59232570  0.19886975  1
  Zr  Zr98  1  0.20361530  0.39153499  0.20397095  1
  Zr  Zr99  1  0.19553452  0.60531029  -0.00334002  1
  Ta  Ta100  1  0.30439248  0.89668280  0.50480297  1
  Ta  Ta101  1  0.79758731  0.60240251  0.00431314  1
  Ta  Ta102  1  0.71245383  0.88691742  0.29631187  1
  Ta  Ta103  1  0.20368813  0.20635147  0.20608667  1
  Ta  Ta104  1  0.50545758  0.89963122  0.09315136  1
  Ta  Ta105  1  0.30378226  0.30113697  0.07507464  1
  Ta  Ta106  1  0.29500758  0.50322920  0.30972640  1
  Ta  Ta107  1  0.69398568  0.09422776  0.49457251  1
  Ta  Ta108  1  0.00759630  0.40599174  0.80716599  1
  Ta  Ta109  1  0.41016820  0.60938273  -0.00575968  1
  Ta  Ta110  1  0.69398756  0.51602135  0.69834061  1
  Ta  Ta111  1  0.68812020  0.30655318  0.48285605  1
  Ta  Ta112  1  0.09731030  0.90352857  0.89938950  1
  Ta  Ta113  1  0.29456426  0.50466162  0.49969311  1
  Ta  Ta114  1  0.10196352  0.50277511  0.30418393  1
  Ta  Ta115  1  -0.00615104  0.79022261  0.40178823  1
  Ta  Ta116  1  0.30363523  0.30394474  0.49737997  1
  Ta  Ta117  1  0.09962247  0.50269890  0.50737741  1
  Ta  Ta118  1  -0.00106196  0.19716089  0.58915859  1
  Ta  Ta119  1  -0.00466220  0.01065760  -0.00038300  1
  Ta  Ta120  1  0.59856250  -0.01028697  0.60265693  1
  Ta  Ta121  1  0.69705921  0.70132285  0.90154487  1
  Ta  Ta122  1  0.59798286  0.19492273  0.39420761  1
  Ta  Ta123  1  0.20524246  0.78990581  0.59195955  1
  Ta  Ta124  1  -0.00426498  0.00230010  0.80803366  1
  Ta  Ta125  1  0.79752326  0.79353162  0.59673528  1
  Ta  Ta126  1  0.10415499  0.10259004  0.10134357  1
  Ta  Ta127  1  0.19974149  -0.00319055  0.40154486  1
  Ta  Ta128  1  0.10024193  0.68977237  0.68705168  1
  Ta  Ta129  1  0.20192765  0.19916223  0.39885739  1
  Ta  Ta130  1  0.69555244  0.89061735  0.69633317  1
  Ta  Ta131  1  0.70517457  0.29396943  0.10655335  1
  Ta  Ta132  1  0.49627591  0.50973768  0.89313516  1
  Ta  Ta133  1  0.69951954  0.69566100  0.51194243  1
  Ta  Ta134  1  0.38891402  0.40235542  0.79884999  1
  Ta  Ta135  1  0.10293634  0.09997014  0.89915932  1
  Ta  Ta136  1  0.79692201  -0.00451701  0.81007185  1
  Ta  Ta137  1  0.00227827  0.59040767  0.79682873  1
  Ta  Ta138  1  0.20054000  0.00381003  0.20698163  1
  Ta  Ta139  1  0.79306078  -0.00231595  0.00114474  1
  Ta  Ta140  1  0.60878085  -0.00252503  0.00170748  1
  Ta  Ta141  1  0.90959764  0.30732236  0.49824090  1
  Ta  Ta142  1  0.30621641  0.90326396  0.89185551  1
  Ta  Ta143  1  0.10253949  0.30027645  0.30986467  1
  Ta  Ta144  1  0.60219981  0.19741444  0.20193591  1
  Ta  Ta145  1  0.90331234  0.88716032  0.50120375  1
  Ta  Ta146  1  0.78975288  0.80003226  0.00865533  1
  Ta  Ta147  1  0.10395430  0.10238597  0.29876815  1
  Ta  Ta148  1  0.19417258  0.79872300  0.20225705  1
  Ta  Ta149  1  0.69999937  0.89262396  0.50206637  1
  Ti  Ti150  1  0.89608152  0.69075494  0.10678977  1
  Ti  Ti151  1  0.19525614  0.40056166  -0.01456535  1
  Ti  Ti152  1  0.29387157  0.09719587  0.30481570  1
  Ti  Ti153  1  0.40218228  -0.00759190  0.38842249  1
  Ti  Ti154  1  0.20192337  0.40181182  0.40085959  1
  Ti  Ti155  1  0.29602593  0.69653861  0.69620161  1
  Ti  Ti156  1  0.88945845  0.69956125  0.28753626  1
  Ti  Ti157  1  0.20340702  0.39841059  0.79746543  1
  Ti  Ti158  1  0.60347639  0.80117301  -0.00000922  1
  Ti  Ti159  1  0.00581551  0.19547435  0.40451520  1
  Ti  Ti160  1  0.09587993  0.69595830  0.29317690  1
  Ti  Ti161  1  0.71015893  0.70162491  0.10961367  1
  Ti  Ti162  1  0.09528207  0.50231433  0.69393270  1
  Ti  Ti163  1  0.49442116  0.49291725  0.08552489  1
  Ti  Ti164  1  0.39484224  0.79361203  0.41063688  1
  Ti  Ti165  1  0.59879287  0.79788692  0.80460280  1
  Ti  Ti166  1  0.70303502  0.09512551  0.90294061  1
  Ti  Ti167  1  0.20355315  -0.01061322  0.59660235  1
  Ti  Ti168  1  0.09464923  0.89300055  0.50459916  1
  Ti  Ti169  1  0.80252873  0.79076744  0.40258927  1
  Ti  Ti170  1  0.30686830  0.69486206  0.88575873  1
  Ti  Ti171  1  0.39779123  0.60207808  0.40605480  1
  Ti  Ti172  1  0.59451228  0.79432333  0.60226106  1
  Ti  Ti173  1  -0.00212044  0.41236756  0.39549220  1
  Ti  Ti174  1  0.61196852  0.19628295  0.00364508  1
  Ti  Ti175  1  0.90348108  0.50062040  0.69728696  1
  Ti  Ti176  1  0.19506453  0.59451368  0.79300641  1
  Ti  Ti177  1  0.00003004  0.78351186  0.20000393  1
  Ti  Ti178  1  0.50220646  0.10561709  0.09389334  1
  Ti  Ti179  1  0.79206368  0.40093245  -0.00627667  1
  Ti  Ti180  1  0.30165682  0.10079607  0.89366444  1
  Ti  Ti181  1  0.39486035  0.40611553  0.39740597  1
  Ti  Ti182  1  0.20303932  0.20241222  -0.01317545  1
  Ti  Ti183  1  0.89952920  0.10190669  0.10236240  1
  Ti  Ti184  1  0.80484288  0.20399827  0.81720435  1
  Ti  Ti185  1  0.49747674  0.30235400  0.49695391  1
  Ti  Ti186  1  0.69265776  0.69521415  0.69901115  1
  Ti  Ti187  1  0.19259076  0.59913917  0.20212209  1
  Ti  Ti188  1  0.50697024  0.69781604  0.70182251  1
  Ti  Ti189  1  0.11008892  0.29968851  0.09029107  1
  Ti  Ti190  1  0.90044088  0.89014741  0.29540891  1
  Ti  Ti191  1  0.90006704  0.10066219  0.49596838  1
  Ti  Ti192  1  0.50173182  0.89961221  0.89880722  1
  Ti  Ti193  1  0.37611800  0.21298719  0.80339958  1
  Ti  Ti194  1  0.10474562  0.30136248  0.89548792  1
  Ti  Ti195  1  0.30075893  0.51387430  0.70173243  1
  Ti  Ti196  1  0.29722309  0.89830301  0.30458001  1
  Ti  Ti197  1  -0.00138584  0.00413518  0.59232374  1
  Ti  Ti198  1  0.00320748  0.60306148  0.00959373  1
  Ti  Ti199  1  0.10523148  0.09681558  0.49826619  1
  Mo  Mo200  1  0.29404646  0.30283876  0.31588610  1
  Mo  Mo201  1  0.00099503  0.79030616  0.58993580  1
  Mo  Mo202  1  0.40003562  0.41139044  -0.00788351  1
  Mo  Mo203  1  0.49828353  0.10216063  0.29894177  1
  Mo  Mo204  1  0.39731864  0.79266127  0.60055765  1
  Mo  Mo205  1  0.69957001  0.50321473  0.50644618  1
  Mo  Mo206  1  0.69638465  0.10353749  0.09441208  1
  Mo  Mo207  1  0.40242575  -0.02603547  0.61851683  1
  Mo  Mo208  1  0.50879880  0.70254684  0.89332199  1
  Mo  Mo209  1  0.59963784  0.40184361  0.40008702  1
  Mo  Mo210  1  0.70652527  0.29944190  0.91051951  1
  Mo  Mo211  1  0.40014160  0.60786064  0.79711991  1
  Mo  Mo212  1  0.39814602  0.21475806  0.59723138  1
  Mo  Mo213  1  0.79786273  0.20404659  0.19116645  1
  Mo  Mo214  1  0.49070320  0.50272671  0.31037856  1
  Mo  Mo215  1  0.49431559  0.89676861  0.30564725  1
  Mo  Mo216  1  0.70930909  0.70514545  0.29954055  1
  Mo  Mo217  1  0.29410178  0.29996999  0.70401160  1
  Mo  Mo218  1  0.29905393  0.89793203  0.69173068  1
  Mo  Mo219  1  0.79341920  0.60043884  0.60514636  1
  Mo  Mo220  1  0.90189124  0.50779726  0.09989637  1
  Mo  Mo221  1  0.00506836  0.40102797  0.60724989  1
  Mo  Mo222  1  0.89556590  0.09018898  0.90209334  1
  Mo  Mo223  1  0.69713521  0.29798030  0.29738387  1
  Mo  Mo224  1  0.80821144  0.60177729  0.19806200  1
  Mo  Mo225  1  -0.00265277  0.59975572  0.20208008  1
  Mo  Mo226  1  0.30078145  0.70404600  0.50061746  1
  Mo  Mo227  1  0.09832402  0.69410371  0.11507835  1
  Mo  Mo228  1  0.89687703  0.70342166  0.50442307  1
  Mo  Mo229  1  0.09564363  0.70190038  0.50623462  1
  Mo  Mo230  1  0.40057349  -0.00656669  0.80427103  1
  Mo  Mo231  1  0.10265162  0.49945180  0.89207584  1
  Mo  Mo232  1  0.49955563  0.70345724  0.50394216  1
  Mo  Mo233  1  0.50230356  0.70775312  0.09273449  1
  Mo  Mo234  1  0.69654108  0.89451320  0.90387631  1
  Mo  Mo235  1  0.20201921  0.19801848  0.80695325  1
  Mo  Mo236  1  0.90720833  0.50988112  0.29513920  1
  Mo  Mo237  1  0.60089340  0.61007515  0.80394657  1
  Mo  Mo238  1  0.80181482  0.79496923  0.20029615  1
  Mo  Mo239  1  0.69896768  0.50905154  0.90198548  1
  Mo  Mo240  1  0.38909727  0.19343973  -0.00413597  1
  Mo  Mo241  1  0.20210051  0.59799911  0.60285376  1
  Mo  Mo242  1  0.50793248  0.89354960  0.69939849  1
  Mo  Mo243  1  0.59920835  0.60939731  0.60261397  1
  Mo  Mo244  1  0.00149952  0.01285639  0.19475286  1
  Mo  Mo245  1  0.69906837  0.89549179  0.09614814  1
  Mo  Mo246  1  0.28935962  0.30412016  0.89741998  1
  Mo  Mo247  1  0.00702903  0.59581324  0.60244852  1
  Mo  Mo248  1  0.01756602  0.39381347  -0.00347609  1
  Mo  Mo249  1  0.90231205  0.30986616  0.90256744  1
