# generated using pymatgen
data_HfZrTaTiMo
_symmetry_space_group_name_H-M   'P 1'
_cell_length_a   16.88807898
_cell_length_b   16.89389863
_cell_length_c   16.88504758
_cell_angle_alpha   89.98185904
_cell_angle_beta   89.96518978
_cell_angle_gamma   90.04695077
_symmetry_Int_Tables_number   1
_chemical_formula_structural   HfZrTaTiMo
_chemical_formula_sum   'Hf50 Zr50 Ta50 Ti50 Mo50'
_cell_volume   4817.39409542
_cell_formula_units_Z   50
loop_
 _symmetry_equiv_pos_site_id
 _symmetry_equiv_pos_as_xyz
  1  'x, y, z'
loop_
 _atom_site_type_symbol
 _atom_site_label
 _atom_site_symmetry_multiplicity
 _atom_site_fract_x
 _atom_site_fract_y
 _atom_site_fract_z
 _atom_site_occupancy
  Hf  Hf0  1  0.00644345  -0.00675649  0.20045223  1
  Hf  Hf1  1  0.89907365  0.90269585  0.69650756  1
  Hf  Hf2  1  0.60374064  0.39226938  0.79500522  1
  Hf  Hf3  1  -0.00762209  0.40556032  0.19975594  1
  Hf  Hf4  1  0.49834132  0.90377252  0.29718144  1
  Hf  Hf5  1  0.50593121  0.89783421  0.69853031  1
  Hf  Hf6  1  0.00389587  0.60429350  0.80606226  1
  Hf  Hf7  1  0.49664492  0.29509698  0.30031165  1
  Hf  Hf8  1  0.80369264  0.79423555  0.58996889  1
  Hf  Hf9  1  0.29882052  0.30448386  0.49520566  1
  Hf  Hf10  1  -0.00130608  0.40589899  0.60071802  1
  Hf  Hf11  1  0.70111153  0.89956222  0.10769422  1
  Hf  Hf12  1  0.30155945  0.90303023  0.30622881  1
  Hf  Hf13  1  0.38495420  0.39163856  0.00192289  1
  Hf  Hf14  1  -0.00601470  0.61256539  0.38898467  1
  Hf  Hf15  1  0.70536920  0.50064204  0.49682404  1
  Hf  Hf16  1  0.00158757  0.19598248  -0.00515766  1
  Hf  Hf17  1  0.00490638  0.19130039  0.40346179  1
  Hf  Hf18  1  0.20115471  0.80099240  0.19506482  1
  Hf  Hf19  1  0.19895128  0.19685399  0.80401472  1
  Hf  Hf20  1  0.39328158  0.60007509  0.60237695  1
  Hf  Hf21  1  0.70354431  0.89628453  0.70575828  1
  Hf  Hf22  1  0.10493001  0.50477925  0.48991397  1
  Hf  Hf23  1  0.39942965  -0.00908822  0.60071788  1
  Hf  Hf24  1  0.60725522  0.19661485  0.19578768  1
  Hf  Hf25  1  0.69773536  0.70786965  0.70781114  1
  Hf  Hf26  1  0.60588714  0.60795787  0.39467461  1
  Hf  Hf27  1  0.10140721  0.29764695  0.10741637  1
  Hf  Hf28  1  0.60334982  0.60996276  0.59565822  1
  Hf  Hf29  1  0.11348546  0.70648742  0.48498636  1
  Hf  Hf30  1  0.89525277  0.08765466  0.30575346  1
  Hf  Hf31  1  0.29331864  0.69803446  0.30446989  1
  Hf  Hf32  1  0.00534669  0.18981800  0.80385261  1
  Hf  Hf33  1  0.71154233  0.70202375  0.10391570  1
  Hf  Hf34  1  0.20793889  0.41157098  0.60771531  1
  Hf  Hf35  1  0.70237221  0.50833010  0.70068320  1
  Hf  Hf36  1  0.69595779  0.08488319  0.30361981  1
  Hf  Hf37  1  0.39046162  0.39833249  0.79987139  1
  Hf  Hf38  1  0.30230426  0.09356538  0.30192918  1
  Hf  Hf39  1  0.79861661  0.39954204  0.19722044  1
  Hf  Hf40  1  0.50641650  0.50990667  0.70735708  1
  Hf  Hf41  1  0.38463968  0.19398810  -0.00265430  1
  Hf  Hf42  1  -0.00560336  0.61244677  0.19922702  1
  Hf  Hf43  1  -0.00037478  0.39906542  0.00030074  1
  Hf  Hf44  1  0.50467047  0.29233962  0.90170248  1
  Hf  Hf45  1  0.89389417  0.29906872  0.89296237  1
  Hf  Hf46  1  0.10538734  0.51061497  0.09824067  1
  Hf  Hf47  1  -0.01136481  0.79645027  0.40040675  1
  Hf  Hf48  1  0.49782595  0.70305341  0.49672019  1
  Hf  Hf49  1  0.10654473  0.89289084  0.31298988  1
  Zr  Zr50  1  0.20741425  0.81128236  0.59803191  1
  Zr  Zr51  1  0.20927915  0.60159643  0.59755809  1
  Zr  Zr52  1  0.00579628  -0.00080501  0.80161585  1
  Zr  Zr53  1  0.50172966  0.09672975  0.49895491  1
  Zr  Zr54  1  0.70243792  0.70359572  0.89709494  1
  Zr  Zr55  1  0.49571928  0.49485467  0.49075471  1
  Zr  Zr56  1  0.00694462  0.18483468  0.59386607  1
  Zr  Zr57  1  0.10199666  0.29736508  0.69485506  1
  Zr  Zr58  1  0.20015403  0.59962608  0.80731174  1
  Zr  Zr59  1  0.40221200  0.39894968  0.60397396  1
  Zr  Zr60  1  0.69943977  0.91031651  0.50613651  1
  Zr  Zr61  1  0.00463008  0.40587966  0.80142716  1
  Zr  Zr62  1  0.49698154  0.09760626  0.29803678  1
  Zr  Zr63  1  0.20144357  0.20202902  -0.00906292  1
  Zr  Zr64  1  0.60027412  -0.00443136  0.80794240  1
  Zr  Zr65  1  0.79974431  0.39444290  0.39506452  1
  Zr  Zr66  1  0.81089385  0.60195305  0.79824940  1
  Zr  Zr67  1  0.49738112  0.28941431  0.10234741  1
  Zr  Zr68  1  0.50512858  0.08535322  0.09782440  1
  Zr  Zr69  1  0.20310782  0.39357300  -0.00517937  1
  Zr  Zr70  1  0.10639817  0.30582862  0.30079131  1
  Zr  Zr71  1  0.70483964  0.50298787  0.90379292  1
  Zr  Zr72  1  -0.00412340  0.79380382  0.20026073  1
  Zr  Zr73  1  0.10460015  0.09604803  0.10165109  1
  Zr  Zr74  1  0.80124149  0.20003931  0.20106762  1
  Zr  Zr75  1  0.59830901  0.60168255  0.19817882  1
  Zr  Zr76  1  0.70471946  0.29706322  0.89502220  1
  Zr  Zr77  1  0.80285367  0.18558264  -0.00076163  1
  Zr  Zr78  1  0.11373166  0.51057457  0.29612975  1
  Zr  Zr79  1  0.40136007  0.61131521  0.81354100  1
  Zr  Zr80  1  0.30139455  0.70816575  0.70893703  1
  Zr  Zr81  1  0.38328275  0.38978635  0.19693137  1
  Zr  Zr82  1  0.39286733  0.00024510  0.80431210  1
  Zr  Zr83  1  0.80258206  0.00063334  0.82089831  1
  Zr  Zr84  1  0.48964949  0.50029738  0.29999310  1
  Zr  Zr85  1  0.60096429  0.20440673  0.60005968  1
  Zr  Zr86  1  0.90417517  0.30094945  0.50106956  1
  Zr  Zr87  1  0.60383608  0.39184810  0.60009279  1
  Zr  Zr88  1  0.49188664  0.49926477  0.10139329  1
  Zr  Zr89  1  0.88505362  0.90372983  0.29942108  1
  Zr  Zr90  1  0.89553546  0.50726759  0.49975333  1
  Zr  Zr91  1  -0.00526810  -0.00404466  -0.00749246  1
  Zr  Zr92  1  0.09688231  0.70587832  0.69782023  1
  Zr  Zr93  1  0.59231437  0.60853618  0.00021273  1
  Zr  Zr94  1  0.29389613  0.09863412  0.68934552  1
  Zr  Zr95  1  0.19509888  0.19658545  0.40427584  1
  Zr  Zr96  1  0.50401321  0.49923753  0.90400457  1
  Zr  Zr97  1  0.79897356  0.19302233  0.40665550  1
  Zr  Zr98  1  0.69998545  0.09314282  0.69493374  1
  Zr  Zr99  1  0.50216957  0.09677127  0.90737557  1
  Ta  Ta100  1  0.39282578  -0.00792602  0.18893212  1
  Ta  Ta101  1  0.60221770  0.80060113  0.39919792  1
  Ta  Ta102  1  0.89741417  0.50535990  0.91073003  1
  Ta  Ta103  1  0.89499762  0.08622165  0.10417981  1
  Ta  Ta104  1  0.89328192  0.89839301  0.09983095  1
  Ta  Ta105  1  0.88871562  0.50994562  0.29572856  1
  Ta  Ta106  1  0.40042294  0.80375285  0.40552977  1
  Ta  Ta107  1  0.60841962  0.39639702  0.01103038  1
  Ta  Ta108  1  0.00691918  0.80558653  0.80793511  1
  Ta  Ta109  1  0.10083788  0.90529149  0.69354918  1
  Ta  Ta110  1  0.61189249  0.19512085  0.00360809  1
  Ta  Ta111  1  0.39993788  0.80248964  0.59861713  1
  Ta  Ta112  1  0.49535269  0.90014378  0.91827387  1
  Ta  Ta113  1  0.20147960  -0.00794597  0.79802006  1
  Ta  Ta114  1  0.89659984  0.29125649  0.70107683  1
  Ta  Ta115  1  0.39251125  0.19672707  0.80199576  1
  Ta  Ta116  1  0.89199073  0.51403512  0.09603690  1
  Ta  Ta117  1  0.60235792  0.39826714  0.39224549  1
  Ta  Ta118  1  0.19613044  0.80805349  0.81165642  1
  Ta  Ta119  1  0.79706935  0.38971810  0.60761566  1
  Ta  Ta120  1  0.30112083  0.09289897  0.49787110  1
  Ta  Ta121  1  0.29922233  0.90438139  0.49598255  1
  Ta  Ta122  1  0.39327494  0.61371478  0.00132257  1
  Ta  Ta123  1  0.10439550  0.89428905  0.08870580  1
  Ta  Ta124  1  0.50161018  0.90012465  0.09686946  1
  Ta  Ta125  1  0.29989420  0.49962050  0.47959962  1
  Ta  Ta126  1  0.10372773  0.70161029  0.09343686  1
  Ta  Ta127  1  0.29840617  0.29344030  0.69665706  1
  Ta  Ta128  1  0.00044988  0.80631525  0.59044008  1
  Ta  Ta129  1  -0.00264563  0.19294175  0.20301290  1
  Ta  Ta130  1  0.89690989  0.91240265  0.49857811  1
  Ta  Ta131  1  0.59701779  0.80203965  0.59160744  1
  Ta  Ta132  1  0.90241929  0.70569000  0.90220987  1
  Ta  Ta133  1  0.80288166  0.19491419  0.59646877  1
  Ta  Ta134  1  0.29925622  0.89794060  0.90891438  1
  Ta  Ta135  1  0.39465436  0.20109295  0.39859320  1
  Ta  Ta136  1  0.39873878  0.80627190  0.80880214  1
  Ta  Ta137  1  0.79378663  0.79589990  0.40086156  1
  Ta  Ta138  1  0.80400584  0.80199146  -0.00045032  1
  Ta  Ta139  1  0.29715333  0.50114604  0.30220472  1
  Ta  Ta140  1  0.60992350  0.40017658  0.19957257  1
  Ta  Ta141  1  0.59433340  -0.00914418  0.40493256  1
  Ta  Ta142  1  0.39699215  0.80143364  0.19363872  1
  Ta  Ta143  1  0.20151061  -0.00709441  0.19446393  1
  Ta  Ta144  1  0.49322736  0.70797578  0.29733373  1
  Ta  Ta145  1  -0.00109614  0.40708459  0.39240342  1
  Ta  Ta146  1  0.90428797  0.71060613  0.70209516  1
  Ta  Ta147  1  0.20213936  0.40112719  0.80287238  1
  Ta  Ta148  1  0.70506279  0.50531408  0.29644196  1
  Ta  Ta149  1  0.89814306  0.09498017  0.69540333  1
  Ti  Ti150  1  0.70808655  0.50779155  0.09974549  1
  Ti  Ti151  1  0.71127582  0.28205179  0.71195103  1
  Ti  Ti152  1  0.39995376  0.20078549  0.59684276  1
  Ti  Ti153  1  0.11058957  0.08552933  0.90142855  1
  Ti  Ti154  1  0.10459372  0.09308215  0.29948703  1
  Ti  Ti155  1  0.80130505  0.40185028  0.00561401  1
  Ti  Ti156  1  0.70637353  0.08260974  0.10661954  1
  Ti  Ti157  1  0.90089419  0.29449117  0.10047565  1
  Ti  Ti158  1  0.70513447  0.70563734  0.29181222  1
  Ti  Ti159  1  0.50471837  0.10263751  0.70056809  1
  Ti  Ti160  1  0.69879297  0.90133264  0.29612006  1
  Ti  Ti161  1  0.29021140  0.51598188  0.10305215  1
  Ti  Ti162  1  0.69722756  0.09393939  0.50031977  1
  Ti  Ti163  1  0.59610260  0.79975663  0.20304380  1
  Ti  Ti164  1  0.50001129  0.29722971  0.48673651  1
  Ti  Ti165  1  0.29881784  0.09472496  0.10261756  1
  Ti  Ti166  1  -0.00223257  0.61120214  -0.00029429  1
  Ti  Ti167  1  0.79968127  0.61648504  0.39971545  1
  Ti  Ti168  1  0.80579118  0.40428155  0.79188603  1
  Ti  Ti169  1  0.80314344  0.61248202  0.59454074  1
  Ti  Ti170  1  0.70399226  0.29887755  0.09687875  1
  Ti  Ti171  1  0.20890297  0.39734207  0.19833404  1
  Ti  Ti172  1  0.49616113  0.71033397  0.10061251  1
  Ti  Ti173  1  0.20215677  0.61619714  -0.00822505  1
  Ti  Ti174  1  -0.00642571  0.61312470  0.59338714  1
  Ti  Ti175  1  0.50412843  0.70541658  0.70715454  1
  Ti  Ti176  1  0.62225666  -0.00473676  -0.00824442  1
  Ti  Ti177  1  0.10439330  0.31290516  0.49622033  1
  Ti  Ti178  1  0.89647406  0.89251812  0.90323634  1
  Ti  Ti179  1  0.39571349  0.60825760  0.40072603  1
  Ti  Ti180  1  0.58901502  0.80073177  0.81592742  1
  Ti  Ti181  1  0.29886366  0.50578414  0.90514040  1
  Ti  Ti182  1  0.39405915  0.60911732  0.19453700  1
  Ti  Ti183  1  0.00386949  0.79838083  -0.00358368  1
  Ti  Ti184  1  0.29436960  0.70316281  0.09581100  1
  Ti  Ti185  1  0.10008633  0.50435279  0.90833605  1
  Ti  Ti186  1  0.69599432  0.29519118  0.49357969  1
  Ti  Ti187  1  0.20820981  -0.00716350  0.00015958  1
  Ti  Ti188  1  0.60075050  0.80178593  -0.00039374  1
  Ti  Ti189  1  0.39281841  0.79978957  0.00327323  1
  Ti  Ti190  1  0.90461586  0.29767485  0.30020455  1
  Ti  Ti191  1  0.19291630  0.19122601  0.59276845  1
  Ti  Ti192  1  0.69932988  0.11274443  0.88961521  1
  Ti  Ti193  1  0.89900201  0.50559365  0.69356945  1
  Ti  Ti194  1  0.09961920  0.50843278  0.69766215  1
  Ti  Ti195  1  0.19359999  -0.00065098  0.41155448  1
  Ti  Ti196  1  0.49594070  0.28720024  0.70694646  1
  Ti  Ti197  1  0.20869312  0.19824943  0.20439684  1
  Ti  Ti198  1  0.69290170  0.29489520  0.30595450  1
  Ti  Ti199  1  0.00715099  0.00219859  0.41348771  1
  Mo  Mo200  1  0.87794218  0.70143736  0.29533745  1
  Mo  Mo201  1  0.79768327  -0.00445626  0.19901345  1
  Mo  Mo202  1  0.89933773  0.70481808  0.50114088  1
  Mo  Mo203  1  0.38722830  -0.00555731  0.00478446  1
  Mo  Mo204  1  0.10263292  0.08812000  0.69425210  1
  Mo  Mo205  1  0.69762893  0.88895067  0.90791383  1
  Mo  Mo206  1  0.20648540  0.80357478  0.40252338  1
  Mo  Mo207  1  0.29481843  0.28239095  0.11254592  1
  Mo  Mo208  1  0.69850052  0.70526813  0.49521599  1
  Mo  Mo209  1  0.59667522  -0.00790756  0.20100227  1
  Mo  Mo210  1  0.29984112  0.29754612  0.88731099  1
  Mo  Mo211  1  0.20017962  0.79876943  -0.00078273  1
  Mo  Mo212  1  0.89809567  0.09886278  0.90208252  1
  Mo  Mo213  1  0.29500402  0.08976206  0.89837629  1
  Mo  Mo214  1  0.59100252  0.19841213  0.79841308  1
  Mo  Mo215  1  0.00221747  -0.00362048  0.59790720  1
  Mo  Mo216  1  0.81438434  0.80232097  0.80473381  1
  Mo  Mo217  1  0.90217732  0.70561829  0.09258500  1
  Mo  Mo218  1  0.09732477  0.90155660  0.50128434  1
  Mo  Mo219  1  0.29864654  0.89757645  0.70532641  1
  Mo  Mo220  1  0.59994981  0.20314996  0.40190423  1
  Mo  Mo221  1  0.10481565  0.08578734  0.50403839  1
  Mo  Mo222  1  0.49519382  0.71559451  0.90861021  1
  Mo  Mo223  1  0.80851666  0.60682990  0.00229265  1
  Mo  Mo224  1  0.59478459  0.61418262  0.79693979  1
  Mo  Mo225  1  0.30039264  0.29809148  0.30270249  1
  Mo  Mo226  1  0.79766595  0.79861760  0.20091529  1
  Mo  Mo227  1  0.79987145  0.60176698  0.19874002  1
  Mo  Mo228  1  0.10573222  0.89743902  0.90360023  1
  Mo  Mo229  1  0.19744771  -0.00118555  0.59892670  1
  Mo  Mo230  1  0.59652865  -0.00180090  0.60000009  1
  Mo  Mo231  1  0.20101343  0.40286164  0.39587794  1
  Mo  Mo232  1  0.09895876  0.30866186  0.89541638  1
  Mo  Mo233  1  0.30068875  0.89919430  0.09742277  1
  Mo  Mo234  1  0.89897459  0.08772084  0.50290398  1
  Mo  Mo235  1  0.11188745  0.70291004  0.29469553  1
  Mo  Mo236  1  0.20329555  0.60752240  0.19146160  1
  Mo  Mo237  1  0.81001191  0.19303583  0.79229379  1
  Mo  Mo238  1  0.38743308  0.18935922  0.19995785  1
  Mo  Mo239  1  0.79884661  -0.00613883  0.00168298  1
  Mo  Mo240  1  0.78932488  -0.00479347  0.40384274  1
  Mo  Mo241  1  0.39852760  -0.00112273  0.40538207  1
  Mo  Mo242  1  0.20469952  0.60320754  0.39445051  1
  Mo  Mo243  1  0.49977278  0.89660725  0.49836904  1
  Mo  Mo244  1  0.09623355  0.70594698  0.90768322  1
  Mo  Mo245  1  0.80475623  0.00562093  0.59601636  1
  Mo  Mo246  1  0.39750345  0.39280709  0.39383179  1
  Mo  Mo247  1  0.29749834  0.71021212  0.90888667  1
  Mo  Mo248  1  0.30727154  0.70452674  0.49508199  1
  Mo  Mo249  1  0.29976606  0.49688201  0.71056822  1
