# generated using pymatgen
data_HfZrTaTiMo
_symmetry_space_group_name_H-M   'P 1'
_cell_length_a   16.89909468
_cell_length_b   16.88190420
_cell_length_c   16.88037978
_cell_angle_alpha   89.95404873
_cell_angle_beta   89.96246610
_cell_angle_gamma   90.03281894
_symmetry_Int_Tables_number   1
_chemical_formula_structural   HfZrTaTiMo
_chemical_formula_sum   'Hf50 Zr50 Ta50 Ti50 Mo50'
_cell_volume   4815.78156054
_cell_formula_units_Z   50
loop_
 _symmetry_equiv_pos_site_id
 _symmetry_equiv_pos_as_xyz
  1  'x, y, z'
loop_
 _atom_site_type_symbol
 _atom_site_label
 _atom_site_symmetry_multiplicity
 _atom_site_fract_x
 _atom_site_fract_y
 _atom_site_fract_z
 _atom_site_occupancy
  Hf  Hf0  1  -0.00378851  0.39908798  0.59847033  1
  Hf  Hf1  1  0.59812632  0.78076054  0.19793122  1
  Hf  Hf2  1  0.30840037  0.29730540  0.50434928  1
  Hf  Hf3  1  -0.00788542  0.00202318  0.19632471  1
  Hf  Hf4  1  0.00209320  0.80775044  0.00366836  1
  Hf  Hf5  1  0.69223041  0.50042954  0.89985235  1
  Hf  Hf6  1  0.61162258  0.40168186  0.19299806  1
  Hf  Hf7  1  -0.00157502  0.00697920  0.79419350  1
  Hf  Hf8  1  0.89691878  0.09768322  0.50464312  1
  Hf  Hf9  1  0.59732041  0.00793370  0.59479759  1
  Hf  Hf10  1  0.88995415  0.29837750  0.29805084  1
  Hf  Hf11  1  0.30949792  0.11028852  0.30453987  1
  Hf  Hf12  1  0.69711750  0.90307602  0.10696482  1
  Hf  Hf13  1  0.69299675  0.30478346  0.89430615  1
  Hf  Hf14  1  0.29064976  0.69455565  0.70366072  1
  Hf  Hf15  1  0.40107257  0.40611521  -0.00575621  1
  Hf  Hf16  1  0.30353431  0.50176169  0.29841893  1
  Hf  Hf17  1  0.10368490  0.89251768  0.69392285  1
  Hf  Hf18  1  0.90005724  0.70571980  0.49281769  1
  Hf  Hf19  1  0.50140494  0.30108994  0.09583003  1
  Hf  Hf20  1  0.80384063  0.20530622  0.78850614  1
  Hf  Hf21  1  0.50115301  0.10115600  0.09820589  1
  Hf  Hf22  1  0.10207806  0.10572820  0.68902669  1
  Hf  Hf23  1  0.29523112  0.09868419  0.69921312  1
  Hf  Hf24  1  0.90395591  0.89711579  0.69386411  1
  Hf  Hf25  1  0.11256117  0.69073593  0.90475994  1
  Hf  Hf26  1  0.39891095  0.80151692  -0.00861799  1
  Hf  Hf27  1  0.40427900  -0.00039851  0.40575921  1
  Hf  Hf28  1  0.30417068  0.30344585  0.89283329  1
  Hf  Hf29  1  0.20430081  0.40505656  0.79782991  1
  Hf  Hf30  1  0.41052712  0.60257153  0.19712814  1
  Hf  Hf31  1  0.09195500  0.10092722  0.08836056  1
  Hf  Hf32  1  0.50156052  0.68625988  0.49926769  1
  Hf  Hf33  1  0.79410325  0.80441111  0.59135747  1
  Hf  Hf34  1  -0.00317562  0.40602664  0.19501821  1
  Hf  Hf35  1  0.10725126  0.29041278  0.51612648  1
  Hf  Hf36  1  0.41383187  0.20421867  0.61484792  1
  Hf  Hf37  1  0.89847595  0.69696049  0.10476899  1
  Hf  Hf38  1  -0.00454641  0.79324660  0.80425445  1
  Hf  Hf39  1  0.60331424  0.78955703  0.60134222  1
  Hf  Hf40  1  0.60995243  0.20212247  0.19626061  1
  Hf  Hf41  1  0.79300727  -0.02552208  0.41846920  1
  Hf  Hf42  1  -0.00345681  0.40869870  0.40707328  1
  Hf  Hf43  1  0.69031607  0.49493829  0.69980169  1
  Hf  Hf44  1  0.49986702  0.69761404  0.89084599  1
  Hf  Hf45  1  0.19387408  0.59537993  0.41000955  1
  Hf  Hf46  1  0.78853303  0.79563565  0.00176552  1
  Hf  Hf47  1  0.21411075  0.00278499  0.00111100  1
  Hf  Hf48  1  0.40698106  0.40158302  0.39964254  1
  Hf  Hf49  1  0.89441428  0.51154837  0.09635409  1
  Zr  Zr50  1  0.00037958  0.19960967  0.40476737  1
  Zr  Zr51  1  0.30281261  0.88984174  0.11552978  1
  Zr  Zr52  1  0.20338272  0.20137064  0.19408915  1
  Zr  Zr53  1  0.09990131  0.30263289  0.89984887  1
  Zr  Zr54  1  0.29780342  0.70127956  0.10302406  1
  Zr  Zr55  1  0.60469448  0.00738763  0.20797238  1
  Zr  Zr56  1  0.10170533  0.50017134  0.70675946  1
  Zr  Zr57  1  -0.00317221  0.41985326  -0.01535117  1
  Zr  Zr58  1  0.19255293  0.00213613  0.40807444  1
  Zr  Zr59  1  0.79816848  0.60312654  0.60228562  1
  Zr  Zr60  1  0.78991478  0.39863411  0.01107554  1
  Zr  Zr61  1  0.79527498  0.01062960  0.00864603  1
  Zr  Zr62  1  0.40718334  0.01271438  0.79913045  1
  Zr  Zr63  1  0.69800163  0.10177958  0.89274012  1
  Zr  Zr64  1  -0.00068230  0.80396677  0.20448725  1
  Zr  Zr65  1  0.19696801  0.19905556  0.39899468  1
  Zr  Zr66  1  0.69222618  0.50260131  0.49879954  1
  Zr  Zr67  1  0.10339743  0.69784361  0.70200950  1
  Zr  Zr68  1  0.20258104  0.00956105  0.19696798  1
  Zr  Zr69  1  0.79661480  0.60489142  0.80043316  1
  Zr  Zr70  1  0.39989743  0.59781482  -0.00085324  1
  Zr  Zr71  1  0.71341913  0.10139929  0.30997823  1
  Zr  Zr72  1  0.40337466  0.19606103  -0.01352873  1
  Zr  Zr73  1  0.89468118  0.90657627  0.90247511  1
  Zr  Zr74  1  0.49606929  0.89530892  0.10510869  1
  Zr  Zr75  1  0.49610687  0.89297514  0.29813761  1
  Zr  Zr76  1  0.10121504  0.30610025  0.09298043  1
  Zr  Zr77  1  -0.00176819  0.57988245  0.82334076  1
  Zr  Zr78  1  0.89334021  0.09291112  0.30569270  1
  Zr  Zr79  1  0.10003917  0.30614195  0.29078047  1
  Zr  Zr80  1  0.51291973  0.89686332  0.88775588  1
  Zr  Zr81  1  0.69305834  0.90162536  0.70759342  1
  Zr  Zr82  1  0.10029751  0.10363948  0.89799944  1
  Zr  Zr83  1  0.30160293  0.89154135  0.29930272  1
  Zr  Zr84  1  0.50319191  0.89870924  0.70323872  1
  Zr  Zr85  1  0.10505719  0.90670928  0.89565617  1
  Zr  Zr86  1  0.89932836  0.69799858  0.30484318  1
  Zr  Zr87  1  0.39735333  0.00153771  -0.00775617  1
  Zr  Zr88  1  -0.00157916  0.59167524  0.58856982  1
  Zr  Zr89  1  0.30331543  0.68962528  0.50585074  1
  Zr  Zr90  1  0.10196798  0.89764814  0.30103297  1
  Zr  Zr91  1  0.19960881  0.40388405  0.40631335  1
  Zr  Zr92  1  0.89898177  0.68782701  0.91698388  1
  Zr  Zr93  1  0.58235277  0.20296876  0.79204520  1
  Zr  Zr94  1  0.29996862  0.10691816  0.50865557  1
  Zr  Zr95  1  0.10363102  0.69694158  0.10083605  1
  Zr  Zr96  1  0.80521261  0.39776598  0.60188562  1
  Zr  Zr97  1  0.70232000  0.29919675  0.49708936  1
  Zr  Zr98  1  0.39633054  0.79981065  0.60449799  1
  Zr  Zr99  1  0.59815687  0.19867969  0.40295336  1
  Ta  Ta100  1  0.89823657  0.30330733  0.89651724  1
  Ta  Ta101  1  0.10260573  0.50159283  0.29345416  1
  Ta  Ta102  1  0.21021390  0.41265317  0.00174646  1
  Ta  Ta103  1  0.08980793  0.10167051  0.29800891  1
  Ta  Ta104  1  0.70188576  0.69575560  0.30977843  1
  Ta  Ta105  1  0.60042344  0.60117860  0.79381972  1
  Ta  Ta106  1  0.50526717  0.49938166  0.29761900  1
  Ta  Ta107  1  0.50652813  0.50147113  0.09636384  1
  Ta  Ta108  1  0.71044205  0.30422327  0.29832068  1
  Ta  Ta109  1  0.79309716  0.79145035  0.79875389  1
  Ta  Ta110  1  0.19975018  0.79498749  0.40753439  1
  Ta  Ta111  1  0.70382774  0.49667220  0.30055515  1
  Ta  Ta112  1  0.59888729  0.00344870  -0.00507466  1
  Ta  Ta113  1  0.60267340  0.79118875  0.00003051  1
  Ta  Ta114  1  0.49819583  0.89515850  0.49922667  1
  Ta  Ta115  1  -0.01073767  0.19827090  0.19110564  1
  Ta  Ta116  1  0.30191240  0.30688993  0.10094160  1
  Ta  Ta117  1  0.90230181  0.49343281  0.70955103  1
  Ta  Ta118  1  0.29707177  0.89409191  0.50517508  1
  Ta  Ta119  1  0.79401280  0.79720115  0.20566585  1
  Ta  Ta120  1  0.10669381  0.69631928  0.30173602  1
  Ta  Ta121  1  0.19554322  -0.00630004  0.59586456  1
  Ta  Ta122  1  -0.01638925  0.20170055  0.00006459  1
  Ta  Ta123  1  0.20296198  0.59486919  0.19926344  1
  Ta  Ta124  1  0.60365858  0.59922447  0.19688618  1
  Ta  Ta125  1  0.79606083  -0.00313497  0.60042168  1
  Ta  Ta126  1  0.59752257  0.20314508  0.60447259  1
  Ta  Ta127  1  0.59915427  -0.00224340  0.40670205  1
  Ta  Ta128  1  0.69789980  0.69771729  0.48953378  1
  Ta  Ta129  1  0.80031787  0.00388946  0.79372149  1
  Ta  Ta130  1  0.59790651  0.39936617  0.39639095  1
  Ta  Ta131  1  0.79747615  0.20341824  0.00386634  1
  Ta  Ta132  1  0.90045567  0.10419672  0.89981809  1
  Ta  Ta133  1  -0.00550472  0.20630629  0.79505573  1
  Ta  Ta134  1  0.50105934  0.69214316  0.70075903  1
  Ta  Ta135  1  0.69529856  0.89914731  0.89333593  1
  Ta  Ta136  1  0.40348851  0.40372242  0.19502719  1
  Ta  Ta137  1  0.49960146  0.30143114  0.29678349  1
  Ta  Ta138  1  0.29513447  0.69904512  0.89212785  1
  Ta  Ta139  1  0.58086481  0.39768159  0.60329365  1
  Ta  Ta140  1  0.20040060  0.20713411  0.79255898  1
  Ta  Ta141  1  0.20855975  0.40565406  0.60387614  1
  Ta  Ta142  1  0.89165912  0.90477098  0.10621663  1
  Ta  Ta143  1  0.79791777  0.19511284  0.18366283  1
  Ta  Ta144  1  0.50627732  0.49887048  0.89319216  1
  Ta  Ta145  1  0.39954068  0.79344285  0.40422951  1
  Ta  Ta146  1  0.20596795  0.80590202  -0.00448496  1
  Ta  Ta147  1  0.00658835  0.59359487  0.40090801  1
  Ta  Ta148  1  0.78704094  0.59856126  0.19975118  1
  Ta  Ta149  1  0.30060106  0.69817722  0.30258178  1
  Ti  Ti150  1  0.31196713  0.49972959  0.50529066  1
  Ti  Ti151  1  0.10820645  0.50627802  0.09647813  1
  Ti  Ti152  1  0.49590798  0.10859740  0.30400480  1
  Ti  Ti153  1  0.39932749  -0.00346324  0.60151286  1
  Ti  Ti154  1  0.60200114  0.80228658  0.40309643  1
  Ti  Ti155  1  0.30566149  0.30651292  0.69725119  1
  Ti  Ti156  1  0.59847534  0.39943003  0.00093357  1
  Ti  Ti157  1  0.10306227  0.90324999  0.09916619  1
  Ti  Ti158  1  0.49486565  0.10532326  0.49934752  1
  Ti  Ti159  1  0.00702998  -0.00225508  0.41090173  1
  Ti  Ti160  1  0.49800441  0.30023580  0.49868361  1
  Ti  Ti161  1  0.09818591  0.30116533  0.70123970  1
  Ti  Ti162  1  0.01005093  0.80049357  0.40471171  1
  Ti  Ti163  1  0.29069847  0.10462512  0.88666576  1
  Ti  Ti164  1  0.40586659  0.58350021  0.61201626  1
  Ti  Ti165  1  0.10104066  0.70929486  0.51043641  1
  Ti  Ti166  1  0.89847414  0.09745603  0.69257851  1
  Ti  Ti167  1  0.70665780  0.10420167  0.50196600  1
  Ti  Ti168  1  -0.00860354  0.20250806  0.60601683  1
  Ti  Ti169  1  0.59950242  0.59280944  0.39304610  1
  Ti  Ti170  1  0.77845767  0.60285706  0.00684375  1
  Ti  Ti171  1  0.92005274  0.89534911  0.50894673  1
  Ti  Ti172  1  0.69711638  0.09980410  0.69732825  1
  Ti  Ti173  1  0.00388382  0.59601100  0.20433399  1
  Ti  Ti174  1  0.40024215  0.59128087  0.79310911  1
  Ti  Ti175  1  0.19964623  0.58642659  0.59838477  1
  Ti  Ti176  1  0.49948369  0.50306663  0.50020633  1
  Ti  Ti177  1  0.39711565  0.01183412  0.19813754  1
  Ti  Ti178  1  0.39993594  0.20484178  0.19652853  1
  Ti  Ti179  1  0.90467111  0.69941461  0.69608861  1
  Ti  Ti180  1  0.30649828  0.30432809  0.29515303  1
  Ti  Ti181  1  0.89389402  0.89560569  0.30565660  1
  Ti  Ti182  1  0.80536593  0.59217650  0.40117512  1
  Ti  Ti183  1  0.80646090  0.39961059  0.80042051  1
  Ti  Ti184  1  0.60104249  0.60766261  0.00680862  1
  Ti  Ti185  1  0.89304474  0.29313136  0.49893350  1
  Ti  Ti186  1  0.79737090  0.20213780  0.60633073  1
  Ti  Ti187  1  0.70145940  0.89289001  0.30347910  1
  Ti  Ti188  1  0.28919038  0.90008294  0.87510216  1
  Ti  Ti189  1  0.40659104  0.20296580  0.79900404  1
  Ti  Ti190  1  0.89516908  0.30428527  0.10047701  1
  Ti  Ti191  1  0.39200570  0.80136206  0.79310390  1
  Ti  Ti192  1  0.69143645  0.30725560  0.69993970  1
  Ti  Ti193  1  0.60266836  0.19966284  -0.00200677  1
  Ti  Ti194  1  0.49739961  0.69372075  0.31117398  1
  Ti  Ti195  1  0.21069910  0.20126611  0.00025852  1
  Ti  Ti196  1  0.41046131  0.40498251  0.78788440  1
  Ti  Ti197  1  0.80366065  0.40574950  0.40180741  1
  Ti  Ti198  1  0.29898161  0.51017601  0.89270329  1
  Ti  Ti199  1  0.89512949  0.50089152  0.29601080  1
  Mo  Mo200  1  0.20351911  0.79901273  0.80043426  1
  Mo  Mo201  1  0.50522052  0.10250587  0.90028672  1
  Mo  Mo202  1  0.19878804  0.80256705  0.59644676  1
  Mo  Mo203  1  0.19996452  0.78888425  0.20789661  1
  Mo  Mo204  1  0.10459836  0.49538793  0.50158167  1
  Mo  Mo205  1  -0.00798624  0.00450865  0.00554368  1
  Mo  Mo206  1  0.29321472  0.90279207  0.69836548  1
  Mo  Mo207  1  0.09887885  0.89364785  0.50258239  1
  Mo  Mo208  1  0.69683727  0.69704325  0.69773091  1
  Mo  Mo209  1  0.61091532  0.78032781  0.79994925  1
  Mo  Mo210  1  0.69406310  0.50517107  0.10046779  1
  Mo  Mo211  1  0.49662911  0.30865547  0.70009330  1
  Mo  Mo212  1  0.87988268  0.49518236  0.90275778  1
  Mo  Mo213  1  0.49968165  0.09851610  0.69471707  1
  Mo  Mo214  1  0.68378044  0.89525193  0.49977240  1
  Mo  Mo215  1  0.20817624  0.40797915  0.19267600  1
  Mo  Mo216  1  -0.00012378  0.00197337  0.59524120  1
  Mo  Mo217  1  0.50026073  0.30935892  0.89616994  1
  Mo  Mo218  1  0.20192830  0.00466464  0.79219310  1
  Mo  Mo219  1  0.69853404  0.69905445  0.10567983  1
  Mo  Mo220  1  0.59089386  0.40215028  0.79884768  1
  Mo  Mo221  1  0.69878045  0.29584078  0.09569943  1
  Mo  Mo222  1  0.79331100  0.79920534  0.39880388  1
  Mo  Mo223  1  -0.00028178  0.79422283  0.59664468  1
  Mo  Mo224  1  0.01108185  0.59585173  0.01024910  1
  Mo  Mo225  1  0.20871287  0.59564002  0.80228229  1
  Mo  Mo226  1  0.20727665  0.59541108  0.00045455  1
  Mo  Mo227  1  0.20514119  0.21058687  0.61093534  1
  Mo  Mo228  1  0.69377596  0.69932819  0.90086450  1
  Mo  Mo229  1  0.09132558  0.09631474  0.50929118  1
  Mo  Mo230  1  -0.00375182  0.39465935  0.79908171  1
  Mo  Mo231  1  0.59481583  0.59639179  0.59970918  1
  Mo  Mo232  1  0.30250819  0.49824388  0.10493276  1
  Mo  Mo233  1  0.60554961  0.01301448  0.79882864  1
  Mo  Mo234  1  0.90273842  0.29977760  0.70229177  1
  Mo  Mo235  1  0.69782073  0.10124605  0.09587593  1
  Mo  Mo236  1  0.40463105  0.59570165  0.39679778  1
  Mo  Mo237  1  0.30562438  0.49991009  0.69659618  1
  Mo  Mo238  1  0.12172142  0.50246698  0.90645354  1
  Mo  Mo239  1  0.89833645  0.50332581  0.49145335  1
  Mo  Mo240  1  0.40611305  0.78327256  0.21212945  1
  Mo  Mo241  1  0.49934331  0.50200897  0.70176839  1
  Mo  Mo242  1  0.79989092  0.40210715  0.20239407  1
  Mo  Mo243  1  0.79970933  0.20782723  0.40799183  1
  Mo  Mo244  1  0.89726576  0.10001981  0.09673467  1
  Mo  Mo245  1  0.40896706  0.20646008  0.39554123  1
  Mo  Mo246  1  0.80122117  -0.00887620  0.20675890  1
  Mo  Mo247  1  0.40246991  0.40385981  0.59754262  1
  Mo  Mo248  1  0.50291446  0.69597356  0.09050064  1
  Mo  Mo249  1  0.30568056  0.11240429  0.10166719  1
