# generated using pymatgen
data_HfZrTaTiMo
_symmetry_space_group_name_H-M   'P 1'
_cell_length_a   16.88239039
_cell_length_b   16.89455717
_cell_length_c   16.89858843
_cell_angle_alpha   90.04296450
_cell_angle_beta   90.09537097
_cell_angle_gamma   90.03155020
_symmetry_Int_Tables_number   1
_chemical_formula_structural   HfZrTaTiMo
_chemical_formula_sum   'Hf50 Zr50 Ta50 Ti50 Mo50'
_cell_volume   4819.81523645
_cell_formula_units_Z   50
loop_
 _symmetry_equiv_pos_site_id
 _symmetry_equiv_pos_as_xyz
  1  'x, y, z'
loop_
 _atom_site_type_symbol
 _atom_site_label
 _atom_site_symmetry_multiplicity
 _atom_site_fract_x
 _atom_site_fract_y
 _atom_site_fract_z
 _atom_site_occupancy
  Hf  Hf0  1  0.79365192  0.40713552  0.59058613  1
  Hf  Hf1  1  0.59822746  0.39802556  0.58104454  1
  Hf  Hf2  1  0.28504898  0.89638006  0.88581578  1
  Hf  Hf3  1  0.09806547  0.29864602  0.09028442  1
  Hf  Hf4  1  0.09573696  0.88839240  0.10253929  1
  Hf  Hf5  1  0.49759484  0.11938322  0.50429729  1
  Hf  Hf6  1  0.69821104  0.49962816  0.70991106  1
  Hf  Hf7  1  0.59990428  0.19763091  0.00598061  1
  Hf  Hf8  1  0.60742435  0.19063021  0.79441900  1
  Hf  Hf9  1  0.30628695  0.49984226  0.31135942  1
  Hf  Hf10  1  0.19757602  0.60021136  0.59812406  1
  Hf  Hf11  1  0.79814492  0.00605835  0.59958809  1
  Hf  Hf12  1  0.30926211  0.70182107  0.49765538  1
  Hf  Hf13  1  -0.00550033  0.60766247  0.60459195  1
  Hf  Hf14  1  0.49925425  0.90205318  0.10830322  1
  Hf  Hf15  1  0.89416147  0.70007519  0.30607129  1
  Hf  Hf16  1  0.19000726  0.79300538  -0.00782913  1
  Hf  Hf17  1  0.50348315  0.30041658  0.89772274  1
  Hf  Hf18  1  0.70685744  0.69515422  0.10001183  1
  Hf  Hf19  1  0.19921271  0.39339377  0.79517066  1
  Hf  Hf20  1  0.70534546  0.30869766  0.90706716  1
  Hf  Hf21  1  0.90401864  0.89171120  0.50831608  1
  Hf  Hf22  1  0.50067794  0.29260419  0.68837813  1
  Hf  Hf23  1  -0.00612979  -0.00200605  -0.00213151  1
  Hf  Hf24  1  -0.00513762  0.60706687  -0.00592202  1
  Hf  Hf25  1  0.19568644  0.19957728  0.60052875  1
  Hf  Hf26  1  0.50313246  0.49739708  0.70354087  1
  Hf  Hf27  1  0.00624828  0.19642467  0.60381102  1
  Hf  Hf28  1  0.39879839  0.39785165  0.79947236  1
  Hf  Hf29  1  0.40528958  0.59929145  -0.00521706  1
  Hf  Hf30  1  0.09312543  0.48989673  0.49808051  1
  Hf  Hf31  1  0.69502454  0.30533701  0.70140848  1
  Hf  Hf32  1  -0.00309032  0.59664773  0.20769766  1
  Hf  Hf33  1  0.60669493  -0.00564178  0.00436117  1
  Hf  Hf34  1  0.40429738  -0.00682753  0.79055732  1
  Hf  Hf35  1  0.79417073  -0.02074708  0.00033714  1
  Hf  Hf36  1  0.90574073  0.30333830  0.69652876  1
  Hf  Hf37  1  0.40443870  -0.00968932  -0.00745565  1
  Hf  Hf38  1  -0.00642798  0.39837224  -0.00853068  1
  Hf  Hf39  1  -0.00063622  0.40058503  0.20669923  1
  Hf  Hf40  1  0.90448394  0.88884569  0.69745276  1
  Hf  Hf41  1  0.90705096  0.30398898  0.49530756  1
  Hf  Hf42  1  0.29358412  0.09711281  0.89248368  1
  Hf  Hf43  1  0.49725791  0.10357547  0.69130610  1
  Hf  Hf44  1  0.20166005  0.39651216  0.20663613  1
  Hf  Hf45  1  0.29781713  0.69708115  0.88224222  1
  Hf  Hf46  1  0.50658182  0.69829469  0.09979443  1
  Hf  Hf47  1  0.70010889  0.30548244  0.10538078  1
  Hf  Hf48  1  0.19437542  0.60477407  -0.00561060  1
  Hf  Hf49  1  0.80026021  0.60186288  0.60005589  1
  Zr  Zr50  1  0.20481779  0.39693130  -0.00560576  1
  Zr  Zr51  1  0.09674197  0.50161313  0.09865284  1
  Zr  Zr52  1  0.30010702  0.69937677  0.10185699  1
  Zr  Zr53  1  0.89863662  0.89644251  0.30372077  1
  Zr  Zr54  1  0.18934677  0.60129561  0.39980276  1
  Zr  Zr55  1  0.00089129  0.00191233  0.40898240  1
  Zr  Zr56  1  0.70952313  0.09656448  0.90562341  1
  Zr  Zr57  1  0.29848278  0.29871041  0.69201620  1
  Zr  Zr58  1  0.20654867  0.01780738  0.19689434  1
  Zr  Zr59  1  0.79747229  -0.00246480  0.19815475  1
  Zr  Zr60  1  0.49757822  0.70154612  0.49540958  1
  Zr  Zr61  1  0.60441393  0.01343156  0.40391769  1
  Zr  Zr62  1  0.30233432  0.89972362  0.10297652  1
  Zr  Zr63  1  0.39846217  0.39826352  0.00211656  1
  Zr  Zr64  1  0.00196123  0.01035696  0.19081861  1
  Zr  Zr65  1  0.89629717  0.11092781  0.30267942  1
  Zr  Zr66  1  0.38858031  0.00182651  0.59327285  1
  Zr  Zr67  1  0.20686341  0.20552294  0.19512263  1
  Zr  Zr68  1  0.89826402  0.87749026  0.09912525  1
  Zr  Zr69  1  0.30885846  0.90504307  0.30219772  1
  Zr  Zr70  1  0.50218166  0.69502930  0.70018026  1
  Zr  Zr71  1  0.61649058  0.80837323  0.00061589  1
  Zr  Zr72  1  0.79316037  0.19337794  0.59474465  1
  Zr  Zr73  1  0.40350416  0.39522916  0.20548591  1
  Zr  Zr74  1  0.59705531  0.41159648  0.39575565  1
  Zr  Zr75  1  0.39794505  0.20203658  0.20410805  1
  Zr  Zr76  1  0.69399743  0.70811177  0.50124672  1
  Zr  Zr77  1  0.10326636  0.89835466  0.29736964  1
  Zr  Zr78  1  0.29811255  0.69822874  0.69826183  1
  Zr  Zr79  1  0.18948589  0.00304994  0.00335783  1
  Zr  Zr80  1  0.10856785  0.11362742  0.31075520  1
  Zr  Zr81  1  0.80807620  0.19974818  0.80281180  1
  Zr  Zr82  1  0.70038180  0.89518068  0.50379254  1
  Zr  Zr83  1  0.88773517  0.50428839  0.90312036  1
  Zr  Zr84  1  0.30966279  0.69762209  0.30938826  1
  Zr  Zr85  1  0.41124762  0.80684278  0.79257432  1
  Zr  Zr86  1  0.40811663  0.79469193  0.20581040  1
  Zr  Zr87  1  0.49719168  0.09992827  0.90135307  1
  Zr  Zr88  1  0.79553440  0.59237940  0.40682704  1
  Zr  Zr89  1  0.79045058  0.40372838  0.40003829  1
  Zr  Zr90  1  0.00255701  0.20341677  0.19436618  1
  Zr  Zr91  1  0.09309022  0.89941395  0.69869511  1
  Zr  Zr92  1  0.91271231  0.08903486  0.70911826  1
  Zr  Zr93  1  0.69947011  0.50290836  0.90384128  1
  Zr  Zr94  1  0.09993723  0.49141781  0.69248304  1
  Zr  Zr95  1  0.69631923  0.11511158  0.29845227  1
  Zr  Zr96  1  0.20653516  0.00518018  0.41113869  1
  Zr  Zr97  1  0.49666725  0.90332437  0.49465763  1
  Zr  Zr98  1  0.00015068  0.39300037  0.80206385  1
  Zr  Zr99  1  0.30170386  0.50530096  0.10577298  1
  Ta  Ta100  1  0.60131344  0.00252284  0.20212237  1
  Ta  Ta101  1  0.70376837  0.49562941  0.10229440  1
  Ta  Ta102  1  0.31762347  0.10207410  0.09084499  1
  Ta  Ta103  1  0.80179191  0.79568821  0.80256386  1
  Ta  Ta104  1  0.19567823  0.80244044  0.40658453  1
  Ta  Ta105  1  0.88913476  0.11129290  0.08684372  1
  Ta  Ta106  1  0.50977875  0.69803364  0.89693647  1
  Ta  Ta107  1  0.69541928  0.69794595  0.30463978  1
  Ta  Ta108  1  0.79570529  0.59198969  0.20795534  1
  Ta  Ta109  1  0.50073391  0.90710034  0.30180153  1
  Ta  Ta110  1  -0.00275619  0.60600055  0.79829039  1
  Ta  Ta111  1  0.09365155  0.70117768  0.10691140  1
  Ta  Ta112  1  0.10149402  0.30911043  0.50480175  1
  Ta  Ta113  1  0.28199337  0.90009960  0.69682222  1
  Ta  Ta114  1  0.19887637  0.19317535  0.00089715  1
  Ta  Ta115  1  0.69960696  0.30153116  0.29348183  1
  Ta  Ta116  1  0.70292648  0.89102277  0.69927073  1
  Ta  Ta117  1  0.79824827  -0.01040250  0.80114841  1
  Ta  Ta118  1  0.40285204  0.40009692  0.59011645  1
  Ta  Ta119  1  0.50398676  0.69459023  0.31048276  1
  Ta  Ta120  1  0.29184856  0.09589341  0.70011626  1
  Ta  Ta121  1  0.70677967  0.69799660  0.90129938  1
  Ta  Ta122  1  0.30138924  0.49530333  0.50085235  1
  Ta  Ta123  1  0.88711103  0.49702369  0.10156295  1
  Ta  Ta124  1  0.60340179  0.59245312  0.59224279  1
  Ta  Ta125  1  0.60452485  0.80073794  0.20730343  1
  Ta  Ta126  1  0.60591648  -0.00877701  0.79292836  1
  Ta  Ta127  1  0.39523419  0.19689006  0.79542442  1
  Ta  Ta128  1  0.19027847  0.59991368  0.20906791  1
  Ta  Ta129  1  0.29963447  0.28615635  0.90059763  1
  Ta  Ta130  1  0.60206388  0.59413982  0.20814958  1
  Ta  Ta131  1  0.00725903  0.79735145  0.40652645  1
  Ta  Ta132  1  0.89978711  0.49945136  0.70038211  1
  Ta  Ta133  1  0.39896369  0.81182468  0.60394191  1
  Ta  Ta134  1  0.30222273  0.50335281  0.69656252  1
  Ta  Ta135  1  0.60805328  0.00792941  0.60544702  1
  Ta  Ta136  1  0.09905137  0.28642499  0.89481256  1
  Ta  Ta137  1  0.70212501  0.10561017  0.10414441  1
  Ta  Ta138  1  0.10407848  0.50712660  0.88918116  1
  Ta  Ta139  1  0.50366838  0.29650245  0.10248041  1
  Ta  Ta140  1  0.88967748  0.30501862  0.09476394  1
  Ta  Ta141  1  0.30038729  0.29551755  0.32217864  1
  Ta  Ta142  1  0.09154879  0.09844072  0.89066120  1
  Ta  Ta143  1  0.50505791  0.50331346  0.89320765  1
  Ta  Ta144  1  0.69846286  0.89973649  0.30532204  1
  Ta  Ta145  1  0.09179563  0.89652399  0.88659125  1
  Ta  Ta146  1  0.89314437  0.30233316  0.29971445  1
  Ta  Ta147  1  0.69990906  0.70436970  0.70134118  1
  Ta  Ta148  1  0.80024426  0.01074294  0.41099673  1
  Ta  Ta149  1  0.29965525  0.50938663  0.88332487  1
  Ti  Ti150  1  0.30320042  0.12154722  0.49255406  1
  Ti  Ti151  1  0.00653565  0.00425403  0.58959633  1
  Ti  Ti152  1  0.59202295  0.80668402  0.61076134  1
  Ti  Ti153  1  0.50002335  0.10117140  0.10673222  1
  Ti  Ti154  1  0.30196295  0.30298132  0.49864214  1
  Ti  Ti155  1  0.80636212  0.39700403  0.80408072  1
  Ti  Ti156  1  0.60371767  0.21637072  0.41137637  1
  Ti  Ti157  1  0.41199801  0.59452153  0.20719895  1
  Ti  Ti158  1  -0.00251767  0.79053519  0.20651213  1
  Ti  Ti159  1  0.60342609  0.60529729  0.80148209  1
  Ti  Ti160  1  0.50543543  0.29412891  0.30158412  1
  Ti  Ti161  1  0.49962408  0.10782579  0.29958192  1
  Ti  Ti162  1  0.19415629  0.80314173  0.59326963  1
  Ti  Ti163  1  0.09684442  0.70184994  0.30300072  1
  Ti  Ti164  1  0.51524251  0.89104312  0.89178997  1
  Ti  Ti165  1  0.59750165  0.40634621  0.20698504  1
  Ti  Ti166  1  0.79121678  0.79690466  0.20392463  1
  Ti  Ti167  1  0.39748266  0.01560691  0.39414902  1
  Ti  Ti168  1  0.19761045  0.39967570  0.40183831  1
  Ti  Ti169  1  0.89232987  0.69435784  0.09908687  1
  Ti  Ti170  1  -0.00042256  0.59931677  0.39912018  1
  Ti  Ti171  1  -0.00730074  0.20142712  -0.00854624  1
  Ti  Ti172  1  0.30028341  0.89366192  0.49772548  1
  Ti  Ti173  1  0.20042372  0.79093768  0.20619783  1
  Ti  Ti174  1  0.10237881  0.10834198  0.49625625  1
  Ti  Ti175  1  0.41349288  0.39945425  0.40600587  1
  Ti  Ti176  1  0.79540959  0.20114957  0.40947833  1
  Ti  Ti177  1  0.80118324  0.20599133  0.19663266  1
  Ti  Ti178  1  -0.00306735  0.78721238  -0.01124338  1
  Ti  Ti179  1  0.80852931  0.61088770  0.79673980  1
  Ti  Ti180  1  0.90002578  0.49276594  0.30464051  1
  Ti  Ti181  1  0.59618760  0.40504663  0.00301496  1
  Ti  Ti182  1  0.19448034  0.00212061  0.59326446  1
  Ti  Ti183  1  0.60233779  0.59705108  0.00272383  1
  Ti  Ti184  1  0.79855685  0.80194104  0.40180251  1
  Ti  Ti185  1  -0.00626295  0.78393651  0.80262222  1
  Ti  Ti186  1  0.09958133  0.08923371  0.71123165  1
  Ti  Ti187  1  0.90007360  0.88945185  0.89562749  1
  Ti  Ti188  1  0.09855778  0.30430807  0.31546769  1
  Ti  Ti189  1  0.40354799  0.79878269  -0.00783297  1
  Ti  Ti190  1  0.10302440  0.70541692  0.70577097  1
  Ti  Ti191  1  0.50645985  0.49913070  0.10285970  1
  Ti  Ti192  1  0.19303070  0.19885059  0.79423872  1
  Ti  Ti193  1  0.90039533  0.71020912  0.50485023  1
  Ti  Ti194  1  0.40553897  0.59059574  0.59424220  1
  Ti  Ti195  1  0.91297201  0.49302502  0.50128869  1
  Ti  Ti196  1  0.59633416  0.80384554  0.39293296  1
  Ti  Ti197  1  -0.00004804  0.20363694  0.40471895  1
  Ti  Ti198  1  0.90032334  0.09971698  0.90002762  1
  Ti  Ti199  1  0.09412339  0.70580996  0.50349942  1
  Mo  Mo200  1  0.70098545  0.09022257  0.70188379  1
  Mo  Mo201  1  0.79856530  0.60190134  0.01125546  1
  Mo  Mo202  1  0.49416682  0.50428555  0.49818313  1
  Mo  Mo203  1  0.59807290  0.40112597  0.80563069  1
  Mo  Mo204  1  0.40838948  0.59621401  0.80002650  1
  Mo  Mo205  1  0.49935879  0.50532173  0.30036903  1
  Mo  Mo206  1  0.50974889  0.90476799  0.69350900  1
  Mo  Mo207  1  0.49381441  0.30019147  0.49587263  1
  Mo  Mo208  1  0.41109934  0.01328466  0.20585827  1
  Mo  Mo209  1  0.18847775  0.79772736  0.79384387  1
  Mo  Mo210  1  0.90431259  0.10287227  0.49751880  1
  Mo  Mo211  1  0.40362670  0.20872608  0.40024006  1
  Mo  Mo212  1  0.69269824  0.50842889  0.49799378  1
  Mo  Mo213  1  -0.00120223  0.39569216  0.39539210  1
  Mo  Mo214  1  0.69683862  0.50245788  0.29361577  1
  Mo  Mo215  1  0.89552058  0.70215784  0.89962462  1
  Mo  Mo216  1  0.70015923  0.89749149  0.11866082  1
  Mo  Mo217  1  0.08593603  0.10865881  0.08295906  1
  Mo  Mo218  1  0.00442685  0.19584986  0.80276236  1
  Mo  Mo219  1  0.79843626  0.40043897  0.00572604  1
  Mo  Mo220  1  0.09910953  0.49809340  0.30610166  1
  Mo  Mo221  1  0.20071833  0.21096365  0.40942023  1
  Mo  Mo222  1  0.38761220  0.20327069  0.59846532  1
  Mo  Mo223  1  0.70368152  0.89254308  0.88538152  1
  Mo  Mo224  1  0.60862695  0.20051769  0.59489743  1
  Mo  Mo225  1  -0.00606069  -0.00539080  0.81020301  1
  Mo  Mo226  1  0.69604208  0.10734961  0.50040094  1
  Mo  Mo227  1  0.40642393  0.58840201  0.40371885  1
  Mo  Mo228  1  0.89676121  0.69816811  0.70349277  1
  Mo  Mo229  1  0.10323469  0.89450582  0.50617890  1
  Mo  Mo230  1  0.80516746  0.79192417  -0.00680047  1
  Mo  Mo231  1  0.10110310  0.29476093  0.69979811  1
  Mo  Mo232  1  0.40308158  0.81059127  0.40316871  1
  Mo  Mo233  1  0.19242682  0.59806174  0.79335043  1
  Mo  Mo234  1  0.80114864  0.79484950  0.60761507  1
  Mo  Mo235  1  0.30605325  0.29049829  0.08550524  1
  Mo  Mo236  1  0.80144535  0.40016348  0.20498559  1
  Mo  Mo237  1  0.09396297  0.70027731  0.89025914  1
  Mo  Mo238  1  0.90044521  0.29463871  0.90394629  1
  Mo  Mo239  1  0.20706469  0.40013972  0.59368891  1
  Mo  Mo240  1  0.60871486  0.79680647  0.80005424  1
  Mo  Mo241  1  0.30894209  0.10873858  0.30931265  1
  Mo  Mo242  1  0.00223537  0.78851708  0.59874645  1
  Mo  Mo243  1  -0.00438028  0.39942552  0.59986668  1
  Mo  Mo244  1  0.80183181  0.20339732  0.00210032  1
  Mo  Mo245  1  0.59862097  0.60070550  0.39736886  1
  Mo  Mo246  1  0.19183373  0.00057299  0.79532642  1
  Mo  Mo247  1  0.40070032  0.19919548  -0.00035086  1
  Mo  Mo248  1  0.69979966  0.29857338  0.49361910  1
  Mo  Mo249  1  0.59624471  0.20279099  0.19966509  1
