# generated using pymatgen
data_HfZrTaTiMo
_symmetry_space_group_name_H-M   'P 1'
_cell_length_a   16.90398075
_cell_length_b   16.88632530
_cell_length_c   16.88629740
_cell_angle_alpha   90.07552477
_cell_angle_beta   89.91971681
_cell_angle_gamma   90.03518863
_symmetry_Int_Tables_number   1
_chemical_formula_structural   HfZrTaTiMo
_chemical_formula_sum   'Hf50 Zr50 Ta50 Ti50 Mo50'
_cell_volume   4820.11821199
_cell_formula_units_Z   50
loop_
 _symmetry_equiv_pos_site_id
 _symmetry_equiv_pos_as_xyz
  1  'x, y, z'
loop_
 _atom_site_type_symbol
 _atom_site_label
 _atom_site_symmetry_multiplicity
 _atom_site_fract_x
 _atom_site_fract_y
 _atom_site_fract_z
 _atom_site_occupancy
  Hf  Hf0  1  -0.00540113  0.79600611  0.19332837  1
  Hf  Hf1  1  0.50719031  0.89259384  0.09551650  1
  Hf  Hf2  1  0.10222782  0.50572350  0.31025676  1
  Hf  Hf3  1  0.00119620  0.20412996  -0.00216196  1
  Hf  Hf4  1  0.79442508  0.39488094  0.61062671  1
  Hf  Hf5  1  0.01178345  -0.00088571  0.00034952  1
  Hf  Hf6  1  0.19638264  0.19864503  0.00419991  1
  Hf  Hf7  1  0.49596980  0.09730051  0.90340054  1
  Hf  Hf8  1  0.11423202  0.68776110  0.50536039  1
  Hf  Hf9  1  0.48623272  0.90351492  0.69976044  1
  Hf  Hf10  1  0.50888344  0.50110925  0.69998971  1
  Hf  Hf11  1  0.00010971  0.01292884  0.39967726  1
  Hf  Hf12  1  0.80158832  0.60287786  0.60734148  1
  Hf  Hf13  1  0.90379230  0.08589908  0.10026037  1
  Hf  Hf14  1  0.29685905  0.49935265  0.89962680  1
  Hf  Hf15  1  -0.01127972  0.60167243  0.41015470  1
  Hf  Hf16  1  -0.00624074  0.59214388  0.00588458  1
  Hf  Hf17  1  0.19594665  0.39594113  0.79897261  1
  Hf  Hf18  1  0.89943840  0.09780134  0.89156568  1
  Hf  Hf19  1  0.50398526  0.50207369  0.29324703  1
  Hf  Hf20  1  0.19903097  0.00935324  0.40588414  1
  Hf  Hf21  1  0.29177793  0.51035149  0.49942173  1
  Hf  Hf22  1  -0.01304965  0.79501224  0.60169904  1
  Hf  Hf23  1  0.19711559  -0.01732465  0.78934166  1
  Hf  Hf24  1  0.30233651  0.90861706  0.29894199  1
  Hf  Hf25  1  0.89710827  0.29928105  0.71697105  1
  Hf  Hf26  1  0.60204390  0.80599997  0.39622443  1
  Hf  Hf27  1  0.09753755  0.50341051  0.69545990  1
  Hf  Hf28  1  0.70203469  0.89207062  0.09410156  1
  Hf  Hf29  1  0.50073430  0.71279714  0.89963212  1
  Hf  Hf30  1  0.39520912  -0.00575989  0.00627923  1
  Hf  Hf31  1  -0.00630428  0.41013368  0.19052645  1
  Hf  Hf32  1  0.40141508  0.21012520  0.60395084  1
  Hf  Hf33  1  0.60826624  0.20219431  0.80907232  1
  Hf  Hf34  1  0.70581335  0.11215386  0.48740567  1
  Hf  Hf35  1  0.60459848  -0.00153594  0.59186522  1
  Hf  Hf36  1  0.39667079  0.79970124  0.19965102  1
  Hf  Hf37  1  0.50118958  0.11017778  0.49094861  1
  Hf  Hf38  1  0.89628279  0.68473092  0.87941935  1
  Hf  Hf39  1  0.82533391  0.19172754  0.36681741  1
  Hf  Hf40  1  -0.01729338  0.20462975  0.20212182  1
  Hf  Hf41  1  0.20244394  0.80227929  0.19640880  1
  Hf  Hf42  1  0.30747843  0.08473845  0.69572368  1
  Hf  Hf43  1  0.30560582  0.70269264  0.50695762  1
  Hf  Hf44  1  -0.00113872  -0.00104231  0.60893700  1
  Hf  Hf45  1  -0.00829256  0.40315304  0.60251125  1
  Hf  Hf46  1  0.50176945  0.29820481  0.11033055  1
  Hf  Hf47  1  0.89261600  0.90258033  0.90254705  1
  Hf  Hf48  1  0.89599414  0.10128714  0.49977245  1
  Hf  Hf49  1  -0.00625032  0.59963428  0.19451174  1
  Zr  Zr50  1  0.78946291  0.00266799  0.20541634  1
  Zr  Zr51  1  0.69811491  0.69814248  0.71203128  1
  Zr  Zr52  1  0.19929661  0.39447613  0.39563582  1
  Zr  Zr53  1  0.50273005  0.48288074  0.89474305  1
  Zr  Zr54  1  0.38467302  0.39768964  0.01781047  1
  Zr  Zr55  1  0.60299822  -0.00784253  0.39082329  1
  Zr  Zr56  1  0.50502460  0.50187077  0.50621316  1
  Zr  Zr57  1  0.51922496  0.32024590  0.70604907  1
  Zr  Zr58  1  0.61082757  0.21035873  0.60186968  1
  Zr  Zr59  1  0.20880945  0.80400317  0.40169836  1
  Zr  Zr60  1  0.40268550  0.21420837  0.79849749  1
  Zr  Zr61  1  -0.00000665  0.81009120  0.79283887  1
  Zr  Zr62  1  0.88987692  0.70132363  0.30264712  1
  Zr  Zr63  1  0.20297816  0.81847862  0.61550630  1
  Zr  Zr64  1  0.50976945  0.70061534  0.09972411  1
  Zr  Zr65  1  0.19755629  0.59693069  0.19515455  1
  Zr  Zr66  1  0.50774903  0.49934733  0.10503605  1
  Zr  Zr67  1  0.29223853  0.70447220  0.90169169  1
  Zr  Zr68  1  -0.00570760  0.79662549  0.40759379  1
  Zr  Zr69  1  0.69941505  0.30178034  0.30216934  1
  Zr  Zr70  1  0.40882487  0.39891578  0.40149609  1
  Zr  Zr71  1  0.09795924  0.69292678  0.70257315  1
  Zr  Zr72  1  0.49783945  0.09319474  0.70117933  1
  Zr  Zr73  1  0.20629934  0.39219314  0.60449445  1
  Zr  Zr74  1  0.08901333  0.29254647  0.49678513  1
  Zr  Zr75  1  0.20531378  0.40134468  0.18966256  1
  Zr  Zr76  1  0.60885096  0.59828651  -0.00837019  1
  Zr  Zr77  1  0.39840892  0.59955365  0.00025853  1
  Zr  Zr78  1  0.49648004  0.70214650  0.50632556  1
  Zr  Zr79  1  0.31402615  0.10591312  0.29764134  1
  Zr  Zr80  1  0.50106111  0.69713534  0.29545460  1
  Zr  Zr81  1  0.09542644  0.90314769  0.29541684  1
  Zr  Zr82  1  0.60613838  -0.00834769  0.81098887  1
  Zr  Zr83  1  -0.00636989  0.79601410  0.00107167  1
  Zr  Zr84  1  0.79646216  0.19894115  -0.00030641  1
  Zr  Zr85  1  0.49857321  0.70610678  0.70301101  1
  Zr  Zr86  1  0.10062568  0.90596630  0.50606213  1
  Zr  Zr87  1  0.19774040  0.20105800  0.19548796  1
  Zr  Zr88  1  0.30483778  0.28782128  0.48921302  1
  Zr  Zr89  1  0.89175824  0.29791713  0.49071625  1
  Zr  Zr90  1  0.69911414  0.49485957  0.49777239  1
  Zr  Zr91  1  -0.00628868  0.19157002  0.60978125  1
  Zr  Zr92  1  0.79541385  0.20161122  0.18618972  1
  Zr  Zr93  1  0.60792995  0.80774484  0.59802773  1
  Zr  Zr94  1  0.10389997  0.69578385  0.90053698  1
  Zr  Zr95  1  0.29672761  0.29910950  0.89902873  1
  Zr  Zr96  1  0.29920715  0.09551198  0.89278003  1
  Zr  Zr97  1  0.18877512  0.19079189  0.39487675  1
  Zr  Zr98  1  0.70834961  0.09770284  0.70134339  1
  Zr  Zr99  1  0.50519513  0.10346393  0.10546600  1
  Ta  Ta100  1  0.08491756  0.30155472  0.29832248  1
  Ta  Ta101  1  0.70376360  0.30095730  0.48885837  1
  Ta  Ta102  1  0.60875261  0.80514974  0.20903998  1
  Ta  Ta103  1  0.69989570  0.69794636  0.10292501  1
  Ta  Ta104  1  -0.01601956  0.60203632  0.60031991  1
  Ta  Ta105  1  0.39672800  0.39847691  0.60421277  1
  Ta  Ta106  1  0.80235457  0.59543064  0.19230937  1
  Ta  Ta107  1  0.32012573  0.29912828  0.28860157  1
  Ta  Ta108  1  0.18692892  0.39893487  0.00236697  1
  Ta  Ta109  1  0.40945874  -0.00128547  0.39704406  1
  Ta  Ta110  1  -0.00785326  0.40344934  0.39807887  1
  Ta  Ta111  1  0.20666678  0.59395864  0.79302183  1
  Ta  Ta112  1  0.10473182  0.09840585  0.89345672  1
  Ta  Ta113  1  0.29440980  0.89598882  0.90518248  1
  Ta  Ta114  1  0.89686518  0.90244186  0.29849996  1
  Ta  Ta115  1  0.70422516  0.70075523  0.49532161  1
  Ta  Ta116  1  0.09978556  0.50522234  0.50325653  1
  Ta  Ta117  1  0.89553347  0.50701350  0.71960208  1
  Ta  Ta118  1  0.10330379  0.09766143  0.70398396  1
  Ta  Ta119  1  0.29199089  0.70317184  0.09202764  1
  Ta  Ta120  1  -0.00106717  0.39808068  -0.00215813  1
  Ta  Ta121  1  0.60689319  -0.00508009  -0.00518667  1
  Ta  Ta122  1  0.38695289  0.59822917  0.19436939  1
  Ta  Ta123  1  0.60498712  0.60386393  0.39699942  1
  Ta  Ta124  1  0.09804397  0.29322878  0.70353762  1
  Ta  Ta125  1  0.39728671  0.59880695  0.79733562  1
  Ta  Ta126  1  0.60131320  -0.00452346  0.20333645  1
  Ta  Ta127  1  0.19983749  0.00001565  0.00740817  1
  Ta  Ta128  1  0.10486822  0.70048121  0.09472761  1
  Ta  Ta129  1  0.88954470  0.90384160  0.49639918  1
  Ta  Ta130  1  0.89593236  0.49576853  0.89619933  1
  Ta  Ta131  1  0.30261762  0.70002848  0.69893065  1
  Ta  Ta132  1  0.69480424  0.49045190  0.71164962  1
  Ta  Ta133  1  0.80322951  0.40108413  0.19394223  1
  Ta  Ta134  1  0.30560375  0.49904042  0.29860007  1
  Ta  Ta135  1  0.80124432  0.59903081  0.00145694  1
  Ta  Ta136  1  0.60590359  0.39913075  0.20261021  1
  Ta  Ta137  1  0.70104754  0.30945281  0.90393860  1
  Ta  Ta138  1  0.19915991  0.19031711  0.60155584  1
  Ta  Ta139  1  0.39963677  0.60201646  0.39482649  1
  Ta  Ta140  1  0.80523756  0.40127929  0.00661694  1
  Ta  Ta141  1  0.80372589  0.79839371  0.60053535  1
  Ta  Ta142  1  0.00405765  0.39546267  0.80890304  1
  Ta  Ta143  1  0.39504033  0.20322162  0.00794619  1
  Ta  Ta144  1  0.19801215  0.00547026  0.18705036  1
  Ta  Ta145  1  0.09347659  0.30081144  0.10019406  1
  Ta  Ta146  1  0.80218708  0.78872797  -0.00039328  1
  Ta  Ta147  1  0.50280439  0.11343480  0.29562097  1
  Ta  Ta148  1  0.10334562  0.69649396  0.30334298  1
  Ta  Ta149  1  0.69943530  0.49839908  0.10060761  1
  Ti  Ti150  1  0.70163053  0.70544225  0.90030861  1
  Ti  Ti151  1  0.51157574  0.30150470  0.49584496  1
  Ti  Ti152  1  0.89132899  0.49603303  0.49860241  1
  Ti  Ti153  1  0.10355037  0.89746688  0.09806436  1
  Ti  Ti154  1  0.40294443  0.80510513  0.39584688  1
  Ti  Ti155  1  0.79706672  0.00012711  0.38774061  1
  Ti  Ti156  1  0.29538764  0.69301439  0.30486811  1
  Ti  Ti157  1  0.19997877  0.80293415  0.79541318  1
  Ti  Ti158  1  0.79387045  0.19954692  0.80395507  1
  Ti  Ti159  1  0.19566562  0.58572855  0.00658681  1
  Ti  Ti160  1  0.79360277  -0.00018027  0.80467153  1
  Ti  Ti161  1  0.89083686  0.90603717  0.70252396  1
  Ti  Ti162  1  0.50917278  0.30515384  0.91442825  1
  Ti  Ti163  1  0.69080010  0.30478016  0.09594540  1
  Ti  Ti164  1  0.00702023  0.20052796  0.80592081  1
  Ti  Ti165  1  0.70665720  0.89961390  0.70147698  1
  Ti  Ti166  1  0.10595821  0.89568710  0.90347284  1
  Ti  Ti167  1  0.60868076  0.19276296  0.00072890  1
  Ti  Ti168  1  0.79605815  0.59966997  0.40233652  1
  Ti  Ti169  1  0.89554258  0.30437609  0.89991512  1
  Ti  Ti170  1  0.31005350  0.09778731  0.50090927  1
  Ti  Ti171  1  0.80340562  0.00104221  0.60411712  1
  Ti  Ti172  1  0.19854609  0.20149237  0.79368651  1
  Ti  Ti173  1  0.60507842  0.81517442  0.81398275  1
  Ti  Ti174  1  0.70204610  0.50285773  0.29659871  1
  Ti  Ti175  1  0.00295380  -0.00084814  0.79612894  1
  Ti  Ti176  1  0.80031062  0.79626408  0.19679076  1
  Ti  Ti177  1  0.60127465  0.59695083  0.80763666  1
  Ti  Ti178  1  0.40622863  -0.00415832  0.19910688  1
  Ti  Ti179  1  0.79966997  0.80021757  0.79692413  1
  Ti  Ti180  1  0.39409994  0.59390096  0.61052337  1
  Ti  Ti181  1  0.31012105  0.91020270  0.51124356  1
  Ti  Ti182  1  0.60850901  0.60239174  0.59973667  1
  Ti  Ti183  1  0.88954833  0.49797817  0.30501571  1
  Ti  Ti184  1  0.70740671  0.49242536  0.89918278  1
  Ti  Ti185  1  0.89429943  0.90055905  0.09922577  1
  Ti  Ti186  1  0.39122542  0.80702662  0.80209380  1
  Ti  Ti187  1  0.30626837  0.10321314  0.10551351  1
  Ti  Ti188  1  0.78659378  0.00457481  -0.00468219  1
  Ti  Ti189  1  0.08710967  0.09912424  0.28206875  1
  Ti  Ti190  1  0.68470919  0.11120647  0.29539892  1
  Ti  Ti191  1  0.79583855  0.80242487  0.39963114  1
  Ti  Ti192  1  0.38660823  0.40283651  0.78467952  1
  Ti  Ti193  1  0.80013736  0.20274494  0.61054748  1
  Ti  Ti194  1  0.71337083  0.90231905  0.49744031  1
  Ti  Ti195  1  0.60078230  0.40019315  0.39535225  1
  Ti  Ti196  1  0.70203928  0.69578572  0.29671458  1
  Ti  Ti197  1  0.09526657  0.50254394  0.89641871  1
  Ti  Ti198  1  0.48900961  0.89966183  0.50348747  1
  Ti  Ti199  1  0.39198797  0.80549385  0.00333924  1
  Mo  Mo200  1  0.09124333  0.90329706  0.70308961  1
  Mo  Mo201  1  0.61869203  0.59989474  0.20607293  1
  Mo  Mo202  1  0.29262147  0.29729160  0.69626499  1
  Mo  Mo203  1  0.00213000  -0.00964177  0.19424934  1
  Mo  Mo204  1  0.09760037  0.29524942  0.89748897  1
  Mo  Mo205  1  0.30312393  0.50218624  0.69942355  1
  Mo  Mo206  1  0.80209644  0.39960717  0.80963811  1
  Mo  Mo207  1  0.20589819  0.59941273  0.60410614  1
  Mo  Mo208  1  0.29672207  0.29683953  0.10264307  1
  Mo  Mo209  1  0.61074124  0.39761105  0.00470398  1
  Mo  Mo210  1  0.29412538  0.50297939  0.09998284  1
  Mo  Mo211  1  0.89427471  0.69473237  0.70088553  1
  Mo  Mo212  1  0.59796182  0.20961537  0.39546949  1
  Mo  Mo213  1  0.49698190  0.90453872  0.29451116  1
  Mo  Mo214  1  0.31041116  0.89758775  0.70339935  1
  Mo  Mo215  1  0.29948040  0.90288878  0.10124961  1
  Mo  Mo216  1  0.19656817  0.80923601  0.00466757  1
  Mo  Mo217  1  0.89958272  0.32207018  0.29450388  1
  Mo  Mo218  1  0.40221610  0.40292475  0.20388475  1
  Mo  Mo219  1  0.69057407  0.09322664  0.09688413  1
  Mo  Mo220  1  0.70704765  0.88992771  0.29738486  1
  Mo  Mo221  1  0.39630819  0.80568578  0.60400479  1
  Mo  Mo222  1  0.70929203  0.89283583  0.90259195  1
  Mo  Mo223  1  0.00610295  0.58724286  0.80022218  1
  Mo  Mo224  1  0.09633009  0.49846060  0.09010494  1
  Mo  Mo225  1  0.10075085  0.10032506  0.51336557  1
  Mo  Mo226  1  0.89755789  0.09898319  0.71227037  1
  Mo  Mo227  1  0.70224178  0.10065063  0.90465396  1
  Mo  Mo228  1  0.40348170  0.20425638  0.19793313  1
  Mo  Mo229  1  0.90842806  0.07945286  0.29142063  1
  Mo  Mo230  1  0.49181319  0.89597804  0.90390319  1
  Mo  Mo231  1  0.00107348  0.20072095  0.38761596  1
  Mo  Mo232  1  0.80187169  0.40584372  0.39220715  1
  Mo  Mo233  1  0.20689114  0.60128711  0.39701696  1
  Mo  Mo234  1  0.20453813  0.00868848  0.59897561  1
  Mo  Mo235  1  0.61190195  0.79999328  -0.00571961  1
  Mo  Mo236  1  0.61031560  0.40023012  0.81191214  1
  Mo  Mo237  1  0.88392292  0.70243642  0.50203270  1
  Mo  Mo238  1  0.78714539  0.59357146  0.80656608  1
  Mo  Mo239  1  0.09848795  0.09932232  0.09777136  1
  Mo  Mo240  1  0.90007465  0.30768488  0.09403402  1
  Mo  Mo241  1  0.40321734  0.00230345  0.58507321  1
  Mo  Mo242  1  0.60236203  0.20161813  0.19903584  1
  Mo  Mo243  1  0.39666674  -0.01483436  0.81571645  1
  Mo  Mo244  1  0.50527133  0.30045075  0.29895035  1
  Mo  Mo245  1  0.60765821  0.39942165  0.59360705  1
  Mo  Mo246  1  0.89044355  0.69850645  0.10024631  1
  Mo  Mo247  1  0.89254026  0.50137004  0.09259404  1
  Mo  Mo248  1  0.41017292  0.20095706  0.39692098  1
  Mo  Mo249  1  0.70877941  0.30286062  0.71076161  1
