# generated using pymatgen
data_HfZrTaTiMo
_symmetry_space_group_name_H-M   'P 1'
_cell_length_a   16.89106680
_cell_length_b   16.89110679
_cell_length_c   16.89789410
_cell_angle_alpha   90.01475181
_cell_angle_beta   90.01201159
_cell_angle_gamma   89.96288382
_symmetry_Int_Tables_number   1
_chemical_formula_structural   HfZrTaTiMo
_chemical_formula_sum   'Hf50 Zr50 Ta50 Ti50 Mo50'
_cell_volume   4821.11683137
_cell_formula_units_Z   50
loop_
 _symmetry_equiv_pos_site_id
 _symmetry_equiv_pos_as_xyz
  1  'x, y, z'
loop_
 _atom_site_type_symbol
 _atom_site_label
 _atom_site_symmetry_multiplicity
 _atom_site_fract_x
 _atom_site_fract_y
 _atom_site_fract_z
 _atom_site_occupancy
  Hf  Hf0  1  0.00513193  0.80504762  0.19782634  1
  Hf  Hf1  1  0.10086874  0.69762419  0.90115590  1
  Hf  Hf2  1  -0.00387284  0.40342336  0.00006856  1
  Hf  Hf3  1  0.39451556  0.20147315  0.58504170  1
  Hf  Hf4  1  0.10411130  0.49308102  0.11303853  1
  Hf  Hf5  1  0.29715711  0.69877327  0.50571858  1
  Hf  Hf6  1  0.71324904  0.50385349  0.49677117  1
  Hf  Hf7  1  0.10708625  0.49979754  0.70075532  1
  Hf  Hf8  1  0.00332794  0.59340608  0.40345900  1
  Hf  Hf9  1  0.29722096  0.10143457  0.09707009  1
  Hf  Hf10  1  0.80574912  0.20165491  0.20114790  1
  Hf  Hf11  1  0.59631488  0.80109885  0.80128600  1
  Hf  Hf12  1  0.40282246  0.41157736  0.80495769  1
  Hf  Hf13  1  0.39783590  0.39346406  0.19760377  1
  Hf  Hf14  1  0.81169992  0.59275591  -0.00718895  1
  Hf  Hf15  1  0.49179173  0.29714421  0.31187859  1
  Hf  Hf16  1  0.28984362  0.29860511  0.10185445  1
  Hf  Hf17  1  0.80958348  0.00139243  -0.00785827  1
  Hf  Hf18  1  0.29722140  0.90167895  0.49676832  1
  Hf  Hf19  1  0.60163590  0.40342473  0.40381808  1
  Hf  Hf20  1  0.80060651  0.39223072  0.60714202  1
  Hf  Hf21  1  0.70649700  0.50959953  0.70764564  1
  Hf  Hf22  1  0.48894884  0.70444656  0.08992523  1
  Hf  Hf23  1  0.09643984  0.29574880  0.49641617  1
  Hf  Hf24  1  0.90195663  0.29590916  0.49674646  1
  Hf  Hf25  1  0.50681122  0.09761706  0.69785104  1
  Hf  Hf26  1  0.91263015  0.09717777  0.30644366  1
  Hf  Hf27  1  0.80063977  0.19659915  0.39835978  1
  Hf  Hf28  1  0.29884829  0.69291622  0.10148821  1
  Hf  Hf29  1  0.01073186  -0.00337824  0.18368405  1
  Hf  Hf30  1  0.59833301  0.60342867  0.59875933  1
  Hf  Hf31  1  0.19457403  -0.00107822  0.80157076  1
  Hf  Hf32  1  0.70809447  0.49160390  0.90066689  1
  Hf  Hf33  1  0.70849538  0.31183115  0.09521139  1
  Hf  Hf34  1  -0.01114362  0.60488683  0.79759173  1
  Hf  Hf35  1  0.58861126  0.20007051  0.19556789  1
  Hf  Hf36  1  -0.00146049  0.79517572  0.40207699  1
  Hf  Hf37  1  0.21490850  0.60173899  0.80122173  1
  Hf  Hf38  1  0.40949960  0.00365458  0.20428932  1
  Hf  Hf39  1  0.79566593  0.00424191  0.60047610  1
  Hf  Hf40  1  0.59972554  0.20690659  0.00176040  1
  Hf  Hf41  1  0.30436631  0.30769328  0.70323690  1
  Hf  Hf42  1  0.00010095  0.79777006  0.78663390  1
  Hf  Hf43  1  0.91770859  0.11301069  0.08711401  1
  Hf  Hf44  1  0.58909546  -0.00246689  0.39566660  1
  Hf  Hf45  1  0.90966561  0.10848018  0.89878044  1
  Hf  Hf46  1  0.39694667  0.80198410  0.39684112  1
  Hf  Hf47  1  0.10435624  0.69354145  0.50505114  1
  Hf  Hf48  1  0.10767101  0.68424730  0.29355681  1
  Hf  Hf49  1  0.60584968  0.59880065  0.19702982  1
  Zr  Zr50  1  0.89347859  0.69619948  0.29967524  1
  Zr  Zr51  1  0.30122693  0.90060887  0.70298046  1
  Zr  Zr52  1  0.20158031  0.80292286  0.20694359  1
  Zr  Zr53  1  0.20526563  0.00079785  0.20231114  1
  Zr  Zr54  1  0.09617231  0.89974428  0.50455350  1
  Zr  Zr55  1  0.49392004  0.29484310  0.89048221  1
  Zr  Zr56  1  0.09914523  0.10541794  0.30937922  1
  Zr  Zr57  1  0.89183029  0.49153607  0.10981523  1
  Zr  Zr58  1  0.61125059  0.60871595  0.40065785  1
  Zr  Zr59  1  0.22280140  0.20448722  0.40354290  1
  Zr  Zr60  1  0.09439436  0.10685542  0.69489729  1
  Zr  Zr61  1  0.69577021  0.70129129  0.08821954  1
  Zr  Zr62  1  0.59802947  0.80579386  0.19758127  1
  Zr  Zr63  1  0.41007752  -0.00885742  -0.00075020  1
  Zr  Zr64  1  0.20894390  0.19932166  0.59362782  1
  Zr  Zr65  1  0.60043774  0.39855087  0.79966314  1
  Zr  Zr66  1  -0.00170038  0.40686786  0.60097581  1
  Zr  Zr67  1  0.09225200  0.09566657  0.49292416  1
  Zr  Zr68  1  0.09975338  0.30473602  0.69937813  1
  Zr  Zr69  1  0.40381958  0.00112605  0.59092581  1
  Zr  Zr70  1  0.20131331  0.79925918  -0.00121783  1
  Zr  Zr71  1  0.89287121  0.49625014  0.30310708  1
  Zr  Zr72  1  0.69842433  0.09826609  0.89262663  1
  Zr  Zr73  1  0.70045917  0.89958967  0.09112009  1
  Zr  Zr74  1  0.18778803  0.38461783  -0.00569190  1
  Zr  Zr75  1  0.69409800  0.69744409  0.90384792  1
  Zr  Zr76  1  0.89186031  0.30666463  0.89639166  1
  Zr  Zr77  1  0.89336727  0.50275988  0.49696364  1
  Zr  Zr78  1  0.09347886  0.90064302  0.90421038  1
  Zr  Zr79  1  0.49633190  0.49801679  0.30562715  1
  Zr  Zr80  1  0.30769304  0.10370926  0.71166219  1
  Zr  Zr81  1  0.49882810  0.70471768  0.29879162  1
  Zr  Zr82  1  0.59677644  0.40283771  0.60273713  1
  Zr  Zr83  1  -0.00213881  -0.00343351  0.79578995  1
  Zr  Zr84  1  0.40050314  0.79970614  0.80601864  1
  Zr  Zr85  1  0.69036655  0.09541227  0.49998875  1
  Zr  Zr86  1  0.40982936  0.20000084  0.01421110  1
  Zr  Zr87  1  0.60067465  0.40189921  0.19768591  1
  Zr  Zr88  1  0.39063186  0.59805458  0.20446754  1
  Zr  Zr89  1  0.39208767  0.59854603  0.40341669  1
  Zr  Zr90  1  0.80335703  0.80081889  0.79792928  1
  Zr  Zr91  1  0.50121938  0.09817362  0.88911971  1
  Zr  Zr92  1  0.31544552  0.88778953  0.10238643  1
  Zr  Zr93  1  0.89828904  0.70240616  0.10001851  1
  Zr  Zr94  1  0.69957134  0.09723393  0.09879364  1
  Zr  Zr95  1  0.90173897  0.11153656  0.69658103  1
  Zr  Zr96  1  0.70275315  0.90404285  0.30227214  1
  Zr  Zr97  1  0.10042019  0.49372899  0.88826951  1
  Zr  Zr98  1  0.81006444  0.00054173  0.19526826  1
  Zr  Zr99  1  0.09878468  0.91575165  0.31856986  1
  Ta  Ta100  1  0.69350259  0.90747524  0.89498879  1
  Ta  Ta101  1  0.20455457  0.79700636  0.39591396  1
  Ta  Ta102  1  0.79295124  0.20228066  0.60363083  1
  Ta  Ta103  1  0.00055142  0.59479031  -0.00131395  1
  Ta  Ta104  1  0.59286071  0.39960388  -0.00235023  1
  Ta  Ta105  1  0.69236547  0.90594225  0.69557028  1
  Ta  Ta106  1  0.79799285  -0.00104208  0.79333743  1
  Ta  Ta107  1  0.50203336  0.70640841  0.50714004  1
  Ta  Ta108  1  0.29878417  0.29413305  0.89771850  1
  Ta  Ta109  1  0.49391728  0.30478112  0.49874455  1
  Ta  Ta110  1  0.49693135  0.50394791  0.09120313  1
  Ta  Ta111  1  0.89593112  0.89798467  0.69032981  1
  Ta  Ta112  1  0.20372072  0.40077681  0.40043253  1
  Ta  Ta113  1  0.69288362  0.89632948  0.50665492  1
  Ta  Ta114  1  0.19379110  -0.00073913  0.00478139  1
  Ta  Ta115  1  0.40092812  0.39970913  0.00099574  1
  Ta  Ta116  1  0.49884255  0.69820611  0.70237052  1
  Ta  Ta117  1  0.69501716  0.10061888  0.29957040  1
  Ta  Ta118  1  0.89352192  0.89547184  0.50154032  1
  Ta  Ta119  1  0.49564911  0.68997231  0.90386530  1
  Ta  Ta120  1  0.49247120  0.29547886  0.69540507  1
  Ta  Ta121  1  0.20023111  0.59330177  -0.00022250  1
  Ta  Ta122  1  0.69602370  0.70144444  0.70135536  1
  Ta  Ta123  1  0.59892315  0.20195732  0.59819362  1
  Ta  Ta124  1  0.19844514  -0.00060505  0.60116871  1
  Ta  Ta125  1  0.69709903  0.29744282  0.49772843  1
  Ta  Ta126  1  0.40355513  0.79797248  0.60338603  1
  Ta  Ta127  1  0.19659844  0.20490166  0.80929814  1
  Ta  Ta128  1  0.20534553  0.20172948  0.20877945  1
  Ta  Ta129  1  0.79343767  0.79759173  0.60003751  1
  Ta  Ta130  1  0.88827160  0.50357270  0.70980050  1
  Ta  Ta131  1  0.79147049  0.79525883  0.40629036  1
  Ta  Ta132  1  0.20806231  0.40264464  0.59345487  1
  Ta  Ta133  1  0.00370382  0.39850197  0.39258165  1
  Ta  Ta134  1  -0.00573284  0.60395746  0.60654590  1
  Ta  Ta135  1  0.89934079  0.90132550  0.30769276  1
  Ta  Ta136  1  0.70060699  0.29754537  0.30631324  1
  Ta  Ta137  1  0.79828646  0.20807065  -0.00436994  1
  Ta  Ta138  1  0.10108688  0.68924051  0.10006543  1
  Ta  Ta139  1  0.19811162  0.80108204  0.60893116  1
  Ta  Ta140  1  0.09888896  0.10677655  0.90920536  1
  Ta  Ta141  1  0.29683113  0.10452068  0.90391219  1
  Ta  Ta142  1  0.39826174  0.19598534  0.20922528  1
  Ta  Ta143  1  0.40131559  0.60117183  0.60402287  1
  Ta  Ta144  1  0.60715775  0.20225879  0.78904216  1
  Ta  Ta145  1  0.10328961  0.30313237  0.30021963  1
  Ta  Ta146  1  0.29380641  0.49495136  0.09837404  1
  Ta  Ta147  1  0.59177945  0.59703674  0.80408077  1
  Ta  Ta148  1  0.89457000  0.69992261  0.50294960  1
  Ta  Ta149  1  0.50889142  0.90251218  0.69556693  1
  Ti  Ti150  1  -0.01196136  0.40055950  0.79613336  1
  Ti  Ti151  1  0.78663107  0.60467173  0.20323246  1
  Ti  Ti152  1  0.00159778  0.79868750  0.00515725  1
  Ti  Ti153  1  0.90532198  0.89877663  0.09174184  1
  Ti  Ti154  1  0.40462990  -0.00589674  0.80443829  1
  Ti  Ti155  1  0.71242712  0.49731267  0.30697699  1
  Ti  Ti156  1  0.49277468  0.50680584  0.70164213  1
  Ti  Ti157  1  0.69944915  0.29942838  0.70088940  1
  Ti  Ti158  1  0.60567128  0.79745973  0.40337265  1
  Ti  Ti159  1  0.30786951  0.69828607  0.90607381  1
  Ti  Ti160  1  0.30596459  0.49477442  0.50373184  1
  Ti  Ti161  1  0.90749326  0.10338811  0.50175039  1
  Ti  Ti162  1  0.29701874  0.49281089  0.90252164  1
  Ti  Ti163  1  -0.00225435  -0.00616087  0.60202588  1
  Ti  Ti164  1  0.10552280  0.11391980  0.09329551  1
  Ti  Ti165  1  0.20588756  0.59560100  0.60292176  1
  Ti  Ti166  1  0.29026141  0.49015714  0.29381788  1
  Ti  Ti167  1  0.48953880  0.49664378  0.50365962  1
  Ti  Ti168  1  0.30624148  0.49948969  0.69705917  1
  Ti  Ti169  1  0.00248510  0.21217694  0.79871089  1
  Ti  Ti170  1  0.31433394  0.09158862  0.31754654  1
  Ti  Ti171  1  0.49362744  0.10358243  0.48822395  1
  Ti  Ti172  1  0.90087850  0.70260256  0.90074452  1
  Ti  Ti173  1  0.30658626  0.69833378  0.69966862  1
  Ti  Ti174  1  -0.00191775  0.59468780  0.19751552  1
  Ti  Ti175  1  0.02109800  0.22498099  -0.00242627  1
  Ti  Ti176  1  0.58969226  0.00467999  0.19700306  1
  Ti  Ti177  1  0.39631684  0.58835602  -0.00946575  1
  Ti  Ti178  1  0.00474069  0.21247801  0.20300660  1
  Ti  Ti179  1  0.49437040  0.89685044  0.29779742  1
  Ti  Ti180  1  0.90319877  0.30401987  0.10152269  1
  Ti  Ti181  1  0.90392951  0.90059476  0.89960998  1
  Ti  Ti182  1  0.79864043  0.80155626  0.20265475  1
  Ti  Ti183  1  0.80145594  0.61233561  0.60441776  1
  Ti  Ti184  1  0.79255046  0.20589779  0.79515864  1
  Ti  Ti185  1  0.10649173  0.50029902  0.50122473  1
  Ti  Ti186  1  0.58984283  -0.00183198  0.00273332  1
  Ti  Ti187  1  0.80075858  -0.00106844  0.40423246  1
  Ti  Ti188  1  0.59578925  0.19784322  0.39994904  1
  Ti  Ti189  1  -0.00425068  0.79286263  0.60515845  1
  Ti  Ti190  1  0.80295018  0.80498637  -0.00744485  1
  Ti  Ti191  1  0.80428556  0.38863920  0.21326148  1
  Ti  Ti192  1  0.19930237  0.79983930  0.79534371  1
  Ti  Ti193  1  0.20654711  0.59289156  0.39625512  1
  Ti  Ti194  1  0.30031757  0.90156633  0.90254562  1
  Ti  Ti195  1  0.57955910  0.81680886  -0.00745684  1
  Ti  Ti196  1  0.10498018  0.49286428  0.29418634  1
  Ti  Ti197  1  0.10640916  0.69663067  0.69657424  1
  Ti  Ti198  1  0.70127408  0.49788838  0.09177354  1
  Ti  Ti199  1  0.50733393  0.89366291  0.50559377  1
  Mo  Mo200  1  0.19606383  0.19681182  -0.00199557  1
  Mo  Mo201  1  0.50508761  0.90255327  0.89218436  1
  Mo  Mo202  1  0.49905804  0.50320683  0.90547883  1
  Mo  Mo203  1  0.30061828  0.30109399  0.30230159  1
  Mo  Mo204  1  0.39916359  0.60002169  0.79967083  1
  Mo  Mo205  1  0.09695382  0.30019281  0.88467794  1
  Mo  Mo206  1  0.79813961  0.61377491  0.39887124  1
  Mo  Mo207  1  0.00535592  -0.00021005  0.00042452  1
  Mo  Mo208  1  0.89443997  0.30090557  0.70210917  1
  Mo  Mo209  1  0.59761869  -0.00020925  0.59377491  1
  Mo  Mo210  1  0.79961098  0.39845099  -0.00056066  1
  Mo  Mo211  1  0.29204063  0.69869051  0.30428838  1
  Mo  Mo212  1  0.20073826  0.59091145  0.19801436  1
  Mo  Mo213  1  0.69956727  0.10428087  0.69787661  1
  Mo  Mo214  1  0.50129724  0.09789139  0.10609288  1
  Mo  Mo215  1  0.79602811  0.38776375  0.39747571  1
  Mo  Mo216  1  0.69995234  0.29800861  0.89811636  1
  Mo  Mo217  1  0.40265643  0.79501864  -0.01119828  1
  Mo  Mo218  1  0.79973088  0.39417706  0.79632164  1
  Mo  Mo219  1  -0.00262120  0.20559439  0.39758643  1
  Mo  Mo220  1  0.21620733  -0.00108037  0.40272967  1
  Mo  Mo221  1  0.90604245  0.29823746  0.30232486  1
  Mo  Mo222  1  -0.01003587  0.20339132  0.59798824  1
  Mo  Mo223  1  0.09833224  0.29668975  0.11703739  1
  Mo  Mo224  1  0.69993838  0.70516222  0.50604267  1
  Mo  Mo225  1  0.89298422  0.70106434  0.69172076  1
  Mo  Mo226  1  0.40412698  0.19768067  0.40209716  1
  Mo  Mo227  1  0.21279387  0.40003714  0.79639609  1
  Mo  Mo228  1  0.30307122  0.08410440  0.49449556  1
  Mo  Mo229  1  0.79910191  0.60618527  0.80032454  1
  Mo  Mo230  1  0.60516167  -0.00151182  0.79122432  1
  Mo  Mo231  1  0.30875289  0.32079757  0.49793973  1
  Mo  Mo232  1  0.59801481  0.79960288  0.60346733  1
  Mo  Mo233  1  0.09733135  0.89388020  0.69311191  1
  Mo  Mo234  1  -0.02202738  -0.00292828  0.41392487  1
  Mo  Mo235  1  0.50320829  0.89883143  0.10168371  1
  Mo  Mo236  1  0.49694920  0.30908860  0.10166813  1
  Mo  Mo237  1  0.89933676  0.49967842  0.89319658  1
  Mo  Mo238  1  0.39830294  0.80234705  0.20884769  1
  Mo  Mo239  1  0.00145271  0.39117035  0.20733188  1
  Mo  Mo240  1  0.20094488  0.39440724  0.20898178  1
  Mo  Mo241  1  0.59417843  0.58681610  -0.00201573  1
  Mo  Mo242  1  0.30648032  0.90047903  0.30469129  1
  Mo  Mo243  1  0.70426767  0.70311661  0.30207700  1
  Mo  Mo244  1  0.39226198  0.40172181  0.40297145  1
  Mo  Mo245  1  0.39717249  0.19991144  0.79923506  1
  Mo  Mo246  1  0.40277569  0.40814987  0.60052792  1
  Mo  Mo247  1  0.09787019  0.89672233  0.09319032  1
  Mo  Mo248  1  0.50049794  0.10380607  0.30439949  1
  Mo  Mo249  1  0.40867443  -0.00485893  0.39793209  1
