# generated using pymatgen
data_HfZrTaTiMo
_symmetry_space_group_name_H-M   'P 1'
_cell_length_a   16.88614599
_cell_length_b   16.89210175
_cell_length_c   16.89205309
_cell_angle_alpha   90.00268399
_cell_angle_beta   89.99556412
_cell_angle_gamma   90.00190501
_symmetry_Int_Tables_number   1
_chemical_formula_structural   HfZrTaTiMo
_chemical_formula_sum   'Hf50 Zr50 Ta50 Ti50 Mo50'
_cell_volume   4818.33136406
_cell_formula_units_Z   50
loop_
 _symmetry_equiv_pos_site_id
 _symmetry_equiv_pos_as_xyz
  1  'x, y, z'
loop_
 _atom_site_type_symbol
 _atom_site_label
 _atom_site_symmetry_multiplicity
 _atom_site_fract_x
 _atom_site_fract_y
 _atom_site_fract_z
 _atom_site_occupancy
  Hf  Hf0  1  0.48711707  0.89380602  0.68855531  1
  Hf  Hf1  1  0.29919395  0.49584737  0.10323378  1
  Hf  Hf2  1  0.91407631  0.49189869  0.09660148  1
  Hf  Hf3  1  0.10172072  0.29216064  0.70541101  1
  Hf  Hf4  1  0.19568723  0.19589092  0.00632543  1
  Hf  Hf5  1  0.18877257  0.60181168  0.20417231  1
  Hf  Hf6  1  0.50319129  0.70844640  0.89705912  1
  Hf  Hf7  1  0.39866020  0.60158002  0.79995195  1
  Hf  Hf8  1  0.40982068  0.19856511  0.19687583  1
  Hf  Hf9  1  0.29282400  0.29853336  0.90096586  1
  Hf  Hf10  1  0.29521841  0.08262162  0.90467962  1
  Hf  Hf11  1  0.19739088  0.60508075  0.00627088  1
  Hf  Hf12  1  0.50232076  0.49508144  0.32064886  1
  Hf  Hf13  1  0.30027631  0.50838367  0.30483304  1
  Hf  Hf14  1  0.09295372  0.69731097  0.90042844  1
  Hf  Hf15  1  0.79716106  0.20626470  0.00022936  1
  Hf  Hf16  1  -0.01651540  -0.00026521  0.60576011  1
  Hf  Hf17  1  0.50429414  0.29899369  0.69809888  1
  Hf  Hf18  1  0.29265772  0.30221321  0.70299565  1
  Hf  Hf19  1  0.70052193  0.70055007  0.30405165  1
  Hf  Hf20  1  0.80390094  0.40000602  0.81082549  1
  Hf  Hf21  1  0.49561381  0.09045365  0.89760198  1
  Hf  Hf22  1  0.09564158  0.70909940  0.49415555  1
  Hf  Hf23  1  0.19793338  0.60051085  0.59996997  1
  Hf  Hf24  1  0.60070332  0.19876264  0.59460027  1
  Hf  Hf25  1  0.89776712  0.30679554  0.29840856  1
  Hf  Hf26  1  0.60747713  0.00018391  -0.00268074  1
  Hf  Hf27  1  0.49923690  0.29618575  0.90000228  1
  Hf  Hf28  1  0.09752029  0.29543278  0.89766782  1
  Hf  Hf29  1  0.80101501  0.59347813  0.19685498  1
  Hf  Hf30  1  0.49486398  0.89879939  0.88557302  1
  Hf  Hf31  1  0.80398161  0.61245687  0.80885970  1
  Hf  Hf32  1  0.59943226  0.59250442  0.59045068  1
  Hf  Hf33  1  0.79700512  0.00280392  0.19763227  1
  Hf  Hf34  1  0.59998350  0.80574475  0.40591640  1
  Hf  Hf35  1  0.39161620  0.18880097  0.79438829  1
  Hf  Hf36  1  0.50351040  0.89755104  0.29671391  1
  Hf  Hf37  1  0.70287639  0.30042384  0.69961426  1
  Hf  Hf38  1  0.40916819  0.40011533  0.20166596  1
  Hf  Hf39  1  0.22015689  -0.01342801  0.40963149  1
  Hf  Hf40  1  0.60818842  0.39688596  0.00203289  1
  Hf  Hf41  1  -0.00439755  0.00537312  0.20540365  1
  Hf  Hf42  1  0.70306314  0.49602836  0.69475043  1
  Hf  Hf43  1  0.39883550  0.19162046  0.00641625  1
  Hf  Hf44  1  0.79405047  0.00637435  0.38509305  1
  Hf  Hf45  1  0.79604191  -0.00740056  -0.00649592  1
  Hf  Hf46  1  0.19842754  0.79914140  0.01152613  1
  Hf  Hf47  1  0.60266668  0.60624283  0.79921403  1
  Hf  Hf48  1  0.49496526  0.10106519  0.49435765  1
  Hf  Hf49  1  0.90451548  0.70228954  0.30312610  1
  Zr  Zr50  1  0.40480012  -0.00753114  0.40163294  1
  Zr  Zr51  1  0.90473067  0.10091994  0.09331407  1
  Zr  Zr52  1  0.39734250  0.40599355  0.80722131  1
  Zr  Zr53  1  0.80067185  0.80040759  0.18109743  1
  Zr  Zr54  1  0.20791663  0.80623802  0.59772699  1
  Zr  Zr55  1  0.71077759  0.89951449  0.49901451  1
  Zr  Zr56  1  0.10046675  0.09323601  0.30864633  1
  Zr  Zr57  1  0.90348988  0.89103735  0.30688321  1
  Zr  Zr58  1  0.89994930  0.70189458  0.69435240  1
  Zr  Zr59  1  -0.00562787  0.19918313  0.39653517  1
  Zr  Zr60  1  0.59916316  0.39785715  0.20057040  1
  Zr  Zr61  1  -0.00581571  0.19673746  0.60159235  1
  Zr  Zr62  1  0.09514017  0.89678514  0.69760714  1
  Zr  Zr63  1  0.21390434  0.20230128  0.41446354  1
  Zr  Zr64  1  0.19207962  0.20018465  0.19487093  1
  Zr  Zr65  1  0.60536195  0.00600850  0.19797934  1
  Zr  Zr66  1  0.09931065  0.90462821  0.90567999  1
  Zr  Zr67  1  0.50328590  0.49498535  0.69667851  1
  Zr  Zr68  1  0.60757782  0.80705412  -0.00282198  1
  Zr  Zr69  1  0.10049361  0.08888550  0.50331872  1
  Zr  Zr70  1  0.39925351  0.79914403  0.19944239  1
  Zr  Zr71  1  0.00339098  0.40256443  0.59997691  1
  Zr  Zr72  1  0.69852654  0.50686426  0.90772864  1
  Zr  Zr73  1  0.90344977  0.50654584  0.70215074  1
  Zr  Zr74  1  0.30742176  0.10036170  0.30210185  1
  Zr  Zr75  1  0.01126618  0.59258574  0.39272314  1
  Zr  Zr76  1  0.39671421  0.80368346  0.00668853  1
  Zr  Zr77  1  0.19385784  0.40640100  0.39959119  1
  Zr  Zr78  1  0.79508234  0.40021989  0.19129102  1
  Zr  Zr79  1  0.08347039  0.89786373  0.49530388  1
  Zr  Zr80  1  0.69566056  0.89534164  0.69411415  1
  Zr  Zr81  1  0.00411476  0.40479038  0.80005287  1
  Zr  Zr82  1  0.39756428  0.60904610  0.00432752  1
  Zr  Zr83  1  0.30939909  0.30524152  0.30478522  1
  Zr  Zr84  1  0.09446222  0.70353376  0.70570925  1
  Zr  Zr85  1  0.78814026  0.02179160  0.79478723  1
  Zr  Zr86  1  0.79535212  0.20014698  0.40116287  1
  Zr  Zr87  1  0.68580212  0.69849350  0.09325958  1
  Zr  Zr88  1  0.50195925  0.69585560  0.30226595  1
  Zr  Zr89  1  0.49722550  0.70107222  0.50067825  1
  Zr  Zr90  1  0.80180404  0.60472005  0.00440457  1
  Zr  Zr91  1  0.90647354  0.11380310  0.89768419  1
  Zr  Zr92  1  0.61434156  0.18500112  0.80134279  1
  Zr  Zr93  1  0.39759454  0.40309827  0.59147288  1
  Zr  Zr94  1  0.88255914  0.89452478  0.69957680  1
  Zr  Zr95  1  0.59844664  0.59032636  0.19391414  1
  Zr  Zr96  1  0.38935838  0.20256777  0.58619983  1
  Zr  Zr97  1  0.10003263  0.89413415  0.30338395  1
  Zr  Zr98  1  -0.00904809  0.00048485  0.80321002  1
  Zr  Zr99  1  0.69153801  0.30489828  0.30963686  1
  Ta  Ta100  1  0.50025008  0.29920656  0.09545631  1
  Ta  Ta101  1  0.29409148  0.70661958  0.88987448  1
  Ta  Ta102  1  0.49853440  0.09246678  0.69457604  1
  Ta  Ta103  1  0.40385106  0.00118929  0.19351495  1
  Ta  Ta104  1  0.69525108  0.30891263  0.50371002  1
  Ta  Ta105  1  0.50193704  0.50085281  0.08820323  1
  Ta  Ta106  1  0.20206331  0.19749157  0.59836948  1
  Ta  Ta107  1  0.70460406  0.69600472  0.49854348  1
  Ta  Ta108  1  0.21668349  0.80475241  0.40107571  1
  Ta  Ta109  1  0.09484555  0.49822528  0.09610707  1
  Ta  Ta110  1  0.80482013  0.39685449  0.59648890  1
  Ta  Ta111  1  0.80059887  0.19689530  0.20259889  1
  Ta  Ta112  1  -0.01851607  0.80009031  0.81309481  1
  Ta  Ta113  1  0.79937311  0.19517471  0.60290761  1
  Ta  Ta114  1  0.39257771  0.80668876  0.40609758  1
  Ta  Ta115  1  0.60563040  0.00431848  0.39610249  1
  Ta  Ta116  1  0.69984883  0.50119994  0.31515324  1
  Ta  Ta117  1  0.10700407  0.70957040  0.30289820  1
  Ta  Ta118  1  0.29862494  0.30630963  0.09890730  1
  Ta  Ta119  1  0.29755514  0.69920720  0.30575962  1
  Ta  Ta120  1  -0.00306200  0.20493724  0.19781688  1
  Ta  Ta121  1  0.30558808  0.70649448  0.70175794  1
  Ta  Ta122  1  0.90142076  0.70252255  0.49594892  1
  Ta  Ta123  1  0.80285565  0.59678290  0.40403659  1
  Ta  Ta124  1  0.91406086  0.50782819  0.90921783  1
  Ta  Ta125  1  0.19578016  0.41435235  0.79970720  1
  Ta  Ta126  1  0.20421513  -0.00697549  0.19994727  1
  Ta  Ta127  1  0.59981817  0.19426943  0.00465421  1
  Ta  Ta128  1  0.19812783  0.40324764  0.60054601  1
  Ta  Ta129  1  0.19620281  0.40306126  -0.00161120  1
  Ta  Ta130  1  0.39708559  0.60124463  0.60053023  1
  Ta  Ta131  1  0.59689722  -0.00019419  0.59209988  1
  Ta  Ta132  1  0.69937174  0.70670587  0.69581771  1
  Ta  Ta133  1  0.80594312  0.79972115  -0.01249463  1
  Ta  Ta134  1  0.89687000  0.28980737  0.71058205  1
  Ta  Ta135  1  0.90145054  0.49709590  0.30194032  1
  Ta  Ta136  1  0.60110881  -0.00000551  0.79114771  1
  Ta  Ta137  1  0.80659458  0.39369368  0.00264408  1
  Ta  Ta138  1  0.60269976  0.39957618  0.80483577  1
  Ta  Ta139  1  0.00171472  0.40099184  0.40081741  1
  Ta  Ta140  1  0.29967169  0.50500785  0.49655036  1
  Ta  Ta141  1  0.10225339  0.09710668  0.70267766  1
  Ta  Ta142  1  0.90262798  0.50195741  0.49861416  1
  Ta  Ta143  1  0.50305036  0.31126142  0.48421121  1
  Ta  Ta144  1  0.90930462  0.90072115  0.08983952  1
  Ta  Ta145  1  0.89201601  0.09091394  0.49775286  1
  Ta  Ta146  1  0.10203636  0.30119829  0.50299716  1
  Ta  Ta147  1  0.00389121  0.59847572  0.59726982  1
  Ta  Ta148  1  0.09545471  0.50569809  0.90486171  1
  Ta  Ta149  1  0.29522502  0.50614677  0.69837035  1
  Ti  Ti150  1  0.40001077  0.60007395  0.40939500  1
  Ti  Ti151  1  0.30087007  0.69771349  0.49913725  1
  Ti  Ti152  1  0.19698947  -0.00547730  0.00995705  1
  Ti  Ti153  1  0.51283407  0.89458439  0.10659326  1
  Ti  Ti154  1  0.32151144  0.90555952  0.52937773  1
  Ti  Ti155  1  0.29332664  0.50479881  0.90163017  1
  Ti  Ti156  1  0.00703713  0.39878408  0.20577295  1
  Ti  Ti157  1  0.59919150  0.19820294  0.39693085  1
  Ti  Ti158  1  0.59663656  0.19881378  0.19976450  1
  Ti  Ti159  1  0.40552393  0.60218584  0.19634590  1
  Ti  Ti160  1  0.20063312  0.18387027  0.79907491  1
  Ti  Ti161  1  0.50248440  0.10444843  0.30249071  1
  Ti  Ti162  1  0.09511931  0.08965032  0.09688494  1
  Ti  Ti163  1  0.80022263  0.59557883  0.59192829  1
  Ti  Ti164  1  0.59663205  0.79924214  0.59452701  1
  Ti  Ti165  1  0.09686152  0.09710807  0.90179629  1
  Ti  Ti166  1  0.69946635  0.10604791  0.10031009  1
  Ti  Ti167  1  0.00658462  0.60124377  0.19939272  1
  Ti  Ti168  1  0.19232267  0.40148539  0.20082367  1
  Ti  Ti169  1  0.20226834  -0.00604899  0.79108923  1
  Ti  Ti170  1  0.50364152  0.50301510  0.90660523  1
  Ti  Ti171  1  0.10325660  0.50236266  0.49919285  1
  Ti  Ti172  1  0.09982486  0.30015032  0.30261416  1
  Ti  Ti173  1  0.38992309  -0.00531268  0.78677015  1
  Ti  Ti174  1  0.49800853  0.70855674  0.69950856  1
  Ti  Ti175  1  0.70047555  0.09898540  0.50068904  1
  Ti  Ti176  1  0.09493168  0.31173388  0.09663777  1
  Ti  Ti177  1  0.19648256  0.59771460  0.79710099  1
  Ti  Ti178  1  0.91487151  0.69753274  0.09232539  1
  Ti  Ti179  1  0.80067400  0.40703116  0.41011126  1
  Ti  Ti180  1  0.39725201  0.40046658  -0.00090202  1
  Ti  Ti181  1  0.09572327  0.90001741  0.10396014  1
  Ti  Ti182  1  -0.00270836  0.80097142  -0.00134846  1
  Ti  Ti183  1  0.89714225  0.89435610  0.49436423  1
  Ti  Ti184  1  0.90915606  0.29924284  0.90148825  1
  Ti  Ti185  1  0.70224305  0.29425592  0.89709421  1
  Ti  Ti186  1  0.70235545  0.89148671  0.88154196  1
  Ti  Ti187  1  0.40586302  -0.00456234  0.01502552  1
  Ti  Ti188  1  0.80035206  0.79289396  0.59111511  1
  Ti  Ti189  1  0.69871587  0.88814049  0.29175976  1
  Ti  Ti190  1  0.89815976  0.30193896  0.50225784  1
  Ti  Ti191  1  0.00704302  0.79465843  0.19237586  1
  Ti  Ti192  1  0.29516851  0.08623644  0.68529742  1
  Ti  Ti193  1  0.00323182  0.20723262  0.00899674  1
  Ti  Ti194  1  0.29352085  0.70218400  0.11448759  1
  Ti  Ti195  1  0.20463240  0.80757527  0.79879838  1
  Ti  Ti196  1  0.29778805  0.09266658  0.10303133  1
  Ti  Ti197  1  0.29682834  0.90151612  0.10838511  1
  Ti  Ti198  1  0.69778205  0.29433140  0.10256818  1
  Ti  Ti199  1  0.30249098  0.89839723  0.89671068  1
  Mo  Mo200  1  0.40892726  0.20819337  0.39626571  1
  Mo  Mo201  1  0.50272340  0.09942009  0.09880974  1
  Mo  Mo202  1  -0.01612028  -0.00127593  0.40189136  1
  Mo  Mo203  1  0.19979451  0.79984521  0.20280793  1
  Mo  Mo204  1  0.60342906  0.39723035  0.59587482  1
  Mo  Mo205  1  0.69699429  0.09721038  0.68423670  1
  Mo  Mo206  1  0.00181934  0.60366718  0.80587665  1
  Mo  Mo207  1  0.50387442  0.90161986  0.50065586  1
  Mo  Mo208  1  0.70146145  0.49349445  0.09535995  1
  Mo  Mo209  1  0.60060729  0.80017084  0.79061925  1
  Mo  Mo210  1  0.90353001  0.70170940  0.90600453  1
  Mo  Mo211  1  0.29541623  0.30995802  0.50266417  1
  Mo  Mo212  1  0.49486936  0.50170430  0.49898367  1
  Mo  Mo213  1  0.79841165  0.79315699  0.40410278  1
  Mo  Mo214  1  0.20401581  0.60737827  0.40114254  1
  Mo  Mo215  1  -0.01347578  0.79755290  0.59658689  1
  Mo  Mo216  1  0.49666724  0.69488673  0.09886985  1
  Mo  Mo217  1  0.69256192  0.10944603  0.29647125  1
  Mo  Mo218  1  0.39930680  0.79134268  0.59953355  1
  Mo  Mo219  1  0.59297042  0.59837281  -0.00338899  1
  Mo  Mo220  1  0.79414575  0.79333078  0.80569339  1
  Mo  Mo221  1  0.39927776  0.40401887  0.40372947  1
  Mo  Mo222  1  0.09540201  0.49618008  0.29087851  1
  Mo  Mo223  1  0.29893956  0.90035047  0.70445106  1
  Mo  Mo224  1  0.00410240  0.19610179  0.79979297  1
  Mo  Mo225  1  0.10624478  0.50704891  0.70190602  1
  Mo  Mo226  1  0.09191372  0.70273918  0.10414995  1
  Mo  Mo227  1  0.71023567  0.49863201  0.50139634  1
  Mo  Mo228  1  0.60275185  0.40798457  0.41137391  1
  Mo  Mo229  1  0.69726695  0.10310193  0.90795848  1
  Mo  Mo230  1  0.00333018  0.39611177  -0.00028889  1
  Mo  Mo231  1  0.69931578  0.70834421  0.89274930  1
  Mo  Mo232  1  0.89440264  0.10801159  0.69587984  1
  Mo  Mo233  1  0.20356670  0.00158568  0.60194510  1
  Mo  Mo234  1  0.40275628  0.00627860  0.60155314  1
  Mo  Mo235  1  -0.00325625  0.79524513  0.40005178  1
  Mo  Mo236  1  0.89738013  0.10753409  0.29788811  1
  Mo  Mo237  1  0.90778969  0.29870589  0.10164928  1
  Mo  Mo238  1  0.80281274  0.20635361  0.80108819  1
  Mo  Mo239  1  0.60110543  0.80282424  0.19840168  1
  Mo  Mo240  1  0.30348690  0.89516157  0.28874181  1
  Mo  Mo241  1  0.30267346  0.09385402  0.50690920  1
  Mo  Mo242  1  0.00383101  0.60333629  0.00616868  1
  Mo  Mo243  1  0.89621444  0.89759379  0.90259876  1
  Mo  Mo244  1  0.79479108  0.00864115  0.59329989  1
  Mo  Mo245  1  0.70755959  0.89820842  0.09993403  1
  Mo  Mo246  1  0.50221020  0.29478790  0.30777387  1
  Mo  Mo247  1  0.00543246  -0.00382166  0.00356969  1
  Mo  Mo248  1  0.60972702  0.59807595  0.40790344  1
  Mo  Mo249  1  0.39220778  0.79877401  0.79741709  1
