# generated using pymatgen
data_HfZrTaTiMo
_symmetry_space_group_name_H-M   'P 1'
_cell_length_a   16.88956225
_cell_length_b   16.87495843
_cell_length_c   16.87378141
_cell_angle_alpha   89.99061231
_cell_angle_beta   90.01289338
_cell_angle_gamma   89.93968580
_symmetry_Int_Tables_number   1
_chemical_formula_structural   HfZrTaTiMo
_chemical_formula_sum   'Hf50 Zr50 Ta50 Ti50 Mo50'
_cell_volume   4809.20474016
_cell_formula_units_Z   50
loop_
 _symmetry_equiv_pos_site_id
 _symmetry_equiv_pos_as_xyz
  1  'x, y, z'
loop_
 _atom_site_type_symbol
 _atom_site_label
 _atom_site_symmetry_multiplicity
 _atom_site_fract_x
 _atom_site_fract_y
 _atom_site_fract_z
 _atom_site_occupancy
  Hf  Hf0  1  0.51091798  0.50626321  0.49711971  1
  Hf  Hf1  1  0.20144344  -0.00246210  0.80294234  1
  Hf  Hf2  1  0.21566305  0.78883316  0.01233558  1
  Hf  Hf3  1  0.59553513  0.40340449  0.59989247  1
  Hf  Hf4  1  0.10360573  0.89571322  0.30000813  1
  Hf  Hf5  1  0.40888548  0.60377926  0.60851340  1
  Hf  Hf6  1  0.09684973  0.90749147  0.49910511  1
  Hf  Hf7  1  0.61218491  0.80140358  0.39348331  1
  Hf  Hf8  1  0.70486813  0.10961183  0.90415974  1
  Hf  Hf9  1  0.89185205  0.29639110  0.90858136  1
  Hf  Hf10  1  0.69251220  0.50606382  0.90417805  1
  Hf  Hf11  1  0.79315330  0.40370722  0.79841757  1
  Hf  Hf12  1  0.09610504  0.70346106  0.90161517  1
  Hf  Hf13  1  -0.00719524  0.00382427  0.00711387  1
  Hf  Hf14  1  0.59064640  0.39558477  0.00185527  1
  Hf  Hf15  1  0.90571652  0.08511202  0.48967517  1
  Hf  Hf16  1  0.10193417  0.09915675  0.30860258  1
  Hf  Hf17  1  0.09269715  0.29895538  0.70183447  1
  Hf  Hf18  1  0.29918423  0.29138523  0.30395869  1
  Hf  Hf19  1  0.30107679  0.29589068  0.90839697  1
  Hf  Hf20  1  0.39816868  0.60240889  0.39772993  1
  Hf  Hf21  1  0.90276964  0.31723936  0.49185893  1
  Hf  Hf22  1  0.89947130  0.11028383  0.89607632  1
  Hf  Hf23  1  0.69238480  0.30579232  0.48482066  1
  Hf  Hf24  1  0.18980635  0.41293131  0.40603268  1
  Hf  Hf25  1  0.70402156  0.90085711  0.09974556  1
  Hf  Hf26  1  0.10698496  0.70846410  0.50282416  1
  Hf  Hf27  1  0.79919985  0.60422574  0.79929216  1
  Hf  Hf28  1  0.69506767  0.30401873  0.69815816  1
  Hf  Hf29  1  0.50170401  0.89615276  0.49844372  1
  Hf  Hf30  1  0.49943812  0.69342949  0.29937446  1
  Hf  Hf31  1  0.59277671  0.20853125  0.00624073  1
  Hf  Hf32  1  0.40847506  -0.00067746  0.00496191  1
  Hf  Hf33  1  0.21202373  -0.00395567  0.20304258  1
  Hf  Hf34  1  0.80187928  0.79013004  0.21433747  1
  Hf  Hf35  1  0.51156779  0.70209839  0.50069765  1
  Hf  Hf36  1  0.30382048  0.10362610  0.49204377  1
  Hf  Hf37  1  -0.00565774  0.00345892  0.19748511  1
  Hf  Hf38  1  -0.01185582  0.20025600  0.19967708  1
  Hf  Hf39  1  0.49844276  0.10530917  0.90521920  1
  Hf  Hf40  1  0.19745231  0.19704151  0.59866137  1
  Hf  Hf41  1  0.20045234  0.19820790  0.19592361  1
  Hf  Hf42  1  0.69759170  0.88617687  0.70415595  1
  Hf  Hf43  1  0.29852657  0.29751375  0.49675997  1
  Hf  Hf44  1  0.69751873  0.10687934  0.10489241  1
  Hf  Hf45  1  0.30535289  0.50090832  0.09946012  1
  Hf  Hf46  1  0.11160143  0.50303261  0.89803816  1
  Hf  Hf47  1  0.40210026  0.20363595  0.79987588  1
  Hf  Hf48  1  0.19913579  0.61888828  0.19554177  1
  Hf  Hf49  1  0.30152348  0.30215887  0.69587261  1
  Zr  Zr50  1  0.30148401  0.71406524  0.50208343  1
  Zr  Zr51  1  0.70417935  0.68984727  0.09369133  1
  Zr  Zr52  1  0.89971180  0.89231188  0.89473359  1
  Zr  Zr53  1  0.90043725  0.30185825  0.69536463  1
  Zr  Zr54  1  -0.00328006  0.19687448  0.59564197  1
  Zr  Zr55  1  0.59913756  -0.00664896  0.80958293  1
  Zr  Zr56  1  0.30348501  0.50645586  0.29176639  1
  Zr  Zr57  1  -0.00667458  0.79807108  0.39815851  1
  Zr  Zr58  1  0.49874798  0.09730539  0.49132880  1
  Zr  Zr59  1  0.80272338  0.00039629  0.00217370  1
  Zr  Zr60  1  0.60388526  0.79282583  0.20005950  1
  Zr  Zr61  1  0.69374765  0.10570669  0.29698926  1
  Zr  Zr62  1  0.30186385  0.10042486  0.90423597  1
  Zr  Zr63  1  0.70923346  0.91439688  0.29604278  1
  Zr  Zr64  1  0.00219549  0.39885861  0.00332901  1
  Zr  Zr65  1  0.09866013  0.88781021  0.10344956  1
  Zr  Zr66  1  0.20807204  -0.00398380  0.59730509  1
  Zr  Zr67  1  0.58695318  0.60426328  -0.00254421  1
  Zr  Zr68  1  0.40558899  0.80267439  0.60902733  1
  Zr  Zr69  1  0.09671171  0.89358926  0.69717668  1
  Zr  Zr70  1  0.90593436  0.49734939  0.68136397  1
  Zr  Zr71  1  0.79737916  0.19535496  0.59127073  1
  Zr  Zr72  1  0.88676372  0.49897960  0.10545622  1
  Zr  Zr73  1  0.49437213  0.50223153  0.10967222  1
  Zr  Zr74  1  0.40816564  0.39872340  0.39765218  1
  Zr  Zr75  1  -0.00833178  0.59944767  0.80025641  1
  Zr  Zr76  1  0.21339307  0.79308820  0.80745996  1
  Zr  Zr77  1  0.20253391  -0.00002188  0.00347140  1
  Zr  Zr78  1  0.80158385  0.79142397  -0.01172188  1
  Zr  Zr79  1  0.29425502  0.50509593  0.70507068  1
  Zr  Zr80  1  0.69783259  0.09643516  0.70641511  1
  Zr  Zr81  1  -0.01449642  0.79662077  0.59277302  1
  Zr  Zr82  1  0.21032017  0.60663591  -0.00074798  1
  Zr  Zr83  1  0.30085871  0.50338715  0.50643142  1
  Zr  Zr84  1  -0.00739339  0.60222404  -0.00199710  1
  Zr  Zr85  1  0.10301396  0.69555453  0.69750170  1
  Zr  Zr86  1  0.60023787  0.19426875  0.59167440  1
  Zr  Zr87  1  0.20258313  0.39554873  0.80391907  1
  Zr  Zr88  1  -0.00296117  0.40269683  0.80623623  1
  Zr  Zr89  1  0.40073068  0.79993857  0.19886962  1
  Zr  Zr90  1  0.79858163  0.20291615  0.39342109  1
  Zr  Zr91  1  0.40289930  0.60641961  0.80771336  1
  Zr  Zr92  1  0.91250397  0.68091107  0.29818690  1
  Zr  Zr93  1  0.79484322  -0.00083915  0.59646263  1
  Zr  Zr94  1  0.09463026  0.89347502  0.90601912  1
  Zr  Zr95  1  0.08662437  0.51298033  0.29641236  1
  Zr  Zr96  1  0.50640592  0.89671914  0.09407834  1
  Zr  Zr97  1  0.79750071  0.60297634  0.59090322  1
  Zr  Zr98  1  0.09502423  0.30164151  0.30702716  1
  Zr  Zr99  1  0.19834420  0.39604691  0.19342685  1
  Ta  Ta100  1  0.40611762  0.39393390  -0.00077682  1
  Ta  Ta101  1  0.60547792  0.59473166  0.20474921  1
  Ta  Ta102  1  0.09532902  0.09498273  0.49372959  1
  Ta  Ta103  1  0.69290554  0.70476980  0.88522315  1
  Ta  Ta104  1  0.79670974  0.59885964  0.39938588  1
  Ta  Ta105  1  0.68763033  0.50885348  0.69985833  1
  Ta  Ta106  1  0.79090219  0.59102990  0.21059708  1
  Ta  Ta107  1  0.80156984  0.79195653  0.40602612  1
  Ta  Ta108  1  0.21008173  -0.00377264  0.39865900  1
  Ta  Ta109  1  0.09991985  0.50461138  0.69149921  1
  Ta  Ta110  1  0.30477019  0.09838857  0.70063221  1
  Ta  Ta111  1  0.40491575  0.19992501  0.60044332  1
  Ta  Ta112  1  0.79613326  0.79745072  0.59022082  1
  Ta  Ta113  1  -0.00321235  0.00001320  0.79763615  1
  Ta  Ta114  1  0.88143055  0.49907106  0.91357325  1
  Ta  Ta115  1  0.49917508  0.30177578  0.69967277  1
  Ta  Ta116  1  0.18972876  0.40132940  0.59495408  1
  Ta  Ta117  1  0.59165113  0.40125661  0.80735516  1
  Ta  Ta118  1  0.90009185  0.49429826  0.30343447  1
  Ta  Ta119  1  -0.00927706  0.39652543  0.20070505  1
  Ta  Ta120  1  0.80041974  0.20897005  0.20372531  1
  Ta  Ta121  1  0.40542386  0.39020760  0.20343842  1
  Ta  Ta122  1  -0.00645021  0.20257056  0.39579590  1
  Ta  Ta123  1  0.19597039  0.61040486  0.39678384  1
  Ta  Ta124  1  0.09243101  0.10526251  0.89801960  1
  Ta  Ta125  1  0.40462669  -0.00572005  0.79612338  1
  Ta  Ta126  1  0.09417260  0.09595900  0.70106245  1
  Ta  Ta127  1  0.30726883  0.10396589  0.30299863  1
  Ta  Ta128  1  0.40288532  -0.00065916  0.60413629  1
  Ta  Ta129  1  0.40308837  0.00244019  0.20317146  1
  Ta  Ta130  1  0.60123726  0.00410707  0.39922012  1
  Ta  Ta131  1  0.89494233  0.89930165  0.69972843  1
  Ta  Ta132  1  0.19638728  0.19421411  0.79947716  1
  Ta  Ta133  1  0.30709680  0.89738939  0.10271739  1
  Ta  Ta134  1  0.49953473  0.09969934  0.70079325  1
  Ta  Ta135  1  0.31754113  0.89155780  0.90133685  1
  Ta  Ta136  1  0.90229036  0.88364624  0.10589381  1
  Ta  Ta137  1  0.40937483  0.40252592  0.80768725  1
  Ta  Ta138  1  0.90656193  0.49930568  0.49132641  1
  Ta  Ta139  1  0.89871857  0.69410770  0.10149968  1
  Ta  Ta140  1  0.49963487  0.10833513  0.29400067  1
  Ta  Ta141  1  0.09730774  0.50237905  0.10246070  1
  Ta  Ta142  1  0.31382901  0.10743430  0.10332205  1
  Ta  Ta143  1  0.09590702  0.28539454  0.90306027  1
  Ta  Ta144  1  0.30020461  0.71044421  0.30030268  1
  Ta  Ta145  1  0.19709504  0.19980690  0.00544642  1
  Ta  Ta146  1  0.30576635  0.89722125  0.70204472  1
  Ta  Ta147  1  0.89121635  0.70578885  0.69666497  1
  Ta  Ta148  1  0.88441341  0.30468991  0.09851095  1
  Ta  Ta149  1  0.59593358  0.21100639  0.80523612  1
  Ti  Ti150  1  0.70027128  0.30606486  0.10857057  1
  Ti  Ti151  1  0.40607640  0.40040724  0.60288080  1
  Ti  Ti152  1  0.19846842  0.60012168  0.59693889  1
  Ti  Ti153  1  0.69117923  0.70088341  0.69784933  1
  Ti  Ti154  1  0.00493513  0.60234777  0.41403141  1
  Ti  Ti155  1  0.41147595  0.20470263  0.39499718  1
  Ti  Ti156  1  0.89768187  0.90754262  0.49488674  1
  Ti  Ti157  1  -0.01193039  0.79254957  0.79928338  1
  Ti  Ti158  1  0.89823992  0.90848001  0.30690220  1
  Ti  Ti159  1  0.79352903  0.40660165  0.38653901  1
  Ti  Ti160  1  0.58763177  0.00635079  0.19747046  1
  Ti  Ti161  1  0.68197554  0.30956228  0.29238634  1
  Ti  Ti162  1  0.60217292  0.79886912  -0.00709898  1
  Ti  Ti163  1  0.10178847  0.10137245  0.09845970  1
  Ti  Ti164  1  0.89561634  0.09324961  0.30521653  1
  Ti  Ti165  1  0.00102265  0.79203712  0.20580720  1
  Ti  Ti166  1  0.30407623  0.50091632  0.90375556  1
  Ti  Ti167  1  0.29710654  0.70208959  0.70223436  1
  Ti  Ti168  1  0.39552809  -0.01141174  0.39355002  1
  Ti  Ti169  1  0.20028855  0.39453023  0.00480296  1
  Ti  Ti170  1  0.08673339  0.70222171  0.10414820  1
  Ti  Ti171  1  0.79874477  -0.00680497  0.80420719  1
  Ti  Ti172  1  0.70521453  0.30165140  0.90766351  1
  Ti  Ti173  1  0.69960568  0.48995545  0.10438528  1
  Ti  Ti174  1  0.61417391  0.59588777  0.38982147  1
  Ti  Ti175  1  0.81367390  0.00819175  0.19194639  1
  Ti  Ti176  1  0.51177672  0.49121555  0.29703006  1
  Ti  Ti177  1  0.90391018  0.09409006  0.70244401  1
  Ti  Ti178  1  0.09488524  0.29952905  0.09826446  1
  Ti  Ti179  1  0.69273791  0.69854232  0.50362594  1
  Ti  Ti180  1  0.70010877  0.90260988  0.49851526  1
  Ti  Ti181  1  0.50786044  0.89583292  0.70108626  1
  Ti  Ti182  1  0.40559713  0.78675755  0.00093868  1
  Ti  Ti183  1  0.50017611  0.90205577  0.30254158  1
  Ti  Ti184  1  0.69630758  0.49890273  0.49391686  1
  Ti  Ti185  1  0.60191669  -0.00106895  -0.00228720  1
  Ti  Ti186  1  0.79791291  0.20404775  0.79396062  1
  Ti  Ti187  1  0.21313245  0.81123615  0.39682905  1
  Ti  Ti188  1  0.49712434  0.29104899  0.11683953  1
  Ti  Ti189  1  0.40292870  0.60786689  0.00020293  1
  Ti  Ti190  1  0.79105265  0.40619841  0.59402149  1
  Ti  Ti191  1  0.50386616  0.70885997  0.89006419  1
  Ti  Ti192  1  -0.00481900  0.19704207  0.01079679  1
  Ti  Ti193  1  0.49985667  0.88856823  0.89505166  1
  Ti  Ti194  1  0.50763889  0.50513566  0.70731173  1
  Ti  Ti195  1  0.50471324  0.30065291  0.49351671  1
  Ti  Ti196  1  0.52128765  0.70543867  0.70466817  1
  Ti  Ti197  1  0.09485631  0.29860323  0.49419842  1
  Ti  Ti198  1  0.31029102  0.29391218  0.09857342  1
  Ti  Ti199  1  0.59985917  -0.00014590  0.59591774  1
  Mo  Mo200  1  0.40359215  0.60074713  0.20379223  1
  Mo  Mo201  1  -0.00044669  0.60113660  0.59242972  1
  Mo  Mo202  1  0.69989182  0.49494638  0.30106771  1
  Mo  Mo203  1  -0.00029173  0.59756705  0.19257886  1
  Mo  Mo204  1  0.50467643  0.69659547  0.09886998  1
  Mo  Mo205  1  0.59698169  0.60197690  0.79763891  1
  Mo  Mo206  1  0.79714677  -0.00597422  0.39890204  1
  Mo  Mo207  1  -0.00519584  -0.00194924  0.60749653  1
  Mo  Mo208  1  0.40176204  0.19882699  0.20171987  1
  Mo  Mo209  1  0.59460283  0.20294399  0.39163464  1
  Mo  Mo210  1  0.78545670  0.39833753  0.00366345  1
  Mo  Mo211  1  0.50573775  0.29653051  0.29786526  1
  Mo  Mo212  1  0.79722574  0.79435745  0.79163189  1
  Mo  Mo213  1  0.59845288  0.20695896  0.19944913  1
  Mo  Mo214  1  0.49747631  0.30128312  0.89878745  1
  Mo  Mo215  1  0.20359496  0.79771608  0.20215338  1
  Mo  Mo216  1  0.49404473  0.49675118  0.90247513  1
  Mo  Mo217  1  0.59867582  0.39872428  0.19938054  1
  Mo  Mo218  1  0.00000600  0.19241980  0.80012829  1
  Mo  Mo219  1  0.89419181  0.11161022  0.10303060  1
  Mo  Mo220  1  0.09663683  0.51182666  0.50286716  1
  Mo  Mo221  1  0.89309262  0.69237543  0.49786302  1
  Mo  Mo222  1  0.59917139  0.79853951  0.80047757  1
  Mo  Mo223  1  0.89255023  0.69526455  0.89596258  1
  Mo  Mo224  1  0.31452593  0.70214450  0.90331710  1
  Mo  Mo225  1  0.19251144  0.19277329  0.40439677  1
  Mo  Mo226  1  0.79293677  0.20765576  0.00940989  1
  Mo  Mo227  1  0.40132316  0.20468272  0.00945155  1
  Mo  Mo228  1  0.79302549  0.59868298  0.00051980  1
  Mo  Mo229  1  0.01515729  0.40614472  0.58621840  1
  Mo  Mo230  1  0.21146215  0.80288697  0.60177679  1
  Mo  Mo231  1  -0.00216521  0.40309082  0.39770983  1
  Mo  Mo232  1  0.89546011  0.30829104  0.29659768  1
  Mo  Mo233  1  0.60777241  0.80010952  0.59836422  1
  Mo  Mo234  1  0.30452238  0.90233781  0.30055156  1
  Mo  Mo235  1  0.69612388  0.09107042  0.48896933  1
  Mo  Mo236  1  0.31941624  0.69779957  0.10502594  1
  Mo  Mo237  1  0.10770164  0.70640228  0.30397418  1
  Mo  Mo238  1  0.40319401  0.80781847  0.39336515  1
  Mo  Mo239  1  0.30663499  0.90444201  0.49888059  1
  Mo  Mo240  1  0.40915802  0.80238893  0.79920309  1
  Mo  Mo241  1  0.70277119  0.68996734  0.30604012  1
  Mo  Mo242  1  0.20711794  0.59941831  0.79834526  1
  Mo  Mo243  1  0.69443722  0.89505641  0.89979727  1
  Mo  Mo244  1  0.79318340  0.39809065  0.20539416  1
  Mo  Mo245  1  -0.00777199  0.79252033  0.00700886  1
  Mo  Mo246  1  -0.00203066  -0.00213693  0.39299965  1
  Mo  Mo247  1  0.60391216  0.60075698  0.60340527  1
  Mo  Mo248  1  0.60055561  0.40226267  0.39539854  1
  Mo  Mo249  1  0.50251500  0.10085312  0.10547816  1
