# generated using pymatgen
data_HfZrTaTiMo
_symmetry_space_group_name_H-M   'P 1'
_cell_length_a   16.87365294
_cell_length_b   16.88917053
_cell_length_c   16.88837153
_cell_angle_alpha   89.93460582
_cell_angle_beta   90.10460537
_cell_angle_gamma   90.03634325
_symmetry_Int_Tables_number   1
_chemical_formula_structural   HfZrTaTiMo
_chemical_formula_sum   'Hf50 Zr50 Ta50 Ti50 Mo50'
_cell_volume   4812.86981135
_cell_formula_units_Z   50
loop_
 _symmetry_equiv_pos_site_id
 _symmetry_equiv_pos_as_xyz
  1  'x, y, z'
loop_
 _atom_site_type_symbol
 _atom_site_label
 _atom_site_symmetry_multiplicity
 _atom_site_fract_x
 _atom_site_fract_y
 _atom_site_fract_z
 _atom_site_occupancy
  Hf  Hf0  1  0.59636433  0.38621316  0.38655762  1
  Hf  Hf1  1  0.89565752  0.71224922  0.28899420  1
  Hf  Hf2  1  0.29891644  0.49797729  0.29447580  1
  Hf  Hf3  1  0.30136035  0.90053321  0.30067641  1
  Hf  Hf4  1  0.69529802  0.70959941  0.70379564  1
  Hf  Hf5  1  0.40071422  0.19105290  0.59752303  1
  Hf  Hf6  1  0.89280348  0.49016350  0.08772755  1
  Hf  Hf7  1  0.00270851  0.18993606  0.59747178  1
  Hf  Hf8  1  0.09244732  0.89374934  0.70649317  1
  Hf  Hf9  1  0.40370075  0.79846508  0.80754666  1
  Hf  Hf10  1  0.40194820  0.19981066  -0.00107615  1
  Hf  Hf11  1  0.80776943  0.39671282  0.39110596  1
  Hf  Hf12  1  0.00813474  0.60554037  0.19026598  1
  Hf  Hf13  1  0.90299986  0.89986509  0.89850778  1
  Hf  Hf14  1  0.70273136  0.08852305  0.70612174  1
  Hf  Hf15  1  0.09715083  0.11004670  0.89269129  1
  Hf  Hf16  1  0.59756514  0.59630177  0.80049385  1
  Hf  Hf17  1  0.00490410  0.38848115  0.39208020  1
  Hf  Hf18  1  0.20135300  0.79285971  0.80073151  1
  Hf  Hf19  1  -0.00478032  0.60619722  0.39689929  1
  Hf  Hf20  1  0.49298434  0.49451160  0.30041829  1
  Hf  Hf21  1  0.89833089  0.29773244  0.09798277  1
  Hf  Hf22  1  0.49854441  0.29644851  0.49664963  1
  Hf  Hf23  1  0.10141618  0.89952340  0.49624459  1
  Hf  Hf24  1  0.20883401  0.60037328  0.80063726  1
  Hf  Hf25  1  0.79596526  0.39828896  0.20253811  1
  Hf  Hf26  1  0.09640940  0.69345057  0.50725822  1
  Hf  Hf27  1  0.30018076  0.90318302  0.69787876  1
  Hf  Hf28  1  0.49394133  0.09707126  0.30302631  1
  Hf  Hf29  1  0.79499540  0.39938105  0.61300795  1
  Hf  Hf30  1  0.59464911  0.40190570  0.00385143  1
  Hf  Hf31  1  0.00530461  0.80317377  0.00842748  1
  Hf  Hf32  1  0.69729421  0.89546339  0.49778287  1
  Hf  Hf33  1  0.11004318  0.49579505  0.29328697  1
  Hf  Hf34  1  -0.00722057  0.00781313  0.39590885  1
  Hf  Hf35  1  0.19466544  0.20658280  0.00974900  1
  Hf  Hf36  1  0.90930927  0.49804447  0.69955716  1
  Hf  Hf37  1  0.70231130  0.09616103  0.89045339  1
  Hf  Hf38  1  0.30031465  0.89798395  0.49834727  1
  Hf  Hf39  1  0.59275002  0.18778161  0.00013990  1
  Hf  Hf40  1  0.80036734  0.59055593  0.80576998  1
  Hf  Hf41  1  0.90645740  0.70510447  0.70888093  1
  Hf  Hf42  1  0.89275812  0.71077565  0.09981396  1
  Hf  Hf43  1  0.79873361  0.00269609  0.39634950  1
  Hf  Hf44  1  0.70283711  0.29881225  0.09694355  1
  Hf  Hf45  1  0.29141232  0.29739805  0.89623510  1
  Hf  Hf46  1  0.79880250  0.60686610  0.39527442  1
  Hf  Hf47  1  0.90790401  0.50409146  0.50571864  1
  Hf  Hf48  1  0.39846521  0.60636504  -0.00150683  1
  Hf  Hf49  1  0.09049959  0.89776511  0.29324308  1
  Zr  Zr50  1  0.40981899  0.80521397  0.60261308  1
  Zr  Zr51  1  0.59954371  0.60691053  0.39091805  1
  Zr  Zr52  1  0.49907328  0.07782822  0.11939265  1
  Zr  Zr53  1  -0.00111752  0.59627455  0.00051664  1
  Zr  Zr54  1  0.29738777  0.09538704  0.10276387  1
  Zr  Zr55  1  0.59955021  0.40712346  0.79261162  1
  Zr  Zr56  1  0.79048610  0.59746833  0.19758376  1
  Zr  Zr57  1  0.09398465  0.70319593  0.89725109  1
  Zr  Zr58  1  0.19487215  0.79298765  0.19619501  1
  Zr  Zr59  1  0.60330269  -0.00603301  0.00301308  1
  Zr  Zr60  1  0.29686105  0.90354201  0.90260702  1
  Zr  Zr61  1  0.70350400  0.29481818  0.49743517  1
  Zr  Zr62  1  0.80242715  0.00203182  0.01366766  1
  Zr  Zr63  1  0.79890026  0.60524431  0.60117095  1
  Zr  Zr64  1  0.60229915  0.60146575  0.19817350  1
  Zr  Zr65  1  0.39906176  0.19203745  0.80231749  1
  Zr  Zr66  1  0.29560275  0.10629776  0.49837798  1
  Zr  Zr67  1  0.70682721  0.49249570  0.91242507  1
  Zr  Zr68  1  0.49889298  0.90568083  0.28743278  1
  Zr  Zr69  1  0.59412729  -0.00387410  0.59109567  1
  Zr  Zr70  1  0.10208333  0.29416227  0.70789350  1
  Zr  Zr71  1  0.59869706  0.20405602  0.20367934  1
  Zr  Zr72  1  0.40094104  0.40517939  0.59716149  1
  Zr  Zr73  1  0.90406638  0.09583823  0.89898986  1
  Zr  Zr74  1  0.49903100  0.69947202  0.50053716  1
  Zr  Zr75  1  0.31157356  0.90427975  0.10632314  1
  Zr  Zr76  1  0.28863079  0.28716958  0.68793571  1
  Zr  Zr77  1  0.41366150  0.00143412  -0.01541508  1
  Zr  Zr78  1  0.20601061  0.60415448  0.39736248  1
  Zr  Zr79  1  0.90131148  0.29743596  0.50357063  1
  Zr  Zr80  1  0.69249278  0.71021097  0.49965914  1
  Zr  Zr81  1  0.39048035  0.20384337  0.20296049  1
  Zr  Zr82  1  0.00463789  0.19545596  0.01316999  1
  Zr  Zr83  1  -0.01138628  0.79762841  0.59627136  1
  Zr  Zr84  1  0.60110989  0.18435785  0.58826160  1
  Zr  Zr85  1  0.19902730  0.79085958  0.60547919  1
  Zr  Zr86  1  0.39780971  0.41025206  0.79194540  1
  Zr  Zr87  1  0.69421153  0.49621455  0.49835594  1
  Zr  Zr88  1  0.70069951  0.29413596  0.89961925  1
  Zr  Zr89  1  0.11500626  0.29589619  0.51311402  1
  Zr  Zr90  1  0.40149932  0.60720923  0.20235305  1
  Zr  Zr91  1  0.19385572  0.01002293  0.39639541  1
  Zr  Zr92  1  0.00809873  0.39094754  0.19853756  1
  Zr  Zr93  1  -0.00322198  0.00075459  0.59572875  1
  Zr  Zr94  1  0.00174270  0.59475705  0.80572144  1
  Zr  Zr95  1  0.20001773  0.79919835  0.00166520  1
  Zr  Zr96  1  0.20116445  0.40668276  0.79958157  1
  Zr  Zr97  1  0.69975680  0.71052919  0.90164129  1
  Zr  Zr98  1  0.69577253  0.28980270  0.70333092  1
  Zr  Zr99  1  0.10240283  0.50186517  0.50619241  1
  Ta  Ta100  1  0.40597474  0.00375098  0.60047691  1
  Ta  Ta101  1  0.81218751  0.39601655  0.80440533  1
  Ta  Ta102  1  0.50445102  0.70228725  0.90240626  1
  Ta  Ta103  1  0.49613729  0.30373576  0.10002748  1
  Ta  Ta104  1  0.70036730  0.89946629  0.70575480  1
  Ta  Ta105  1  0.00254797  0.19790647  0.39291787  1
  Ta  Ta106  1  0.00171702  0.00123242  0.79685124  1
  Ta  Ta107  1  0.60020606  0.19095652  0.39801310  1
  Ta  Ta108  1  0.29520696  0.30405090  0.29751673  1
  Ta  Ta109  1  0.10468559  0.49498974  0.90591753  1
  Ta  Ta110  1  -0.00898606  0.79937279  0.39964762  1
  Ta  Ta111  1  0.19699237  0.20503648  0.39445256  1
  Ta  Ta112  1  0.59697408  0.39863925  0.19830287  1
  Ta  Ta113  1  0.20875227  0.39599395  0.40465521  1
  Ta  Ta114  1  0.49366937  0.50527562  0.90310017  1
  Ta  Ta115  1  0.80084481  0.19226684  0.00379825  1
  Ta  Ta116  1  0.50528631  0.09721325  0.70574014  1
  Ta  Ta117  1  0.29698931  0.49903849  0.10039575  1
  Ta  Ta118  1  0.00202958  0.39647095  0.80967861  1
  Ta  Ta119  1  0.70137736  0.09930633  0.29669458  1
  Ta  Ta120  1  0.50168379  0.71284139  0.10177663  1
  Ta  Ta121  1  0.19577099  0.01018440  0.60449509  1
  Ta  Ta122  1  0.50447285  0.29193205  0.70054092  1
  Ta  Ta123  1  0.69792605  0.90083364  0.11325865  1
  Ta  Ta124  1  0.79503473  0.60090212  0.00260983  1
  Ta  Ta125  1  0.09452530  0.91103792  0.10439817  1
  Ta  Ta126  1  0.49547702  0.49950835  0.09839000  1
  Ta  Ta127  1  0.89890176  0.09676954  0.70515972  1
  Ta  Ta128  1  0.59970255  0.60351028  0.00708333  1
  Ta  Ta129  1  0.19105632  0.20856933  0.20093922  1
  Ta  Ta130  1  0.80862683  0.20140827  0.79982186  1
  Ta  Ta131  1  0.39876696  0.39542630  0.19559040  1
  Ta  Ta132  1  0.10313494  0.50556060  0.69365783  1
  Ta  Ta133  1  0.60447374  0.00444502  0.39953006  1
  Ta  Ta134  1  -0.00834668  0.01328780  0.19525554  1
  Ta  Ta135  1  0.40112503  0.00211937  0.79629848  1
  Ta  Ta136  1  0.89428994  0.70923576  0.90271668  1
  Ta  Ta137  1  0.31035224  0.68934521  0.69884202  1
  Ta  Ta138  1  0.19957925  0.39590406  0.00559795  1
  Ta  Ta139  1  0.80279239  0.18899532  0.60169717  1
  Ta  Ta140  1  0.19921524  0.00571427  0.79683865  1
  Ta  Ta141  1  0.69771571  0.71150514  0.10044789  1
  Ta  Ta142  1  0.39514965  0.39853033  0.00087503  1
  Ta  Ta143  1  0.59598689  0.80913178  0.00078301  1
  Ta  Ta144  1  0.30569907  0.70307194  0.09870972  1
  Ta  Ta145  1  0.18617511  0.00617487  0.00066620  1
  Ta  Ta146  1  0.89632303  0.89944452  0.28989426  1
  Ta  Ta147  1  0.00068775  0.19921571  0.20646471  1
  Ta  Ta148  1  0.59464462  0.58940223  0.61171565  1
  Ta  Ta149  1  0.30455946  0.69368203  0.50526943  1
  Ti  Ti150  1  0.59524906  0.40821208  0.60710195  1
  Ti  Ti151  1  0.39453349  0.20618203  0.39565131  1
  Ti  Ti152  1  0.20241251  0.60465196  0.00150567  1
  Ti  Ti153  1  0.19540052  0.01082187  0.20205035  1
  Ti  Ti154  1  0.70057812  0.90043938  0.89149661  1
  Ti  Ti155  1  0.50065139  0.29997860  0.89513765  1
  Ti  Ti156  1  0.60596486  0.80388606  0.20550729  1
  Ti  Ti157  1  0.50579228  0.90120911  0.70858291  1
  Ti  Ti158  1  0.50210254  0.89803810  0.48572319  1
  Ti  Ti159  1  0.49808151  0.69473733  0.70640934  1
  Ti  Ti160  1  0.79115504  0.80187742  0.38820358  1
  Ti  Ti161  1  0.80037372  -0.00132765  0.59620919  1
  Ti  Ti162  1  0.89186448  0.89378812  0.49168273  1
  Ti  Ti163  1  0.00439731  0.39590861  0.60634197  1
  Ti  Ti164  1  0.40139746  0.58894880  0.60417206  1
  Ti  Ti165  1  0.90519109  0.50184621  0.29333229  1
  Ti  Ti166  1  0.40795596  0.80301036  -0.00080074  1
  Ti  Ti167  1  0.79300810  0.80988633  0.00395645  1
  Ti  Ti168  1  0.59069119  -0.00638757  0.80832804  1
  Ti  Ti169  1  0.80022739  0.80623881  0.80024413  1
  Ti  Ti170  1  0.90681380  0.29199488  0.70435124  1
  Ti  Ti171  1  0.29014187  0.10064180  0.89601495  1
  Ti  Ti172  1  0.90279850  0.90173848  0.10793090  1
  Ti  Ti173  1  0.39847935  0.00647470  0.40371057  1
  Ti  Ti174  1  0.50006108  0.49984232  0.49587433  1
  Ti  Ti175  1  0.89505407  0.10167927  0.49929717  1
  Ti  Ti176  1  0.89318797  0.90520500  0.70657458  1
  Ti  Ti177  1  0.19909670  0.60858728  0.19107375  1
  Ti  Ti178  1  0.19864793  0.79207816  0.39949003  1
  Ti  Ti179  1  0.30628452  0.70676072  0.29885027  1
  Ti  Ti180  1  0.01028767  0.39283874  -0.00463381  1
  Ti  Ti181  1  0.80032813  0.00537026  0.20211105  1
  Ti  Ti182  1  0.39757831  0.60080646  0.40294353  1
  Ti  Ti183  1  0.09419978  0.70632519  0.29642323  1
  Ti  Ti184  1  0.10295889  0.10582061  0.70533908  1
  Ti  Ti185  1  0.30100836  0.50300849  0.90669409  1
  Ti  Ti186  1  0.09386218  0.90787380  0.89964688  1
  Ti  Ti187  1  0.80301363  0.80155195  0.59970932  1
  Ti  Ti188  1  0.21963735  0.41783938  0.59449334  1
  Ti  Ti189  1  0.80979000  0.18798846  0.19895745  1
  Ti  Ti190  1  0.40143267  0.79580451  0.39889621  1
  Ti  Ti191  1  0.11075055  0.49664218  0.09753577  1
  Ti  Ti192  1  0.39208317  0.39406786  0.40265697  1
  Ti  Ti193  1  0.70701162  0.28896392  0.29771258  1
  Ti  Ti194  1  0.50124810  0.71328256  0.29930582  1
  Ti  Ti195  1  0.09918116  0.10497698  0.29623523  1
  Ti  Ti196  1  0.90495343  0.29685089  0.90298099  1
  Ti  Ti197  1  0.69659295  0.49608872  0.29874279  1
  Ti  Ti198  1  0.59305306  0.80234466  0.60625019  1
  Ti  Ti199  1  0.80632392  0.19393032  0.39398166  1
  Mo  Mo200  1  0.50588988  0.09765839  0.88830272  1
  Mo  Mo201  1  0.29417745  0.10644306  0.30186562  1
  Mo  Mo202  1  0.09907704  0.69228238  0.69817451  1
  Mo  Mo203  1  0.70639037  0.09940201  0.10831939  1
  Mo  Mo204  1  0.10265088  0.30340108  0.10419867  1
  Mo  Mo205  1  0.00548541  -0.00346885  0.00397533  1
  Mo  Mo206  1  0.59732542  0.80783275  0.39067924  1
  Mo  Mo207  1  -0.00470508  0.80758915  0.80409722  1
  Mo  Mo208  1  0.70130003  0.90485779  0.29826922  1
  Mo  Mo209  1  0.59594794  0.80590021  0.80072537  1
  Mo  Mo210  1  0.80281251  -0.00555251  0.79508710  1
  Mo  Mo211  1  0.30768316  0.69764064  0.90435250  1
  Mo  Mo212  1  0.89421021  0.70898715  0.49286790  1
  Mo  Mo213  1  0.09940237  0.09847294  0.10836060  1
  Mo  Mo214  1  0.20875282  0.59868032  0.60453937  1
  Mo  Mo215  1  0.69463591  0.50076483  0.10042810  1
  Mo  Mo216  1  0.59524072  0.19520664  0.80077528  1
  Mo  Mo217  1  0.70904435  0.09679789  0.49221565  1
  Mo  Mo218  1  0.09744386  0.30407268  0.90292279  1
  Mo  Mo219  1  0.40307098  0.79877986  0.19908103  1
  Mo  Mo220  1  0.30104791  0.51050380  0.69378435  1
  Mo  Mo221  1  0.50418707  0.89576342  0.89519628  1
  Mo  Mo222  1  0.30058369  0.09135305  0.69958232  1
  Mo  Mo223  1  0.19781763  0.18482167  0.59837385  1
  Mo  Mo224  1  0.70128757  0.49778467  0.70264338  1
  Mo  Mo225  1  0.49064695  0.30050376  0.29977652  1
  Mo  Mo226  1  0.40103214  0.60409782  0.80639397  1
  Mo  Mo227  1  0.38270912  0.00183348  0.21377680  1
  Mo  Mo228  1  0.30812566  0.50456597  0.49510967  1
  Mo  Mo229  1  -0.00416408  0.20211767  0.79634986  1
  Mo  Mo230  1  0.90018682  0.09953101  0.10495586  1
  Mo  Mo231  1  0.90340171  0.48676452  0.90378045  1
  Mo  Mo232  1  0.61678246  0.00007067  0.20599499  1
  Mo  Mo233  1  0.19893274  0.19220189  0.79966904  1
  Mo  Mo234  1  0.29987464  0.30638266  0.10040812  1
  Mo  Mo235  1  0.10641570  0.69701890  0.09985576  1
  Mo  Mo236  1  -0.00187315  0.80852114  0.19906224  1
  Mo  Mo237  1  0.49334431  0.09571275  0.48881541  1
  Mo  Mo238  1  0.89666327  0.10178403  0.29773092  1
  Mo  Mo239  1  0.00540828  0.60456564  0.60635065  1
  Mo  Mo240  1  0.80530243  0.39250490  -0.00257744  1
  Mo  Mo241  1  0.89970065  0.28810924  0.29794797  1
  Mo  Mo242  1  0.09807852  0.10307727  0.49763021  1
  Mo  Mo243  1  0.49629521  0.50497368  0.70201855  1
  Mo  Mo244  1  0.10546157  0.29753473  0.30124673  1
  Mo  Mo245  1  0.30146971  0.30122546  0.49165660  1
  Mo  Mo246  1  0.69811273  0.71635620  0.29519685  1
  Mo  Mo247  1  0.20610211  0.39657971  0.19385552  1
  Mo  Mo248  1  0.79503873  0.81094902  0.19688949  1
  Mo  Mo249  1  0.50479173  0.89174251  0.10468804  1
