# generated using pymatgen
data_HfZrTaTiMo
_symmetry_space_group_name_H-M   'P 1'
_cell_length_a   16.87762128
_cell_length_b   16.88407161
_cell_length_c   16.89319840
_cell_angle_alpha   90.01588690
_cell_angle_beta   89.91736986
_cell_angle_gamma   89.96873174
_symmetry_Int_Tables_number   1
_chemical_formula_structural   HfZrTaTiMo
_chemical_formula_sum   'Hf50 Zr50 Ta50 Ti50 Mo50'
_cell_volume   4813.93001842
_cell_formula_units_Z   50
loop_
 _symmetry_equiv_pos_site_id
 _symmetry_equiv_pos_as_xyz
  1  'x, y, z'
loop_
 _atom_site_type_symbol
 _atom_site_label
 _atom_site_symmetry_multiplicity
 _atom_site_fract_x
 _atom_site_fract_y
 _atom_site_fract_z
 _atom_site_occupancy
  Hf  Hf0  1  0.50400231  0.70084177  0.91063897  1
  Hf  Hf1  1  0.69905182  0.70658006  0.31305363  1
  Hf  Hf2  1  0.70723144  0.30265521  0.31037963  1
  Hf  Hf3  1  0.10132022  0.90082593  0.29872975  1
  Hf  Hf4  1  0.10879034  0.29958735  0.09470239  1
  Hf  Hf5  1  0.80053507  0.78898201  0.80420201  1
  Hf  Hf6  1  -0.00391851  0.40524704  -0.00556373  1
  Hf  Hf7  1  0.59317250  0.19835025  0.39707642  1
  Hf  Hf8  1  0.39972701  0.60304553  0.40929712  1
  Hf  Hf9  1  0.40824217  0.60417585  0.20207378  1
  Hf  Hf10  1  0.79230808  0.39323516  0.79954859  1
  Hf  Hf11  1  0.59760093  0.40624043  0.40225750  1
  Hf  Hf12  1  0.29998429  0.50322365  0.68602421  1
  Hf  Hf13  1  0.89247898  0.50969978  0.89009031  1
  Hf  Hf14  1  0.70515924  0.89501257  0.49217120  1
  Hf  Hf15  1  0.89452685  0.09967148  0.31177206  1
  Hf  Hf16  1  0.80310179  0.19880375  0.60663126  1
  Hf  Hf17  1  0.00203626  0.79691161  0.60445236  1
  Hf  Hf18  1  0.40066091  0.40248987  0.59095088  1
  Hf  Hf19  1  0.09703301  0.70624805  0.89718990  1
  Hf  Hf20  1  -0.00519114  -0.01007044  0.00380761  1
  Hf  Hf21  1  0.89705461  0.30088451  0.10022335  1
  Hf  Hf22  1  -0.01291004  -0.00543423  0.78680837  1
  Hf  Hf23  1  0.00377542  0.79138694  0.39182138  1
  Hf  Hf24  1  0.40177440  0.19739591  0.39993126  1
  Hf  Hf25  1  -0.00071852  0.40278503  0.20149067  1
  Hf  Hf26  1  0.40809903  0.59425107  0.00565721  1
  Hf  Hf27  1  0.80491150  -0.00875547  0.20184870  1
  Hf  Hf28  1  0.70329399  0.90868122  0.90040873  1
  Hf  Hf29  1  0.50431373  0.90266367  0.10863208  1
  Hf  Hf30  1  0.69585591  0.90105178  0.10284212  1
  Hf  Hf31  1  0.67737413  0.29815832  0.69898243  1
  Hf  Hf32  1  0.30743050  0.89718553  0.68796944  1
  Hf  Hf33  1  0.19600889  0.80017535  0.20704825  1
  Hf  Hf34  1  0.80162261  0.59758495  0.40135639  1
  Hf  Hf35  1  0.00072268  0.19873221  0.40458221  1
  Hf  Hf36  1  0.29624826  0.50001519  0.90283560  1
  Hf  Hf37  1  0.39813678  0.00019263  0.00849341  1
  Hf  Hf38  1  0.80692961  0.79924298  0.60759543  1
  Hf  Hf39  1  0.29435238  0.29966059  0.68732410  1
  Hf  Hf40  1  0.19552520  0.39932871  0.79427321  1
  Hf  Hf41  1  0.10253019  0.30207223  0.30262714  1
  Hf  Hf42  1  0.20277991  0.79422839  0.78725876  1
  Hf  Hf43  1  0.10084272  0.90294202  0.89887158  1
  Hf  Hf44  1  -0.00649944  -0.00109311  0.59788843  1
  Hf  Hf45  1  0.30015809  0.50410550  0.29487918  1
  Hf  Hf46  1  0.80650566  0.79846153  0.20601719  1
  Hf  Hf47  1  0.50719818  0.30101040  0.89419401  1
  Hf  Hf48  1  0.21396846  0.19121380  0.39954290  1
  Hf  Hf49  1  0.10426298  0.09268237  0.29843538  1
  Zr  Zr50  1  0.08798363  0.70216334  0.11497397  1
  Zr  Zr51  1  0.79481862  0.41292521  0.20268066  1
  Zr  Zr52  1  0.88972753  0.09465342  0.89270342  1
  Zr  Zr53  1  0.39476485  0.19634178  0.79361093  1
  Zr  Zr54  1  0.49847671  0.31182529  0.10763734  1
  Zr  Zr55  1  0.79960553  0.40048724  0.59819214  1
  Zr  Zr56  1  0.20463602  0.00220658  0.79448013  1
  Zr  Zr57  1  0.12020647  0.08770065  0.09082519  1
  Zr  Zr58  1  0.60262322  0.79889510  0.79413979  1
  Zr  Zr59  1  -0.00409972  -0.00971908  0.19374969  1
  Zr  Zr60  1  -0.00016252  0.40882310  0.40666676  1
  Zr  Zr61  1  0.39969482  0.00190501  0.79937973  1
  Zr  Zr62  1  0.40722210  0.79826243  0.79521607  1
  Zr  Zr63  1  0.28784211  0.10174113  0.92067652  1
  Zr  Zr64  1  -0.00829201  0.39538965  0.59675079  1
  Zr  Zr65  1  -0.00942156  0.60819563  -0.00736442  1
  Zr  Zr66  1  0.69000431  0.30775358  0.10984495  1
  Zr  Zr67  1  -0.00177891  0.19239828  -0.00054194  1
  Zr  Zr68  1  0.20016226  0.81100853  0.00865978  1
  Zr  Zr69  1  0.30205081  0.69887748  0.10720134  1
  Zr  Zr70  1  0.20040690  0.60338778  0.00005213  1
  Zr  Zr71  1  0.20502111  -0.00262759  0.59071770  1
  Zr  Zr72  1  0.79076748  0.40741470  -0.00343075  1
  Zr  Zr73  1  0.60246213  0.60724459  0.80183477  1
  Zr  Zr74  1  0.69524894  0.50213220  0.69645268  1
  Zr  Zr75  1  0.80389952  0.79460237  0.00157493  1
  Zr  Zr76  1  0.80873105  0.00422752  0.60940543  1
  Zr  Zr77  1  0.39977556  -0.00059088  0.40911247  1
  Zr  Zr78  1  -0.00121207  0.59437107  0.59125295  1
  Zr  Zr79  1  0.59945445  0.19749586  -0.00311818  1
  Zr  Zr80  1  0.69552193  0.70523203  0.50246016  1
  Zr  Zr81  1  0.20107769  0.60664788  0.40290676  1
  Zr  Zr82  1  0.78793877  0.20067056  -0.00611879  1
  Zr  Zr83  1  0.10172307  0.29381034  0.89940675  1
  Zr  Zr84  1  0.88006839  0.29710557  0.48059982  1
  Zr  Zr85  1  0.40404474  0.40131578  0.79647016  1
  Zr  Zr86  1  0.40627250  0.60430850  0.79338267  1
  Zr  Zr87  1  0.60146212  -0.00385326  0.59962007  1
  Zr  Zr88  1  0.59855270  0.79574354  0.21075190  1
  Zr  Zr89  1  0.20059740  0.61054640  0.78787417  1
  Zr  Zr90  1  0.09904302  0.29594838  0.68891080  1
  Zr  Zr91  1  0.10076520  0.50675646  0.10360102  1
  Zr  Zr92  1  0.21188517  0.19248750  0.19904676  1
  Zr  Zr93  1  0.29702732  0.29991423  0.91180836  1
  Zr  Zr94  1  0.69223566  0.09323858  0.10713225  1
  Zr  Zr95  1  0.09705028  0.10635606  0.69411586  1
  Zr  Zr96  1  0.69847243  0.09182460  0.30397418  1
  Zr  Zr97  1  0.59882316  0.00213963  0.79759056  1
  Zr  Zr98  1  0.31030144  0.31238604  0.29315586  1
  Zr  Zr99  1  0.40166768  0.18958111  0.19969256  1
  Ta  Ta100  1  0.40349279  0.80384281  0.00932179  1
  Ta  Ta101  1  0.20344518  0.19361861  0.79461890  1
  Ta  Ta102  1  0.50118588  0.10203078  0.89981509  1
  Ta  Ta103  1  0.69132902  0.29595386  0.50155937  1
  Ta  Ta104  1  0.30524389  0.89886598  0.29951749  1
  Ta  Ta105  1  0.20233636  0.60574928  0.59356791  1
  Ta  Ta106  1  0.09910507  0.69905247  0.49702568  1
  Ta  Ta107  1  0.50526483  0.30010593  0.50563519  1
  Ta  Ta108  1  0.40095253  0.79351388  0.39800747  1
  Ta  Ta109  1  0.40212694  0.40547036  0.40477473  1
  Ta  Ta110  1  0.00024838  -0.00030043  0.40888718  1
  Ta  Ta111  1  0.60811511  0.79261377  0.00297221  1
  Ta  Ta112  1  0.09908261  0.51200576  0.29935127  1
  Ta  Ta113  1  -0.00351386  0.19777859  0.20064017  1
  Ta  Ta114  1  0.19939915  0.79039725  0.59532396  1
  Ta  Ta115  1  0.89639431  0.29845660  0.89339418  1
  Ta  Ta116  1  0.50291454  0.89947900  0.91013780  1
  Ta  Ta117  1  0.50683615  0.49872829  0.69054099  1
  Ta  Ta118  1  0.89448907  0.30171200  0.29989154  1
  Ta  Ta119  1  0.50242296  0.08369934  0.29484757  1
  Ta  Ta120  1  0.50960499  0.69876073  0.10173533  1
  Ta  Ta121  1  0.90259810  0.50680563  0.30175841  1
  Ta  Ta122  1  0.29982044  0.30952768  0.09578397  1
  Ta  Ta123  1  0.80210785  0.19945209  0.20415915  1
  Ta  Ta124  1  0.59652953  -0.00641605  0.40404912  1
  Ta  Ta125  1  -0.00664897  0.79630790  0.79449549  1
  Ta  Ta126  1  0.20501246  0.79959815  0.40376120  1
  Ta  Ta127  1  0.70582334  0.10183092  0.49508693  1
  Ta  Ta128  1  0.09932181  0.49928396  0.89257563  1
  Ta  Ta129  1  0.89593594  0.51383859  0.10513472  1
  Ta  Ta130  1  0.79130703  0.61050918  -0.00188659  1
  Ta  Ta131  1  0.89725895  0.89637618  0.49303063  1
  Ta  Ta132  1  0.50052858  0.49951349  0.29700488  1
  Ta  Ta133  1  0.90028367  0.69772665  0.10982752  1
  Ta  Ta134  1  0.19954585  0.40615275  0.20100044  1
  Ta  Ta135  1  0.20608630  -0.00371342  0.40227177  1
  Ta  Ta136  1  0.09863461  0.50059771  0.69478602  1
  Ta  Ta137  1  0.89748789  0.68731512  0.70387939  1
  Ta  Ta138  1  0.30644399  0.70669345  0.90559366  1
  Ta  Ta139  1  -0.00446943  0.40026699  0.79449907  1
  Ta  Ta140  1  0.20432063  0.40594969  0.40445000  1
  Ta  Ta141  1  0.90046646  0.69951537  0.49354012  1
  Ta  Ta142  1  0.50473022  0.11094344  0.69514499  1
  Ta  Ta143  1  0.58961780  0.60496675  0.40064443  1
  Ta  Ta144  1  0.79000684  0.19939871  0.79801318  1
  Ta  Ta145  1  0.11350509  0.29660037  0.50416551  1
  Ta  Ta146  1  0.89753154  0.50400843  0.70338745  1
  Ta  Ta147  1  0.10137143  0.10130650  0.49867341  1
  Ta  Ta148  1  0.40499874  0.40792935  0.00404568  1
  Ta  Ta149  1  0.40029569  0.19698636  0.59177999  1
  Ti  Ti150  1  0.89496491  0.10202983  0.10289900  1
  Ti  Ti151  1  0.31976362  0.70106147  0.67706694  1
  Ti  Ti152  1  0.51342923  0.49766708  0.10721741  1
  Ti  Ti153  1  0.50189923  0.50269838  0.50444432  1
  Ti  Ti154  1  0.50801615  0.10280146  0.50534322  1
  Ti  Ti155  1  0.70395366  0.69082350  0.69598451  1
  Ti  Ti156  1  0.69382463  0.10407360  0.70299019  1
  Ti  Ti157  1  0.10284153  0.09826597  0.90012197  1
  Ti  Ti158  1  0.29698673  0.91100950  0.11228160  1
  Ti  Ti159  1  0.69626583  0.49851350  0.50080876  1
  Ti  Ti160  1  0.59714814  0.19962031  0.20701805  1
  Ti  Ti161  1  0.10814353  0.49864870  0.50136884  1
  Ti  Ti162  1  0.89841237  0.89646801  0.31101547  1
  Ti  Ti163  1  0.80346993  -0.00124713  0.00397998  1
  Ti  Ti164  1  0.30765631  0.88759970  0.50098984  1
  Ti  Ti165  1  0.79652299  0.60678081  0.20186990  1
  Ti  Ti166  1  0.60449744  0.40471696  -0.00664821  1
  Ti  Ti167  1  0.30287910  0.89639926  0.90253613  1
  Ti  Ti168  1  0.21397179  0.18631891  0.59278699  1
  Ti  Ti169  1  -0.01043043  0.20168694  0.79254597  1
  Ti  Ti170  1  0.29745213  0.30536398  0.49952274  1
  Ti  Ti171  1  0.49907601  0.89803555  0.30464669  1
  Ti  Ti172  1  0.69395695  0.50514042  0.30113882  1
  Ti  Ti173  1  0.69130308  0.51276090  0.10035531  1
  Ti  Ti174  1  0.49479911  0.89888742  0.68898501  1
  Ti  Ti175  1  0.70832344  0.90325285  0.70452457  1
  Ti  Ti176  1  0.49574449  0.70709479  0.50745381  1
  Ti  Ti177  1  0.89432895  0.89945505  0.89390451  1
  Ti  Ti178  1  0.50618983  0.29924948  0.69279991  1
  Ti  Ti179  1  0.59867695  0.00488955  -0.00460341  1
  Ti  Ti180  1  0.29672445  0.49594163  0.10383428  1
  Ti  Ti181  1  0.50946850  0.49802516  0.89807430  1
  Ti  Ti182  1  0.80387346  0.59642286  0.59437636  1
  Ti  Ti183  1  -0.01370918  0.19749055  0.59432620  1
  Ti  Ti184  1  0.40207179  0.19638699  0.01123809  1
  Ti  Ti185  1  0.69448114  0.50707118  0.89729638  1
  Ti  Ti186  1  0.30021576  0.70244455  0.30018793  1
  Ti  Ti187  1  0.50450378  0.08939056  0.11028388  1
  Ti  Ti188  1  0.00283757  0.60361180  0.79496882  1
  Ti  Ti189  1  0.50053351  0.89050857  0.50267629  1
  Ti  Ti190  1  0.59428008  0.60284659  0.59571128  1
  Ti  Ti191  1  -0.00964917  0.80526151  0.00430092  1
  Ti  Ti192  1  0.59757469  0.79733243  0.60755656  1
  Ti  Ti193  1  0.10033915  0.89668671  0.49665684  1
  Ti  Ti194  1  0.10152109  0.89627147  0.69747241  1
  Ti  Ti195  1  0.60173147  0.60535963  0.20474367  1
  Ti  Ti196  1  0.50070339  0.31424067  0.29381353  1
  Ti  Ti197  1  0.40354636  0.79852299  0.20461439  1
  Ti  Ti198  1  0.39886097  0.01099548  0.59697635  1
  Ti  Ti199  1  0.70104508  0.89753582  0.31450396  1
  Mo  Mo200  1  0.49900646  0.69789972  0.30368924  1
  Mo  Mo201  1  0.40661441  0.60098611  0.59399641  1
  Mo  Mo202  1  0.79590863  0.00212489  0.79503514  1
  Mo  Mo203  1  0.50594545  0.69649495  0.68280082  1
  Mo  Mo204  1  0.29942566  0.70443294  0.50091800  1
  Mo  Mo205  1  0.59905079  0.19535565  0.59400613  1
  Mo  Mo206  1  0.89797327  0.88848701  0.70153101  1
  Mo  Mo207  1  0.30862622  0.10144673  0.68817252  1
  Mo  Mo208  1  0.79433706  0.19176622  0.40080656  1
  Mo  Mo209  1  0.40081863  -0.00640639  0.20480754  1
  Mo  Mo210  1  0.59765795  0.19680092  0.79741642  1
  Mo  Mo211  1  0.89899080  0.89190420  0.09680667  1
  Mo  Mo212  1  0.89043272  0.50414781  0.49731045  1
  Mo  Mo213  1  0.30754946  0.09403624  0.10477974  1
  Mo  Mo214  1  0.90121552  0.29833775  0.70882574  1
  Mo  Mo215  1  0.30482167  0.08044340  0.29902924  1
  Mo  Mo216  1  0.20917981  -0.00701105  0.20453017  1
  Mo  Mo217  1  0.59933997  -0.00930495  0.21357128  1
  Mo  Mo218  1  0.40401240  0.80028355  0.59114588  1
  Mo  Mo219  1  0.69940902  0.69681436  0.90696258  1
  Mo  Mo220  1  0.90139783  0.09630071  0.50095776  1
  Mo  Mo221  1  0.60432905  0.59587010  0.00520447  1
  Mo  Mo222  1  0.19977876  0.60088230  0.20783006  1
  Mo  Mo223  1  0.69444970  0.30188232  0.89246223  1
  Mo  Mo224  1  -0.00581870  0.79823243  0.20465577  1
  Mo  Mo225  1  0.60044769  0.41478167  0.20789522  1
  Mo  Mo226  1  0.40191548  0.41105115  0.19385708  1
  Mo  Mo227  1  0.59460643  0.40252066  0.59312400  1
  Mo  Mo228  1  0.89817343  0.11157427  0.70096181  1
  Mo  Mo229  1  0.10033962  0.69665435  0.30356316  1
  Mo  Mo230  1  0.09342951  0.69696080  0.69374979  1
  Mo  Mo231  1  0.19820574  0.40824932  0.59000711  1
  Mo  Mo232  1  0.90397498  0.69322332  0.29822557  1
  Mo  Mo233  1  0.81145293  0.79749668  0.39949143  1
  Mo  Mo234  1  0.70027980  0.69283010  0.10563047  1
  Mo  Mo235  1  0.59676041  0.40482841  0.80168226  1
  Mo  Mo236  1  0.20359590  0.40539529  0.00459884  1
  Mo  Mo237  1  0.20205723  -0.01018044  0.00277146  1
  Mo  Mo238  1  0.79787936  0.60105130  0.80095307  1
  Mo  Mo239  1  0.30251368  0.09908923  0.49733942  1
  Mo  Mo240  1  0.69543302  0.09880161  0.89242209  1
  Mo  Mo241  1  0.79264333  0.41601743  0.39925548  1
  Mo  Mo242  1  0.00123696  0.60016751  0.39998637  1
  Mo  Mo243  1  0.90235741  0.69994960  0.89566837  1
  Mo  Mo244  1  0.29969014  0.50105428  0.49800387  1
  Mo  Mo245  1  0.58456351  0.80276987  0.40492533  1
  Mo  Mo246  1  0.80158472  -0.00586582  0.40485422  1
  Mo  Mo247  1  0.09669674  0.89544735  0.10237909  1
  Mo  Mo248  1  0.20246450  0.20457975  0.00159017  1
  Mo  Mo249  1  -0.00725612  0.60190476  0.20958560  1
