# generated using pymatgen
data_HfZrTaTiMo
_symmetry_space_group_name_H-M   'P 1'
_cell_length_a   16.88556908
_cell_length_b   16.87521999
_cell_length_c   16.88034537
_cell_angle_alpha   90.00589043
_cell_angle_beta   89.98351581
_cell_angle_gamma   90.02599938
_symmetry_Int_Tables_number   1
_chemical_formula_structural   HfZrTaTiMo
_chemical_formula_sum   'Hf50 Zr50 Ta50 Ti50 Mo50'
_cell_volume   4810.01474653
_cell_formula_units_Z   50
loop_
 _symmetry_equiv_pos_site_id
 _symmetry_equiv_pos_as_xyz
  1  'x, y, z'
loop_
 _atom_site_type_symbol
 _atom_site_label
 _atom_site_symmetry_multiplicity
 _atom_site_fract_x
 _atom_site_fract_y
 _atom_site_fract_z
 _atom_site_occupancy
  Hf  Hf0  1  0.50700977  0.48667071  0.90274845  1
  Hf  Hf1  1  0.49723820  0.50058458  0.69439298  1
  Hf  Hf2  1  0.59396557  0.39981489  0.39188299  1
  Hf  Hf3  1  0.79877804  0.60308112  0.19736815  1
  Hf  Hf4  1  0.79478572  0.40626182  0.60726863  1
  Hf  Hf5  1  0.40299222  0.20844458  0.00578992  1
  Hf  Hf6  1  0.00434257  0.20921250  0.19384239  1
  Hf  Hf7  1  0.69754944  0.30018732  0.90141613  1
  Hf  Hf8  1  0.69873106  0.29066044  0.70547091  1
  Hf  Hf9  1  0.89933096  0.30014390  0.49779478  1
  Hf  Hf10  1  0.69003521  0.10497027  0.89695226  1
  Hf  Hf11  1  0.89098822  0.10099400  0.30266969  1
  Hf  Hf12  1  0.80632117  0.79362883  0.20402002  1
  Hf  Hf13  1  -0.00408229  0.00447866  0.80117752  1
  Hf  Hf14  1  0.10604356  0.09728793  0.30482340  1
  Hf  Hf15  1  0.29707809  0.69750620  0.69856598  1
  Hf  Hf16  1  0.29407797  0.30903587  0.30510921  1
  Hf  Hf17  1  -0.00283518  0.19522721  0.60403251  1
  Hf  Hf18  1  0.50094043  0.69870900  0.89930735  1
  Hf  Hf19  1  0.30180476  0.90366558  0.49772013  1
  Hf  Hf20  1  0.09482789  0.89660143  0.69223699  1
  Hf  Hf21  1  0.30086619  0.69734731  0.30050092  1
  Hf  Hf22  1  0.60164727  0.00324891  0.40981288  1
  Hf  Hf23  1  0.00294166  0.79233737  0.21189454  1
  Hf  Hf24  1  0.80247532  0.80433521  0.60481823  1
  Hf  Hf25  1  0.20516808  0.20481404  0.61058750  1
  Hf  Hf26  1  0.70252670  0.90425772  0.30391684  1
  Hf  Hf27  1  0.60999726  0.59109580  0.79250994  1
  Hf  Hf28  1  0.40075085  0.21335152  0.20142494  1
  Hf  Hf29  1  0.59457915  0.19829389  0.59656495  1
  Hf  Hf30  1  0.79380532  0.39341071  0.18983709  1
  Hf  Hf31  1  0.28858473  0.29086234  0.89944372  1
  Hf  Hf32  1  0.39751469  0.20177537  0.40525149  1
  Hf  Hf33  1  0.69810281  0.10161064  0.70315141  1
  Hf  Hf34  1  0.10309567  0.50550444  0.70152731  1
  Hf  Hf35  1  0.50233884  0.09848572  0.10150191  1
  Hf  Hf36  1  0.81209782  0.00662742  -0.01610418  1
  Hf  Hf37  1  0.49130306  0.50713351  0.50860946  1
  Hf  Hf38  1  0.20010191  -0.00766682  -0.00411846  1
  Hf  Hf39  1  0.09590757  0.69515892  0.89438375  1
  Hf  Hf40  1  0.00650501  0.20590685  0.80092514  1
  Hf  Hf41  1  0.90205718  0.50356926  0.89834232  1
  Hf  Hf42  1  0.80793633  0.20868879  0.00542271  1
  Hf  Hf43  1  0.81281523  -0.00063971  0.79208795  1
  Hf  Hf44  1  0.19823323  0.20693416  0.19351088  1
  Hf  Hf45  1  0.20535437  0.79672370  0.00046516  1
  Hf  Hf46  1  0.30408184  0.10444447  0.89588945  1
  Hf  Hf47  1  0.00702826  0.40553343  0.39348003  1
  Hf  Hf48  1  0.10405583  0.30496019  0.50133864  1
  Hf  Hf49  1  0.29827814  0.09807828  0.09772074  1
  Zr  Zr50  1  0.90229681  0.50255567  0.08671570  1
  Zr  Zr51  1  0.59886840  0.60777967  0.40131923  1
  Zr  Zr52  1  0.00737602  0.39642682  0.19532923  1
  Zr  Zr53  1  0.49688078  0.09378388  0.29714136  1
  Zr  Zr54  1  0.39716460  0.79991845  0.19433671  1
  Zr  Zr55  1  0.80014005  0.79456998  0.41081309  1
  Zr  Zr56  1  0.10838012  0.11278057  0.90632453  1
  Zr  Zr57  1  0.10080243  0.69127757  0.08731017  1
  Zr  Zr58  1  0.89489739  0.49973838  0.30002214  1
  Zr  Zr59  1  0.49956757  0.89683783  0.89754669  1
  Zr  Zr60  1  0.49599236  0.10667992  0.71276374  1
  Zr  Zr61  1  0.91046077  0.69383794  0.07838226  1
  Zr  Zr62  1  0.01059524  0.59378357  0.20554186  1
  Zr  Zr63  1  0.60362626  0.59777790  0.19768246  1
  Zr  Zr64  1  0.79437336  0.60540603  0.60237410  1
  Zr  Zr65  1  -0.00867439  0.00057601  0.40777126  1
  Zr  Zr66  1  0.69723107  0.10419303  0.10581490  1
  Zr  Zr67  1  0.18922928  0.40639108  0.19429936  1
  Zr  Zr68  1  0.60413559  0.80205713  0.59279795  1
  Zr  Zr69  1  0.00239105  0.60598054  0.40115483  1
  Zr  Zr70  1  0.29464455  0.32219842  0.50302757  1
  Zr  Zr71  1  0.49788253  0.69358339  0.69117612  1
  Zr  Zr72  1  0.90922722  0.10146613  0.09734335  1
  Zr  Zr73  1  0.59489911  0.20051456  0.40047467  1
  Zr  Zr74  1  0.69922876  0.89805478  0.89239121  1
  Zr  Zr75  1  0.30166558  0.89991460  0.30845051  1
  Zr  Zr76  1  0.49427875  0.31252029  0.50468336  1
  Zr  Zr77  1  0.30053822  0.08733169  0.30532448  1
  Zr  Zr78  1  0.79204338  0.39703043  0.39899694  1
  Zr  Zr79  1  0.48730982  0.51269414  0.29094007  1
  Zr  Zr80  1  0.39917323  0.39501189  0.00209184  1
  Zr  Zr81  1  0.91002636  0.89804521  0.09453028  1
  Zr  Zr82  1  0.70108845  0.90394577  0.10026630  1
  Zr  Zr83  1  0.90185442  0.50236721  0.50601666  1
  Zr  Zr84  1  0.60710289  0.59101986  0.00743549  1
  Zr  Zr85  1  0.90006719  0.30454348  0.70136279  1
  Zr  Zr86  1  0.10467283  0.09431774  0.50202849  1
  Zr  Zr87  1  0.80147686  0.80045112  -0.00524830  1
  Zr  Zr88  1  0.20020590  0.60418500  0.59464039  1
  Zr  Zr89  1  0.00673002  -0.00490554  0.20284765  1
  Zr  Zr90  1  0.39385553  0.58936955  0.00599825  1
  Zr  Zr91  1  0.70845297  0.69734335  0.89541969  1
  Zr  Zr92  1  0.19997864  0.80279745  0.79833615  1
  Zr  Zr93  1  0.39341623  0.58763562  0.80613744  1
  Zr  Zr94  1  0.19490435  0.39200991  0.79559193  1
  Zr  Zr95  1  0.80277709  0.00612074  0.59224735  1
  Zr  Zr96  1  0.49181570  0.69150138  0.10766840  1
  Zr  Zr97  1  0.10395780  0.89829774  0.50581715  1
  Zr  Zr98  1  0.39129804  0.20177994  0.61004960  1
  Zr  Zr99  1  0.39554681  0.40686691  0.18787354  1
  Ta  Ta100  1  0.39694921  0.80090046  0.59919317  1
  Ta  Ta101  1  0.59372121  0.80127403  0.00923252  1
  Ta  Ta102  1  0.11374454  0.69895431  0.30898772  1
  Ta  Ta103  1  0.59632867  0.80193289  0.20310367  1
  Ta  Ta104  1  0.70172708  0.09889032  0.29798120  1
  Ta  Ta105  1  0.59434347  -0.00275369  0.79643547  1
  Ta  Ta106  1  0.20324508  -0.00108683  0.79696108  1
  Ta  Ta107  1  0.79430388  0.60822751  0.40334942  1
  Ta  Ta108  1  0.29461864  0.69036298  0.90123847  1
  Ta  Ta109  1  0.21141397  0.00674514  0.60650253  1
  Ta  Ta110  1  0.01012229  0.40151349  0.60703594  1
  Ta  Ta111  1  -0.00148999  0.79756535  0.39871428  1
  Ta  Ta112  1  0.39736962  0.38946845  0.79836540  1
  Ta  Ta113  1  0.29638736  0.49623812  0.69685890  1
  Ta  Ta114  1  0.39451829  0.79806660  0.00080033  1
  Ta  Ta115  1  0.49586403  0.89866118  0.30811471  1
  Ta  Ta116  1  0.89504685  0.29252951  0.30088801  1
  Ta  Ta117  1  0.39836079  0.79970497  0.79865101  1
  Ta  Ta118  1  0.69722927  0.70413484  0.30166083  1
  Ta  Ta119  1  0.59690146  0.79969512  0.40126522  1
  Ta  Ta120  1  0.09697545  0.89401815  0.09266357  1
  Ta  Ta121  1  0.90585354  0.70760339  0.70684980  1
  Ta  Ta122  1  0.59780161  -0.00059033  0.59902386  1
  Ta  Ta123  1  0.20766102  0.19473504  0.40929482  1
  Ta  Ta124  1  0.81349550  0.19449274  0.80669801  1
  Ta  Ta125  1  0.90494162  0.69624252  0.88964759  1
  Ta  Ta126  1  0.79908041  0.40219032  0.80098830  1
  Ta  Ta127  1  0.01124632  0.39637925  -0.00203220  1
  Ta  Ta128  1  0.59934830  0.80041555  0.79132485  1
  Ta  Ta129  1  0.39652299  -0.00220227  0.79951396  1
  Ta  Ta130  1  0.60295652  0.40114595  0.60759205  1
  Ta  Ta131  1  0.69444492  0.29042605  0.29230818  1
  Ta  Ta132  1  0.40233353  -0.00777411  -0.00028520  1
  Ta  Ta133  1  0.49078814  0.70031125  0.50079239  1
  Ta  Ta134  1  0.89497084  0.90110356  0.30823311  1
  Ta  Ta135  1  0.70904475  0.49443939  0.90395183  1
  Ta  Ta136  1  0.10237099  0.70947782  0.50414736  1
  Ta  Ta137  1  0.30302268  0.89954983  0.69751467  1
  Ta  Ta138  1  0.79206933  0.19332859  0.40744669  1
  Ta  Ta139  1  0.69895416  0.29962425  0.50355462  1
  Ta  Ta140  1  0.60213808  0.39716531  0.79474927  1
  Ta  Ta141  1  0.90475174  0.30599086  0.90380390  1
  Ta  Ta142  1  0.19663385  0.79974747  0.19673832  1
  Ta  Ta143  1  0.69038202  0.50297081  0.50425425  1
  Ta  Ta144  1  0.59246469  -0.00327231  0.00072863  1
  Ta  Ta145  1  0.70061398  0.50178790  0.29995715  1
  Ta  Ta146  1  0.10516501  0.09885792  0.70381712  1
  Ta  Ta147  1  0.19601662  -0.01062381  0.19411521  1
  Ta  Ta148  1  0.49535866  0.90094041  0.69652420  1
  Ta  Ta149  1  0.59546950  -0.00779196  0.20044977  1
  Ti  Ti150  1  0.10437932  0.50439193  0.50257753  1
  Ti  Ti151  1  0.39177292  0.60361246  0.40491358  1
  Ti  Ti152  1  0.40374446  -0.01058409  0.19120934  1
  Ti  Ti153  1  0.49141227  0.70511088  0.30410703  1
  Ti  Ti154  1  0.90566434  0.50226977  0.70362769  1
  Ti  Ti155  1  0.10601240  0.89958799  0.30717339  1
  Ti  Ti156  1  0.40103099  0.40658977  0.39074707  1
  Ti  Ti157  1  0.10100599  0.09975049  0.09263527  1
  Ti  Ti158  1  0.29295067  0.51214958  0.30093882  1
  Ti  Ti159  1  0.90815838  0.87914437  0.88510893  1
  Ti  Ti160  1  0.69802575  0.90130240  0.70242448  1
  Ti  Ti161  1  0.00288067  0.60037733  0.79457326  1
  Ti  Ti162  1  0.10720617  0.50604800  0.90160667  1
  Ti  Ti163  1  0.70198883  0.70162460  0.09711185  1
  Ti  Ti164  1  -0.00014062  -0.00041443  -0.01096963  1
  Ti  Ti165  1  0.80345189  0.19152789  0.59599045  1
  Ti  Ti166  1  0.60742137  0.39857187  0.01362938  1
  Ti  Ti167  1  0.49090866  0.89911739  0.49885662  1
  Ti  Ti168  1  0.79851880  0.39627984  0.00592741  1
  Ti  Ti169  1  0.39449824  0.39531839  0.61539086  1
  Ti  Ti170  1  0.30461540  0.89672484  0.89572171  1
  Ti  Ti171  1  0.28304453  0.50477866  0.09111735  1
  Ti  Ti172  1  0.80196911  -0.00135043  0.19899680  1
  Ti  Ti173  1  0.90832676  0.70333256  0.50778362  1
  Ti  Ti174  1  0.19983435  0.79863022  0.40234997  1
  Ti  Ti175  1  0.79962495  0.59548454  0.79233363  1
  Ti  Ti176  1  0.60349071  0.40314544  0.19809483  1
  Ti  Ti177  1  0.90503093  0.89789257  0.50453252  1
  Ti  Ti178  1  0.00116201  0.60358571  0.60316341  1
  Ti  Ti179  1  0.00671915  0.39724830  0.80239486  1
  Ti  Ti180  1  0.19992038  0.60136567  0.19258669  1
  Ti  Ti181  1  0.30229852  0.50272937  0.50515063  1
  Ti  Ti182  1  0.59831242  0.20410596  0.00485416  1
  Ti  Ti183  1  -0.01357380  0.00692237  0.60845260  1
  Ti  Ti184  1  0.70111846  0.70199155  0.69994231  1
  Ti  Ti185  1  0.30074660  0.70693179  0.49870595  1
  Ti  Ti186  1  0.50517642  0.28937489  0.88773436  1
  Ti  Ti187  1  0.29872701  0.89858947  0.09921430  1
  Ti  Ti188  1  0.09249246  0.89316059  0.89852127  1
  Ti  Ti189  1  0.51812537  0.29928149  0.11254731  1
  Ti  Ti190  1  0.70305243  0.90500903  0.49725549  1
  Ti  Ti191  1  -0.00296853  0.19785610  0.40248405  1
  Ti  Ti192  1  0.49948048  0.10277244  0.89991803  1
  Ti  Ti193  1  0.48862522  0.09179685  0.50366165  1
  Ti  Ti194  1  0.19467222  0.39639586  -0.00112736  1
  Ti  Ti195  1  0.39641558  0.00297317  0.60525196  1
  Ti  Ti196  1  0.10395852  0.29468308  0.31232987  1
  Ti  Ti197  1  0.79962508  0.20816211  0.19482871  1
  Ti  Ti198  1  0.09677966  0.70721855  0.69456486  1
  Ti  Ti199  1  0.19516026  0.41834539  0.39784112  1
  Mo  Mo200  1  0.49774429  0.89999007  0.10096913  1
  Mo  Mo201  1  0.50630353  0.49029577  0.09965520  1
  Mo  Mo202  1  0.90511543  0.89630858  0.69683758  1
  Mo  Mo203  1  0.90716826  0.11103002  0.90164923  1
  Mo  Mo204  1  0.09771559  0.30310736  0.90012490  1
  Mo  Mo205  1  0.20381929  0.80254031  0.59788288  1
  Mo  Mo206  1  0.00427578  0.80234359  -0.01378530  1
  Mo  Mo207  1  0.20092957  0.59246655  -0.00815549  1
  Mo  Mo208  1  0.90472151  0.30260673  0.09661954  1
  Mo  Mo209  1  0.20036656  0.59453872  0.80006933  1
  Mo  Mo210  1  0.10465285  0.50056566  0.08447633  1
  Mo  Mo211  1  0.50133631  0.30838278  0.29423292  1
  Mo  Mo212  1  0.69335772  0.30007025  0.10010394  1
  Mo  Mo213  1  -0.00317112  0.79453659  0.59660090  1
  Mo  Mo214  1  0.30357967  0.09235728  0.50307572  1
  Mo  Mo215  1  0.38016277  0.59690493  0.19541427  1
  Mo  Mo216  1  0.79947175  0.59745610  -0.00548264  1
  Mo  Mo217  1  0.40181717  0.20170114  0.80630961  1
  Mo  Mo218  1  0.59914739  0.20040958  0.80607749  1
  Mo  Mo219  1  0.20393878  0.60211468  0.40782562  1
  Mo  Mo220  1  0.89661077  0.70344863  0.31167767  1
  Mo  Mo221  1  0.00365337  0.21099872  0.00050692  1
  Mo  Mo222  1  0.30214801  0.30055223  0.70608607  1
  Mo  Mo223  1  0.70004011  0.49663787  0.70329036  1
  Mo  Mo224  1  0.60065689  0.19980929  0.20328829  1
  Mo  Mo225  1  0.29006413  0.49343223  0.89659866  1
  Mo  Mo226  1  0.69741126  0.10264754  0.50237741  1
  Mo  Mo227  1  0.60293137  0.60002567  0.59811462  1
  Mo  Mo228  1  0.28877622  0.30010882  0.09487674  1
  Mo  Mo229  1  0.20221776  0.19695043  0.79140869  1
  Mo  Mo230  1  0.20263225  0.00017668  0.40119475  1
  Mo  Mo231  1  0.11455189  0.51411016  0.30846977  1
  Mo  Mo232  1  0.50046122  0.30463949  0.70760820  1
  Mo  Mo233  1  0.00390520  0.59086103  -0.01670124  1
  Mo  Mo234  1  0.89545280  0.10510458  0.49964017  1
  Mo  Mo235  1  0.29440001  0.69704883  0.09913358  1
  Mo  Mo236  1  0.68933556  0.69813957  0.50104342  1
  Mo  Mo237  1  0.29942656  0.09601253  0.70809737  1
  Mo  Mo238  1  0.90394898  0.10300837  0.69961498  1
  Mo  Mo239  1  0.70344751  0.49448986  0.09753503  1
  Mo  Mo240  1  0.79659628  0.00204724  0.40225471  1
  Mo  Mo241  1  0.40624912  -0.00235938  0.41202478  1
  Mo  Mo242  1  0.10141198  0.29814537  0.08600541  1
  Mo  Mo243  1  0.39187457  0.60123229  0.59269701  1
  Mo  Mo244  1  0.19899501  0.20396409  0.00705828  1
  Mo  Mo245  1  0.00005222  0.79890419  0.79340353  1
  Mo  Mo246  1  0.19975271  0.40664325  0.60065635  1
  Mo  Mo247  1  0.40633225  0.79657896  0.40599373  1
  Mo  Mo248  1  0.80125621  0.79889942  0.78968581  1
  Mo  Mo249  1  0.10059035  0.30167152  0.69871649  1
