# generated using pymatgen
data_HfZrTaTiMo
_symmetry_space_group_name_H-M   'P 1'
_cell_length_a   16.89160442
_cell_length_b   16.89209036
_cell_length_c   16.88418543
_cell_angle_alpha   90.10483941
_cell_angle_beta   90.02429082
_cell_angle_gamma   89.93499153
_symmetry_Int_Tables_number   1
_chemical_formula_structural   HfZrTaTiMo
_chemical_formula_sum   'Hf50 Zr50 Ta50 Ti50 Mo50'
_cell_volume   4817.62915026
_cell_formula_units_Z   50
loop_
 _symmetry_equiv_pos_site_id
 _symmetry_equiv_pos_as_xyz
  1  'x, y, z'
loop_
 _atom_site_type_symbol
 _atom_site_label
 _atom_site_symmetry_multiplicity
 _atom_site_fract_x
 _atom_site_fract_y
 _atom_site_fract_z
 _atom_site_occupancy
  Hf  Hf0  1  0.40593375  0.79558527  0.61202655  1
  Hf  Hf1  1  0.19930573  0.40484658  -0.00234996  1
  Hf  Hf2  1  0.49697474  0.30113381  0.70088293  1
  Hf  Hf3  1  0.89930615  0.90700545  0.70172318  1
  Hf  Hf4  1  0.69676034  0.30269584  0.90133917  1
  Hf  Hf5  1  0.59666271  -0.00786894  0.19453802  1
  Hf  Hf6  1  0.00971584  0.39637451  0.80688389  1
  Hf  Hf7  1  0.90445061  0.68224847  0.28869850  1
  Hf  Hf8  1  0.80181204  0.80462874  0.19793621  1
  Hf  Hf9  1  0.10118393  0.09930287  0.10152954  1
  Hf  Hf10  1  0.48945624  0.89489892  0.29918504  1
  Hf  Hf11  1  0.30866011  0.50719076  0.29944652  1
  Hf  Hf12  1  0.20286146  0.20468319  0.59528470  1
  Hf  Hf13  1  0.49576133  0.49621045  0.50313631  1
  Hf  Hf14  1  0.10913612  0.31062547  0.30653576  1
  Hf  Hf15  1  0.59671000  0.80416215  0.19433876  1
  Hf  Hf16  1  0.89946725  0.50984249  0.11755333  1
  Hf  Hf17  1  0.79272261  0.60038823  -0.00295109  1
  Hf  Hf18  1  0.80200375  0.59362837  0.40569880  1
  Hf  Hf19  1  0.59568989  0.59488607  0.19896903  1
  Hf  Hf20  1  0.20823338  0.60735820  0.40966316  1
  Hf  Hf21  1  0.90217221  0.69743917  0.50108440  1
  Hf  Hf22  1  0.09209406  0.91278306  0.69891277  1
  Hf  Hf23  1  0.60165510  0.80082089  0.41171214  1
  Hf  Hf24  1  0.90215355  0.49018286  0.69606549  1
  Hf  Hf25  1  0.90037947  0.09921009  0.29688670  1
  Hf  Hf26  1  0.79273584  0.19474944  0.78294846  1
  Hf  Hf27  1  0.10492298  0.49743038  0.30439970  1
  Hf  Hf28  1  0.39273284  0.79057945  0.41525842  1
  Hf  Hf29  1  0.91162641  0.30644545  0.30222912  1
  Hf  Hf30  1  0.80546845  0.20190573  0.41047558  1
  Hf  Hf31  1  0.69841523  0.10281985  0.30233023  1
  Hf  Hf32  1  0.50869450  0.50175921  0.88752883  1
  Hf  Hf33  1  0.91110086  0.28701244  0.68790917  1
  Hf  Hf34  1  0.39027091  0.59454178  -0.00940658  1
  Hf  Hf35  1  0.79157838  0.38691961  0.60733747  1
  Hf  Hf36  1  0.59776700  0.60776106  0.41137010  1
  Hf  Hf37  1  0.11241125  0.69351124  0.69974120  1
  Hf  Hf38  1  0.80468644  0.21209718  0.01216249  1
  Hf  Hf39  1  0.49012136  0.10000170  0.69821939  1
  Hf  Hf40  1  0.00973319  0.19301635  0.80720010  1
  Hf  Hf41  1  0.30537537  0.91506919  0.69243080  1
  Hf  Hf42  1  0.30333403  0.10593863  0.89887949  1
  Hf  Hf43  1  0.48763784  0.69503727  0.29782904  1
  Hf  Hf44  1  0.19444527  0.40877205  0.80651423  1
  Hf  Hf45  1  0.89346695  0.49226699  0.90031601  1
  Hf  Hf46  1  0.50071089  0.49777018  0.09246921  1
  Hf  Hf47  1  0.00923877  0.19572329  0.40208354  1
  Hf  Hf48  1  0.39144319  0.20369431  0.59391933  1
  Hf  Hf49  1  0.10737058  0.89254697  0.29552754  1
  Zr  Zr50  1  0.69988940  0.89103200  0.89212059  1
  Zr  Zr51  1  0.30237465  0.09890110  0.09966604  1
  Zr  Zr52  1  0.90642841  0.70024725  0.10156817  1
  Zr  Zr53  1  0.80547705  0.39851666  0.40673994  1
  Zr  Zr54  1  0.39124918  0.19951786  0.39234557  1
  Zr  Zr55  1  0.30054585  0.70517339  0.28379240  1
  Zr  Zr56  1  0.20303833  -0.00867634  0.00056771  1
  Zr  Zr57  1  0.10257138  0.70169529  0.50297747  1
  Zr  Zr58  1  0.20405497  0.40511287  0.60923599  1
  Zr  Zr59  1  0.38104669  0.40034083  0.59293901  1
  Zr  Zr60  1  0.50001231  0.09925031  0.09397236  1
  Zr  Zr61  1  0.70415368  0.69934837  0.29762145  1
  Zr  Zr62  1  0.90133826  0.09842557  0.90036462  1
  Zr  Zr63  1  0.48141406  0.70420201  0.10238006  1
  Zr  Zr64  1  0.50605844  0.30162009  0.49350540  1
  Zr  Zr65  1  0.90176851  0.71059903  0.90355871  1
  Zr  Zr66  1  0.20486990  0.80989178  0.79543623  1
  Zr  Zr67  1  0.00947989  0.59475836  0.00030589  1
  Zr  Zr68  1  0.39676337  0.39830950  0.19048205  1
  Zr  Zr69  1  0.69442556  0.29363395  0.30626309  1
  Zr  Zr70  1  0.40341119  -0.00228060  0.80503053  1
  Zr  Zr71  1  0.00159358  -0.00829589  0.19741188  1
  Zr  Zr72  1  0.21597116  0.20292108  0.21104616  1
  Zr  Zr73  1  0.80213962  0.38548996  0.18868799  1
  Zr  Zr74  1  0.00618706  0.59509692  0.79766269  1
  Zr  Zr75  1  0.50497857  0.50687250  0.69611612  1
  Zr  Zr76  1  0.38991601  0.39897155  -0.00514489  1
  Zr  Zr77  1  0.70952747  0.50001942  0.29058468  1
  Zr  Zr78  1  0.69756614  0.10255433  0.09895816  1
  Zr  Zr79  1  0.09641514  0.31148315  0.49794188  1
  Zr  Zr80  1  0.69290314  0.09949310  0.90556400  1
  Zr  Zr81  1  0.18609493  0.01612908  0.59707360  1
  Zr  Zr82  1  0.50161259  0.10138296  0.29981034  1
  Zr  Zr83  1  0.60104807  0.60794611  -0.00773080  1
  Zr  Zr84  1  0.10865498  0.70252378  0.90145361  1
  Zr  Zr85  1  0.38670172  0.40869550  0.80015193  1
  Zr  Zr86  1  0.59790015  0.79924794  -0.00005300  1
  Zr  Zr87  1  -0.00552826  0.79785105  0.60392468  1
  Zr  Zr88  1  0.80036394  0.80581524  0.40965019  1
  Zr  Zr89  1  0.10188652  0.29817924  0.10521778  1
  Zr  Zr90  1  0.60370941  0.79139278  0.59848464  1
  Zr  Zr91  1  0.59913209  -0.00136264  0.60326348  1
  Zr  Zr92  1  0.79217633  0.00690325  0.60209392  1
  Zr  Zr93  1  0.48843430  0.91124859  0.50851149  1
  Zr  Zr94  1  0.80619452  -0.00806954  -0.00293367  1
  Zr  Zr95  1  0.79683493  0.60535287  0.79400020  1
  Zr  Zr96  1  0.79111618  0.60845944  0.60423158  1
  Zr  Zr97  1  0.80293501  -0.00690190  0.19876108  1
  Zr  Zr98  1  0.68494811  0.49182903  0.51404274  1
  Zr  Zr99  1  0.90515925  0.10284086  0.51149419  1
  Ta  Ta100  1  0.40073129  0.20697962  0.00060022  1
  Ta  Ta101  1  0.00193126  0.59467232  0.39986354  1
  Ta  Ta102  1  0.49945508  0.30542000  0.30037666  1
  Ta  Ta103  1  0.29414062  0.70101717  0.09666314  1
  Ta  Ta104  1  0.29778550  0.10630229  0.70609856  1
  Ta  Ta105  1  -0.00109830  0.39593614  0.00315962  1
  Ta  Ta106  1  0.30170600  0.70050708  0.89298852  1
  Ta  Ta107  1  0.89882232  0.30014547  0.89969013  1
  Ta  Ta108  1  0.39322903  0.00134689  0.39749730  1
  Ta  Ta109  1  0.29583743  0.29120700  0.89735651  1
  Ta  Ta110  1  0.00176207  0.79962535  0.39555728  1
  Ta  Ta111  1  0.49651691  0.89032586  0.89587694  1
  Ta  Ta112  1  0.40315076  -0.01106112  0.00038445  1
  Ta  Ta113  1  0.69531816  0.49181472  0.09093436  1
  Ta  Ta114  1  0.48956717  0.70252487  0.88249318  1
  Ta  Ta115  1  0.80196025  0.39568916  0.00407873  1
  Ta  Ta116  1  0.30088916  0.09450324  0.49779442  1
  Ta  Ta117  1  0.21112247  0.40330491  0.19070193  1
  Ta  Ta118  1  0.09958224  0.90113128  0.49724613  1
  Ta  Ta119  1  -0.00429636  0.80247089  0.80039976  1
  Ta  Ta120  1  0.00206652  0.59627455  0.60519778  1
  Ta  Ta121  1  0.69198423  0.10849682  0.49935169  1
  Ta  Ta122  1  0.20214384  0.80180864  0.40278774  1
  Ta  Ta123  1  0.69944970  0.89710871  0.70357381  1
  Ta  Ta124  1  0.10145381  0.50190637  0.10651717  1
  Ta  Ta125  1  0.09280730  0.90022850  0.89936093  1
  Ta  Ta126  1  0.59657653  0.19471775  0.79817874  1
  Ta  Ta127  1  0.79648853  0.00246521  0.79525038  1
  Ta  Ta128  1  0.00280212  -0.00263985  -0.00409159  1
  Ta  Ta129  1  0.39539525  0.60941928  0.59915742  1
  Ta  Ta130  1  0.20236126  -0.00084236  0.39533735  1
  Ta  Ta131  1  0.91082199  0.88969169  0.08691567  1
  Ta  Ta132  1  0.59759310  -0.00213056  0.79736583  1
  Ta  Ta133  1  0.10025486  0.29828694  0.70003743  1
  Ta  Ta134  1  0.29498118  0.90465298  0.50181921  1
  Ta  Ta135  1  0.91178545  0.49198804  0.50544485  1
  Ta  Ta136  1  0.60442342  -0.00306345  0.40598126  1
  Ta  Ta137  1  0.00361563  -0.00357306  0.40213350  1
  Ta  Ta138  1  0.79789649  -0.00284709  0.40705287  1
  Ta  Ta139  1  0.20390897  0.80118436  0.00108107  1
  Ta  Ta140  1  0.19111167  0.00973254  0.80621307  1
  Ta  Ta141  1  0.10065194  0.50237643  0.50633203  1
  Ta  Ta142  1  0.69583881  0.49222664  0.89517426  1
  Ta  Ta143  1  0.90898244  0.10387937  0.09937269  1
  Ta  Ta144  1  0.10509749  0.09584364  0.29826599  1
  Ta  Ta145  1  0.68893510  0.29345803  0.50518929  1
  Ta  Ta146  1  0.40068700  0.20961601  0.19552400  1
  Ta  Ta147  1  0.29934913  0.89608747  0.29793732  1
  Ta  Ta148  1  0.59495276  0.21069265  0.19545096  1
  Ta  Ta149  1  0.59741524  0.39645633  0.19509371  1
  Ti  Ti150  1  0.20545555  0.19293193  0.40001422  1
  Ti  Ti151  1  0.20207735  0.59442364  -0.00381981  1
  Ti  Ti152  1  0.58753059  0.79920033  0.78534898  1
  Ti  Ti153  1  0.29119320  0.52105444  0.70400821  1
  Ti  Ti154  1  0.49868774  0.10227133  0.90273054  1
  Ti  Ti155  1  0.00350797  0.79628902  0.20029059  1
  Ti  Ti156  1  0.00312938  0.40476018  0.20071387  1
  Ti  Ti157  1  0.70256806  0.89849351  0.09278225  1
  Ti  Ti158  1  0.49022352  0.49856873  0.30180907  1
  Ti  Ti159  1  0.18787415  0.19909439  0.80668582  1
  Ti  Ti160  1  0.91611148  0.09193797  0.69833883  1
  Ti  Ti161  1  0.49716925  0.29914843  0.89375490  1
  Ti  Ti162  1  0.20721612  -0.00411946  0.20201617  1
  Ti  Ti163  1  0.69923750  0.90270002  0.30568055  1
  Ti  Ti164  1  0.39503998  0.60307613  0.41629922  1
  Ti  Ti165  1  0.60601803  0.19917194  0.61046211  1
  Ti  Ti166  1  0.10588759  0.70359373  0.10448173  1
  Ti  Ti167  1  0.70443615  0.69498928  0.10505159  1
  Ti  Ti168  1  0.79410322  0.79816577  0.60193404  1
  Ti  Ti169  1  0.69102483  0.70289836  0.88268510  1
  Ti  Ti170  1  0.10051822  0.88955353  0.09746403  1
  Ti  Ti171  1  0.80241679  0.20599127  0.19279868  1
  Ti  Ti172  1  0.79582606  0.39154477  0.79522196  1
  Ti  Ti173  1  0.02757092  0.17893969  0.60085731  1
  Ti  Ti174  1  0.58945766  -0.01100340  -0.00350175  1
  Ti  Ti175  1  0.90563897  0.90495264  0.50403574  1
  Ti  Ti176  1  0.39480070  0.80302563  -0.00405010  1
  Ti  Ti177  1  0.30481381  0.31484060  0.30796320  1
  Ti  Ti178  1  0.19591915  0.20391662  -0.00438359  1
  Ti  Ti179  1  0.20160230  0.59801912  0.19277316  1
  Ti  Ti180  1  0.91152345  0.30251387  0.51020243  1
  Ti  Ti181  1  0.79737745  0.79854069  -0.00329858  1
  Ti  Ti182  1  0.68841641  0.50168594  0.70433342  1
  Ti  Ti183  1  0.59769299  0.40380949  0.39160500  1
  Ti  Ti184  1  0.22227448  0.40971789  0.41733694  1
  Ti  Ti185  1  0.80525476  0.79704835  0.79059685  1
  Ti  Ti186  1  0.30210682  0.89611963  0.89725562  1
  Ti  Ti187  1  0.39617926  -0.00236484  0.19851692  1
  Ti  Ti188  1  0.00171513  0.20184620  0.20118266  1
  Ti  Ti189  1  0.59445672  0.20892244  -0.00043063  1
  Ti  Ti190  1  0.30194678  0.69612908  0.70805083  1
  Ti  Ti191  1  0.10272627  0.69912372  0.29447553  1
  Ti  Ti192  1  0.50051350  0.10246477  0.49781212  1
  Ti  Ti193  1  0.90418520  0.89770701  0.30388001  1
  Ti  Ti194  1  0.20770663  0.80084662  0.59695323  1
  Ti  Ti195  1  0.30359698  0.88762486  0.10953206  1
  Ti  Ti196  1  0.50321192  0.30455613  0.09271665  1
  Ti  Ti197  1  0.60629626  0.39055953  0.79217551  1
  Ti  Ti198  1  0.00559788  0.20477550  -0.00404402  1
  Ti  Ti199  1  0.29908300  0.28768093  0.71761794  1
  Mo  Mo200  1  0.60097255  0.39659258  -0.00660903  1
  Mo  Mo201  1  0.29215280  0.51183611  0.89539063  1
  Mo  Mo202  1  0.29326343  0.51101261  0.10032442  1
  Mo  Mo203  1  0.29599516  0.29389367  0.48380205  1
  Mo  Mo204  1  0.39884794  0.80131318  0.79910970  1
  Mo  Mo205  1  0.01219605  0.80447547  0.00093810  1
  Mo  Mo206  1  0.91472597  0.29775708  0.09967635  1
  Mo  Mo207  1  0.09968969  0.49913862  0.91067770  1
  Mo  Mo208  1  0.69191560  0.29465901  0.70140573  1
  Mo  Mo209  1  0.10306632  0.09683089  0.90823658  1
  Mo  Mo210  1  0.39568327  0.59550058  0.18861486  1
  Mo  Mo211  1  0.60151842  0.39249761  0.60966849  1
  Mo  Mo212  1  -0.00054023  0.00194584  0.59405717  1
  Mo  Mo213  1  0.48928971  0.90079564  0.09359570  1
  Mo  Mo214  1  0.40123071  0.40498979  0.39585887  1
  Mo  Mo215  1  0.69782040  0.70883466  0.70536638  1
  Mo  Mo216  1  0.60401362  0.60935632  0.79560186  1
  Mo  Mo217  1  0.59598719  0.19564207  0.39912872  1
  Mo  Mo218  1  0.50225868  0.90007704  0.70670358  1
  Mo  Mo219  1  0.29992578  0.51238048  0.50347505  1
  Mo  Mo220  1  0.30090110  0.29440806  0.09140509  1
  Mo  Mo221  1  -0.00048435  0.40685160  0.40378797  1
  Mo  Mo222  1  0.09966734  0.29728698  0.90517016  1
  Mo  Mo223  1  0.49849765  0.69135294  0.50630803  1
  Mo  Mo224  1  0.90050642  0.70629423  0.69944228  1
  Mo  Mo225  1  0.29900474  0.08663775  0.29786042  1
  Mo  Mo226  1  0.91149201  0.49857790  0.30438713  1
  Mo  Mo227  1  0.40345775  0.20236254  0.80743640  1
  Mo  Mo228  1  0.39706821  0.60680765  0.79463648  1
  Mo  Mo229  1  0.02249583  0.60022037  0.20566766  1
  Mo  Mo230  1  0.00545012  0.40395947  0.60563973  1
  Mo  Mo231  1  0.90279392  0.89774710  0.89560011  1
  Mo  Mo232  1  0.20392238  0.59856253  0.80389031  1
  Mo  Mo233  1  0.29728843  0.70655616  0.51281557  1
  Mo  Mo234  1  0.78885475  0.59584738  0.19236560  1
  Mo  Mo235  1  0.68884733  0.09833257  0.70205023  1
  Mo  Mo236  1  0.59421046  0.60744591  0.60630317  1
  Mo  Mo237  1  0.70207845  0.70061697  0.50679798  1
  Mo  Mo238  1  0.70591357  0.90438207  0.50296910  1
  Mo  Mo239  1  0.68500456  0.30225252  0.09526108  1
  Mo  Mo240  1  0.10245597  0.10344608  0.71257200  1
  Mo  Mo241  1  -0.00284301  -0.00149588  0.80763453  1
  Mo  Mo242  1  0.39353417  0.80366000  0.19500740  1
  Mo  Mo243  1  0.39354668  0.00978559  0.59578572  1
  Mo  Mo244  1  0.10547601  0.09652262  0.48348296  1
  Mo  Mo245  1  0.20290651  0.60004702  0.60407432  1
  Mo  Mo246  1  0.10044396  0.50040909  0.69590098  1
  Mo  Mo247  1  0.19660356  0.79834373  0.19253260  1
  Mo  Mo248  1  0.78740525  0.20107341  0.59940906  1
  Mo  Mo249  1  0.50112952  0.69575095  0.70354541  1
