# generated using pymatgen
data_HfZrTaTiMo
_symmetry_space_group_name_H-M   'P 1'
_cell_length_a   16.89026699
_cell_length_b   16.88163815
_cell_length_c   16.89122631
_cell_angle_alpha   89.95060104
_cell_angle_beta   89.98077459
_cell_angle_gamma   90.00320893
_symmetry_Int_Tables_number   1
_chemical_formula_structural   HfZrTaTiMo
_chemical_formula_sum   'Hf50 Zr50 Ta50 Ti50 Mo50'
_cell_volume   4816.28408981
_cell_formula_units_Z   50
loop_
 _symmetry_equiv_pos_site_id
 _symmetry_equiv_pos_as_xyz
  1  'x, y, z'
loop_
 _atom_site_type_symbol
 _atom_site_label
 _atom_site_symmetry_multiplicity
 _atom_site_fract_x
 _atom_site_fract_y
 _atom_site_fract_z
 _atom_site_occupancy
  Hf  Hf0  1  0.80613411  0.40947695  0.79126188  1
  Hf  Hf1  1  0.00279389  0.80102360  0.59043802  1
  Hf  Hf2  1  0.00488394  -0.00539350  0.79660087  1
  Hf  Hf3  1  0.89965088  0.30778741  0.69026566  1
  Hf  Hf4  1  0.19677091  0.41250625  0.20733034  1
  Hf  Hf5  1  0.59772752  0.00033023  0.59779986  1
  Hf  Hf6  1  0.20713517  0.79689437  0.80209157  1
  Hf  Hf7  1  0.29893079  0.31066951  0.90387772  1
  Hf  Hf8  1  0.00415142  0.20521749  0.20093814  1
  Hf  Hf9  1  0.60101409  0.19959616  0.40053932  1
  Hf  Hf10  1  0.09881457  0.31028900  0.89891105  1
  Hf  Hf11  1  0.90889897  0.69196639  0.09988865  1
  Hf  Hf12  1  0.90251513  0.49332533  0.49794216  1
  Hf  Hf13  1  0.60676277  0.60816007  0.79893639  1
  Hf  Hf14  1  0.79167534  0.40921848  0.19927271  1
  Hf  Hf15  1  0.49379697  0.29928321  0.10932227  1
  Hf  Hf16  1  0.30801917  0.50225958  0.68804126  1
  Hf  Hf17  1  0.80292113  0.20422332  0.40006112  1
  Hf  Hf18  1  0.91005038  0.88870914  0.30041183  1
  Hf  Hf19  1  0.69904943  0.89278243  0.50341748  1
  Hf  Hf20  1  0.40457978  0.19716029  -0.00177098  1
  Hf  Hf21  1  0.70548970  0.50495177  0.68822861  1
  Hf  Hf22  1  0.10035216  0.09168366  0.09769266  1
  Hf  Hf23  1  0.20315423  0.60214808  0.79750525  1
  Hf  Hf24  1  0.48494285  0.10053556  0.69405240  1
  Hf  Hf25  1  0.10149729  0.70240818  0.70143937  1
  Hf  Hf26  1  0.51305157  0.90430718  0.09965037  1
  Hf  Hf27  1  0.89643284  0.30573198  0.29392596  1
  Hf  Hf28  1  0.29987012  0.09821464  0.68948435  1
  Hf  Hf29  1  0.19161287  0.60325712  0.20514618  1
  Hf  Hf30  1  0.89901320  0.09682173  0.10437445  1
  Hf  Hf31  1  0.40029906  0.79899396  0.20063490  1
  Hf  Hf32  1  0.09902680  0.30918797  0.09814761  1
  Hf  Hf33  1  0.69960515  0.28125379  0.12101466  1
  Hf  Hf34  1  0.90116869  0.09921933  0.70455567  1
  Hf  Hf35  1  0.79817735  0.40209274  0.00702225  1
  Hf  Hf36  1  0.48546884  0.09712954  0.50714526  1
  Hf  Hf37  1  0.19481932  0.20015314  -0.00136035  1
  Hf  Hf38  1  0.69697205  0.69597540  0.30173953  1
  Hf  Hf39  1  0.29735538  0.69475600  0.10249401  1
  Hf  Hf40  1  0.80967491  0.20317990  0.58645257  1
  Hf  Hf41  1  0.29237157  0.09159538  0.89965312  1
  Hf  Hf42  1  0.80326170  0.78543718  0.41121091  1
  Hf  Hf43  1  0.70085442  0.68875390  0.11052361  1
  Hf  Hf44  1  0.50194931  0.50114383  0.69503452  1
  Hf  Hf45  1  0.80415749  0.20147466  0.00095719  1
  Hf  Hf46  1  0.69819665  0.50205480  0.89784288  1
  Hf  Hf47  1  0.50099340  0.50943401  0.11080190  1
  Hf  Hf48  1  -0.00354403  0.20434707  0.40482583  1
  Hf  Hf49  1  0.29381209  0.50165224  0.91133645  1
  Zr  Zr50  1  0.39563460  0.79948879  0.00094248  1
  Zr  Zr51  1  0.19953707  0.00052556  0.39883848  1
  Zr  Zr52  1  0.28754762  0.27971583  0.28631284  1
  Zr  Zr53  1  0.90598981  0.70216791  0.70573095  1
  Zr  Zr54  1  0.50081870  0.31345916  0.89788728  1
  Zr  Zr55  1  0.49006073  0.50378628  0.50202474  1
  Zr  Zr56  1  0.70516419  0.10960326  0.29054716  1
  Zr  Zr57  1  0.79352182  0.40365665  0.39563872  1
  Zr  Zr58  1  0.10734297  0.90002461  0.90706417  1
  Zr  Zr59  1  0.80196139  0.79478889  0.20453615  1
  Zr  Zr60  1  0.38467714  0.39752734  0.39869205  1
  Zr  Zr61  1  0.09871386  0.50498560  0.08630621  1
  Zr  Zr62  1  0.79824471  -0.01100404  0.20458225  1
  Zr  Zr63  1  0.20695601  0.38400781  0.60124389  1
  Zr  Zr64  1  0.39902365  -0.00020003  0.20546629  1
  Zr  Zr65  1  0.71191937  0.09755060  0.69977486  1
  Zr  Zr66  1  0.71521188  0.70144968  0.91665166  1
  Zr  Zr67  1  0.90816167  0.50413683  0.10664422  1
  Zr  Zr68  1  0.29446448  0.11156482  0.12031821  1
  Zr  Zr69  1  0.59275949  0.60351411  0.40602919  1
  Zr  Zr70  1  0.20020264  0.21176696  0.78724414  1
  Zr  Zr71  1  0.90398292  0.29998188  0.89389507  1
  Zr  Zr72  1  0.20068066  -0.00560780  0.79352656  1
  Zr  Zr73  1  0.49813286  0.30905356  0.69703461  1
  Zr  Zr74  1  0.30675925  0.89723524  0.30647029  1
  Zr  Zr75  1  0.69382851  0.30414633  0.89180167  1
  Zr  Zr76  1  0.71015087  0.89475869  0.69156023  1
  Zr  Zr77  1  0.39269498  -0.00237176  0.00203820  1
  Zr  Zr78  1  -0.00017483  0.00109607  0.59277685  1
  Zr  Zr79  1  0.49689584  0.50027953  0.89503736  1
  Zr  Zr80  1  0.60291532  0.79675977  0.79978017  1
  Zr  Zr81  1  0.49505121  0.30104106  0.29734522  1
  Zr  Zr82  1  0.90949044  0.89135076  0.09658855  1
  Zr  Zr83  1  0.90833956  0.51539072  0.89735728  1
  Zr  Zr84  1  0.59538740  0.19697993  0.79782716  1
  Zr  Zr85  1  0.49528052  0.30392052  0.50289738  1
  Zr  Zr86  1  0.29769299  0.30700746  0.10117551  1
  Zr  Zr87  1  0.49781515  0.69772316  0.69492019  1
  Zr  Zr88  1  0.69744760  0.89163877  0.08541032  1
  Zr  Zr89  1  -0.00260949  0.59558441  0.59828051  1
  Zr  Zr90  1  0.60802025  0.40396424  0.01892501  1
  Zr  Zr91  1  0.69375385  0.08888544  0.09768419  1
  Zr  Zr92  1  0.80168096  0.79565043  0.80508209  1
  Zr  Zr93  1  0.38772037  0.18973403  0.39581166  1
  Zr  Zr94  1  0.59903536  -0.00457876  0.79684008  1
  Zr  Zr95  1  0.80353786  -0.00045554  0.40327279  1
  Zr  Zr96  1  0.50028047  0.89804546  0.89839166  1
  Zr  Zr97  1  0.19204653  0.80409946  0.40343736  1
  Zr  Zr98  1  0.70826129  0.08983854  0.89925621  1
  Zr  Zr99  1  0.00731291  -0.00598876  0.40364249  1
  Ta  Ta100  1  0.10094109  0.10788280  0.69174642  1
  Ta  Ta101  1  0.19368106  -0.00694806  0.59603146  1
  Ta  Ta102  1  -0.00211220  0.19707476  -0.00335621  1
  Ta  Ta103  1  0.59759092  0.60181374  0.00495781  1
  Ta  Ta104  1  0.10259538  0.69271513  0.49950938  1
  Ta  Ta105  1  0.09600816  0.10089998  0.89736569  1
  Ta  Ta106  1  0.39475398  0.20206993  0.80120755  1
  Ta  Ta107  1  0.70013421  0.10009230  0.50016753  1
  Ta  Ta108  1  0.10669676  0.10904302  0.50195043  1
  Ta  Ta109  1  0.29566687  0.51564484  0.31141528  1
  Ta  Ta110  1  0.91091284  0.68891921  0.30465330  1
  Ta  Ta111  1  0.80530266  0.59863185  0.40118627  1
  Ta  Ta112  1  0.29341129  0.50548703  0.49669804  1
  Ta  Ta113  1  0.80402947  0.60869092  0.58672474  1
  Ta  Ta114  1  0.10408974  0.30006655  0.49487828  1
  Ta  Ta115  1  0.39196630  0.41813928  0.20683640  1
  Ta  Ta116  1  0.90583087  0.09996641  0.29588673  1
  Ta  Ta117  1  0.30145038  0.69746623  0.90342632  1
  Ta  Ta118  1  0.10112730  0.89628557  0.09873924  1
  Ta  Ta119  1  0.19348861  -0.00733601  0.20730716  1
  Ta  Ta120  1  0.70073872  0.30817697  0.69205785  1
  Ta  Ta121  1  0.69602165  0.51496384  0.29357319  1
  Ta  Ta122  1  0.59804965  0.00053218  0.40226544  1
  Ta  Ta123  1  0.50250623  0.89653094  0.31283190  1
  Ta  Ta124  1  0.30000420  0.69734663  0.30782221  1
  Ta  Ta125  1  0.90374750  0.09535212  0.89434177  1
  Ta  Ta126  1  0.00812075  0.78669123  -0.00738627  1
  Ta  Ta127  1  0.19662572  0.40480780  0.79299426  1
  Ta  Ta128  1  0.00218923  0.20713617  0.59441481  1
  Ta  Ta129  1  0.09876282  0.50470870  0.89486593  1
  Ta  Ta130  1  0.49360054  0.89989809  0.50040503  1
  Ta  Ta131  1  0.29402879  0.09958599  0.50449949  1
  Ta  Ta132  1  0.89951331  0.89692776  0.70244814  1
  Ta  Ta133  1  0.00076057  -0.00077156  -0.00391509  1
  Ta  Ta134  1  0.40344170  0.79160423  0.40883297  1
  Ta  Ta135  1  0.59419607  0.19319400  0.00010406  1
  Ta  Ta136  1  0.48822243  0.89580946  0.69065821  1
  Ta  Ta137  1  0.60590028  0.20171805  0.59713166  1
  Ta  Ta138  1  0.69974694  0.30685313  0.50132395  1
  Ta  Ta139  1  0.60016924  0.40896087  0.21123277  1
  Ta  Ta140  1  0.30305473  0.90150706  0.50538716  1
  Ta  Ta141  1  0.90524145  0.89179582  0.89853267  1
  Ta  Ta142  1  0.39349422  0.79239200  0.59494759  1
  Ta  Ta143  1  0.10107125  0.50172831  0.69420644  1
  Ta  Ta144  1  0.10789056  0.50029771  0.49557799  1
  Ta  Ta145  1  0.30065398  0.89294831  0.69171756  1
  Ta  Ta146  1  0.19318927  0.79800213  0.20267923  1
  Ta  Ta147  1  0.60477324  0.40443561  0.59214966  1
  Ta  Ta148  1  0.10713272  0.10905413  0.29990834  1
  Ta  Ta149  1  0.00430876  0.40893122  0.78566538  1
  Ti  Ti150  1  0.39366176  0.60828515  0.79729251  1
  Ti  Ti151  1  0.59459278  0.79699915  0.20757533  1
  Ti  Ti152  1  0.60117224  0.40497200  0.39318751  1
  Ti  Ti153  1  0.28458440  0.90319539  0.09566359  1
  Ti  Ti154  1  0.80187809  0.20477910  0.79761630  1
  Ti  Ti155  1  0.39844793  0.59904945  0.21074941  1
  Ti  Ti156  1  0.80237271  0.59426953  0.00885372  1
  Ti  Ti157  1  0.50530533  0.09491754  0.10142667  1
  Ti  Ti158  1  0.49302252  0.09060816  0.30563400  1
  Ti  Ti159  1  0.39656286  0.61214549  0.58976475  1
  Ti  Ti160  1  0.49323883  0.69671810  0.30536711  1
  Ti  Ti161  1  0.89675271  0.89338620  0.50355914  1
  Ti  Ti162  1  0.39584885  0.41251699  0.01446208  1
  Ti  Ti163  1  0.00837639  0.59365285  0.21461959  1
  Ti  Ti164  1  0.49741582  0.09339643  0.89773418  1
  Ti  Ti165  1  0.37595015  0.22456174  0.59966858  1
  Ti  Ti166  1  0.00591069  0.40312199  0.39344552  1
  Ti  Ti167  1  0.90365506  0.30249502  0.10378459  1
  Ti  Ti168  1  0.59984438  -0.00415682  0.21363864  1
  Ti  Ti169  1  0.50312779  0.69567978  0.10745604  1
  Ti  Ti170  1  0.39305578  -0.00983335  0.79938269  1
  Ti  Ti171  1  0.80828385  0.00262339  0.59257040  1
  Ti  Ti172  1  0.40086771  0.60023109  0.00528889  1
  Ti  Ti173  1  0.39264074  0.79609017  0.79810751  1
  Ti  Ti174  1  0.00453084  0.39706529  0.59598463  1
  Ti  Ti175  1  0.49345701  0.69549870  0.90092417  1
  Ti  Ti176  1  0.59300709  0.78981859  0.59083932  1
  Ti  Ti177  1  0.20391379  0.60632928  0.59911341  1
  Ti  Ti178  1  0.69213428  0.89221103  0.30864987  1
  Ti  Ti179  1  0.01650435  0.78813883  0.20110582  1
  Ti  Ti180  1  0.58697121  0.19375373  0.20727937  1
  Ti  Ti181  1  0.09903654  0.69306825  0.31299537  1
  Ti  Ti182  1  0.69926981  0.50432226  0.50005192  1
  Ti  Ti183  1  0.70536131  0.89959392  0.90797569  1
  Ti  Ti184  1  0.29355065  0.69836912  0.49691467  1
  Ti  Ti185  1  -0.00481590  0.40226233  -0.00628335  1
  Ti  Ti186  1  0.10150355  0.89155967  0.69499770  1
  Ti  Ti187  1  0.19039049  0.61147448  -0.00198831  1
  Ti  Ti188  1  0.39006203  0.39896309  0.79172842  1
  Ti  Ti189  1  0.59467953  0.78804046  -0.00213090  1
  Ti  Ti190  1  0.80700192  0.60261210  0.79279338  1
  Ti  Ti191  1  0.00842956  0.40870764  0.21450601  1
  Ti  Ti192  1  0.59352344  0.79459443  0.40801224  1
  Ti  Ti193  1  0.81112541  -0.00812842  -0.00575043  1
  Ti  Ti194  1  0.70515035  0.70097910  0.68155711  1
  Ti  Ti195  1  0.00528745  0.20540590  0.79392122  1
  Ti  Ti196  1  0.19797597  0.79392759  0.00145752  1
  Ti  Ti197  1  0.19544941  0.39668925  0.39485638  1
  Ti  Ti198  1  0.00897883  -0.00577899  0.20648136  1
  Ti  Ti199  1  0.00478618  0.79555991  0.40586204  1
  Mo  Mo200  1  0.19563537  -0.00359608  0.00710246  1
  Mo  Mo201  1  0.00352256  0.59569087  0.40146313  1
  Mo  Mo202  1  0.80865958  0.79653321  0.59668212  1
  Mo  Mo203  1  0.30356001  0.69963019  0.69690915  1
  Mo  Mo204  1  0.00747182  0.59918619  0.79792855  1
  Mo  Mo205  1  0.69753782  0.69742605  0.50497301  1
  Mo  Mo206  1  0.49407515  0.50304041  0.30168615  1
  Mo  Mo207  1  0.30272727  0.51002624  0.10523105  1
  Mo  Mo208  1  0.69172669  0.30862139  0.30383625  1
  Mo  Mo209  1  0.09295716  0.30349684  0.69565335  1
  Mo  Mo210  1  0.90809504  0.30941874  0.49890503  1
  Mo  Mo211  1  0.10039977  0.70353653  0.10037974  1
  Mo  Mo212  1  0.19800637  0.40908557  -0.00331881  1
  Mo  Mo213  1  0.09493803  0.89374492  0.29250458  1
  Mo  Mo214  1  0.60524816  0.40727645  0.78344537  1
  Mo  Mo215  1  0.09941376  0.50169252  0.31419629  1
  Mo  Mo216  1  0.10312522  0.69782880  0.89960912  1
  Mo  Mo217  1  0.39318119  -0.01157027  0.59947684  1
  Mo  Mo218  1  0.69646137  0.51283863  0.10709210  1
  Mo  Mo219  1  0.30076440  0.89209641  0.89835760  1
  Mo  Mo220  1  0.41408550  0.18707904  0.20001437  1
  Mo  Mo221  1  0.40148959  -0.00493000  0.40590115  1
  Mo  Mo222  1  0.10496248  0.89346279  0.50433869  1
  Mo  Mo223  1  0.49819386  0.70482760  0.50179611  1
  Mo  Mo224  1  0.79789855  0.40327918  0.59203775  1
  Mo  Mo225  1  0.19443581  0.20002117  0.40207495  1
  Mo  Mo226  1  0.90243797  0.10026603  0.49849635  1
  Mo  Mo227  1  0.39291518  0.60749590  0.40201731  1
  Mo  Mo228  1  0.90267965  0.50333643  0.69334950  1
  Mo  Mo229  1  0.19762366  0.19810982  0.59526713  1
  Mo  Mo230  1  0.81343851  0.79676460  0.00027362  1
  Mo  Mo231  1  0.81280539  0.20508011  0.20132811  1
  Mo  Mo232  1  0.60918342  0.60327435  0.59497445  1
  Mo  Mo233  1  0.29202984  0.09417083  0.30393985  1
  Mo  Mo234  1  0.20186416  0.79851089  0.59822100  1
  Mo  Mo235  1  0.59740853  0.00626021  -0.00729604  1
  Mo  Mo236  1  0.90705310  0.69557312  0.49406755  1
  Mo  Mo237  1  0.90885808  0.69801597  0.90246200  1
  Mo  Mo238  1  0.28946800  0.29675997  0.49273585  1
  Mo  Mo239  1  0.58581673  0.60475471  0.20645005  1
  Mo  Mo240  1  0.30188618  0.30408839  0.70527212  1
  Mo  Mo241  1  0.39481172  0.40355139  0.59394417  1
  Mo  Mo242  1  0.81184710  -0.01050283  0.80633182  1
  Mo  Mo243  1  0.90344821  0.50395955  0.30221169  1
  Mo  Mo244  1  0.00491472  0.80103066  0.80196146  1
  Mo  Mo245  1  0.09632773  0.30646368  0.30450094  1
  Mo  Mo246  1  0.19704739  0.60300866  0.40611773  1
  Mo  Mo247  1  0.81208917  0.59772764  0.21113981  1
  Mo  Mo248  1  0.18369537  0.19979733  0.20015552  1
  Mo  Mo249  1  0.00758218  0.60923284  -0.01115964  1
