# generated using pymatgen
data_HfZrTaTiMo
_symmetry_space_group_name_H-M   'P 1'
_cell_length_a   16.88284788
_cell_length_b   16.88873210
_cell_length_c   16.88630095
_cell_angle_alpha   90.00081348
_cell_angle_beta   89.99443316
_cell_angle_gamma   90.01952165
_symmetry_Int_Tables_number   1
_chemical_formula_structural   HfZrTaTiMo
_chemical_formula_sum   'Hf50 Zr50 Ta50 Ti50 Mo50'
_cell_volume   4814.78891346
_cell_formula_units_Z   50
loop_
 _symmetry_equiv_pos_site_id
 _symmetry_equiv_pos_as_xyz
  1  'x, y, z'
loop_
 _atom_site_type_symbol
 _atom_site_label
 _atom_site_symmetry_multiplicity
 _atom_site_fract_x
 _atom_site_fract_y
 _atom_site_fract_z
 _atom_site_occupancy
  Hf  Hf0  1  0.70758843  0.09248221  0.70471495  1
  Hf  Hf1  1  0.09709465  0.90133036  0.49985286  1
  Hf  Hf2  1  0.50488108  0.70362312  0.29985920  1
  Hf  Hf3  1  0.90986211  0.28106177  0.49404794  1
  Hf  Hf4  1  0.50343469  0.90928444  0.30052377  1
  Hf  Hf5  1  0.70647901  0.09277534  0.49398242  1
  Hf  Hf6  1  0.79661001  0.18529629  0.19565622  1
  Hf  Hf7  1  -0.00343900  0.79935065  0.39008498  1
  Hf  Hf8  1  0.39903492  0.41210858  0.20208396  1
  Hf  Hf9  1  0.69755091  0.29296041  0.89951221  1
  Hf  Hf10  1  0.07904055  0.10369353  0.48328770  1
  Hf  Hf11  1  0.59956392  0.39626648  0.40188939  1
  Hf  Hf12  1  0.89555594  0.90013762  0.90100689  1
  Hf  Hf13  1  0.29101176  0.29365571  0.69838845  1
  Hf  Hf14  1  0.10197698  0.29077801  0.29117694  1
  Hf  Hf15  1  0.29952000  0.50153704  0.90303155  1
  Hf  Hf16  1  0.40683378  0.60355935  0.19677258  1
  Hf  Hf17  1  0.09108292  0.70106682  0.90164566  1
  Hf  Hf18  1  0.10340893  0.09929751  0.10795038  1
  Hf  Hf19  1  0.30156179  0.90015137  0.28653029  1
  Hf  Hf20  1  0.30363506  0.29527195  0.49816376  1
  Hf  Hf21  1  0.79468581  0.00252271  0.00752363  1
  Hf  Hf22  1  0.00007511  0.20050144  0.80224091  1
  Hf  Hf23  1  0.29778168  0.09951222  0.90523984  1
  Hf  Hf24  1  0.30216548  0.29594365  0.29001738  1
  Hf  Hf25  1  0.89886714  0.69931649  0.10044471  1
  Hf  Hf26  1  0.19700201  0.60192361  0.60519174  1
  Hf  Hf27  1  0.20632602  0.79847799  0.80133165  1
  Hf  Hf28  1  0.49746546  0.29399089  0.70726085  1
  Hf  Hf29  1  0.40348371  0.40300146  0.00369387  1
  Hf  Hf30  1  0.30963986  0.69765571  0.50986258  1
  Hf  Hf31  1  0.20811996  0.60523700  0.39437393  1
  Hf  Hf32  1  0.89891690  0.91184727  0.48685576  1
  Hf  Hf33  1  0.60248644  0.18413297  0.00783890  1
  Hf  Hf34  1  0.59450657  0.40951133  0.00369096  1
  Hf  Hf35  1  0.29534222  0.48887336  0.70360120  1
  Hf  Hf36  1  0.20642177  0.00002247  0.39846382  1
  Hf  Hf37  1  0.41389779  0.81009250  0.00350478  1
  Hf  Hf38  1  0.19384537  0.40158704  0.00948835  1
  Hf  Hf39  1  0.39746735  0.80183447  0.40203726  1
  Hf  Hf40  1  0.19965571  -0.00491077  0.00875191  1
  Hf  Hf41  1  0.20348362  0.79587387  0.39514334  1
  Hf  Hf42  1  0.00521808  0.40956614  0.18591865  1
  Hf  Hf43  1  0.10383445  0.69890079  0.28442236  1
  Hf  Hf44  1  0.20168836  0.80445085  0.00606066  1
  Hf  Hf45  1  0.70339371  0.50581360  0.29998639  1
  Hf  Hf46  1  0.20462752  0.19067461  0.39481020  1
  Hf  Hf47  1  0.19284037  0.01637324  0.60513734  1
  Hf  Hf48  1  0.60186460  0.80503832  0.40929113  1
  Hf  Hf49  1  -0.00140914  0.39708368  0.60194365  1
  Zr  Zr50  1  0.89446574  0.69760914  0.68958235  1
  Zr  Zr51  1  0.00290807  0.39970951  0.39779024  1
  Zr  Zr52  1  0.29547496  0.29928769  0.89446462  1
  Zr  Zr53  1  0.70376366  0.28975278  0.50374658  1
  Zr  Zr54  1  0.79830295  0.40422886  0.79830783  1
  Zr  Zr55  1  0.79759999  0.40514688  -0.00176338  1
  Zr  Zr56  1  0.39992423  0.59925598  0.80341307  1
  Zr  Zr57  1  0.69543424  0.52653056  0.89353189  1
  Zr  Zr58  1  0.40913157  0.39575180  0.60267008  1
  Zr  Zr59  1  0.49407514  0.29312304  0.10611687  1
  Zr  Zr60  1  -0.00039538  0.00927196  0.79785991  1
  Zr  Zr61  1  0.49711714  0.09189268  0.48861231  1
  Zr  Zr62  1  0.80579873  0.00409319  0.20746437  1
  Zr  Zr63  1  0.89870967  0.51170165  0.29597972  1
  Zr  Zr64  1  0.59945236  -0.01267727  0.80229868  1
  Zr  Zr65  1  0.10018520  0.28990879  0.10185969  1
  Zr  Zr66  1  0.20664185  0.40475814  0.39160219  1
  Zr  Zr67  1  0.70470214  0.30591895  0.10687417  1
  Zr  Zr68  1  0.00092110  0.59901585  0.79329272  1
  Zr  Zr69  1  0.78869037  0.80394190  0.79588461  1
  Zr  Zr70  1  0.20163923  0.60895743  0.79688952  1
  Zr  Zr71  1  0.50987164  0.70343869  0.90112583  1
  Zr  Zr72  1  0.20120139  0.00343495  0.79695337  1
  Zr  Zr73  1  0.50604098  0.69815991  0.69981187  1
  Zr  Zr74  1  0.49129380  0.88861771  0.69788138  1
  Zr  Zr75  1  0.09520985  0.90219138  0.89763841  1
  Zr  Zr76  1  0.50059289  0.69645499  0.51055272  1
  Zr  Zr77  1  0.90096978  0.51657352  0.50372253  1
  Zr  Zr78  1  0.70507319  0.51262843  0.50519776  1
  Zr  Zr79  1  0.00384791  0.19205052  0.61281635  1
  Zr  Zr80  1  0.30599025  0.49536929  0.49908256  1
  Zr  Zr81  1  0.59062917  -0.01505693  0.00397207  1
  Zr  Zr82  1  0.89846634  0.51267534  0.90375463  1
  Zr  Zr83  1  0.30429309  0.70657774  0.10415928  1
  Zr  Zr84  1  0.80171722  0.39575887  0.40223881  1
  Zr  Zr85  1  0.59802196  -0.00899330  0.59774568  1
  Zr  Zr86  1  -0.01841507  0.18205417  0.20251181  1
  Zr  Zr87  1  0.60135399  0.18714923  0.20284477  1
  Zr  Zr88  1  0.59470091  0.18776421  0.80119015  1
  Zr  Zr89  1  0.59465064  0.40948091  0.79861391  1
  Zr  Zr90  1  0.89402750  0.89597927  0.10027749  1
  Zr  Zr91  1  0.80279000  0.19154033  0.38431922  1
  Zr  Zr92  1  0.49277630  0.29750336  0.30425959  1
  Zr  Zr93  1  0.10318053  0.50643363  0.29005861  1
  Zr  Zr94  1  0.89120511  0.70151889  0.90501705  1
  Zr  Zr95  1  0.19734549  0.80025287  0.59971481  1
  Zr  Zr96  1  0.59176044  0.19324141  0.60055023  1
  Zr  Zr97  1  0.60277068  0.40357354  0.60547517  1
  Zr  Zr98  1  0.00197674  0.80404487  0.19978239  1
  Zr  Zr99  1  0.20075955  0.60770807  -0.00092622  1
  Ta  Ta100  1  0.80337671  0.39690245  0.60411503  1
  Ta  Ta101  1  0.09447791  0.49637152  0.69669465  1
  Ta  Ta102  1  -0.00137234  0.39743131  0.80049338  1
  Ta  Ta103  1  0.89673547  0.90182021  0.69833173  1
  Ta  Ta104  1  0.09654056  0.29671859  0.90315970  1
  Ta  Ta105  1  0.59691505  0.41141914  0.19912407  1
  Ta  Ta106  1  0.60099341  0.80055003  0.19164727  1
  Ta  Ta107  1  0.89876787  0.30125179  0.09670622  1
  Ta  Ta108  1  0.39684794  0.59867890  0.38918006  1
  Ta  Ta109  1  0.69622396  0.69444495  0.69736721  1
  Ta  Ta110  1  0.00013381  0.00271215  0.00914770  1
  Ta  Ta111  1  0.90297103  0.29666183  0.90583541  1
  Ta  Ta112  1  0.70563428  0.09179772  0.89899150  1
  Ta  Ta113  1  0.80312384  0.19227661  0.00390955  1
  Ta  Ta114  1  0.39659522  0.18751330  0.60718467  1
  Ta  Ta115  1  0.60155007  0.60490769  0.40065472  1
  Ta  Ta116  1  0.00808945  0.80351422  0.00916694  1
  Ta  Ta117  1  0.49455718  0.28986506  0.90305493  1
  Ta  Ta118  1  -0.00594280  0.00415815  0.60235488  1
  Ta  Ta119  1  0.89662354  0.30803655  0.28623495  1
  Ta  Ta120  1  0.10511500  0.29350943  0.49829284  1
  Ta  Ta121  1  0.59919847  0.19561340  0.39332479  1
  Ta  Ta122  1  0.39629040  0.19585124  0.00320081  1
  Ta  Ta123  1  0.09114663  0.89881865  0.69600832  1
  Ta  Ta124  1  0.09634269  0.49607097  0.89977356  1
  Ta  Ta125  1  0.49024778  0.09239350  0.90626460  1
  Ta  Ta126  1  0.61077240  0.80497438  0.59755990  1
  Ta  Ta127  1  0.50140052  0.50514836  0.49672575  1
  Ta  Ta128  1  0.39688981  0.18760636  0.79767035  1
  Ta  Ta129  1  0.89502810  0.50515111  0.69499315  1
  Ta  Ta130  1  0.50348771  0.50366197  0.30518759  1
  Ta  Ta131  1  0.59632570  0.61163579  0.01702420  1
  Ta  Ta132  1  0.30188850  0.90116858  0.69708072  1
  Ta  Ta133  1  0.80606089  0.19497177  0.80678006  1
  Ta  Ta134  1  0.79391976  0.80630567  0.59341034  1
  Ta  Ta135  1  0.89508220  0.29909103  0.70520293  1
  Ta  Ta136  1  0.70074414  0.89871300  0.30174368  1
  Ta  Ta137  1  0.09676710  0.50598585  0.50193833  1
  Ta  Ta138  1  0.60357121  -0.00406184  0.19201594  1
  Ta  Ta139  1  0.80319651  -0.00376524  0.60122559  1
  Ta  Ta140  1  0.09878075  0.11031317  0.91212665  1
  Ta  Ta141  1  0.39925920  -0.00057202  0.79978865  1
  Ta  Ta142  1  0.31645866  0.71173071  0.69604172  1
  Ta  Ta143  1  0.30104472  0.50490661  0.09961844  1
  Ta  Ta144  1  0.89378647  0.50634131  0.10091240  1
  Ta  Ta145  1  0.70856275  0.29095846  0.70185641  1
  Ta  Ta146  1  0.70140929  0.50831080  0.10746399  1
  Ta  Ta147  1  0.79771210  0.61033454  0.20129714  1
  Ta  Ta148  1  0.70034603  0.70379831  0.30235531  1
  Ta  Ta149  1  0.00001101  0.40180889  -0.00103687  1
  Ti  Ti150  1  0.08903670  0.69452310  0.50367640  1
  Ti  Ti151  1  -0.00345538  -0.00575954  0.20276948  1
  Ti  Ti152  1  0.01174406  0.59638596  0.01654908  1
  Ti  Ti153  1  0.89524007  0.69853598  0.49816595  1
  Ti  Ti154  1  0.80788857  0.19300925  0.60314670  1
  Ti  Ti155  1  0.30583636  0.90327310  0.51062030  1
  Ti  Ti156  1  0.11099806  0.90570682  0.28684749  1
  Ti  Ti157  1  0.20438091  0.59970297  0.19334228  1
  Ti  Ti158  1  0.70122669  0.89186540  0.90839817  1
  Ti  Ti159  1  0.70382644  0.51661743  0.69627583  1
  Ti  Ti160  1  0.49257832  0.29482494  0.49403477  1
  Ti  Ti161  1  0.09074327  0.70497735  0.69329100  1
  Ti  Ti162  1  0.70252160  0.30493154  0.29274966  1
  Ti  Ti163  1  0.39491870  -0.00257205  0.40113431  1
  Ti  Ti164  1  0.79796515  0.79715467  0.20667619  1
  Ti  Ti165  1  0.78335921  0.61508708  0.00886809  1
  Ti  Ti166  1  0.48485641  0.08818031  0.10233674  1
  Ti  Ti167  1  0.39764817  0.18940931  0.39634523  1
  Ti  Ti168  1  0.10334401  0.29851662  0.69861116  1
  Ti  Ti169  1  0.40832115  0.40190943  0.80443583  1
  Ti  Ti170  1  -0.00362245  0.80170997  0.79584761  1
  Ti  Ti171  1  0.30364276  0.09837010  0.10777764  1
  Ti  Ti172  1  0.60615908  0.80306720  0.80248630  1
  Ti  Ti173  1  0.30104135  0.10232757  0.50621543  1
  Ti  Ti174  1  0.40623694  0.58698744  0.60988535  1
  Ti  Ti175  1  0.30717319  0.09417387  0.28237352  1
  Ti  Ti176  1  0.39886070  0.00417666  0.60580462  1
  Ti  Ti177  1  0.10137355  0.09319376  0.29479842  1
  Ti  Ti178  1  0.70427964  0.90710616  0.49070600  1
  Ti  Ti179  1  0.19289409  0.19015265  0.79046080  1
  Ti  Ti180  1  0.40941665  0.80172551  0.19627572  1
  Ti  Ti181  1  0.60131535  0.60613262  0.19679930  1
  Ti  Ti182  1  0.29720466  0.29417855  0.11109341  1
  Ti  Ti183  1  0.18591331  0.39788610  0.80230197  1
  Ti  Ti184  1  0.80347789  0.79782788  0.39474587  1
  Ti  Ti185  1  0.70653606  0.69609749  0.50315868  1
  Ti  Ti186  1  0.30800483  0.90979486  0.10921401  1
  Ti  Ti187  1  0.68868494  0.08268197  0.30767945  1
  Ti  Ti188  1  0.70199145  0.88884294  0.10046963  1
  Ti  Ti189  1  0.20496474  0.20091732  0.00583613  1
  Ti  Ti190  1  0.19178859  0.39729846  0.59528769  1
  Ti  Ti191  1  0.39592135  0.80305847  0.81105584  1
  Ti  Ti192  1  -0.00847499  0.80277697  0.59545337  1
  Ti  Ti193  1  0.30909416  0.90591208  0.90335483  1
  Ti  Ti194  1  -0.00214604  0.61059485  0.39385030  1
  Ti  Ti195  1  0.89204488  0.09499803  0.70525992  1
  Ti  Ti196  1  0.49392538  0.09262008  0.29548440  1
  Ti  Ti197  1  0.91521620  0.07818197  0.33516303  1
  Ti  Ti198  1  0.89982741  0.09983012  0.90656044  1
  Ti  Ti199  1  0.50069254  0.51327113  0.90484576  1
  Mo  Mo200  1  0.50542068  0.70500041  0.10311639  1
  Mo  Mo201  1  0.30894426  0.70794714  0.89974913  1
  Mo  Mo202  1  0.49387623  0.90284891  0.50020210  1
  Mo  Mo203  1  0.60233756  0.60282223  0.59722352  1
  Mo  Mo204  1  0.10027118  0.70021601  0.10091082  1
  Mo  Mo205  1  0.69410973  0.70738077  0.90393624  1
  Mo  Mo206  1  0.70109288  0.70456786  0.10614431  1
  Mo  Mo207  1  0.10300134  0.50409190  0.09671007  1
  Mo  Mo208  1  0.79400968  -0.00523596  0.39949092  1
  Mo  Mo209  1  0.89408754  0.70251032  0.29923375  1
  Mo  Mo210  1  0.40736529  0.40835427  0.39875933  1
  Mo  Mo211  1  0.20675404  0.40938688  0.19263092  1
  Mo  Mo212  1  0.10122998  0.90427860  0.10627824  1
  Mo  Mo213  1  0.20400797  -0.00034039  0.19952123  1
  Mo  Mo214  1  0.40641554  0.60075003  0.00253677  1
  Mo  Mo215  1  0.50422716  0.50164018  0.70072442  1
  Mo  Mo216  1  0.49816241  0.89946872  0.89554191  1
  Mo  Mo217  1  0.70011764  0.09175393  0.09824016  1
  Mo  Mo218  1  0.59931584  0.60324116  0.79259978  1
  Mo  Mo219  1  0.09959245  0.10127545  0.70345464  1
  Mo  Mo220  1  0.19882938  0.20154747  0.59513843  1
  Mo  Mo221  1  0.79815506  0.61974053  0.39692980  1
  Mo  Mo222  1  0.70415305  0.89503869  0.69368770  1
  Mo  Mo223  1  0.79465608  0.60517118  0.79174060  1
  Mo  Mo224  1  0.49949011  0.89942028  0.10730084  1
  Mo  Mo225  1  0.89233521  0.89882477  0.30099782  1
  Mo  Mo226  1  0.30209034  0.70375969  0.29309376  1
  Mo  Mo227  1  0.80160962  0.40666387  0.19749134  1
  Mo  Mo228  1  0.39976174  0.81226249  0.59469212  1
  Mo  Mo229  1  0.60660060  0.79857954  0.00403116  1
  Mo  Mo230  1  0.39606204  -0.00050202  0.00123438  1
  Mo  Mo231  1  0.29991156  0.09934804  0.70019692  1
  Mo  Mo232  1  0.00337428  0.60245080  0.59530713  1
  Mo  Mo233  1  0.01449801  -0.01584205  0.39019318  1
  Mo  Mo234  1  -0.00530642  0.19954005  -0.00124829  1
  Mo  Mo235  1  0.79867234  0.60852942  0.59859663  1
  Mo  Mo236  1  0.90416727  0.09824635  0.09085840  1
  Mo  Mo237  1  -0.00411993  0.60367922  0.19013144  1
  Mo  Mo238  1  0.50356844  0.50838024  0.10261919  1
  Mo  Mo239  1  0.30419716  0.50577523  0.29208863  1
  Mo  Mo240  1  0.49105988  0.09245015  0.70445626  1
  Mo  Mo241  1  0.20156172  0.80428626  0.19371420  1
  Mo  Mo242  1  0.79311254  0.79860752  0.00039110  1
  Mo  Mo243  1  0.20809506  0.18814378  0.20031344  1
  Mo  Mo244  1  0.89943536  0.09336503  0.50361412  1
  Mo  Mo245  1  0.00214900  0.20378310  0.38745543  1
  Mo  Mo246  1  0.39800917  0.18853959  0.19598680  1
  Mo  Mo247  1  0.80129264  0.00038973  0.80356020  1
  Mo  Mo248  1  0.40417242  -0.00099559  0.19555667  1
  Mo  Mo249  1  0.59933388  -0.00296400  0.39403380  1
