# generated using pymatgen
data_HfZrTaTiMo
_symmetry_space_group_name_H-M   'P 1'
_cell_length_a   16.89506806
_cell_length_b   16.88938187
_cell_length_c   16.87887587
_cell_angle_alpha   89.99118851
_cell_angle_beta   89.98256401
_cell_angle_gamma   89.96499037
_symmetry_Int_Tables_number   1
_chemical_formula_structural   HfZrTaTiMo
_chemical_formula_sum   'Hf50 Zr50 Ta50 Ti50 Mo50'
_cell_volume   4816.33973955
_cell_formula_units_Z   50
loop_
 _symmetry_equiv_pos_site_id
 _symmetry_equiv_pos_as_xyz
  1  'x, y, z'
loop_
 _atom_site_type_symbol
 _atom_site_label
 _atom_site_symmetry_multiplicity
 _atom_site_fract_x
 _atom_site_fract_y
 _atom_site_fract_z
 _atom_site_occupancy
  Hf  Hf0  1  0.18913863  0.58966240  0.39961637  1
  Hf  Hf1  1  0.70082345  0.09487254  0.69821690  1
  Hf  Hf2  1  0.19801523  0.21695736  0.38526210  1
  Hf  Hf3  1  0.49948367  0.50271750  0.48779654  1
  Hf  Hf4  1  0.40954879  0.20372363  0.20446239  1
  Hf  Hf5  1  0.07821049  0.48467174  0.29959137  1
  Hf  Hf6  1  0.60341540  0.00393311  0.01047674  1
  Hf  Hf7  1  0.10049193  0.49538368  0.09829481  1
  Hf  Hf8  1  -0.00080355  0.39608561  0.81506893  1
  Hf  Hf9  1  0.69197269  0.89933021  0.89586174  1
  Hf  Hf10  1  0.30481938  0.30499223  0.10150757  1
  Hf  Hf11  1  -0.00271839  0.60073686  0.00572974  1
  Hf  Hf12  1  -0.02816162  0.39948862  0.17662916  1
  Hf  Hf13  1  0.29374545  0.50085562  0.70529430  1
  Hf  Hf14  1  0.10572203  0.09297938  0.48883853  1
  Hf  Hf15  1  0.19043673  0.60566137  0.60226229  1
  Hf  Hf16  1  0.89393337  0.70394458  0.30530342  1
  Hf  Hf17  1  0.09556294  0.28867851  0.11883062  1
  Hf  Hf18  1  0.09495938  0.70465745  0.30598106  1
  Hf  Hf19  1  0.60318837  0.79914043  0.40133810  1
  Hf  Hf20  1  0.50573434  0.69840976  0.09778793  1
  Hf  Hf21  1  0.30485047  0.09412281  0.49287692  1
  Hf  Hf22  1  0.89744083  0.70246533  0.49492155  1
  Hf  Hf23  1  0.09840950  0.30269443  0.69692754  1
  Hf  Hf24  1  0.70688810  0.30566329  0.70241194  1
  Hf  Hf25  1  0.19827970  0.20253383  0.80271518  1
  Hf  Hf26  1  0.29806284  0.09636232  0.30226959  1
  Hf  Hf27  1  0.29588874  0.69878236  0.49358599  1
  Hf  Hf28  1  -0.00624841  -0.00161518  0.20543167  1
  Hf  Hf29  1  0.79800280  0.00013524  0.39770837  1
  Hf  Hf30  1  0.09657840  0.48971936  0.70303914  1
  Hf  Hf31  1  0.50455431  0.09888362  0.89613099  1
  Hf  Hf32  1  0.50122178  0.90712681  0.30135028  1
  Hf  Hf33  1  0.80210568  0.19773903  0.39265053  1
  Hf  Hf34  1  -0.00379860  0.20365843  0.39794248  1
  Hf  Hf35  1  0.39996564  0.80158505  0.80486850  1
  Hf  Hf36  1  0.60726342  0.40551106  0.60353367  1
  Hf  Hf37  1  0.39944092  -0.00212552  0.79655936  1
  Hf  Hf38  1  0.40581231  0.60960768  0.81039721  1
  Hf  Hf39  1  0.30959220  0.50229982  0.49821958  1
  Hf  Hf40  1  0.78410255  0.59739788  0.80719297  1
  Hf  Hf41  1  0.79754327  0.79844565  0.79827255  1
  Hf  Hf42  1  0.79724934  0.59644097  0.60614142  1
  Hf  Hf43  1  0.70398516  0.50172690  0.10821553  1
  Hf  Hf44  1  0.89307708  0.29680357  0.90736692  1
  Hf  Hf45  1  0.69784726  0.50030491  0.49193760  1
  Hf  Hf46  1  0.08294862  0.49037932  0.50576161  1
  Hf  Hf47  1  0.32315403  0.49375706  0.30671098  1
  Hf  Hf48  1  0.09722289  0.89045655  0.09436016  1
  Hf  Hf49  1  0.80348693  0.39269659  0.39749958  1
  Zr  Zr50  1  0.29662673  0.88234671  0.08711138  1
  Zr  Zr51  1  0.00080613  -0.01120111  0.59309649  1
  Zr  Zr52  1  0.39932805  0.79840667  0.59887797  1
  Zr  Zr53  1  -0.00451837  0.80491622  0.20021103  1
  Zr  Zr54  1  0.20140262  -0.00670977  -0.00797086  1
  Zr  Zr55  1  0.49752886  0.91100230  0.50137091  1
  Zr  Zr56  1  0.40040639  0.79717911  0.19834089  1
  Zr  Zr57  1  0.40804581  0.40458768  0.80317535  1
  Zr  Zr58  1  0.30517965  0.30830930  0.90356374  1
  Zr  Zr59  1  0.18762518  0.61331936  0.80100358  1
  Zr  Zr60  1  0.50689184  0.89997224  0.69575920  1
  Zr  Zr61  1  0.80385652  -0.01077181  0.79603660  1
  Zr  Zr62  1  0.41070288  0.20044565  0.00465123  1
  Zr  Zr63  1  0.40319320  0.79795668  0.39966522  1
  Zr  Zr64  1  0.00354626  0.20950017  -0.00215841  1
  Zr  Zr65  1  0.51082050  0.49358865  0.28806950  1
  Zr  Zr66  1  0.40485681  -0.00477443  -0.00198095  1
  Zr  Zr67  1  0.20499144  0.38446943  0.21835022  1
  Zr  Zr68  1  0.89540714  0.11005068  0.09980044  1
  Zr  Zr69  1  0.19729526  0.39078876  0.40407897  1
  Zr  Zr70  1  -0.00473373  0.60584495  0.60273486  1
  Zr  Zr71  1  0.40732300  0.20339487  0.79082635  1
  Zr  Zr72  1  -0.00266752  0.60739723  0.80117032  1
  Zr  Zr73  1  0.60087177  0.19760254  0.39599356  1
  Zr  Zr74  1  0.20059215  0.21010215  0.58708578  1
  Zr  Zr75  1  0.30226309  0.09770754  0.68809372  1
  Zr  Zr76  1  0.30385299  0.49147447  0.09338296  1
  Zr  Zr77  1  0.60949150  0.61067211  0.38790936  1
  Zr  Zr78  1  0.89248530  0.70645955  0.09894283  1
  Zr  Zr79  1  0.81624138  0.40234912  0.02094925  1
  Zr  Zr80  1  0.18891459  0.80244830  0.60160215  1
  Zr  Zr81  1  0.50982748  0.51373730  0.70419153  1
  Zr  Zr82  1  -0.01004568  -0.00820278  0.00393004  1
  Zr  Zr83  1  0.29189981  0.10497413  0.10357577  1
  Zr  Zr84  1  0.80036744  0.80607643  0.60439432  1
  Zr  Zr85  1  0.60601911  0.19509020  0.01309118  1
  Zr  Zr86  1  0.60461417  0.20340688  0.80238645  1
  Zr  Zr87  1  0.61763753  0.60611059  -0.01002317  1
  Zr  Zr88  1  0.28840118  0.70558572  0.91205936  1
  Zr  Zr89  1  0.80360454  0.20016916  0.59263436  1
  Zr  Zr90  1  0.29131257  0.49965752  0.90998862  1
  Zr  Zr91  1  0.79756997  -0.00286319  0.19722317  1
  Zr  Zr92  1  0.90729430  0.09105501  0.70011273  1
  Zr  Zr93  1  0.59052658  0.19595490  0.60136261  1
  Zr  Zr94  1  0.30315886  0.69136388  0.30070249  1
  Zr  Zr95  1  0.40210970  -0.00379295  0.19249044  1
  Zr  Zr96  1  0.40279595  0.39524734  0.60356761  1
  Zr  Zr97  1  0.09358920  0.09123857  0.89367882  1
  Zr  Zr98  1  0.19514353  0.59535542  0.20193700  1
  Zr  Zr99  1  0.90106937  0.30383925  0.69960116  1
  Ta  Ta100  1  0.30038707  0.10141806  0.89892367  1
  Ta  Ta101  1  0.70498412  0.29703009  0.11001476  1
  Ta  Ta102  1  0.70052083  0.70448069  0.50439481  1
  Ta  Ta103  1  0.61490735  0.41244972  0.80773108  1
  Ta  Ta104  1  0.20022951  0.39581564  0.59373758  1
  Ta  Ta105  1  0.88941819  0.50097108  0.29575127  1
  Ta  Ta106  1  0.69649671  0.30164762  0.49612347  1
  Ta  Ta107  1  0.89490373  0.70323100  0.90447039  1
  Ta  Ta108  1  0.89778622  0.50472690  0.90909633  1
  Ta  Ta109  1  0.10221765  0.10088441  0.10866544  1
  Ta  Ta110  1  0.29623043  0.90120567  0.69496393  1
  Ta  Ta111  1  0.69547299  0.90142550  0.29938453  1
  Ta  Ta112  1  -0.00715913  0.59987253  0.20056713  1
  Ta  Ta113  1  0.51180730  0.31296136  0.90897628  1
  Ta  Ta114  1  0.09905360  0.49753344  0.90645172  1
  Ta  Ta115  1  0.20463264  -0.00626333  0.80108013  1
  Ta  Ta116  1  0.29814178  0.70424132  0.70204132  1
  Ta  Ta117  1  0.90077293  0.09530302  0.49690885  1
  Ta  Ta118  1  0.79507122  0.80376716  -0.00026266  1
  Ta  Ta119  1  0.09928894  0.09534063  0.69878893  1
  Ta  Ta120  1  0.09257549  0.70728673  0.49057929  1
  Ta  Ta121  1  0.50226812  0.09510781  0.30292133  1
  Ta  Ta122  1  -0.00226966  0.19616337  0.79816821  1
  Ta  Ta123  1  0.79788204  -0.01030170  0.59400027  1
  Ta  Ta124  1  0.50492579  0.30732701  0.49140222  1
  Ta  Ta125  1  0.40776589  0.20272902  0.39784688  1
  Ta  Ta126  1  0.70543039  0.30409227  0.91009761  1
  Ta  Ta127  1  0.50860660  0.89339975  0.89967802  1
  Ta  Ta128  1  0.51152666  0.31416115  0.10901181  1
  Ta  Ta129  1  0.41191764  0.60022104  -0.00039632  1
  Ta  Ta130  1  0.10139627  0.10364127  0.29235847  1
  Ta  Ta131  1  0.51002201  0.70317637  0.70261010  1
  Ta  Ta132  1  0.29310512  0.69215636  0.09250105  1
  Ta  Ta133  1  0.20055901  0.79930051  0.20322457  1
  Ta  Ta134  1  0.17727202  0.38190091  -0.00502584  1
  Ta  Ta135  1  0.80003762  0.19817794  0.80531400  1
  Ta  Ta136  1  0.19569077  0.20108380  -0.00247644  1
  Ta  Ta137  1  0.79629862  -0.00355469  0.00284758  1
  Ta  Ta138  1  0.60111612  0.00330360  0.19475205  1
  Ta  Ta139  1  0.80769971  0.40637689  0.59092313  1
  Ta  Ta140  1  0.51177110  0.50270087  0.90597679  1
  Ta  Ta141  1  0.00204610  0.20261937  0.59030332  1
  Ta  Ta142  1  0.89906330  0.49477552  0.70295226  1
  Ta  Ta143  1  0.70055541  0.09610460  0.49997475  1
  Ta  Ta144  1  0.29456631  0.91027043  0.49386376  1
  Ta  Ta145  1  0.19582589  -0.00810850  0.20217026  1
  Ta  Ta146  1  0.09545259  0.90532887  0.71259137  1
  Ta  Ta147  1  0.60669276  0.79626235  0.20300352  1
  Ta  Ta148  1  0.89506634  0.09782169  0.89924986  1
  Ta  Ta149  1  0.00027697  0.80235881  0.60338043  1
  Ti  Ti150  1  0.10777385  0.89953594  0.48516519  1
  Ti  Ti151  1  0.49577717  0.69211315  0.29593562  1
  Ti  Ti152  1  0.79462870  0.60703969  0.20384386  1
  Ti  Ti153  1  0.50585188  0.69477477  0.50735194  1
  Ti  Ti154  1  0.78999584  0.80161711  0.19930746  1
  Ti  Ti155  1  0.89941651  0.29643815  0.28566460  1
  Ti  Ti156  1  -0.00157486  0.81101066  0.40227941  1
  Ti  Ti157  1  0.70201816  0.49136377  0.29455361  1
  Ti  Ti158  1  0.79646907  0.19731473  0.20394706  1
  Ti  Ti159  1  0.19628017  -0.00510676  0.60088227  1
  Ti  Ti160  1  0.09477793  0.89201112  0.89909031  1
  Ti  Ti161  1  0.61319986  0.61237084  0.19982373  1
  Ti  Ti162  1  0.69770479  0.89415966  0.10109470  1
  Ti  Ti163  1  0.68654139  0.89269785  0.69436721  1
  Ti  Ti164  1  0.60902154  0.40582978  0.00499383  1
  Ti  Ti165  1  0.10752599  0.90111591  0.30739868  1
  Ti  Ti166  1  0.10470810  0.70338515  0.09485045  1
  Ti  Ti167  1  0.78861273  0.80756400  0.40288812  1
  Ti  Ti168  1  0.50847328  0.30723615  0.70487583  1
  Ti  Ti169  1  0.50704062  0.89081495  0.09618836  1
  Ti  Ti170  1  0.60662012  0.79346834  -0.00181271  1
  Ti  Ti171  1  0.69309119  0.09905711  0.29294936  1
  Ti  Ti172  1  0.89184579  0.89598374  0.30195229  1
  Ti  Ti173  1  0.49367392  0.09442359  0.49921835  1
  Ti  Ti174  1  0.89755376  0.89924563  0.49580971  1
  Ti  Ti175  1  0.40629893  0.59299021  0.18659345  1
  Ti  Ti176  1  0.70809706  0.10070739  0.90304557  1
  Ti  Ti177  1  -0.00253944  0.80105513  0.79528072  1
  Ti  Ti178  1  -0.01641069  0.38863456  0.40934599  1
  Ti  Ti179  1  0.90540979  0.89451036  0.90019386  1
  Ti  Ti180  1  0.29353495  0.90265184  0.31169001  1
  Ti  Ti181  1  0.60901045  0.60215545  0.60332546  1
  Ti  Ti182  1  0.89953445  0.70150893  0.70382974  1
  Ti  Ti183  1  0.69251921  0.30512986  0.29167595  1
  Ti  Ti184  1  -0.01175456  0.59203228  0.40001527  1
  Ti  Ti185  1  0.40848591  0.79394347  -0.00905415  1
  Ti  Ti186  1  0.29576219  0.30729742  0.70168422  1
  Ti  Ti187  1  0.59787316  0.00216694  0.79497887  1
  Ti  Ti188  1  0.60661853  0.00141950  0.40236096  1
  Ti  Ti189  1  0.50671439  0.30902443  0.29889630  1
  Ti  Ti190  1  0.19914212  0.80690011  0.80248987  1
  Ti  Ti191  1  0.79726325  0.40824613  0.80566694  1
  Ti  Ti192  1  0.40020144  0.60686156  0.60462050  1
  Ti  Ti193  1  0.40915079  0.20250892  0.59901014  1
  Ti  Ti194  1  0.31684498  0.30348048  0.49188253  1
  Ti  Ti195  1  0.79716456  0.59958081  0.39718967  1
  Ti  Ti196  1  0.09296468  0.71117757  0.90944705  1
  Ti  Ti197  1  0.68678473  0.70303046  0.70396639  1
  Ti  Ti198  1  -0.00536965  0.00048179  0.39090024  1
  Ti  Ti199  1  0.60350147  0.00110174  0.59454938  1
  Mo  Mo200  1  0.41228111  0.60411127  0.40531793  1
  Mo  Mo201  1  0.19972436  0.19487098  0.20261193  1
  Mo  Mo202  1  0.89055626  0.28283499  0.10268158  1
  Mo  Mo203  1  0.50795321  0.10536410  0.11283639  1
  Mo  Mo204  1  0.70688955  0.49173936  0.90624218  1
  Mo  Mo205  1  0.19659534  0.80575978  0.39842479  1
  Mo  Mo206  1  0.30276883  0.89798131  0.89246128  1
  Mo  Mo207  1  0.40898608  0.39203780  0.39697510  1
  Mo  Mo208  1  0.79621164  0.39608758  0.20698648  1
  Mo  Mo209  1  0.60364818  0.60334867  0.80208919  1
  Mo  Mo210  1  0.70232602  0.10225099  0.10694053  1
  Mo  Mo211  1  0.19515071  0.39774046  0.80245765  1
  Mo  Mo212  1  0.60352545  0.79223787  0.59778919  1
  Mo  Mo213  1  0.69750418  0.90359037  0.49879109  1
  Mo  Mo214  1  0.70668338  0.50012860  0.70055532  1
  Mo  Mo215  1  0.90888277  0.89328291  0.70174937  1
  Mo  Mo216  1  0.08888954  0.30308753  0.50179607  1
  Mo  Mo217  1  0.89319116  0.52239872  0.10456742  1
  Mo  Mo218  1  0.79277192  0.19512374  -0.00253655  1
  Mo  Mo219  1  0.88898692  0.89687665  0.09494307  1
  Mo  Mo220  1  0.60801874  0.39710670  0.19824227  1
  Mo  Mo221  1  0.09736265  0.71694524  0.70299633  1
  Mo  Mo222  1  -0.00100377  0.40379323  0.00098996  1
  Mo  Mo223  1  0.09688649  0.29737676  0.89375122  1
  Mo  Mo224  1  0.60719412  0.39401999  0.39496888  1
  Mo  Mo225  1  0.59996073  0.79509921  0.80081520  1
  Mo  Mo226  1  -0.00796329  0.39752430  0.59695689  1
  Mo  Mo227  1  0.18971801  0.79564531  -0.00189282  1
  Mo  Mo228  1  -0.00594261  0.79774370  -0.00791913  1
  Mo  Mo229  1  0.60079788  0.19924378  0.20445202  1
  Mo  Mo230  1  0.39848656  0.00569620  0.39858823  1
  Mo  Mo231  1  0.00262279  -0.00484655  0.80331423  1
  Mo  Mo232  1  -0.00537001  0.19527551  0.20807704  1
  Mo  Mo233  1  0.19616953  -0.00179176  0.39278969  1
  Mo  Mo234  1  0.41119502  0.39873825  0.19812770  1
  Mo  Mo235  1  0.32424707  0.29886980  0.30116387  1
  Mo  Mo236  1  0.50238525  0.09558334  0.69162370  1
  Mo  Mo237  1  0.89469826  0.50166894  0.49329785  1
  Mo  Mo238  1  0.90204065  0.09732751  0.30187101  1
  Mo  Mo239  1  0.50836157  0.70276638  0.89996806  1
  Mo  Mo240  1  0.18836209  0.60303285  0.00337842  1
  Mo  Mo241  1  0.70958345  0.70984212  0.30014410  1
  Mo  Mo242  1  0.39690263  0.00035188  0.59741934  1
  Mo  Mo243  1  0.70234995  0.71023516  0.90185793  1
  Mo  Mo244  1  0.42444889  0.40901205  0.00592043  1
  Mo  Mo245  1  0.89573944  0.29810359  0.50166405  1
  Mo  Mo246  1  0.80168199  0.60487243  -0.00169256  1
  Mo  Mo247  1  0.50928785  0.50307778  0.09664692  1
  Mo  Mo248  1  0.70139646  0.70607393  0.10413805  1
  Mo  Mo249  1  0.07474815  0.29948994  0.29904517  1
