# generated using pymatgen
data_HfZrTaTiMo
_symmetry_space_group_name_H-M   'P 1'
_cell_length_a   16.88526976
_cell_length_b   16.87797872
_cell_length_c   16.88811946
_cell_angle_alpha   89.95769197
_cell_angle_beta   90.07463039
_cell_angle_gamma   89.99189607
_symmetry_Int_Tables_number   1
_chemical_formula_structural   HfZrTaTiMo
_chemical_formula_sum   'Hf50 Zr50 Ta50 Ti50 Mo50'
_cell_volume   4812.92661021
_cell_formula_units_Z   50
loop_
 _symmetry_equiv_pos_site_id
 _symmetry_equiv_pos_as_xyz
  1  'x, y, z'
loop_
 _atom_site_type_symbol
 _atom_site_label
 _atom_site_symmetry_multiplicity
 _atom_site_fract_x
 _atom_site_fract_y
 _atom_site_fract_z
 _atom_site_occupancy
  Hf  Hf0  1  0.40309320  0.40149938  0.59898358  1
  Hf  Hf1  1  0.69628081  0.89599151  0.89720856  1
  Hf  Hf2  1  0.40086878  0.20135100  0.80525847  1
  Hf  Hf3  1  0.29259713  0.49561507  0.09404561  1
  Hf  Hf4  1  0.50916335  0.50765295  0.69800226  1
  Hf  Hf5  1  0.40842529  -0.00688490  0.60132098  1
  Hf  Hf6  1  0.60541974  0.39338953  0.79273339  1
  Hf  Hf7  1  0.80161756  0.80056279  0.20330921  1
  Hf  Hf8  1  0.88938544  0.50011775  0.70214399  1
  Hf  Hf9  1  0.01199625  0.80293060  0.20433041  1
  Hf  Hf10  1  0.59464398  -0.00032199  0.19609550  1
  Hf  Hf11  1  -0.00132413  0.59796532  0.40786956  1
  Hf  Hf12  1  0.10085953  0.49719466  0.09583724  1
  Hf  Hf13  1  0.60987633  0.61009137  0.80161404  1
  Hf  Hf14  1  0.19851377  0.19781393  0.59767514  1
  Hf  Hf15  1  0.08798010  0.29889472  0.50002807  1
  Hf  Hf16  1  -0.00433616  0.19865525  0.39779052  1
  Hf  Hf17  1  0.10296773  0.11217599  0.90093282  1
  Hf  Hf18  1  0.40811105  0.80081031  0.60342544  1
  Hf  Hf19  1  0.88606270  0.50360766  0.09603973  1
  Hf  Hf20  1  0.29447616  0.90399885  0.30363926  1
  Hf  Hf21  1  0.20820487  0.00197241  0.00024493  1
  Hf  Hf22  1  0.09367937  0.49997924  0.69878901  1
  Hf  Hf23  1  0.20314961  0.00635021  0.80033952  1
  Hf  Hf24  1  0.89307797  0.30988541  0.30024087  1
  Hf  Hf25  1  0.20127585  0.40402908  0.59209284  1
  Hf  Hf26  1  0.30344404  0.70477883  0.70216555  1
  Hf  Hf27  1  0.89936647  0.69589151  0.69497652  1
  Hf  Hf28  1  0.39886420  0.00142690  -0.00428377  1
  Hf  Hf29  1  0.30144929  0.09953914  0.70014198  1
  Hf  Hf30  1  0.68373517  0.11631918  0.09327060  1
  Hf  Hf31  1  -0.00283750  0.39109818  0.80190145  1
  Hf  Hf32  1  0.10157367  0.09029989  0.30608812  1
  Hf  Hf33  1  0.80067057  0.01583363  -0.00661700  1
  Hf  Hf34  1  0.19717830  0.60428969  0.80023956  1
  Hf  Hf35  1  0.90218789  0.70041715  0.30734885  1
  Hf  Hf36  1  0.20486253  0.39334274  0.20938242  1
  Hf  Hf37  1  -0.01597270  0.20320712  0.80215112  1
  Hf  Hf38  1  0.10461995  0.30514542  0.09338386  1
  Hf  Hf39  1  0.89645616  0.69862304  0.09961152  1
  Hf  Hf40  1  0.60175416  0.79600257  0.20438710  1
  Hf  Hf41  1  0.70088619  0.89240683  0.50453739  1
  Hf  Hf42  1  0.79607548  0.19777668  0.40429980  1
  Hf  Hf43  1  0.10062575  0.89685682  0.90122727  1
  Hf  Hf44  1  0.80813577  0.00861967  0.18770302  1
  Hf  Hf45  1  0.40659902  0.19961321  0.60027586  1
  Hf  Hf46  1  0.69656749  0.10067201  0.29802424  1
  Hf  Hf47  1  0.70474780  0.48982392  0.90111087  1
  Hf  Hf48  1  0.29958812  0.88300487  0.89188593  1
  Hf  Hf49  1  0.51123257  0.30037672  0.49510637  1
  Zr  Zr50  1  0.29236226  0.89934826  0.49564761  1
  Zr  Zr51  1  0.30658212  0.29767203  0.49099674  1
  Zr  Zr52  1  0.62371670  0.58456756  0.40469656  1
  Zr  Zr53  1  0.29910058  0.50037267  0.70042715  1
  Zr  Zr54  1  0.40219439  0.39295323  0.00615685  1
  Zr  Zr55  1  0.30481049  0.50801233  0.32048973  1
  Zr  Zr56  1  0.90689795  0.09222484  0.50836371  1
  Zr  Zr57  1  0.40948287  0.79631487  0.40401078  1
  Zr  Zr58  1  0.50561298  0.69349609  0.09444658  1
  Zr  Zr59  1  0.90684137  0.90494393  0.31656021  1
  Zr  Zr60  1  0.69949196  0.31083892  0.08887616  1
  Zr  Zr61  1  0.89261858  0.30207289  0.50843633  1
  Zr  Zr62  1  0.40116697  0.39298826  0.20255034  1
  Zr  Zr63  1  0.30586873  0.69627471  0.30432516  1
  Zr  Zr64  1  0.89145055  0.50093717  0.89308859  1
  Zr  Zr65  1  0.18962121  0.60221076  0.58124274  1
  Zr  Zr66  1  0.89298154  0.31052467  0.09821753  1
  Zr  Zr67  1  0.10372407  0.11022772  0.09747616  1
  Zr  Zr68  1  0.79083691  0.78650180  0.79905701  1
  Zr  Zr69  1  0.09331966  0.89738642  0.69416128  1
  Zr  Zr70  1  0.50115264  0.70828941  0.89387575  1
  Zr  Zr71  1  0.00073533  0.60168594  -0.00499325  1
  Zr  Zr72  1  0.40892994  -0.00614607  0.80356836  1
  Zr  Zr73  1  0.59757853  0.41102724  0.19737593  1
  Zr  Zr74  1  0.30284953  0.49678902  0.89952020  1
  Zr  Zr75  1  -0.01210015  0.01194674  0.79682645  1
  Zr  Zr76  1  0.51150788  0.28213648  0.09685125  1
  Zr  Zr77  1  0.51666611  0.69196445  0.50462481  1
  Zr  Zr78  1  0.60010272  -0.00281128  0.60833716  1
  Zr  Zr79  1  0.40591245  0.80305491  0.19820351  1
  Zr  Zr80  1  -0.00492808  0.20119601  0.19972073  1
  Zr  Zr81  1  0.78460642  0.41689374  0.40604353  1
  Zr  Zr82  1  0.29808341  0.70483307  0.09466298  1
  Zr  Zr83  1  0.70231492  0.89624035  0.08856589  1
  Zr  Zr84  1  -0.00043227  -0.00410196  0.18940375  1
  Zr  Zr85  1  0.10610347  0.70673962  0.09868577  1
  Zr  Zr86  1  0.30275524  0.10066103  0.30258972  1
  Zr  Zr87  1  0.89160258  0.89704526  0.89635788  1
  Zr  Zr88  1  0.40071199  0.59766491  0.59201621  1
  Zr  Zr89  1  0.40079018  -0.00140759  0.19210928  1
  Zr  Zr90  1  0.18586391  0.78567638  0.39619192  1
  Zr  Zr91  1  0.68963378  0.30228340  0.29690543  1
  Zr  Zr92  1  0.09794028  0.29525161  0.69826301  1
  Zr  Zr93  1  0.19178020  0.60469243  0.21158957  1
  Zr  Zr94  1  0.40991528  0.58907031  0.19584856  1
  Zr  Zr95  1  0.70282310  0.68723436  0.10346641  1
  Zr  Zr96  1  0.29982772  0.09665098  0.48982521  1
  Zr  Zr97  1  0.70626838  0.90214370  0.30460949  1
  Zr  Zr98  1  -0.00791651  0.00787137  0.00177976  1
  Zr  Zr99  1  0.79722188  0.00432389  0.61144820  1
  Ta  Ta100  1  0.60012189  0.00017749  0.80109742  1
  Ta  Ta101  1  0.40597163  0.39660449  0.79950347  1
  Ta  Ta102  1  0.80044905  0.19727963  0.19517675  1
  Ta  Ta103  1  0.19218102  0.20596730  0.39514355  1
  Ta  Ta104  1  0.90981702  0.89388926  0.50777427  1
  Ta  Ta105  1  0.19445412  0.40330933  0.40458356  1
  Ta  Ta106  1  0.10195638  0.70523047  0.89889034  1
  Ta  Ta107  1  0.30005471  0.30198107  0.90192870  1
  Ta  Ta108  1  0.50672620  0.89988727  0.30528763  1
  Ta  Ta109  1  0.50875375  0.49792120  0.31219703  1
  Ta  Ta110  1  0.41490133  -0.00054020  0.40240513  1
  Ta  Ta111  1  0.09713132  0.09266844  0.50124238  1
  Ta  Ta112  1  0.20510914  0.20693488  0.20584402  1
  Ta  Ta113  1  0.08990364  0.90530752  0.49805079  1
  Ta  Ta114  1  0.80837779  0.59492309  0.41070619  1
  Ta  Ta115  1  0.40178627  0.80359983  -0.00756025  1
  Ta  Ta116  1  0.70735997  0.69487509  0.50988473  1
  Ta  Ta117  1  0.50735716  0.10368979  0.70400526  1
  Ta  Ta118  1  -0.00731372  0.59676127  0.59115949  1
  Ta  Ta119  1  0.50635735  0.10682085  0.90166698  1
  Ta  Ta120  1  0.79810001  0.00239206  0.41144533  1
  Ta  Ta121  1  0.50192885  0.10617423  0.30163115  1
  Ta  Ta122  1  -0.01248909  0.20841826  -0.01038751  1
  Ta  Ta123  1  0.40519114  0.60522398  0.80116629  1
  Ta  Ta124  1  0.19673497  0.79715877  0.59564997  1
  Ta  Ta125  1  0.50433809  0.49762565  0.90016793  1
  Ta  Ta126  1  0.60938469  0.79365868  0.39791348  1
  Ta  Ta127  1  0.00211494  0.60535825  0.80002722  1
  Ta  Ta128  1  0.00079009  0.80129213  -0.00209214  1
  Ta  Ta129  1  0.30086553  0.30144299  0.70511020  1
  Ta  Ta130  1  0.20286633  0.60486806  -0.01105819  1
  Ta  Ta131  1  0.19781461  -0.00463995  0.19261171  1
  Ta  Ta132  1  0.90003463  0.89883177  0.69738893  1
  Ta  Ta133  1  0.19709184  -0.00378778  0.59969929  1
  Ta  Ta134  1  0.80261558  0.79775542  0.60107662  1
  Ta  Ta135  1  0.19813277  0.39264546  0.80499030  1
  Ta  Ta136  1  0.10239194  0.49576956  0.90043111  1
  Ta  Ta137  1  0.79843371  0.19963135  -0.01048315  1
  Ta  Ta138  1  -0.00228943  0.40938150  0.20392856  1
  Ta  Ta139  1  0.50578331  0.89674904  0.08707021  1
  Ta  Ta140  1  0.09605806  0.49884579  0.30775639  1
  Ta  Ta141  1  0.60098543  0.00011862  0.40377214  1
  Ta  Ta142  1  0.51104755  0.68661149  0.30365664  1
  Ta  Ta143  1  -0.00093419  0.39526670  -0.00868813  1
  Ta  Ta144  1  0.30063461  0.11079600  0.10233677  1
  Ta  Ta145  1  -0.00379743  0.59503593  0.20812332  1
  Ta  Ta146  1  -0.00174004  0.79324202  0.79966395  1
  Ta  Ta147  1  0.50721093  0.10454083  0.49744371  1
  Ta  Ta148  1  0.50702450  0.30006894  0.90168772  1
  Ta  Ta149  1  0.29814259  0.89377709  0.69993873  1
  Ti  Ti150  1  0.79385636  0.39596494  0.60709624  1
  Ti  Ti151  1  -0.01024337  0.40497553  0.59816060  1
  Ti  Ti152  1  0.89568627  0.88919856  0.08842521  1
  Ti  Ti153  1  0.70075386  0.69260832  0.69170952  1
  Ti  Ti154  1  0.30152691  0.68608041  0.48754113  1
  Ti  Ti155  1  0.51232005  0.89627410  0.49773559  1
  Ti  Ti156  1  0.79423066  0.19915857  0.79427937  1
  Ti  Ti157  1  0.79243134  0.19994267  0.61416542  1
  Ti  Ti158  1  0.21002069  0.20846948  -0.00107326  1
  Ti  Ti159  1  0.50026728  0.29732706  0.30896440  1
  Ti  Ti160  1  0.59575265  0.00342004  -0.01028716  1
  Ti  Ti161  1  0.09244038  0.70198426  0.69363235  1
  Ti  Ti162  1  0.09330159  0.30645084  0.30339401  1
  Ti  Ti163  1  0.70725650  0.68918996  0.30128936  1
  Ti  Ti164  1  0.79164348  0.60571850  -0.01119702  1
  Ti  Ti165  1  0.61093961  0.40009878  0.60303133  1
  Ti  Ti166  1  0.60924197  0.19721889  0.79856926  1
  Ti  Ti167  1  0.09557312  0.09822517  0.69440286  1
  Ti  Ti168  1  0.69860357  0.29973400  0.89999559  1
  Ti  Ti169  1  0.89794940  0.09526384  0.30357070  1
  Ti  Ti170  1  0.20382180  0.20417583  0.80412725  1
  Ti  Ti171  1  0.89682949  0.69993933  0.89893213  1
  Ti  Ti172  1  0.69534905  0.30180588  0.50446317  1
  Ti  Ti173  1  0.87904033  0.30963620  0.89643186  1
  Ti  Ti174  1  0.80239799  0.79235802  0.41057510  1
  Ti  Ti175  1  -0.00914689  0.41133859  0.40249901  1
  Ti  Ti176  1  0.51567038  0.49556159  0.50079665  1
  Ti  Ti177  1  0.40500648  0.40671118  0.40699569  1
  Ti  Ti178  1  0.10152840  0.90472142  0.31052178  1
  Ti  Ti179  1  0.51191255  0.50228040  0.08714062  1
  Ti  Ti180  1  0.69488996  0.10142849  0.50496288  1
  Ti  Ti181  1  0.50086487  0.10554447  0.09556726  1
  Ti  Ti182  1  -0.01353137  0.19533154  0.61417388  1
  Ti  Ti183  1  0.39476644  0.19737603  -0.00351003  1
  Ti  Ti184  1  0.30873992  0.29607037  0.31152564  1
  Ti  Ti185  1  0.50476550  0.29673947  0.70001744  1
  Ti  Ti186  1  0.60220010  0.19782083  0.40038651  1
  Ti  Ti187  1  0.19472496  0.79318197  0.79494735  1
  Ti  Ti188  1  0.79421716  0.41495193  0.20320837  1
  Ti  Ti189  1  0.69885092  0.89505753  0.70652085  1
  Ti  Ti190  1  0.60286217  0.79586604  -0.00713972  1
  Ti  Ti191  1  0.79209225  0.01668911  0.79798674  1
  Ti  Ti192  1  0.70875772  0.50538488  0.70146548  1
  Ti  Ti193  1  0.29150955  0.89005742  0.09818197  1
  Ti  Ti194  1  0.39813786  0.60337683  -0.00914939  1
  Ti  Ti195  1  0.07872818  0.71486329  0.50266824  1
  Ti  Ti196  1  0.39849424  0.20424571  0.20090473  1
  Ti  Ti197  1  0.60893853  0.20034904  0.60932893  1
  Ti  Ti198  1  0.60685888  0.59548430  -0.00444817  1
  Ti  Ti199  1  0.59909473  0.79607407  0.61418335  1
  Mo  Mo200  1  0.89496461  0.11649966  0.09341382  1
  Mo  Mo201  1  -0.00235345  -0.00018804  0.40574873  1
  Mo  Mo202  1  0.09302142  0.69504509  0.30259940  1
  Mo  Mo203  1  0.60028901  0.80339231  0.78937255  1
  Mo  Mo204  1  0.19644985  0.39601256  -0.00585286  1
  Mo  Mo205  1  0.19433034  0.81426744  0.19994588  1
  Mo  Mo206  1  0.70313111  0.50777348  0.28637768  1
  Mo  Mo207  1  0.88818778  0.30108965  0.69920397  1
  Mo  Mo208  1  0.30199831  0.11145103  0.90445818  1
  Mo  Mo209  1  0.50417158  0.70306458  0.70194501  1
  Mo  Mo210  1  0.89515797  0.49897532  0.50962567  1
  Mo  Mo211  1  0.79793646  0.60364652  0.79845195  1
  Mo  Mo212  1  0.79379829  0.38697033  0.79148736  1
  Mo  Mo213  1  0.69812220  0.29558572  0.69617296  1
  Mo  Mo214  1  0.79721827  0.39799244  -0.00578089  1
  Mo  Mo215  1  0.19228287  0.00181075  0.40284484  1
  Mo  Mo216  1  0.59352094  0.19961135  0.20727143  1
  Mo  Mo217  1  0.70418567  0.50005248  0.52644503  1
  Mo  Mo218  1  0.60468193  0.59497174  0.20291446  1
  Mo  Mo219  1  0.80010992  0.60103822  0.59900314  1
  Mo  Mo220  1  0.80213589  0.59667400  0.21303030  1
  Mo  Mo221  1  0.59848296  0.40156662  -0.00719569  1
  Mo  Mo222  1  0.89521436  0.70255348  0.50195430  1
  Mo  Mo223  1  0.18013613  0.59667035  0.40776007  1
  Mo  Mo224  1  0.80222302  0.79002596  -0.00337983  1
  Mo  Mo225  1  -0.00241579  0.79877250  0.60221605  1
  Mo  Mo226  1  0.89066183  0.11204288  0.89608606  1
  Mo  Mo227  1  0.30121530  0.70033962  0.89626749  1
  Mo  Mo228  1  0.60926100  0.59666086  0.60641283  1
  Mo  Mo229  1  0.29878022  0.28983594  0.10008571  1
  Mo  Mo230  1  0.50375509  0.89501228  0.70927221  1
  Mo  Mo231  1  0.60121329  0.39934321  0.40538417  1
  Mo  Mo232  1  -0.00066224  0.80227033  0.40420886  1
  Mo  Mo233  1  0.69478015  0.10245383  0.89339403  1
  Mo  Mo234  1  0.10675667  0.30010841  0.90350564  1
  Mo  Mo235  1  0.11027145  0.89546497  0.09524170  1
  Mo  Mo236  1  0.41131393  0.19818031  0.39656141  1
  Mo  Mo237  1  0.69527459  0.10570637  0.70564603  1
  Mo  Mo238  1  0.50598702  0.90099075  0.90303251  1
  Mo  Mo239  1  0.42113563  0.59442581  0.40512806  1
  Mo  Mo240  1  0.08873439  0.48935031  0.49872880  1
  Mo  Mo241  1  0.70229231  0.50465982  0.09309331  1
  Mo  Mo242  1  0.20126246  0.79928152  -0.00343920  1
  Mo  Mo243  1  0.89908676  0.50222523  0.29979772  1
  Mo  Mo244  1  0.40733675  0.79962316  0.79457069  1
  Mo  Mo245  1  0.89161464  0.10359772  0.70129210  1
  Mo  Mo246  1  0.60234142  0.19966666  -0.01724298  1
  Mo  Mo247  1  0.00273996  -0.00015153  0.60495697  1
  Mo  Mo248  1  0.29626081  0.50169550  0.49175838  1
  Mo  Mo249  1  0.69889853  0.69916132  0.90577667  1
