# generated using pymatgen
data_HfZrTaTiMo
_symmetry_space_group_name_H-M   'P 1'
_cell_length_a   16.89584530
_cell_length_b   16.89999508
_cell_length_c   16.90019450
_cell_angle_alpha   89.96999162
_cell_angle_beta   90.01999372
_cell_angle_gamma   90.02489430
_symmetry_Int_Tables_number   1
_chemical_formula_structural   HfZrTaTiMo
_chemical_formula_sum   'Hf50 Zr50 Ta50 Ti50 Mo50'
_cell_volume   4825.67509659
_cell_formula_units_Z   50
loop_
 _symmetry_equiv_pos_site_id
 _symmetry_equiv_pos_as_xyz
  1  'x, y, z'
loop_
 _atom_site_type_symbol
 _atom_site_label
 _atom_site_symmetry_multiplicity
 _atom_site_fract_x
 _atom_site_fract_y
 _atom_site_fract_z
 _atom_site_occupancy
  Hf  Hf0  1  0.30762076  0.09051289  0.10112083  1
  Hf  Hf1  1  0.20182749  0.79926409  0.19748096  1
  Hf  Hf2  1  0.19951477  0.19897178  0.79358466  1
  Hf  Hf3  1  0.19830097  0.60300442  0.19345139  1
  Hf  Hf4  1  0.90317328  0.69058426  0.90172123  1
  Hf  Hf5  1  0.29648685  0.30124432  0.29705924  1
  Hf  Hf6  1  -0.00329852  0.40412494  0.40151463  1
  Hf  Hf7  1  0.40539871  0.60269009  0.80550238  1
  Hf  Hf8  1  0.38926155  -0.01146377  0.60377505  1
  Hf  Hf9  1  0.80698328  0.01029478  0.80930256  1
  Hf  Hf10  1  0.69572952  0.48921869  0.69708777  1
  Hf  Hf11  1  0.50231386  0.10079703  0.49864733  1
  Hf  Hf12  1  0.00815604  0.19933327  0.20051952  1
  Hf  Hf13  1  0.29891126  0.09814696  0.49960172  1
  Hf  Hf14  1  0.49855029  0.09848437  0.70420415  1
  Hf  Hf15  1  0.29956300  0.30350290  0.49581063  1
  Hf  Hf16  1  0.78818058  0.79933759  0.20162351  1
  Hf  Hf17  1  0.89313704  0.30194750  0.09479046  1
  Hf  Hf18  1  0.70446358  0.49209815  0.50269208  1
  Hf  Hf19  1  0.60382934  0.59988418  0.81709281  1
  Hf  Hf20  1  0.89640764  0.70629306  0.30452771  1
  Hf  Hf21  1  0.60114280  0.79714283  0.39627471  1
  Hf  Hf22  1  0.00400045  0.19636725  0.59784600  1
  Hf  Hf23  1  0.10390870  0.90185733  0.09208042  1
  Hf  Hf24  1  0.90428977  0.49034754  0.89506162  1
  Hf  Hf25  1  0.19776366  0.59219088  0.01229842  1
  Hf  Hf26  1  0.70811107  0.30436501  0.30488045  1
  Hf  Hf27  1  0.29958868  0.50583822  0.69404425  1
  Hf  Hf28  1  0.90884732  0.90518314  0.69801520  1
  Hf  Hf29  1  0.09923067  0.90127756  0.70074951  1
  Hf  Hf30  1  0.49691771  0.89523115  0.50439194  1
  Hf  Hf31  1  0.20427175  0.41686291  0.17765104  1
  Hf  Hf32  1  0.09320180  0.49465700  0.90656052  1
  Hf  Hf33  1  0.79919507  0.80358936  0.80453294  1
  Hf  Hf34  1  0.10230039  0.08505980  0.89111687  1
  Hf  Hf35  1  0.60137614  0.39170566  0.40884100  1
  Hf  Hf36  1  0.38966919  0.80837533  0.80250692  1
  Hf  Hf37  1  0.59293370  0.80694949  0.20397260  1
  Hf  Hf38  1  0.61474832  0.21110565  0.60133575  1
  Hf  Hf39  1  -0.00065915  -0.00117884  0.20260485  1
  Hf  Hf40  1  0.49208027  0.91003714  0.89808491  1
  Hf  Hf41  1  0.68374906  0.69532162  0.09336634  1
  Hf  Hf42  1  0.49725293  0.29481400  0.29553481  1
  Hf  Hf43  1  -0.00064238  0.19952129  0.79212722  1
  Hf  Hf44  1  0.60291834  0.80443697  0.80994521  1
  Hf  Hf45  1  0.79270659  0.80475087  -0.00056140  1
  Hf  Hf46  1  0.10104442  0.89638510  0.89460658  1
  Hf  Hf47  1  -0.00184354  0.40567065  0.19805227  1
  Hf  Hf48  1  0.30353490  0.50584919  0.30783391  1
  Hf  Hf49  1  0.11379611  0.49875766  0.31348103  1
  Zr  Zr50  1  0.49767808  0.71149517  0.69744537  1
  Zr  Zr51  1  0.20550502  0.18690499  -0.00369456  1
  Zr  Zr52  1  0.70191830  0.49363007  0.29952553  1
  Zr  Zr53  1  0.79349775  0.59293524  0.80000138  1
  Zr  Zr54  1  0.72833848  0.71162328  0.50793070  1
  Zr  Zr55  1  0.09335113  0.31103025  0.89855815  1
  Zr  Zr56  1  0.30469213  0.69776305  0.30809897  1
  Zr  Zr57  1  0.76935601  0.58864002  -0.01359967  1
  Zr  Zr58  1  0.78550157  0.39800024  -0.00906275  1
  Zr  Zr59  1  0.00186685  0.00135519  0.40983456  1
  Zr  Zr60  1  0.69525791  0.29946831  0.09901467  1
  Zr  Zr61  1  0.60081554  0.61054234  0.40256427  1
  Zr  Zr62  1  0.10350689  0.31123817  0.08563957  1
  Zr  Zr63  1  0.30624648  0.30295468  0.69506085  1
  Zr  Zr64  1  0.30879414  0.70305833  0.09852641  1
  Zr  Zr65  1  0.49625852  0.50452536  0.30306158  1
  Zr  Zr66  1  0.70299502  0.09878968  0.09050040  1
  Zr  Zr67  1  0.59737263  0.60229016  0.59533223  1
  Zr  Zr68  1  0.40144080  0.19892783  0.60304509  1
  Zr  Zr69  1  0.70194134  0.70234660  0.69647494  1
  Zr  Zr70  1  0.30157123  0.30486269  0.90703938  1
  Zr  Zr71  1  0.89971094  0.10384110  0.30644396  1
  Zr  Zr72  1  0.10541210  0.69856342  0.70039814  1
  Zr  Zr73  1  0.48218015  0.91452252  0.10450499  1
  Zr  Zr74  1  0.61009472  0.00371563  0.59580855  1
  Zr  Zr75  1  0.80089138  -0.00069706  0.40339792  1
  Zr  Zr76  1  0.59461558  0.00819564  0.00606004  1
  Zr  Zr77  1  0.90012575  0.69048099  0.09315109  1
  Zr  Zr78  1  0.10296331  0.69606167  0.89928776  1
  Zr  Zr79  1  0.89393895  0.88455428  0.50639985  1
  Zr  Zr80  1  0.10888637  0.30356173  0.30011537  1
  Zr  Zr81  1  0.10316756  0.30672768  0.49722596  1
  Zr  Zr82  1  0.30752517  0.10133226  0.29455579  1
  Zr  Zr83  1  -0.00118521  0.60547960  0.40751240  1
  Zr  Zr84  1  0.89594103  0.30112496  0.49793361  1
  Zr  Zr85  1  0.40408257  0.40600858  0.19077044  1
  Zr  Zr86  1  -0.00290956  0.19389911  -0.00808961  1
  Zr  Zr87  1  0.41027472  0.40305015  0.80068560  1
  Zr  Zr88  1  0.60636164  0.01250703  0.80516176  1
  Zr  Zr89  1  0.09816980  0.89595505  0.30124780  1
  Zr  Zr90  1  0.89279770  0.09825790  0.08872146  1
  Zr  Zr91  1  0.79950763  0.19935681  0.20725891  1
  Zr  Zr92  1  0.90078268  0.89719954  0.09695202  1
  Zr  Zr93  1  0.19608333  0.40189125  0.79364964  1
  Zr  Zr94  1  0.79208094  -0.00905127  0.20104525  1
  Zr  Zr95  1  0.79089186  0.59607328  0.19992939  1
  Zr  Zr96  1  0.89149611  0.69931254  0.68043374  1
  Zr  Zr97  1  0.59466642  0.19020002  0.20271032  1
  Zr  Zr98  1  0.40070936  0.60388113  0.59677601  1
  Zr  Zr99  1  0.00812291  0.59886972  0.19636776  1
  Ta  Ta100  1  0.19753498  0.40050912  0.60079455  1
  Ta  Ta101  1  0.89554153  0.49672524  0.50732143  1
  Ta  Ta102  1  -0.00110981  0.59408257  0.79061092  1
  Ta  Ta103  1  0.80216873  0.20229864  0.79922519  1
  Ta  Ta104  1  0.89491518  0.49673728  0.09194172  1
  Ta  Ta105  1  0.40327341  0.59935601  -0.00265590  1
  Ta  Ta106  1  0.30661859  0.29405233  0.09962432  1
  Ta  Ta107  1  0.59484171  0.61007251  0.20769393  1
  Ta  Ta108  1  0.29673022  0.70322013  0.69844907  1
  Ta  Ta109  1  0.50846704  0.51376454  0.09735400  1
  Ta  Ta110  1  0.70431332  0.90738738  0.70128801  1
  Ta  Ta111  1  0.19586888  0.19055403  0.40192955  1
  Ta  Ta112  1  0.09241755  0.49566765  0.69499094  1
  Ta  Ta113  1  -0.00042317  0.59752069  0.59593814  1
  Ta  Ta114  1  0.80339175  0.60186113  0.40296147  1
  Ta  Ta115  1  0.20236781  -0.00413362  0.40419836  1
  Ta  Ta116  1  0.40521008  0.19797803  0.39661961  1
  Ta  Ta117  1  0.79142234  0.38378927  0.60225521  1
  Ta  Ta118  1  0.20887754  0.80601195  0.59509622  1
  Ta  Ta119  1  0.19232294  0.19570195  0.60257917  1
  Ta  Ta120  1  0.59694043  0.81037025  0.00365198  1
  Ta  Ta121  1  0.40339598  -0.00424857  0.39755536  1
  Ta  Ta122  1  0.19908700  0.19412595  0.19424098  1
  Ta  Ta123  1  0.49338968  0.48820385  0.50547929  1
  Ta  Ta124  1  0.40117269  0.19788967  0.80658561  1
  Ta  Ta125  1  0.90436247  0.09718267  0.69817997  1
  Ta  Ta126  1  0.40579069  0.19731519  -0.00036695  1
  Ta  Ta127  1  0.90048485  0.48893259  0.69363669  1
  Ta  Ta128  1  0.50474667  0.29770853  0.90523332  1
  Ta  Ta129  1  0.10293410  0.08574780  0.69919899  1
  Ta  Ta130  1  0.40689907  0.40305625  0.00377662  1
  Ta  Ta131  1  0.40265088  0.80466504  0.20908047  1
  Ta  Ta132  1  0.00592531  0.19132953  0.40596320  1
  Ta  Ta133  1  0.30088481  0.50106077  0.90607704  1
  Ta  Ta134  1  0.30118679  0.90153317  0.30129959  1
  Ta  Ta135  1  0.49510781  0.70177268  0.10069295  1
  Ta  Ta136  1  0.49911017  0.90246067  0.70138954  1
  Ta  Ta137  1  0.19954765  0.80210744  0.41105067  1
  Ta  Ta138  1  0.69601009  0.90064833  0.30368601  1
  Ta  Ta139  1  -0.00357624  -0.00192798  -0.00916637  1
  Ta  Ta140  1  0.00426691  0.79450742  -0.00040538  1
  Ta  Ta141  1  0.21872112  -0.00904068  0.80446458  1
  Ta  Ta142  1  0.10374047  0.50048832  0.50649436  1
  Ta  Ta143  1  0.29883498  0.09485000  0.70420399  1
  Ta  Ta144  1  0.20492589  -0.00391326  0.19814907  1
  Ta  Ta145  1  0.00323772  0.79534233  0.40667573  1
  Ta  Ta146  1  0.70274133  0.91333470  0.90947466  1
  Ta  Ta147  1  0.49851327  0.30201948  0.50449511  1
  Ta  Ta148  1  0.29875644  0.49807436  0.49810296  1
  Ta  Ta149  1  0.59590855  -0.00075098  0.39438125  1
  Ti  Ti150  1  0.20234715  -0.00482309  0.59830437  1
  Ti  Ti151  1  0.29723772  0.69754458  0.90080667  1
  Ti  Ti152  1  0.49382512  0.71276792  0.50588398  1
  Ti  Ti153  1  0.00234300  0.79546154  0.19839184  1
  Ti  Ti154  1  0.30559548  0.70782186  0.50484511  1
  Ti  Ti155  1  0.50410549  0.30466994  0.69698732  1
  Ti  Ti156  1  0.50223522  0.70473347  0.91450552  1
  Ti  Ti157  1  0.01092588  0.78653608  0.58920960  1
  Ti  Ti158  1  0.70427324  0.89884538  0.49862876  1
  Ti  Ti159  1  0.69214230  0.29107534  0.89838668  1
  Ti  Ti160  1  0.10433684  0.08963124  0.09513729  1
  Ti  Ti161  1  0.79363759  0.38775683  0.79592552  1
  Ti  Ti162  1  0.90515488  0.30612927  0.69869857  1
  Ti  Ti163  1  0.60022257  0.19843563  0.40137213  1
  Ti  Ti164  1  0.90072149  0.30162897  0.89666312  1
  Ti  Ti165  1  0.20666465  0.80234683  0.00049477  1
  Ti  Ti166  1  0.40844439  0.60787819  0.40713024  1
  Ti  Ti167  1  0.88902750  0.49335170  0.30130037  1
  Ti  Ti168  1  0.50471177  0.49527591  0.90683414  1
  Ti  Ti169  1  0.48718870  0.09895734  0.11451318  1
  Ti  Ti170  1  0.20850253  0.80211899  0.79725153  1
  Ti  Ti171  1  0.79941790  0.19954886  0.40868636  1
  Ti  Ti172  1  0.10308467  0.70261720  0.30616554  1
  Ti  Ti173  1  0.00197941  0.00940118  0.59102332  1
  Ti  Ti174  1  0.20012407  0.61063710  0.41474330  1
  Ti  Ti175  1  0.89566228  0.30449742  0.30271305  1
  Ti  Ti176  1  0.49231814  0.10254709  0.89787665  1
  Ti  Ti177  1  0.60097158  0.40575198  0.19256922  1
  Ti  Ti178  1  0.19647157  0.60568434  0.59453434  1
  Ti  Ti179  1  0.39931751  0.80542968  0.39875159  1
  Ti  Ti180  1  0.60674623  0.80776435  0.60251880  1
  Ti  Ti181  1  0.60083863  0.38975640  0.79824212  1
  Ti  Ti182  1  0.10207061  0.89946271  0.50464629  1
  Ti  Ti183  1  0.37780305  0.00075894  -0.01824423  1
  Ti  Ti184  1  0.50463090  0.49002320  0.68977958  1
  Ti  Ti185  1  0.59403312  0.19493929  -0.00357105  1
  Ti  Ti186  1  0.70404230  0.10414607  0.49602568  1
  Ti  Ti187  1  0.90581971  0.90265751  0.89990737  1
  Ti  Ti188  1  0.10698142  0.09641340  0.30091118  1
  Ti  Ti189  1  -0.00341724  0.79316533  0.79926783  1
  Ti  Ti190  1  0.19999811  0.59707789  0.80069224  1
  Ti  Ti191  1  0.80206467  0.20001919  0.60389216  1
  Ti  Ti192  1  0.69363237  0.09510943  0.30366933  1
  Ti  Ti193  1  0.80289247  0.00877616  0.59748054  1
  Ti  Ti194  1  0.60178794  0.20197696  0.80005299  1
  Ti  Ti195  1  0.59941775  0.40593266  0.00261020  1
  Ti  Ti196  1  0.70836219  0.10485069  0.70304526  1
  Ti  Ti197  1  0.49933443  0.29583667  0.09637030  1
  Ti  Ti198  1  0.40186005  0.39689678  0.40193423  1
  Ti  Ti199  1  0.39397237  0.80575639  -0.00113958  1
  Mo  Mo200  1  0.80355849  -0.00091703  -0.00797167  1
  Mo  Mo201  1  0.89900118  0.88565663  0.30403696  1
  Mo  Mo202  1  0.49716081  0.90308369  0.30564333  1
  Mo  Mo203  1  0.70257875  0.11118964  0.90080404  1
  Mo  Mo204  1  0.40014148  -0.00303436  0.21345551  1
  Mo  Mo205  1  0.08103749  0.50258535  0.09011160  1
  Mo  Mo206  1  0.40859162  0.60881502  0.19753465  1
  Mo  Mo207  1  -0.00074921  -0.00038254  0.79744246  1
  Mo  Mo208  1  0.09815043  0.70707311  0.09522942  1
  Mo  Mo209  1  0.89572266  0.10527684  0.50928156  1
  Mo  Mo210  1  0.79657868  0.19905402  -0.02331713  1
  Mo  Mo211  1  0.68337866  0.47578067  0.89065442  1
  Mo  Mo212  1  0.40026849  0.40259189  0.59708039  1
  Mo  Mo213  1  0.59647401  0.39239074  0.60249775  1
  Mo  Mo214  1  -0.00627740  0.39688449  0.79118551  1
  Mo  Mo215  1  0.29885874  0.90175539  0.09996380  1
  Mo  Mo216  1  0.29499090  0.89455633  0.90512749  1
  Mo  Mo217  1  0.68687113  0.49835748  0.10201599  1
  Mo  Mo218  1  0.29572293  0.89732763  0.69886888  1
  Mo  Mo219  1  0.70478090  0.29540176  0.70743854  1
  Mo  Mo220  1  0.22033092  0.40818583  0.00343444  1
  Mo  Mo221  1  0.80119634  0.80255161  0.39205716  1
  Mo  Mo222  1  0.20702979  0.40626812  0.40800009  1
  Mo  Mo223  1  0.69264677  0.71884633  0.90475667  1
  Mo  Mo224  1  0.10796780  0.70024173  0.50381642  1
  Mo  Mo225  1  0.30393557  0.10047162  0.89584140  1
  Mo  Mo226  1  0.80477439  0.40351045  0.20021556  1
  Mo  Mo227  1  0.69949643  0.70175085  0.30347405  1
  Mo  Mo228  1  0.90187586  0.10183218  0.89408523  1
  Mo  Mo229  1  0.09689097  0.30213449  0.69210736  1
  Mo  Mo230  1  0.10726847  0.09447795  0.50420480  1
  Mo  Mo231  1  0.29747397  0.89903109  0.49376142  1
  Mo  Mo232  1  0.40016127  0.20111290  0.19463734  1
  Mo  Mo233  1  0.00049613  0.40080235  0.60163870  1
  Mo  Mo234  1  0.32146672  0.50638223  0.09656130  1
  Mo  Mo235  1  0.20180563  -0.00703428  0.00018752  1
  Mo  Mo236  1  0.90402166  0.69590409  0.50064499  1
  Mo  Mo237  1  0.58926354  0.60316002  -0.00377506  1
  Mo  Mo238  1  0.70278994  0.29358923  0.49924022  1
  Mo  Mo239  1  0.49374585  0.70457232  0.29976441  1
  Mo  Mo240  1  0.39353182  0.80202940  0.60272773  1
  Mo  Mo241  1  0.59397853  0.00089510  0.21003713  1
  Mo  Mo242  1  0.69007634  0.90240226  0.10166935  1
  Mo  Mo243  1  0.39626711  0.00324170  0.79878454  1
  Mo  Mo244  1  0.00227603  0.59716724  -0.00085173  1
  Mo  Mo245  1  0.80515959  0.40195378  0.40189771  1
  Mo  Mo246  1  -0.01737506  0.40072300  -0.00083924  1
  Mo  Mo247  1  0.80557788  0.58058465  0.59833176  1
  Mo  Mo248  1  0.50230605  0.09706634  0.30333287  1
  Mo  Mo249  1  0.79517522  0.82111724  0.60919035  1
