# generated using pymatgen
data_HfZrTaTiMo
_symmetry_space_group_name_H-M   'P 1'
_cell_length_a   16.88152392
_cell_length_b   16.88508750
_cell_length_c   16.88781724
_cell_angle_alpha   90.05678119
_cell_angle_beta   90.00449804
_cell_angle_gamma   90.02630944
_symmetry_Int_Tables_number   1
_chemical_formula_structural   HfZrTaTiMo
_chemical_formula_sum   'Hf50 Zr50 Ta50 Ti50 Mo50'
_cell_volume   4813.80201305
_cell_formula_units_Z   50
loop_
 _symmetry_equiv_pos_site_id
 _symmetry_equiv_pos_as_xyz
  1  'x, y, z'
loop_
 _atom_site_type_symbol
 _atom_site_label
 _atom_site_symmetry_multiplicity
 _atom_site_fract_x
 _atom_site_fract_y
 _atom_site_fract_z
 _atom_site_occupancy
  Hf  Hf0  1  0.90215945  0.90056221  0.51151986  1
  Hf  Hf1  1  0.49872761  0.70027876  0.09713478  1
  Hf  Hf2  1  0.49456598  0.49726555  0.70684636  1
  Hf  Hf3  1  0.00849898  -0.00771160  0.40188090  1
  Hf  Hf4  1  0.29917934  0.10159677  0.69793258  1
  Hf  Hf5  1  -0.00433264  0.79843107  0.20135253  1
  Hf  Hf6  1  0.30787524  0.30224866  0.09167514  1
  Hf  Hf7  1  0.79134158  0.60715393  0.40537598  1
  Hf  Hf8  1  0.90024964  0.10306059  0.29056237  1
  Hf  Hf9  1  0.39951366  0.17925484  0.18139940  1
  Hf  Hf10  1  0.30525271  0.49696637  0.29735622  1
  Hf  Hf11  1  0.59850662  0.79654865  0.79901201  1
  Hf  Hf12  1  0.10142008  0.10263030  0.29734760  1
  Hf  Hf13  1  0.11342692  0.69891937  0.69500200  1
  Hf  Hf14  1  0.59467465  0.19677289  0.00590782  1
  Hf  Hf15  1  0.69312449  0.70331611  0.10119757  1
  Hf  Hf16  1  0.90086688  0.10236551  0.50587540  1
  Hf  Hf17  1  0.49296633  0.69945869  0.50091521  1
  Hf  Hf18  1  0.60347985  0.00389498  0.00062051  1
  Hf  Hf19  1  0.30219957  0.69880624  0.09238904  1
  Hf  Hf20  1  0.40069952  -0.00428274  0.20572731  1
  Hf  Hf21  1  0.10184906  0.49539626  0.30626489  1
  Hf  Hf22  1  0.50731791  0.11410742  0.49158095  1
  Hf  Hf23  1  0.50693206  0.89586203  0.10545173  1
  Hf  Hf24  1  0.50472091  0.30670031  0.70030763  1
  Hf  Hf25  1  0.79226102  0.40100579  0.60043861  1
  Hf  Hf26  1  0.79384743  0.38980159  0.41477924  1
  Hf  Hf27  1  0.19671056  0.59992432  0.19151314  1
  Hf  Hf28  1  0.90360500  0.69729457  0.51304283  1
  Hf  Hf29  1  0.40735448  -0.00132631  0.59947415  1
  Hf  Hf30  1  0.79331736  0.59015450  0.80115069  1
  Hf  Hf31  1  0.50251932  0.89277980  0.49650146  1
  Hf  Hf32  1  0.79379787  0.79457711  0.60146494  1
  Hf  Hf33  1  0.70985083  0.90216711  0.89911407  1
  Hf  Hf34  1  0.80121103  0.59206876  0.00206174  1
  Hf  Hf35  1  0.19387148  0.81227900  0.20075342  1
  Hf  Hf36  1  0.68948068  0.29058128  0.29562147  1
  Hf  Hf37  1  0.01246466  0.59571358  0.80611257  1
  Hf  Hf38  1  0.89629796  0.49292134  0.30459247  1
  Hf  Hf39  1  -0.00490753  0.60602217  0.40123130  1
  Hf  Hf40  1  0.49330737  0.68735992  0.89720745  1
  Hf  Hf41  1  0.20040174  0.20143161  0.40321633  1
  Hf  Hf42  1  0.19537765  0.80423802  -0.00906059  1
  Hf  Hf43  1  0.19470172  0.00815828  0.00245510  1
  Hf  Hf44  1  0.60093237  0.59980832  0.41098673  1
  Hf  Hf45  1  0.80209159  0.40057588  0.00025998  1
  Hf  Hf46  1  0.69439119  0.29867696  0.89447027  1
  Hf  Hf47  1  0.30463176  0.50701120  0.08741080  1
  Hf  Hf48  1  0.59863515  0.60252819  0.20739387  1
  Hf  Hf49  1  -0.00260867  0.20200520  0.40270906  1
  Zr  Zr50  1  0.00517116  -0.01800159  0.20281238  1
  Zr  Zr51  1  0.90185059  0.50719493  0.69356886  1
  Zr  Zr52  1  0.09585151  0.29341357  0.28875931  1
  Zr  Zr53  1  0.00744622  0.39458491  -0.00454080  1
  Zr  Zr54  1  0.30867936  0.30227883  0.29350233  1
  Zr  Zr55  1  -0.00300309  0.59661189  0.18964043  1
  Zr  Zr56  1  0.19551949  0.20367208  0.80553491  1
  Zr  Zr57  1  0.80509952  0.60548272  0.20229376  1
  Zr  Zr58  1  0.10126264  0.30042331  0.69130187  1
  Zr  Zr59  1  0.60285912  0.00340875  0.60255671  1
  Zr  Zr60  1  -0.00004307  0.80663769  0.39406791  1
  Zr  Zr61  1  0.69810007  0.89708121  0.10812137  1
  Zr  Zr62  1  0.40388074  0.40323399  -0.01032460  1
  Zr  Zr63  1  0.30905321  0.30719981  0.69983980  1
  Zr  Zr64  1  0.59869563  0.40365469  0.41473091  1
  Zr  Zr65  1  0.69902187  0.49247598  0.30013974  1
  Zr  Zr66  1  -0.00402778  0.40284485  0.18560859  1
  Zr  Zr67  1  0.80189166  0.20644815  0.61105926  1
  Zr  Zr68  1  0.10074556  0.90470937  0.69962320  1
  Zr  Zr69  1  0.29995732  0.70956332  0.50786315  1
  Zr  Zr70  1  0.80049513  0.39520557  0.79507442  1
  Zr  Zr71  1  0.08186057  0.11620147  0.10243448  1
  Zr  Zr72  1  0.61606777  0.00191419  0.39473145  1
  Zr  Zr73  1  0.20437570  0.40146793  0.81129841  1
  Zr  Zr74  1  0.79335476  0.19463395  0.00423300  1
  Zr  Zr75  1  0.88888905  0.90220698  0.09268681  1
  Zr  Zr76  1  0.49349353  0.90414772  0.89602525  1
  Zr  Zr77  1  0.80050658  -0.00310464  0.39630648  1
  Zr  Zr78  1  0.20380902  0.80002152  0.80907465  1
  Zr  Zr79  1  0.79845984  0.79605991  0.39306494  1
  Zr  Zr80  1  0.51181508  0.10657174  0.29945732  1
  Zr  Zr81  1  0.30778112  0.09880531  0.49777275  1
  Zr  Zr82  1  0.00701330  0.79545527  0.80395950  1
  Zr  Zr83  1  0.50160095  0.30280784  0.10638757  1
  Zr  Zr84  1  0.30369093  0.89996308  0.09531126  1
  Zr  Zr85  1  0.30368164  0.89289110  0.69241915  1
  Zr  Zr86  1  0.30811467  0.29407107  0.50404111  1
  Zr  Zr87  1  0.89931501  0.70043770  0.89949434  1
  Zr  Zr88  1  -0.00173822  0.39569691  0.41037654  1
  Zr  Zr89  1  0.19717777  0.00879891  0.80222570  1
  Zr  Zr90  1  0.89650884  0.90641106  0.89618150  1
  Zr  Zr91  1  0.20448578  0.59846726  0.40737084  1
  Zr  Zr92  1  0.10650028  0.70129471  0.30334570  1
  Zr  Zr93  1  0.49818243  0.10601223  0.89372909  1
  Zr  Zr94  1  0.19127925  0.39849995  0.17969143  1
  Zr  Zr95  1  -0.00813688  0.20323004  0.78889381  1
  Zr  Zr96  1  0.20545740  0.00307157  0.20204674  1
  Zr  Zr97  1  0.70643184  0.89721303  0.70693776  1
  Zr  Zr98  1  0.49633947  0.29796990  0.30233369  1
  Zr  Zr99  1  0.19079473  0.21436531  -0.00634021  1
  Ta  Ta100  1  0.00368608  0.00587473  0.60683129  1
  Ta  Ta101  1  0.40235460  0.01594441  0.01295093  1
  Ta  Ta102  1  0.70558263  0.09849782  0.89066876  1
  Ta  Ta103  1  0.30462004  0.68844470  0.90184396  1
  Ta  Ta104  1  0.40098336  0.60446096  0.20218591  1
  Ta  Ta105  1  0.50129232  0.29826333  0.50699219  1
  Ta  Ta106  1  0.20150501  -0.00763005  0.40109867  1
  Ta  Ta107  1  0.88983075  0.29496322  0.29617524  1
  Ta  Ta108  1  0.10028191  0.50223995  0.50803662  1
  Ta  Ta109  1  0.20477251  0.40917265  0.59674266  1
  Ta  Ta110  1  0.20238032  0.39839220  0.41154819  1
  Ta  Ta111  1  0.10642122  0.49906135  0.69760472  1
  Ta  Ta112  1  0.69493535  0.30261213  0.10522006  1
  Ta  Ta113  1  0.59904834  0.00338625  0.79403675  1
  Ta  Ta114  1  0.79794477  0.00400271  0.60240718  1
  Ta  Ta115  1  0.00226298  0.39852910  0.80032834  1
  Ta  Ta116  1  0.89446122  0.09691708  0.90050446  1
  Ta  Ta117  1  0.39853834  0.59448773  0.60080323  1
  Ta  Ta118  1  0.40003224  0.80026536  0.20802097  1
  Ta  Ta119  1  0.59978979  0.79745952  -0.00817844  1
  Ta  Ta120  1  0.30898235  0.10709098  0.90509283  1
  Ta  Ta121  1  -0.00056356  0.39929223  0.60287030  1
  Ta  Ta122  1  0.30785846  0.69549059  0.70313108  1
  Ta  Ta123  1  0.10579970  0.70595310  0.50902211  1
  Ta  Ta124  1  0.49565759  0.70065500  0.30574697  1
  Ta  Ta125  1  0.40315845  0.40645750  0.41061588  1
  Ta  Ta126  1  0.69798905  0.69376080  0.70306527  1
  Ta  Ta127  1  0.30389642  0.70178487  0.30276755  1
  Ta  Ta128  1  0.60074908  0.40631438  -0.00366663  1
  Ta  Ta129  1  0.49481873  0.69573541  0.69935932  1
  Ta  Ta130  1  0.90170075  0.28775877  0.10147967  1
  Ta  Ta131  1  0.70107751  0.10708717  0.70398356  1
  Ta  Ta132  1  0.50176680  0.30530279  0.88996275  1
  Ta  Ta133  1  0.10089773  0.69926055  0.08788696  1
  Ta  Ta134  1  0.69833320  0.89599008  0.50284935  1
  Ta  Ta135  1  0.78884345  0.19401405  0.40382790  1
  Ta  Ta136  1  0.08805688  0.91428401  0.90153299  1
  Ta  Ta137  1  0.60364925  0.59148540  0.79914595  1
  Ta  Ta138  1  0.00755053  0.59069042  -0.00095176  1
  Ta  Ta139  1  0.89714631  0.70200580  0.70107292  1
  Ta  Ta140  1  0.69539903  0.49638013  0.10007728  1
  Ta  Ta141  1  0.40008480  0.80131778  -0.00637430  1
  Ta  Ta142  1  0.69800877  0.69742300  0.89776638  1
  Ta  Ta143  1  0.80097306  0.39711974  0.19094171  1
  Ta  Ta144  1  0.49121630  0.50332095  0.30496715  1
  Ta  Ta145  1  0.60115181  0.79110530  0.60023036  1
  Ta  Ta146  1  0.39665267  0.80589360  0.39401534  1
  Ta  Ta147  1  0.79590776  0.79274081  -0.00240760  1
  Ta  Ta148  1  0.07843994  0.10184227  0.89783327  1
  Ta  Ta149  1  0.90070873  0.90040997  0.70373203  1
  Ti  Ti150  1  0.40715209  0.19883138  0.60344360  1
  Ti  Ti151  1  0.30522708  0.50397800  0.49862674  1
  Ti  Ti152  1  0.40260125  0.00387814  0.79468136  1
  Ti  Ti153  1  0.49652695  0.50472853  0.10116344  1
  Ti  Ti154  1  0.90184234  0.09844326  0.70075509  1
  Ti  Ti155  1  0.20304473  0.59552215  0.80423937  1
  Ti  Ti156  1  0.89980642  0.50315838  0.50573689  1
  Ti  Ti157  1  0.79378542  0.19792149  0.19935228  1
  Ti  Ti158  1  0.61019769  0.79285799  0.39618639  1
  Ti  Ti159  1  0.00836238  0.59955996  0.60270061  1
  Ti  Ti160  1  0.60109156  0.59565663  0.60069986  1
  Ti  Ti161  1  0.60570529  0.41217642  0.59983939  1
  Ti  Ti162  1  0.39661849  0.79710135  0.80229152  1
  Ti  Ti163  1  0.89818363  0.28925577  0.89859882  1
  Ti  Ti164  1  0.10041502  0.30087523  0.50716575  1
  Ti  Ti165  1  0.79103019  -0.00416775  0.21052571  1
  Ti  Ti166  1  -0.00514413  0.00204137  0.00380174  1
  Ti  Ti167  1  0.49914351  0.50039278  0.89277069  1
  Ti  Ti168  1  0.19347183  -0.00372618  0.59039599  1
  Ti  Ti169  1  0.20673142  0.19843232  0.19017363  1
  Ti  Ti170  1  0.51243015  0.89411224  0.29826263  1
  Ti  Ti171  1  0.68980952  0.30053435  0.70424360  1
  Ti  Ti172  1  0.78329108  0.59660176  0.59809176  1
  Ti  Ti173  1  0.09817928  0.10097155  0.50681348  1
  Ti  Ti174  1  0.90496480  0.49583135  0.89893829  1
  Ti  Ti175  1  0.90136242  0.70161304  0.09383239  1
  Ti  Ti176  1  0.30675684  0.10515901  0.31015949  1
  Ti  Ti177  1  0.50423917  0.10810457  0.70041599  1
  Ti  Ti178  1  0.39880101  0.41130084  0.59642640  1
  Ti  Ti179  1  0.30696200  0.91254187  0.90109376  1
  Ti  Ti180  1  0.80278490  0.00884337  0.79352839  1
  Ti  Ti181  1  0.19396053  0.19414851  0.60060656  1
  Ti  Ti182  1  0.60158100  0.19836404  0.79684370  1
  Ti  Ti183  1  0.90349635  0.29418614  0.50946684  1
  Ti  Ti184  1  0.20953786  0.59310050  0.60432599  1
  Ti  Ti185  1  0.00777752  0.80380579  0.60227053  1
  Ti  Ti186  1  0.39810845  0.20677619  0.80252728  1
  Ti  Ti187  1  0.49644512  0.88986010  0.69753090  1
  Ti  Ti188  1  0.00423654  0.79837137  -0.00187733  1
  Ti  Ti189  1  0.60201327  0.59153804  -0.00520136  1
  Ti  Ti190  1  0.89423050  0.09804825  0.09988109  1
  Ti  Ti191  1  0.19332683  0.40224653  -0.01097165  1
  Ti  Ti192  1  0.68261445  0.28168146  0.50968451  1
  Ti  Ti193  1  0.39774752  -0.01078932  0.39377757  1
  Ti  Ti194  1  0.59536777  0.40751843  0.19790716  1
  Ti  Ti195  1  0.30192250  0.89570036  0.50415861  1
  Ti  Ti196  1  0.80027377  0.79554393  0.21122066  1
  Ti  Ti197  1  0.30983024  0.50990701  0.89488111  1
  Ti  Ti198  1  0.69527042  0.09517688  0.11357722  1
  Ti  Ti199  1  0.20049099  0.81288660  0.40342203  1
  Mo  Mo200  1  0.89517694  0.49466307  0.09226137  1
  Mo  Mo201  1  0.10531952  0.90025637  0.50603189  1
  Mo  Mo202  1  0.10032961  0.10019273  0.69036812  1
  Mo  Mo203  1  0.60646815  0.20192931  0.40554556  1
  Mo  Mo204  1  0.88964506  0.89876018  0.29208932  1
  Mo  Mo205  1  0.09755621  0.29892268  0.09314608  1
  Mo  Mo206  1  0.19759776  0.59894907  -0.01130780  1
  Mo  Mo207  1  0.89577449  0.70002937  0.29533060  1
  Mo  Mo208  1  0.40555628  0.79754913  0.60275090  1
  Mo  Mo209  1  -0.01371299  0.20233216  0.19924798  1
  Mo  Mo210  1  0.40374385  0.21020829  0.40131490  1
  Mo  Mo211  1  0.10652273  0.50449401  0.08562872  1
  Mo  Mo212  1  0.59945745  0.20109059  0.60912230  1
  Mo  Mo213  1  0.49491371  0.50055160  0.50788215  1
  Mo  Mo214  1  0.51035155  0.09211594  0.10263674  1
  Mo  Mo215  1  0.31648799  0.29685350  0.89935004  1
  Mo  Mo216  1  0.79791081  0.00780280  0.00239777  1
  Mo  Mo217  1  0.69562428  0.89539499  0.29783021  1
  Mo  Mo218  1  0.60506850  0.19308455  0.19503595  1
  Mo  Mo219  1  0.40021915  0.60189165  0.40004837  1
  Mo  Mo220  1  0.29522942  0.10382920  0.09025068  1
  Mo  Mo221  1  0.70559604  0.10381346  0.29086958  1
  Mo  Mo222  1  0.10574224  0.49744290  0.89477606  1
  Mo  Mo223  1  0.40473706  0.59963512  -0.00310283  1
  Mo  Mo224  1  0.90326786  0.30660284  0.69638217  1
  Mo  Mo225  1  0.40061993  0.40322124  0.80227228  1
  Mo  Mo226  1  0.10701567  0.69136662  0.90470925  1
  Mo  Mo227  1  0.69161057  0.70396155  0.29858745  1
  Mo  Mo228  1  0.69069072  0.50063468  0.69887730  1
  Mo  Mo229  1  0.08591850  0.29897662  0.89536325  1
  Mo  Mo230  1  0.00095028  0.19929630  0.59719327  1
  Mo  Mo231  1  -0.00636948  0.00726937  0.79486412  1
  Mo  Mo232  1  0.79879276  0.19733441  0.79862914  1
  Mo  Mo233  1  0.69852916  0.50344206  0.50879776  1
  Mo  Mo234  1  0.11081995  0.90060467  0.30978498  1
  Mo  Mo235  1  0.59660377  0.79612726  0.21232916  1
  Mo  Mo236  1  0.39696333  0.59699536  0.79696663  1
  Mo  Mo237  1  0.40306756  0.20137477  -0.00654690  1
  Mo  Mo238  1  0.69087448  0.49957929  0.90354642  1
  Mo  Mo239  1  0.09222943  0.89327004  0.08268670  1
  Mo  Mo240  1  0.60035092  0.40336875  0.80433727  1
  Mo  Mo241  1  0.30382839  0.89848323  0.30676104  1
  Mo  Mo242  1  0.29923885  0.50488631  0.69755449  1
  Mo  Mo243  1  0.79950227  0.78924577  0.79860329  1
  Mo  Mo244  1  0.40784215  0.41749625  0.19730851  1
  Mo  Mo245  1  0.20239400  0.80089195  0.59754287  1
  Mo  Mo246  1  0.70389334  0.10269220  0.50917630  1
  Mo  Mo247  1  0.69221369  0.70048225  0.50898827  1
  Mo  Mo248  1  0.60513187  -0.00323895  0.20373529  1
  Mo  Mo249  1  -0.01191651  0.19885948  -0.00460118  1
