# generated using pymatgen
data_HfZrTaTiMo
_symmetry_space_group_name_H-M   'P 1'
_cell_length_a   16.89317145
_cell_length_b   16.89023806
_cell_length_c   16.89575301
_cell_angle_alpha   89.99610744
_cell_angle_beta   89.95983370
_cell_angle_gamma   89.97630066
_symmetry_Int_Tables_number   1
_chemical_formula_structural   HfZrTaTiMo
_chemical_formula_sum   'Hf50 Zr50 Ta50 Ti50 Mo50'
_cell_volume   4820.85831614
_cell_formula_units_Z   50
loop_
 _symmetry_equiv_pos_site_id
 _symmetry_equiv_pos_as_xyz
  1  'x, y, z'
loop_
 _atom_site_type_symbol
 _atom_site_label
 _atom_site_symmetry_multiplicity
 _atom_site_fract_x
 _atom_site_fract_y
 _atom_site_fract_z
 _atom_site_occupancy
  Hf  Hf0  1  0.69250646  0.10112038  0.69145611  1
  Hf  Hf1  1  0.79147249  0.60200759  0.60188604  1
  Hf  Hf2  1  0.59843641  0.60650646  0.20816281  1
  Hf  Hf3  1  0.30511701  0.29375439  0.09629728  1
  Hf  Hf4  1  0.19920311  0.19823350  0.79450361  1
  Hf  Hf5  1  0.60076040  0.39680422  0.00626084  1
  Hf  Hf6  1  0.89900344  0.49722207  0.69725634  1
  Hf  Hf7  1  0.78887442  0.80391730  0.39301228  1
  Hf  Hf8  1  0.41248730  0.80701579  0.19802292  1
  Hf  Hf9  1  0.00445957  0.59855956  0.60214523  1
  Hf  Hf10  1  0.49681079  0.09503925  0.69636262  1
  Hf  Hf11  1  0.90032798  0.69895262  0.49968463  1
  Hf  Hf12  1  0.41356103  0.39547441  0.19825809  1
  Hf  Hf13  1  0.10106124  0.89553819  0.09285199  1
  Hf  Hf14  1  0.59607108  0.60469486  0.40219664  1
  Hf  Hf15  1  -0.00294762  0.80855429  0.80423143  1
  Hf  Hf16  1  0.89759018  0.90720556  0.49730201  1
  Hf  Hf17  1  0.60286471  0.39842194  0.79994491  1
  Hf  Hf18  1  0.89680980  0.10053029  0.90275052  1
  Hf  Hf19  1  0.38190910  0.60903055  0.60564497  1
  Hf  Hf20  1  0.00005595  0.39413721  0.00780886  1
  Hf  Hf21  1  0.21811451  0.59525074  -0.00500275  1
  Hf  Hf22  1  0.59722953  0.21011010  0.79027179  1
  Hf  Hf23  1  0.19921791  0.39882119  0.40366031  1
  Hf  Hf24  1  0.10564810  0.70593474  0.90083833  1
  Hf  Hf25  1  0.30601620  0.50540883  0.31100867  1
  Hf  Hf26  1  0.89709755  0.09685920  0.29871587  1
  Hf  Hf27  1  0.11511427  0.70273313  0.51046522  1
  Hf  Hf28  1  0.38933303  0.21355833  0.59187702  1
  Hf  Hf29  1  0.60053181  0.80611055  0.20540763  1
  Hf  Hf30  1  0.00029915  0.59898461  -0.00437077  1
  Hf  Hf31  1  0.10844520  0.70685591  0.69655899  1
  Hf  Hf32  1  0.90016968  0.70137551  0.10133999  1
  Hf  Hf33  1  0.89676749  0.70077956  0.70496999  1
  Hf  Hf34  1  0.30942895  0.69959668  0.31506621  1
  Hf  Hf35  1  0.79561087  0.39239742  0.40348861  1
  Hf  Hf36  1  0.21042581  0.38972858  0.80011449  1
  Hf  Hf37  1  0.08591448  0.09711347  0.89577054  1
  Hf  Hf38  1  0.01450858  0.39292241  0.20102847  1
  Hf  Hf39  1  0.09220270  0.29099542  0.90276213  1
  Hf  Hf40  1  0.90226350  0.30484237  0.68993671  1
  Hf  Hf41  1  0.19901164  -0.00196543  0.20393766  1
  Hf  Hf42  1  0.40285435  0.81119664  -0.01050421  1
  Hf  Hf43  1  0.78614323  0.80175293  0.80627822  1
  Hf  Hf44  1  0.90027433  0.28685831  0.29912467  1
  Hf  Hf45  1  0.00630344  0.40096898  0.39807590  1
  Hf  Hf46  1  0.20034159  0.80885232  0.21814801  1
  Hf  Hf47  1  0.79802197  0.80444582  0.21105773  1
  Hf  Hf48  1  0.40968179  0.00230704  0.20583564  1
  Hf  Hf49  1  0.10486015  0.49676954  0.89574820  1
  Zr  Zr50  1  0.50451851  0.69712777  0.89371462  1
  Zr  Zr51  1  0.78861820  0.60417328  0.39689248  1
  Zr  Zr52  1  0.89567686  0.50818261  0.10927099  1
  Zr  Zr53  1  0.49571839  0.50179219  0.90210188  1
  Zr  Zr54  1  0.89922731  0.50236269  0.30356588  1
  Zr  Zr55  1  0.61034304  0.80661492  -0.01548599  1
  Zr  Zr56  1  0.19887519  0.19735318  0.59727804  1
  Zr  Zr57  1  0.79447434  0.80807045  0.60478808  1
  Zr  Zr58  1  0.50738498  0.09539568  0.50529086  1
  Zr  Zr59  1  0.19942917  -0.00411391  0.80118082  1
  Zr  Zr60  1  0.70191886  0.09604825  0.90126601  1
  Zr  Zr61  1  0.70663413  0.90944879  0.09621937  1
  Zr  Zr62  1  0.41745766  0.19917798  0.20566548  1
  Zr  Zr63  1  0.30414852  0.90562370  0.09259952  1
  Zr  Zr64  1  -0.00023563  0.19313576  0.59764821  1
  Zr  Zr65  1  0.61505782  0.59846526  0.79962214  1
  Zr  Zr66  1  0.40299703  0.19848573  0.40118414  1
  Zr  Zr67  1  0.09008665  0.09546984  0.30535543  1
  Zr  Zr68  1  0.30452155  0.08864431  0.69058632  1
  Zr  Zr69  1  0.39643371  0.59572450  0.18900864  1
  Zr  Zr70  1  0.49629382  0.49996592  0.31032695  1
  Zr  Zr71  1  0.10895670  0.70479862  0.09850619  1
  Zr  Zr72  1  0.59886553  0.19865861  0.00912936  1
  Zr  Zr73  1  0.79527360  -0.00487955  0.79312992  1
  Zr  Zr74  1  0.20349626  -0.00055184  0.39898025  1
  Zr  Zr75  1  0.18880904  0.19862959  0.19093269  1
  Zr  Zr76  1  0.30943014  0.09989740  0.09109023  1
  Zr  Zr77  1  0.02538578  0.59137119  0.20639066  1
  Zr  Zr78  1  0.80205618  0.39220223  0.20084519  1
  Zr  Zr79  1  0.21158719  0.59964091  0.79073374  1
  Zr  Zr80  1  0.39597573  0.80141800  0.79089907  1
  Zr  Zr81  1  0.39486787  0.80306451  0.59893041  1
  Zr  Zr82  1  0.09081917  0.91086932  0.50289870  1
  Zr  Zr83  1  0.69120145  0.49781395  0.50336409  1
  Zr  Zr84  1  0.50290464  0.69173564  0.08418921  1
  Zr  Zr85  1  0.19700893  0.40656415  0.19986867  1
  Zr  Zr86  1  0.89700532  0.08883921  0.49427214  1
  Zr  Zr87  1  0.70698219  0.69638788  0.10003009  1
  Zr  Zr88  1  0.38736343  0.60717487  0.79767965  1
  Zr  Zr89  1  0.80354830  0.39838301  -0.00192471  1
  Zr  Zr90  1  0.19730641  -0.00458549  -0.01186711  1
  Zr  Zr91  1  0.90297043  0.69078001  0.29424242  1
  Zr  Zr92  1  0.29862063  0.70842452  0.09332921  1
  Zr  Zr93  1  0.69226152  0.91751288  0.49197195  1
  Zr  Zr94  1  -0.00730367  0.39785247  0.80550271  1
  Zr  Zr95  1  0.00565523  0.80252619  0.39184864  1
  Zr  Zr96  1  0.59764790  0.39300150  0.60480085  1
  Zr  Zr97  1  0.29729214  0.29559270  0.30259310  1
  Zr  Zr98  1  0.39374258  0.20633666  0.79436543  1
  Zr  Zr99  1  0.70695924  0.29151056  0.90239510  1
  Ta  Ta100  1  0.90390515  0.49492963  0.50485200  1
  Ta  Ta101  1  0.89792317  0.90219008  0.10093359  1
  Ta  Ta102  1  -0.00578547  0.19738990  0.79062323  1
  Ta  Ta103  1  0.19743287  0.19817600  -0.00454129  1
  Ta  Ta104  1  0.20373842  0.39198564  0.00280092  1
  Ta  Ta105  1  0.50646080  0.90796232  0.31075632  1
  Ta  Ta106  1  0.49476140  0.70065972  0.50197489  1
  Ta  Ta107  1  0.40407461  -0.00929542  0.79801894  1
  Ta  Ta108  1  0.20798761  0.80603881  0.40840104  1
  Ta  Ta109  1  0.40181613  0.00642583  0.40273310  1
  Ta  Ta110  1  -0.00777354  -0.00157591  0.00338997  1
  Ta  Ta111  1  0.59946282  0.19973985  0.39912979  1
  Ta  Ta112  1  0.79092611  0.19651179  0.40480948  1
  Ta  Ta113  1  0.10494028  0.49202188  0.69383033  1
  Ta  Ta114  1  0.09669915  0.90577538  0.69673093  1
  Ta  Ta115  1  0.49677183  0.09944794  0.89979255  1
  Ta  Ta116  1  0.31319240  0.09873078  0.90350346  1
  Ta  Ta117  1  0.69423597  0.29433335  0.29746469  1
  Ta  Ta118  1  0.11410737  0.69735206  0.31055643  1
  Ta  Ta119  1  0.79619456  0.59745881  -0.00886292  1
  Ta  Ta120  1  0.59528967  0.39145272  0.39710821  1
  Ta  Ta121  1  0.89689317  0.69977362  0.90003124  1
  Ta  Ta122  1  0.80006604  0.18668560  0.01940874  1
  Ta  Ta123  1  0.49069337  0.29909831  0.90555591  1
  Ta  Ta124  1  0.00218541  0.19940826  0.40840737  1
  Ta  Ta125  1  0.68572397  0.70596288  0.50727143  1
  Ta  Ta126  1  0.50253519  0.09546989  0.09455813  1
  Ta  Ta127  1  0.79481320  0.39835066  0.79922458  1
  Ta  Ta128  1  0.09829584  0.30294531  0.50512046  1
  Ta  Ta129  1  0.89267097  0.90656086  0.90695259  1
  Ta  Ta130  1  0.90344211  0.28391502  0.10118986  1
  Ta  Ta131  1  0.00115692  0.60010482  0.79918566  1
  Ta  Ta132  1  0.69590251  0.09458784  0.30604368  1
  Ta  Ta133  1  0.80345038  0.20334971  0.78552410  1
  Ta  Ta134  1  0.20564492  0.81139590  0.80433638  1
  Ta  Ta135  1  0.79386151  0.20055283  0.59411152  1
  Ta  Ta136  1  0.51157778  0.69972539  0.69295907  1
  Ta  Ta137  1  0.59975787  -0.00122765  -0.00139314  1
  Ta  Ta138  1  0.10603047  0.49767689  0.50966796  1
  Ta  Ta139  1  0.00374423  0.80633599  0.20340194  1
  Ta  Ta140  1  0.69749945  0.49934549  0.10619893  1
  Ta  Ta141  1  0.49485323  0.50383543  0.69597350  1
  Ta  Ta142  1  0.69411544  0.49298426  0.29341113  1
  Ta  Ta143  1  0.09727921  0.30704274  0.69433050  1
  Ta  Ta144  1  -0.00483229  0.80525007  -0.00328932  1
  Ta  Ta145  1  0.59665519  -0.00684865  0.80158881  1
  Ta  Ta146  1  0.69839750  0.29669335  0.11157065  1
  Ta  Ta147  1  0.49179853  0.50379082  0.50694552  1
  Ta  Ta148  1  0.59863301  0.80116314  0.39758806  1
  Ta  Ta149  1  0.40226247  0.39898784  0.00890819  1
  Ti  Ti150  1  0.61650073  0.59302986  -0.00965766  1
  Ti  Ti151  1  0.68437108  0.89785017  0.70119067  1
  Ti  Ti152  1  -0.00203068  0.80371882  0.60272040  1
  Ti  Ti153  1  0.90790219  0.91165440  0.69651906  1
  Ti  Ti154  1  0.30464888  0.90600873  0.50240334  1
  Ti  Ti155  1  0.47653205  0.32044139  0.70189157  1
  Ti  Ti156  1  0.68971791  0.70511966  0.69659271  1
  Ti  Ti157  1  0.69556706  0.29371845  0.49895920  1
  Ti  Ti158  1  0.00198196  0.19609493  0.19138260  1
  Ti  Ti159  1  0.11121180  0.49877501  0.09068895  1
  Ti  Ti160  1  0.59944131  0.00310114  0.20069846  1
  Ti  Ti161  1  0.29886491  0.10311478  0.30180566  1
  Ti  Ti162  1  0.79402461  0.59753304  0.80583305  1
  Ti  Ti163  1  0.20837363  0.60057427  0.41613564  1
  Ti  Ti164  1  0.59247703  0.80589017  0.59771604  1
  Ti  Ti165  1  0.29476884  0.90489174  0.69051847  1
  Ti  Ti166  1  0.50545219  0.90311172  0.89280977  1
  Ti  Ti167  1  0.00103980  -0.00611099  0.19645710  1
  Ti  Ti168  1  0.49552383  0.90082576  0.49453918  1
  Ti  Ti169  1  0.89839204  0.28572580  0.90469714  1
  Ti  Ti170  1  0.79579027  0.00421874  0.19917368  1
  Ti  Ti171  1  0.59970948  0.21024176  0.60016825  1
  Ti  Ti172  1  0.50001474  0.30504601  0.50002618  1
  Ti  Ti173  1  0.20051008  0.19337986  0.41649839  1
  Ti  Ti174  1  0.01201790  0.59550210  0.40452358  1
  Ti  Ti175  1  0.69915858  0.49675060  0.69704969  1
  Ti  Ti176  1  0.21152474  0.39176703  0.59723838  1
  Ti  Ti177  1  0.31165747  0.47854212  0.69681344  1
  Ti  Ti178  1  0.08974090  0.10054471  0.09062291  1
  Ti  Ti179  1  0.40053262  0.39099609  0.40869258  1
  Ti  Ti180  1  0.48993908  0.70696708  0.31435616  1
  Ti  Ti181  1  0.79151694  0.18932555  0.19853690  1
  Ti  Ti182  1  0.31666590  0.89700752  0.31209474  1
  Ti  Ti183  1  0.30813607  0.29604072  0.90634515  1
  Ti  Ti184  1  0.79301740  0.00395442  0.60022574  1
  Ti  Ti185  1  0.20647364  0.59533145  0.20070752  1
  Ti  Ti186  1  0.50611831  0.50247472  0.09679971  1
  Ti  Ti187  1  0.19728170  0.00738995  0.58995128  1
  Ti  Ti188  1  0.59684877  0.19800449  0.20443874  1
  Ti  Ti189  1  0.59213258  -0.00884316  0.60269867  1
  Ti  Ti190  1  0.80081631  0.80098080  -0.00665321  1
  Ti  Ti191  1  0.31016969  0.48826766  0.90375746  1
  Ti  Ti192  1  0.79365011  0.39384595  0.59834167  1
  Ti  Ti193  1  0.30460722  0.49798816  0.50415733  1
  Ti  Ti194  1  0.10137069  0.28658993  0.30709992  1
  Ti  Ti195  1  0.90000551  0.09375832  0.69715250  1
  Ti  Ti196  1  0.08860005  0.08770980  0.69736051  1
  Ti  Ti197  1  0.90198824  0.30248424  0.50142841  1
  Ti  Ti198  1  0.89687628  0.50396695  0.89556577  1
  Ti  Ti199  1  0.90203491  0.91299309  0.30303381  1
  Mo  Mo200  1  0.09482555  0.89799663  0.29893635  1
  Mo  Mo201  1  0.20395110  0.80528983  -0.02192617  1
  Mo  Mo202  1  -0.00250437  0.00079073  0.60495919  1
  Mo  Mo203  1  0.29705527  0.71283913  0.89889782  1
  Mo  Mo204  1  0.50717880  0.91212761  0.09954063  1
  Mo  Mo205  1  0.70869117  0.69735607  0.89780981  1
  Mo  Mo206  1  0.71020376  0.29923414  0.69457513  1
  Mo  Mo207  1  0.20128448  0.82066953  0.60089302  1
  Mo  Mo208  1  0.40373309  0.80848962  0.40550852  1
  Mo  Mo209  1  0.59617198  0.00355287  0.39729085  1
  Mo  Mo210  1  0.70689200  0.49575790  0.90220204  1
  Mo  Mo211  1  0.40004098  0.40442286  0.59341520  1
  Mo  Mo212  1  0.08334832  0.90149118  0.89739063  1
  Mo  Mo213  1  0.51100427  0.09714539  0.30267822  1
  Mo  Mo214  1  -0.00486170  0.00181326  0.39355792  1
  Mo  Mo215  1  0.69744676  0.10583719  0.50267326  1
  Mo  Mo216  1  0.09916493  0.10187953  0.49908690  1
  Mo  Mo217  1  0.69985173  0.90316393  0.89917867  1
  Mo  Mo218  1  0.30119654  0.49183580  0.09663702  1
  Mo  Mo219  1  0.50977877  0.29968511  0.30517742  1
  Mo  Mo220  1  0.09964590  0.29289352  0.09473759  1
  Mo  Mo221  1  0.00361115  0.40185020  0.59418422  1
  Mo  Mo222  1  0.59357571  0.60233505  0.60256528  1
  Mo  Mo223  1  -0.00708730  -0.00144302  0.79812646  1
  Mo  Mo224  1  0.31296621  0.90720640  0.89401800  1
  Mo  Mo225  1  0.40077251  -0.00753234  0.59591126  1
  Mo  Mo226  1  0.40386897  0.20059966  -0.00268227  1
  Mo  Mo227  1  0.79268703  0.00240250  0.38862106  1
  Mo  Mo228  1  0.29525982  0.30371129  0.49845859  1
  Mo  Mo229  1  0.78496686  0.59899882  0.19802205  1
  Mo  Mo230  1  0.69491774  0.90975078  0.29827598  1
  Mo  Mo231  1  0.39912623  0.40106753  0.80704850  1
  Mo  Mo232  1  -0.00439427  0.19352194  0.00612283  1
  Mo  Mo233  1  0.69151898  0.70194675  0.30467568  1
  Mo  Mo234  1  0.41460865  0.00090500  -0.00864053  1
  Mo  Mo235  1  0.60053436  0.39787672  0.20056077  1
  Mo  Mo236  1  0.29561770  0.70543681  0.50203834  1
  Mo  Mo237  1  0.30107900  0.09399077  0.49694815  1
  Mo  Mo238  1  0.50568866  0.89961014  0.69701153  1
  Mo  Mo239  1  0.39833469  0.60705044  0.41734892  1
  Mo  Mo240  1  0.89851874  0.09247822  0.10769633  1
  Mo  Mo241  1  0.27920074  0.71827152  0.69068884  1
  Mo  Mo242  1  0.11256486  0.51448823  0.31737786  1
  Mo  Mo243  1  0.29527401  0.30667610  0.69669169  1
  Mo  Mo244  1  0.39487226  0.58875941  -0.00196673  1
  Mo  Mo245  1  0.80100328  0.00180473  0.00618125  1
  Mo  Mo246  1  0.20442053  0.58148125  0.60186977  1
  Mo  Mo247  1  0.69736365  0.09981947  0.11191851  1
  Mo  Mo248  1  0.59969509  0.80389835  0.79092977  1
  Mo  Mo249  1  0.50566193  0.29743822  0.10102447  1
