# generated using pymatgen
data_HfZrTaTiMo
_symmetry_space_group_name_H-M   'P 1'
_cell_length_a   16.88410598
_cell_length_b   16.88288897
_cell_length_c   16.88458066
_cell_angle_alpha   89.99528660
_cell_angle_beta   90.01138868
_cell_angle_gamma   89.95738311
_symmetry_Int_Tables_number   1
_chemical_formula_structural   HfZrTaTiMo
_chemical_formula_sum   'Hf50 Zr50 Ta50 Ti50 Mo50'
_cell_volume   4812.99025912
_cell_formula_units_Z   50
loop_
 _symmetry_equiv_pos_site_id
 _symmetry_equiv_pos_as_xyz
  1  'x, y, z'
loop_
 _atom_site_type_symbol
 _atom_site_label
 _atom_site_symmetry_multiplicity
 _atom_site_fract_x
 _atom_site_fract_y
 _atom_site_fract_z
 _atom_site_occupancy
  Hf  Hf0  1  0.48243861  0.09282857  0.29131898  1
  Hf  Hf1  1  0.30701523  0.50892749  0.49699435  1
  Hf  Hf2  1  0.29873048  0.09446043  0.69946759  1
  Hf  Hf3  1  0.20705883  0.39913068  0.19519498  1
  Hf  Hf4  1  0.79674351  0.59593739  0.60040745  1
  Hf  Hf5  1  0.90948414  0.29640297  0.30249005  1
  Hf  Hf6  1  0.59278834  0.40519025  0.79134966  1
  Hf  Hf7  1  0.30039810  0.50389121  0.69324340  1
  Hf  Hf8  1  0.40104689  -0.01197754  0.60132901  1
  Hf  Hf9  1  0.19216088  0.19761328  0.58522224  1
  Hf  Hf10  1  0.90531683  0.08299133  0.71423664  1
  Hf  Hf11  1  0.20287637  -0.00659229  0.80230286  1
  Hf  Hf12  1  0.68894961  0.49739188  0.09732713  1
  Hf  Hf13  1  0.79993569  0.60262272  0.19724879  1
  Hf  Hf14  1  0.69801192  0.10447107  0.89854380  1
  Hf  Hf15  1  0.69236387  0.09941859  0.29375204  1
  Hf  Hf16  1  0.79115331  0.60305216  0.79781585  1
  Hf  Hf17  1  0.80019333  0.39818784  -0.00032902  1
  Hf  Hf18  1  0.30321573  0.90219463  0.90775614  1
  Hf  Hf19  1  0.59857967  0.60013158  0.60071821  1
  Hf  Hf20  1  0.69516706  0.30332324  0.51298993  1
  Hf  Hf21  1  0.69740365  0.49607062  0.89274507  1
  Hf  Hf22  1  0.30046217  0.30285984  0.90585245  1
  Hf  Hf23  1  0.10008670  0.50054365  0.69360305  1
  Hf  Hf24  1  0.90638739  0.49942272  0.90635411  1
  Hf  Hf25  1  0.20108596  0.79953909  0.39731454  1
  Hf  Hf26  1  0.50647696  0.10238157  0.69723549  1
  Hf  Hf27  1  0.80037544  0.61237206  0.00429878  1
  Hf  Hf28  1  0.30971351  0.09081042  0.10648231  1
  Hf  Hf29  1  0.89986281  0.70721495  0.90292024  1
  Hf  Hf30  1  0.80114477  0.80525713  0.38764240  1
  Hf  Hf31  1  0.69478046  0.89468370  0.49701931  1
  Hf  Hf32  1  0.40120944  0.78998307  0.59664913  1
  Hf  Hf33  1  0.58228652  0.00860319  -0.00216398  1
  Hf  Hf34  1  0.80076924  0.80023559  0.60373613  1
  Hf  Hf35  1  0.20773376  0.60721911  0.20024483  1
  Hf  Hf36  1  0.90033179  0.69946085  0.49160267  1
  Hf  Hf37  1  0.58820770  0.80895574  0.20040560  1
  Hf  Hf38  1  0.80015471  0.19756479  0.39837703  1
  Hf  Hf39  1  0.81243303  0.79678891  0.18860557  1
  Hf  Hf40  1  0.40509191  0.59759438  0.79541210  1
  Hf  Hf41  1  0.51022907  0.88823817  0.69838656  1
  Hf  Hf42  1  0.19902931  0.18465058  0.39863808  1
  Hf  Hf43  1  0.01650190  0.00090489  0.39259841  1
  Hf  Hf44  1  0.30989720  0.90097611  0.29784039  1
  Hf  Hf45  1  0.90740814  0.29734069  0.51250950  1
  Hf  Hf46  1  0.39000642  0.80152646  0.79085149  1
  Hf  Hf47  1  0.58486262  -0.00425266  0.19276097  1
  Hf  Hf48  1  0.48898937  0.29909279  0.31089016  1
  Hf  Hf49  1  0.00262921  0.80315926  0.59380257  1
  Zr  Zr50  1  0.80373581  0.19740262  0.61175146  1
  Zr  Zr51  1  0.00073271  0.59809119  0.80135098  1
  Zr  Zr52  1  0.48823306  0.71166332  0.31738630  1
  Zr  Zr53  1  0.40263249  0.19731666  0.59669438  1
  Zr  Zr54  1  0.30622573  0.29682676  0.29777467  1
  Zr  Zr55  1  -0.00526177  0.80245031  0.00728826  1
  Zr  Zr56  1  0.09607853  0.49702956  0.08846614  1
  Zr  Zr57  1  0.90080751  0.90146655  0.48960624  1
  Zr  Zr58  1  0.80193739  0.40310121  0.40648656  1
  Zr  Zr59  1  0.19699057  0.39496412  0.59181795  1
  Zr  Zr60  1  0.59804948  -0.00629201  0.80743724  1
  Zr  Zr61  1  0.08322825  0.29903527  0.69167153  1
  Zr  Zr62  1  0.10561874  0.69915550  0.69061088  1
  Zr  Zr63  1  0.30622474  0.10232648  0.90401075  1
  Zr  Zr64  1  0.80418000  0.20510827  0.80422425  1
  Zr  Zr65  1  0.90450727  0.09354543  0.10132835  1
  Zr  Zr66  1  0.49910041  0.70344559  0.89621197  1
  Zr  Zr67  1  0.91051683  0.30631706  0.09975387  1
  Zr  Zr68  1  0.90404446  0.09781110  0.50354137  1
  Zr  Zr69  1  0.19954300  0.59903857  0.80445083  1
  Zr  Zr70  1  0.00111109  0.20035692  0.00184463  1
  Zr  Zr71  1  0.00734880  0.40553950  0.40632186  1
  Zr  Zr72  1  0.68345118  0.29745623  0.09088104  1
  Zr  Zr73  1  0.69474398  0.70077219  0.30567815  1
  Zr  Zr74  1  0.79678381  0.40137855  0.20580139  1
  Zr  Zr75  1  0.09603980  0.09837620  0.69998558  1
  Zr  Zr76  1  0.90036725  0.91693197  0.89575709  1
  Zr  Zr77  1  0.19803166  -0.00364953  0.40203620  1
  Zr  Zr78  1  0.49376734  0.69760151  0.10086225  1
  Zr  Zr79  1  -0.00745590  0.59328639  0.59071511  1
  Zr  Zr80  1  0.91028232  0.69499634  0.30249819  1
  Zr  Zr81  1  0.79852242  -0.00420502  0.20172946  1
  Zr  Zr82  1  0.79857058  0.80870627  0.79728655  1
  Zr  Zr83  1  0.11155143  0.89985326  0.69106265  1
  Zr  Zr84  1  0.58922281  0.39963350  0.20975208  1
  Zr  Zr85  1  0.19365192  0.20534508  0.80603819  1
  Zr  Zr86  1  0.30404455  0.49783307  0.09687807  1
  Zr  Zr87  1  0.60200925  0.60697001  -0.01184611  1
  Zr  Zr88  1  0.19863889  0.00027104  0.00700077  1
  Zr  Zr89  1  0.20047581  0.79879230  0.01237792  1
  Zr  Zr90  1  0.69607792  0.09543698  0.50739872  1
  Zr  Zr91  1  0.30033558  0.69784935  0.90552624  1
  Zr  Zr92  1  0.70077234  0.89995197  0.08815453  1
  Zr  Zr93  1  0.59044556  0.19047292  0.40545842  1
  Zr  Zr94  1  0.59238736  0.59967519  0.20597297  1
  Zr  Zr95  1  0.30579418  0.31223535  0.48281505  1
  Zr  Zr96  1  0.79724141  0.20327638  0.19935329  1
  Zr  Zr97  1  0.30479306  0.30021877  0.70540572  1
  Zr  Zr98  1  0.50526396  0.30295115  0.50882154  1
  Zr  Zr99  1  0.11211979  0.30341171  0.30353903  1
  Ta  Ta100  1  0.19680769  0.59882527  -0.00044582  1
  Ta  Ta101  1  0.79775819  0.00057299  0.39129971  1
  Ta  Ta102  1  0.80193361  -0.01101663  0.61091935  1
  Ta  Ta103  1  0.40953277  0.19700620  0.00344451  1
  Ta  Ta104  1  0.40127504  0.39371357  0.00135492  1
  Ta  Ta105  1  0.39591531  0.17811674  0.40963858  1
  Ta  Ta106  1  0.69090527  0.70351075  0.49782157  1
  Ta  Ta107  1  0.09605784  0.90536677  0.11001077  1
  Ta  Ta108  1  0.00416408  0.80120914  0.20079489  1
  Ta  Ta109  1  0.69676646  0.30895336  0.69795306  1
  Ta  Ta110  1  0.90083605  0.70235329  0.70197936  1
  Ta  Ta111  1  0.90804041  0.50428357  0.10016531  1
  Ta  Ta112  1  0.89112722  0.48800686  0.70216963  1
  Ta  Ta113  1  0.01606617  0.19244806  0.40735129  1
  Ta  Ta114  1  0.90337553  0.50397214  0.29925320  1
  Ta  Ta115  1  0.00653209  -0.00520278  0.59438959  1
  Ta  Ta116  1  0.49659425  0.49678506  0.09319705  1
  Ta  Ta117  1  0.50235980  0.88345528  0.49185922  1
  Ta  Ta118  1  0.59682610  -0.00454308  0.59476227  1
  Ta  Ta119  1  0.10953356  0.69627249  0.49589964  1
  Ta  Ta120  1  0.09568672  0.70038835  0.90590822  1
  Ta  Ta121  1  0.50241258  0.30102520  0.90112882  1
  Ta  Ta122  1  0.01470097  0.19678503  0.20518453  1
  Ta  Ta123  1  0.00492628  0.40523772  0.20314150  1
  Ta  Ta124  1  0.09141480  0.09773190  0.90319478  1
  Ta  Ta125  1  0.59603952  0.40879200  0.40400663  1
  Ta  Ta126  1  0.58981571  -0.00652971  0.39685182  1
  Ta  Ta127  1  -0.00388797  0.20508084  0.80663794  1
  Ta  Ta128  1  0.30021571  0.49271279  0.90387289  1
  Ta  Ta129  1  0.69787247  0.09547795  0.70248200  1
  Ta  Ta130  1  0.09765117  0.30938020  0.91104804  1
  Ta  Ta131  1  0.41005937  0.40386302  0.60551781  1
  Ta  Ta132  1  0.00373576  0.80608308  0.79582561  1
  Ta  Ta133  1  0.00104807  0.40035390  0.80523772  1
  Ta  Ta134  1  0.49481460  0.50635559  0.50053549  1
  Ta  Ta135  1  0.09621193  0.69657848  0.10192813  1
  Ta  Ta136  1  0.91085275  0.09888938  0.29857151  1
  Ta  Ta137  1  0.11469728  0.50714224  0.49303081  1
  Ta  Ta138  1  0.69402106  0.30426484  0.89780222  1
  Ta  Ta139  1  0.69103978  0.10684822  0.09251594  1
  Ta  Ta140  1  0.40543870  -0.00198578  0.80275206  1
  Ta  Ta141  1  0.69703520  0.50372345  0.31033265  1
  Ta  Ta142  1  0.20093562  0.20354550  0.01130644  1
  Ta  Ta143  1  0.39518045  0.80562078  0.01307840  1
  Ta  Ta144  1  0.19211327  0.40448902  0.80660876  1
  Ta  Ta145  1  0.79963096  0.20133946  -0.00349354  1
  Ta  Ta146  1  0.69489958  0.49757905  0.50505434  1
  Ta  Ta147  1  0.59785969  0.20733439  0.79702353  1
  Ta  Ta148  1  0.69014156  0.70348610  0.70187704  1
  Ta  Ta149  1  0.19904864  0.80025307  0.80002388  1
  Ti  Ti150  1  0.09397891  0.90256215  0.90394407  1
  Ti  Ti151  1  0.09896289  0.69868573  0.29913007  1
  Ti  Ti152  1  0.48863417  0.50393357  0.30982658  1
  Ti  Ti153  1  0.00327002  0.59294416  0.40104377  1
  Ti  Ti154  1  0.40168457  0.39809191  0.19545046  1
  Ti  Ti155  1  0.59615003  0.80406400  -0.00431944  1
  Ti  Ti156  1  0.01420214  0.80886198  0.39427137  1
  Ti  Ti157  1  0.29130220  0.69618142  0.68574523  1
  Ti  Ti158  1  0.79726291  0.00797661  -0.00099359  1
  Ti  Ti159  1  0.30907206  0.49572125  0.30958845  1
  Ti  Ti160  1  0.30441563  0.09387723  0.29158361  1
  Ti  Ti161  1  0.70653606  0.89972217  0.90565183  1
  Ti  Ti162  1  0.09753419  0.09334925  0.10421710  1
  Ti  Ti163  1  0.79867785  0.59415746  0.40501257  1
  Ti  Ti164  1  0.89816198  0.30947481  0.70087746  1
  Ti  Ti165  1  0.20130346  0.79788392  0.19992214  1
  Ti  Ti166  1  0.50169898  0.30273258  0.09133665  1
  Ti  Ti167  1  0.10554991  0.50337170  0.30051904  1
  Ti  Ti168  1  0.29191656  0.89280677  0.51048093  1
  Ti  Ti169  1  0.40298556  -0.00708963  0.40900344  1
  Ti  Ti170  1  -0.00293939  0.40870258  0.59133266  1
  Ti  Ti171  1  0.69088293  0.90042377  0.30089227  1
  Ti  Ti172  1  0.90493112  0.90933203  0.09531311  1
  Ti  Ti173  1  0.10339264  0.30573689  0.09690652  1
  Ti  Ti174  1  0.00224916  0.60030632  0.19810625  1
  Ti  Ti175  1  0.39508750  0.60020754  0.00201535  1
  Ti  Ti176  1  0.49063670  0.89684980  0.90443159  1
  Ti  Ti177  1  0.69520306  0.90058600  0.69902353  1
  Ti  Ti178  1  0.58619653  0.19736236  0.19306401  1
  Ti  Ti179  1  0.90178730  0.30769663  0.89916699  1
  Ti  Ti180  1  0.68962111  0.29988033  0.30550529  1
  Ti  Ti181  1  0.50821397  0.69887242  0.69959516  1
  Ti  Ti182  1  0.30992904  0.70437857  0.30260228  1
  Ti  Ti183  1  0.41014964  0.20074874  0.80331054  1
  Ti  Ti184  1  0.40432844  0.40096455  0.79833842  1
  Ti  Ti185  1  0.30434364  0.69286999  0.49730137  1
  Ti  Ti186  1  0.40135734  0.20626936  0.18781448  1
  Ti  Ti187  1  0.59340377  0.60102879  0.40637487  1
  Ti  Ti188  1  0.69632200  0.71078676  0.09369028  1
  Ti  Ti189  1  0.60688074  0.79605698  0.80978033  1
  Ti  Ti190  1  0.39636110  0.60031112  0.20281987  1
  Ti  Ti191  1  0.29781447  0.08546274  0.50620652  1
  Ti  Ti192  1  0.19507787  -0.00372003  0.20653732  1
  Ti  Ti193  1  0.20062803  0.19663240  0.19298451  1
  Ti  Ti194  1  0.50171002  0.50371105  0.69369731  1
  Ti  Ti195  1  0.20576457  0.60400580  0.39129394  1
  Ti  Ti196  1  0.39654773  0.80735643  0.19142419  1
  Ti  Ti197  1  0.91242989  0.90758512  0.29132221  1
  Ti  Ti198  1  0.49692095  0.49740864  0.90485812  1
  Ti  Ti199  1  0.90459617  0.09303194  0.89976109  1
  Mo  Mo200  1  0.20344024  -0.00559243  0.59604352  1
  Mo  Mo201  1  0.49694639  0.10672365  0.09964457  1
  Mo  Mo202  1  0.60007307  0.80255355  0.40039938  1
  Mo  Mo203  1  0.10641084  0.10018027  0.28696233  1
  Mo  Mo204  1  0.39905008  -0.01118719  0.19246566  1
  Mo  Mo205  1  0.70006868  0.49792484  0.69736488  1
  Mo  Mo206  1  0.00059010  0.40069710  -0.00027870  1
  Mo  Mo207  1  0.40491597  -0.00178940  0.00061008  1
  Mo  Mo208  1  0.79117052  -0.00060864  0.79805821  1
  Mo  Mo209  1  0.10484615  0.89255880  0.29100435  1
  Mo  Mo210  1  0.00530924  0.00132194  0.00249574  1
  Mo  Mo211  1  0.39748887  0.60607792  0.40068203  1
  Mo  Mo212  1  0.30163050  0.89647668  0.70199091  1
  Mo  Mo213  1  0.49148419  0.90091914  0.30474809  1
  Mo  Mo214  1  0.89356582  0.50137226  0.49661700  1
  Mo  Mo215  1  0.29734004  0.89985544  0.10897886  1
  Mo  Mo216  1  0.10044285  0.09447975  0.50764606  1
  Mo  Mo217  1  0.60230528  0.79613697  0.59962840  1
  Mo  Mo218  1  0.39161649  0.80209380  0.41009113  1
  Mo  Mo219  1  0.49154239  0.90072940  0.09161743  1
  Mo  Mo220  1  0.49639578  0.08324445  0.50109657  1
  Mo  Mo221  1  0.49664160  0.10996670  0.89537430  1
  Mo  Mo222  1  0.90869497  0.90022734  0.69934195  1
  Mo  Mo223  1  0.79748261  0.40361163  0.60615020  1
  Mo  Mo224  1  0.79750034  0.80473992  0.00106683  1
  Mo  Mo225  1  0.59899655  0.40900850  0.60278374  1
  Mo  Mo226  1  0.59786521  0.60135746  0.79220836  1
  Mo  Mo227  1  0.00253119  0.60479115  0.00270059  1
  Mo  Mo228  1  0.20362523  0.41644088  0.39099292  1
  Mo  Mo229  1  0.30497776  0.29349070  0.09885081  1
  Mo  Mo230  1  0.20392074  0.39647534  -0.00282432  1
  Mo  Mo231  1  0.50223492  0.30138150  0.70486841  1
  Mo  Mo232  1  -0.00185429  0.19540565  0.60325185  1
  Mo  Mo233  1  0.09500934  0.30170199  0.49653733  1
  Mo  Mo234  1  0.49971487  0.69686111  0.50101981  1
  Mo  Mo235  1  0.10471848  0.89376739  0.49696761  1
  Mo  Mo236  1  0.00972916  -0.00343781  0.80459270  1
  Mo  Mo237  1  0.40573135  0.60396489  0.60091266  1
  Mo  Mo238  1  0.69938481  0.71142214  0.89908304  1
  Mo  Mo239  1  0.80148975  0.39693062  0.79866048  1
  Mo  Mo240  1  0.60357085  0.19438317  0.61129955  1
  Mo  Mo241  1  0.29843996  0.69815697  0.10706536  1
  Mo  Mo242  1  0.90953458  0.69555741  0.10229612  1
  Mo  Mo243  1  0.40660267  0.41169729  0.40123725  1
  Mo  Mo244  1  0.59535842  0.20333595  -0.00719300  1
  Mo  Mo245  1  0.58897995  0.40269432  -0.01019958  1
  Mo  Mo246  1  0.00475924  -0.00187502  0.20092134  1
  Mo  Mo247  1  0.20414862  0.60381485  0.59039496  1
  Mo  Mo248  1  0.10275952  0.49811624  0.90129047  1
  Mo  Mo249  1  0.20697546  0.79542937  0.59294997  1
