# generated using pymatgen
data_HfZrTaTiMo
_symmetry_space_group_name_H-M   'P 1'
_cell_length_a   16.88927193
_cell_length_b   16.88716150
_cell_length_c   16.88213670
_cell_angle_alpha   89.98247271
_cell_angle_beta   90.04502003
_cell_angle_gamma   89.99277245
_symmetry_Int_Tables_number   1
_chemical_formula_structural   HfZrTaTiMo
_chemical_formula_sum   'Hf50 Zr50 Ta50 Ti50 Mo50'
_cell_volume   4814.98390519
_cell_formula_units_Z   50
loop_
 _symmetry_equiv_pos_site_id
 _symmetry_equiv_pos_as_xyz
  1  'x, y, z'
loop_
 _atom_site_type_symbol
 _atom_site_label
 _atom_site_symmetry_multiplicity
 _atom_site_fract_x
 _atom_site_fract_y
 _atom_site_fract_z
 _atom_site_occupancy
  Hf  Hf0  1  0.40365461  0.80249572  0.00152394  1
  Hf  Hf1  1  0.78560109  0.40654701  -0.00594468  1
  Hf  Hf2  1  0.79335213  0.60200355  0.59993794  1
  Hf  Hf3  1  0.50439705  0.29621468  0.09893903  1
  Hf  Hf4  1  0.89712783  0.70531221  0.89758688  1
  Hf  Hf5  1  0.00272144  0.00001661  0.80763141  1
  Hf  Hf6  1  0.19744976  -0.00870378  -0.00194604  1
  Hf  Hf7  1  0.90502039  0.70001133  0.70991458  1
  Hf  Hf8  1  0.30174157  0.70208758  0.50141303  1
  Hf  Hf9  1  0.70305899  0.71347154  0.70590447  1
  Hf  Hf10  1  0.89292404  0.09329137  0.90162449  1
  Hf  Hf11  1  0.41310347  0.39077921  0.59802822  1
  Hf  Hf12  1  0.10405976  0.89658595  0.70607882  1
  Hf  Hf13  1  0.89334331  0.49665468  0.70332754  1
  Hf  Hf14  1  0.19714743  0.60171270  0.20414329  1
  Hf  Hf15  1  0.10286017  0.28991581  0.90367004  1
  Hf  Hf16  1  0.40305754  0.59890159  0.40050992  1
  Hf  Hf17  1  0.49994526  0.90189385  0.29840017  1
  Hf  Hf18  1  0.30154883  0.31341541  0.30056853  1
  Hf  Hf19  1  0.50714290  0.49946691  0.50406808  1
  Hf  Hf20  1  0.90308658  0.69040387  0.09880792  1
  Hf  Hf21  1  0.00304600  0.80705200  0.00264409  1
  Hf  Hf22  1  0.39741868  0.20175627  0.20206535  1
  Hf  Hf23  1  0.60883585  0.40089545  0.80486297  1
  Hf  Hf24  1  0.70485617  0.49054017  0.50302572  1
  Hf  Hf25  1  0.88901315  0.10421529  0.70428659  1
  Hf  Hf26  1  0.30897515  0.90873211  0.50142992  1
  Hf  Hf27  1  0.60143658  0.00811599  0.61168136  1
  Hf  Hf28  1  -0.00263206  -0.01166783  0.58975417  1
  Hf  Hf29  1  0.60442708  0.59780979  0.80468107  1
  Hf  Hf30  1  0.19919681  0.81052189  0.59816822  1
  Hf  Hf31  1  0.89811688  0.49862484  0.49447720  1
  Hf  Hf32  1  0.60778876  -0.00044791  0.40017954  1
  Hf  Hf33  1  0.90026040  0.29612575  0.09537282  1
  Hf  Hf34  1  0.40382824  0.21262907  0.41018166  1
  Hf  Hf35  1  0.00536441  0.40427682  0.59931048  1
  Hf  Hf36  1  0.80060233  0.40966137  0.19613717  1
  Hf  Hf37  1  0.80656558  0.80527269  0.59418509  1
  Hf  Hf38  1  -0.01028583  0.80950553  0.40013476  1
  Hf  Hf39  1  0.11301750  0.09041270  0.70016840  1
  Hf  Hf40  1  0.89453828  0.89522391  0.71766051  1
  Hf  Hf41  1  0.78416624  0.59258180  0.80813254  1
  Hf  Hf42  1  0.19623189  0.59525602  0.59748331  1
  Hf  Hf43  1  0.40216138  0.39764189  -0.00582965  1
  Hf  Hf44  1  -0.00455740  0.40262485  0.00325065  1
  Hf  Hf45  1  0.09291037  0.90066695  0.29627475  1
  Hf  Hf46  1  0.48915496  0.08920238  0.49996340  1
  Hf  Hf47  1  0.70777346  0.70847637  0.29699783  1
  Hf  Hf48  1  0.89582755  0.30147293  0.49861782  1
  Hf  Hf49  1  0.20726418  0.39800756  0.80408575  1
  Zr  Zr50  1  0.40110835  -0.00469344  -0.00304197  1
  Zr  Zr51  1  0.89054975  0.29826099  0.88615314  1
  Zr  Zr52  1  0.08943115  0.30654431  0.30938271  1
  Zr  Zr53  1  0.68738629  0.29390498  0.10394824  1
  Zr  Zr54  1  0.60196145  0.79249005  0.18233423  1
  Zr  Zr55  1  0.79128012  0.19833315  -0.00674715  1
  Zr  Zr56  1  0.19009935  -0.01040674  0.40512715  1
  Zr  Zr57  1  0.30379513  0.70420077  0.89296529  1
  Zr  Zr58  1  0.19475142  0.19265850  0.20181392  1
  Zr  Zr59  1  -0.00149089  0.60653343  0.39084706  1
  Zr  Zr60  1  0.89188655  0.29858386  0.69754569  1
  Zr  Zr61  1  0.90020318  0.11059956  0.48814440  1
  Zr  Zr62  1  0.31638144  0.49765081  0.69902099  1
  Zr  Zr63  1  0.31164864  0.08339294  0.30638945  1
  Zr  Zr64  1  0.20047457  0.19509966  0.39779760  1
  Zr  Zr65  1  0.01287298  0.40476459  0.79804673  1
  Zr  Zr66  1  0.29877386  0.69884776  0.09955524  1
  Zr  Zr67  1  0.09758327  0.70185502  0.49800228  1
  Zr  Zr68  1  0.19853603  0.41518719  0.40458241  1
  Zr  Zr69  1  0.29969663  0.29934585  0.09627737  1
  Zr  Zr70  1  0.30355829  0.08888699  0.89060115  1
  Zr  Zr71  1  0.31323909  0.50914959  0.89722852  1
  Zr  Zr72  1  0.10015972  0.10005644  0.50228344  1
  Zr  Zr73  1  0.79614281  0.00206369  0.59702597  1
  Zr  Zr74  1  0.50110496  0.89843246  0.50434616  1
  Zr  Zr75  1  0.70382789  0.10029883  0.30033971  1
  Zr  Zr76  1  0.30194678  0.70656629  0.70683243  1
  Zr  Zr77  1  0.70442573  0.90269436  0.89953274  1
  Zr  Zr78  1  0.19191418  0.40658120  0.19566949  1
  Zr  Zr79  1  0.89972461  0.29425522  0.31347303  1
  Zr  Zr80  1  0.80585942  0.19145946  0.20281759  1
  Zr  Zr81  1  0.90312510  0.51151868  0.90617611  1
  Zr  Zr82  1  0.40399302  0.19728881  0.61178024  1
  Zr  Zr83  1  0.59873715  0.19894128  0.60566550  1
  Zr  Zr84  1  0.28848074  0.30543298  0.50911308  1
  Zr  Zr85  1  0.50286657  0.09982843  0.29775657  1
  Zr  Zr86  1  0.11155488  0.29511333  0.69392849  1
  Zr  Zr87  1  0.69941809  0.89040828  0.49133404  1
  Zr  Zr88  1  0.60681356  0.60074289  0.40478859  1
  Zr  Zr89  1  0.19872410  0.40369205  -0.00293859  1
  Zr  Zr90  1  0.50220735  0.10499767  0.09669265  1
  Zr  Zr91  1  0.08155158  0.51751778  0.09870469  1
  Zr  Zr92  1  0.69327841  0.29865608  0.30405237  1
  Zr  Zr93  1  0.40488117  0.79417311  0.40072528  1
  Zr  Zr94  1  0.51081270  0.69681776  0.29604794  1
  Zr  Zr95  1  0.09454942  0.70396746  0.89322708  1
  Zr  Zr96  1  0.69774248  0.09468028  0.09694635  1
  Zr  Zr97  1  0.00013169  0.19161009  0.20033537  1
  Zr  Zr98  1  0.50000316  0.70396304  0.70321570  1
  Zr  Zr99  1  0.19132033  0.59168204  0.79289079  1
  Ta  Ta100  1  0.49672244  0.70087683  0.89632650  1
  Ta  Ta101  1  0.49743857  0.90008733  0.89295010  1
  Ta  Ta102  1  0.59936923  0.79520392  -0.00189084  1
  Ta  Ta103  1  -0.00412422  0.80329547  0.59421318  1
  Ta  Ta104  1  0.40866181  0.60196518  0.19701079  1
  Ta  Ta105  1  0.59722039  0.40589049  -0.00539846  1
  Ta  Ta106  1  0.29936803  0.90162404  0.10702334  1
  Ta  Ta107  1  0.40918837  0.60441697  0.59842659  1
  Ta  Ta108  1  0.09638301  0.09162657  0.09561012  1
  Ta  Ta109  1  0.59893921  -0.00549897  -0.00430376  1
  Ta  Ta110  1  0.79901897  0.59935996  0.19857034  1
  Ta  Ta111  1  0.89233314  0.89877770  0.90532529  1
  Ta  Ta112  1  0.70986304  0.29847500  0.50352245  1
  Ta  Ta113  1  -0.00979340  0.40790140  0.19844997  1
  Ta  Ta114  1  0.71044422  0.29685586  0.70309234  1
  Ta  Ta115  1  0.49804367  0.50439200  0.89731860  1
  Ta  Ta116  1  0.90187792  0.08169530  0.09880386  1
  Ta  Ta117  1  0.80840250  -0.00454861  0.39409940  1
  Ta  Ta118  1  0.60347083  0.19602371  0.79998232  1
  Ta  Ta119  1  0.19574892  -0.00138772  0.19929955  1
  Ta  Ta120  1  0.19949771  0.80569036  0.00281204  1
  Ta  Ta121  1  0.30743966  0.50631094  0.10098824  1
  Ta  Ta122  1  0.70667852  0.90096419  0.09994260  1
  Ta  Ta123  1  0.50386114  0.49606711  0.29468064  1
  Ta  Ta124  1  0.19763093  0.60397749  0.00147583  1
  Ta  Ta125  1  0.70774778  0.89507503  0.29201966  1
  Ta  Ta126  1  0.30303776  0.89595167  0.29394252  1
  Ta  Ta127  1  0.29856796  0.70249886  0.29658656  1
  Ta  Ta128  1  0.00745442  0.19340615  0.79845644  1
  Ta  Ta129  1  0.40190170  0.80687995  0.60984605  1
  Ta  Ta130  1  0.40100732  0.79684693  0.19448416  1
  Ta  Ta131  1  0.21048451  0.19580286  0.80113418  1
  Ta  Ta132  1  0.60492396  0.39449849  0.60800593  1
  Ta  Ta133  1  0.09160459  0.70736420  0.70462226  1
  Ta  Ta134  1  0.31094501  0.50470692  0.29568059  1
  Ta  Ta135  1  0.89193126  0.70157267  0.49264330  1
  Ta  Ta136  1  0.20298631  0.19155217  -0.00041982  1
  Ta  Ta137  1  0.60030147  0.60679766  0.00345266  1
  Ta  Ta138  1  0.60241429  -0.00513033  0.19446675  1
  Ta  Ta139  1  0.89238996  0.90056781  0.10084565  1
  Ta  Ta140  1  0.30369189  0.08904256  0.51110970  1
  Ta  Ta141  1  0.20323823  0.60056396  0.39345998  1
  Ta  Ta142  1  -0.00647740  0.79690352  0.20167802  1
  Ta  Ta143  1  0.59934500  0.80350017  0.80664339  1
  Ta  Ta144  1  0.00088207  0.19872171  0.60311162  1
  Ta  Ta145  1  0.29994819  0.09180431  0.10201639  1
  Ta  Ta146  1  0.70154302  0.90373817  0.71128209  1
  Ta  Ta147  1  0.79073361  0.79210755  0.00486192  1
  Ta  Ta148  1  0.19647682  0.80201734  0.19822094  1
  Ta  Ta149  1  0.09185899  0.29731206  0.49821080  1
  Ti  Ti150  1  0.19516746  0.41175497  0.60378757  1
  Ti  Ti151  1  0.30726526  0.50139548  0.50103165  1
  Ti  Ti152  1  0.49619068  0.90494212  0.70816785  1
  Ti  Ti153  1  0.19712751  0.79992913  0.39715344  1
  Ti  Ti154  1  0.29983376  0.91170896  0.71489551  1
  Ti  Ti155  1  0.00296603  -0.00564173  -0.00168670  1
  Ti  Ti156  1  0.50355257  0.50547200  0.10077994  1
  Ti  Ti157  1  0.70436954  0.09338376  0.89179998  1
  Ti  Ti158  1  0.59753375  0.39552224  0.40409831  1
  Ti  Ti159  1  0.60065833  0.80709116  0.60714472  1
  Ti  Ti160  1  0.50301494  0.29978419  0.71160991  1
  Ti  Ti161  1  0.70897996  0.11147433  0.49755184  1
  Ti  Ti162  1  0.09445632  0.90338730  0.10846063  1
  Ti  Ti163  1  0.80106722  0.60316981  0.39219435  1
  Ti  Ti164  1  0.08992450  0.50199477  0.29918991  1
  Ti  Ti165  1  0.50035905  0.90428421  0.10020827  1
  Ti  Ti166  1  0.30646781  0.30083111  0.70779785  1
  Ti  Ti167  1  0.00010019  0.60197049  0.60192791  1
  Ti  Ti168  1  0.39345074  0.20070937  -0.01024138  1
  Ti  Ti169  1  0.00114119  0.19066737  -0.00224955  1
  Ti  Ti170  1  0.09565688  0.29414655  0.09726486  1
  Ti  Ti171  1  0.09268299  0.51210466  0.90279131  1
  Ti  Ti172  1  0.10854132  0.89370701  0.88945803  1
  Ti  Ti173  1  0.50526027  0.30394811  0.29693244  1
  Ti  Ti174  1  0.60081711  0.20198479  -0.02055920  1
  Ti  Ti175  1  0.40513595  0.40661374  0.19644131  1
  Ti  Ti176  1  0.59755528  0.40508578  0.19735549  1
  Ti  Ti177  1  0.79682677  0.40493347  0.39082122  1
  Ti  Ti178  1  0.51230140  0.70636921  0.50693454  1
  Ti  Ti179  1  0.69169094  0.50482003  0.29605640  1
  Ti  Ti180  1  0.08034065  0.08908732  0.30372501  1
  Ti  Ti181  1  0.09504524  0.70119966  0.10123669  1
  Ti  Ti182  1  0.89434254  0.90367077  0.28870772  1
  Ti  Ti183  1  0.50053540  0.49921116  0.70535911  1
  Ti  Ti184  1  0.40909804  0.60437326  0.00465790  1
  Ti  Ti185  1  0.20918453  0.19255835  0.60490992  1
  Ti  Ti186  1  0.10476885  0.09846163  0.89984003  1
  Ti  Ti187  1  0.49944520  0.09600840  0.89333477  1
  Ti  Ti188  1  0.49599980  0.29989167  0.89310982  1
  Ti  Ti189  1  0.40910503  0.40041065  0.40308220  1
  Ti  Ti190  1  0.69950435  0.70858319  0.49333400  1
  Ti  Ti191  1  0.59804957  0.00594206  0.79849206  1
  Ti  Ti192  1  0.59673794  0.20530881  0.40770003  1
  Ti  Ti193  1  0.69142807  0.50763608  0.10243496  1
  Ti  Ti194  1  0.09777573  0.70429896  0.29458601  1
  Ti  Ti195  1  0.09221411  0.50169704  0.49419430  1
  Ti  Ti196  1  0.90352406  0.50533237  0.29655714  1
  Ti  Ti197  1  0.60596613  0.59718157  0.60722255  1
  Ti  Ti198  1  0.40155471  0.19627452  0.79805125  1
  Ti  Ti199  1  0.78669852  0.60175763  0.00409935  1
  Mo  Mo200  1  -0.00039462  0.60185712  0.79398425  1
  Mo  Mo201  1  0.09308465  0.50863901  0.69411782  1
  Mo  Mo202  1  0.09722575  0.89844879  0.49994619  1
  Mo  Mo203  1  0.80557674  0.79918150  0.19495863  1
  Mo  Mo204  1  0.29837871  0.89359505  0.89564033  1
  Mo  Mo205  1  0.40367828  0.81015821  0.80133408  1
  Mo  Mo206  1  0.39981143  -0.00892417  0.19505791  1
  Mo  Mo207  1  0.00158472  0.19879775  0.40345010  1
  Mo  Mo208  1  -0.00167735  -0.00611446  0.19510273  1
  Mo  Mo209  1  0.41094438  0.39179870  0.79947977  1
  Mo  Mo210  1  0.60388165  0.59102391  0.19516510  1
  Mo  Mo211  1  0.79744040  -0.00600883  0.00165754  1
  Mo  Mo212  1  0.79576190  0.00142761  0.80366450  1
  Mo  Mo213  1  0.59092671  0.20057711  0.21020451  1
  Mo  Mo214  1  0.79551880  0.19736570  0.40214624  1
  Mo  Mo215  1  0.40630219  -0.00113941  0.79765892  1
  Mo  Mo216  1  0.49979250  0.69581854  0.09342189  1
  Mo  Mo217  1  0.89456868  0.70157985  0.29424565  1
  Mo  Mo218  1  0.69029668  0.29959916  0.89637199  1
  Mo  Mo219  1  0.30371926  0.09342558  0.69962958  1
  Mo  Mo220  1  0.51556022  0.30460710  0.49661961  1
  Mo  Mo221  1  0.79544432  0.40057645  0.60098748  1
  Mo  Mo222  1  0.80063477  -0.00713178  0.20009307  1
  Mo  Mo223  1  0.78704645  0.40142861  0.80083336  1
  Mo  Mo224  1  0.69179415  0.50321701  0.91246840  1
  Mo  Mo225  1  0.79588322  0.20159455  0.59959860  1
  Mo  Mo226  1  -0.00505046  0.60522422  0.20511594  1
  Mo  Mo227  1  -0.00867607  -0.00235869  0.39317808  1
  Mo  Mo228  1  0.89793695  0.89919825  0.49072881  1
  Mo  Mo229  1  0.20348058  0.80547469  0.80211726  1
  Mo  Mo230  1  0.80509236  0.80096150  0.39310769  1
  Mo  Mo231  1  0.90372511  0.08749244  0.29932239  1
  Mo  Mo232  1  0.60621834  0.79968081  0.40013840  1
  Mo  Mo233  1  0.89095997  0.50419681  0.10317626  1
  Mo  Mo234  1  0.20786511  -0.00083395  0.60532529  1
  Mo  Mo235  1  -0.00007405  0.80500632  0.80447690  1
  Mo  Mo236  1  0.49966791  0.09682136  0.71313648  1
  Mo  Mo237  1  -0.00017990  0.40751962  0.39874549  1
  Mo  Mo238  1  0.20382440  -0.00252232  0.80418349  1
  Mo  Mo239  1  0.00149705  0.60794370  -0.00290237  1
  Mo  Mo240  1  0.70045926  0.10136626  0.71029310  1
  Mo  Mo241  1  0.79460334  0.79969668  0.80898299  1
  Mo  Mo242  1  0.78923773  0.19651126  0.79906906  1
  Mo  Mo243  1  0.30507229  0.28695040  0.89568802  1
  Mo  Mo244  1  0.70391309  0.69697846  0.09863627  1
  Mo  Mo245  1  0.41367399  0.59812691  0.79552547  1
  Mo  Mo246  1  0.39950289  -0.00543664  0.39813403  1
  Mo  Mo247  1  0.40019473  -0.00119625  0.61635611  1
  Mo  Mo248  1  0.69372793  0.70263179  0.90633776  1
  Mo  Mo249  1  0.69983435  0.49229899  0.69453449  1
