# generated using pymatgen
data_HfZrTaTiMo
_symmetry_space_group_name_H-M   'P 1'
_cell_length_a   16.88670427
_cell_length_b   16.89639388
_cell_length_c   16.89093516
_cell_angle_alpha   89.96468649
_cell_angle_beta   89.99424153
_cell_angle_gamma   89.97861537
_symmetry_Int_Tables_number   1
_chemical_formula_structural   HfZrTaTiMo
_chemical_formula_sum   'Hf50 Zr50 Ta50 Ti50 Mo50'
_cell_volume   4819.39477772
_cell_formula_units_Z   50
loop_
 _symmetry_equiv_pos_site_id
 _symmetry_equiv_pos_as_xyz
  1  'x, y, z'
loop_
 _atom_site_type_symbol
 _atom_site_label
 _atom_site_symmetry_multiplicity
 _atom_site_fract_x
 _atom_site_fract_y
 _atom_site_fract_z
 _atom_site_occupancy
  Hf  Hf0  1  0.29713032  0.30106604  0.90405355  1
  Hf  Hf1  1  0.79694228  0.19125326  0.80407711  1
  Hf  Hf2  1  0.50417660  0.30342202  0.89332379  1
  Hf  Hf3  1  0.30839846  0.69875279  0.50238557  1
  Hf  Hf4  1  0.71025638  0.70674257  0.09603719  1
  Hf  Hf5  1  0.79270559  0.00294692  0.81036250  1
  Hf  Hf6  1  -0.00089553  0.60294897  0.80180853  1
  Hf  Hf7  1  0.70209402  0.70814674  0.89977828  1
  Hf  Hf8  1  0.30296080  0.50535547  0.69228968  1
  Hf  Hf9  1  0.89938159  0.88542659  0.08554489  1
  Hf  Hf10  1  0.69911527  0.30254880  0.70206400  1
  Hf  Hf11  1  0.29618193  0.09508998  0.09818180  1
  Hf  Hf12  1  0.60286038  0.39776307  0.39547967  1
  Hf  Hf13  1  0.80343304  0.79908524  0.59524819  1
  Hf  Hf14  1  -0.01364947  0.40950068  0.56422077  1
  Hf  Hf15  1  0.79528564  0.40540290  0.20421887  1
  Hf  Hf16  1  0.00360967  -0.00870935  0.19241366  1
  Hf  Hf17  1  0.20432561  0.60507935  0.80332826  1
  Hf  Hf18  1  0.59778899  0.59875020  0.39088333  1
  Hf  Hf19  1  0.68816518  0.28954523  0.11729286  1
  Hf  Hf20  1  0.00667608  -0.00173379  -0.00744985  1
  Hf  Hf21  1  0.09916609  0.50476142  0.68977239  1
  Hf  Hf22  1  0.29163208  0.90195842  0.70084876  1
  Hf  Hf23  1  0.10078092  0.10204499  0.29388553  1
  Hf  Hf24  1  -0.00480492  0.79305655  0.59989210  1
  Hf  Hf25  1  0.50755594  0.29569374  0.71087679  1
  Hf  Hf26  1  0.09758489  0.70966665  0.90331150  1
  Hf  Hf27  1  0.49885910  0.91427645  0.28804145  1
  Hf  Hf28  1  0.90331563  0.29693981  0.09923793  1
  Hf  Hf29  1  0.90568951  0.30499982  0.89424479  1
  Hf  Hf30  1  0.39741189  0.00011330  0.80092666  1
  Hf  Hf31  1  0.60226401  0.40725463  0.00898885  1
  Hf  Hf32  1  0.40114483  0.80264113  0.80350732  1
  Hf  Hf33  1  0.79777207  0.19140749  -0.00727592  1
  Hf  Hf34  1  0.59397086  0.80019968  0.59309387  1
  Hf  Hf35  1  0.20474613  0.40141712  0.40160541  1
  Hf  Hf36  1  0.79513415  0.60044454  0.79642523  1
  Hf  Hf37  1  0.19965453  0.80322525  0.20067535  1
  Hf  Hf38  1  0.08470484  0.31738084  0.70194218  1
  Hf  Hf39  1  0.80240887  0.58854100  0.01247237  1
  Hf  Hf40  1  0.78418906  0.00035891  0.39107421  1
  Hf  Hf41  1  0.28922182  0.10449571  0.89778870  1
  Hf  Hf42  1  0.30043303  0.69526421  0.30180616  1
  Hf  Hf43  1  0.09363527  0.90111628  0.70904113  1
  Hf  Hf44  1  0.40331434  0.79688552  0.19339870  1
  Hf  Hf45  1  0.50736730  0.10626003  0.89129138  1
  Hf  Hf46  1  0.40254815  0.60658062  0.79969616  1
  Hf  Hf47  1  0.18809453  0.19769501  0.61345634  1
  Hf  Hf48  1  0.30294918  0.28403197  0.49849452  1
  Hf  Hf49  1  0.40354985  0.20310022  0.00796124  1
  Zr  Zr50  1  0.40821961  0.80554278  0.39825685  1
  Zr  Zr51  1  0.29673853  0.29537360  0.70588249  1
  Zr  Zr52  1  0.50147048  0.29312591  0.29035255  1
  Zr  Zr53  1  0.48985298  0.90262770  0.68602185  1
  Zr  Zr54  1  0.40044441  -0.00292342  0.39853354  1
  Zr  Zr55  1  0.78996635  0.39918754  0.00591138  1
  Zr  Zr56  1  0.89724188  0.71082317  0.91519944  1
  Zr  Zr57  1  0.50376370  0.49908700  0.89476051  1
  Zr  Zr58  1  0.40192725  -0.00197572  -0.00621299  1
  Zr  Zr59  1  0.70506387  0.70701380  0.30046045  1
  Zr  Zr60  1  0.89575477  0.10027790  0.49226829  1
  Zr  Zr61  1  -0.00525334  0.60017524  0.19654115  1
  Zr  Zr62  1  -0.00669570  0.61241096  0.59917662  1
  Zr  Zr63  1  0.20123256  0.39619350  0.20094117  1
  Zr  Zr64  1  0.89684937  0.89166379  0.30400934  1
  Zr  Zr65  1  0.88726644  0.69653148  0.31491582  1
  Zr  Zr66  1  0.20991730  -0.00994027  0.39187193  1
  Zr  Zr67  1  0.59825375  0.59974962  0.19524875  1
  Zr  Zr68  1  0.70594011  0.29394588  0.50211241  1
  Zr  Zr69  1  0.48962092  0.10243823  0.49642523  1
  Zr  Zr70  1  -0.00755596  0.20267591  0.60080333  1
  Zr  Zr71  1  0.40687632  0.39633376  0.40622813  1
  Zr  Zr72  1  0.10523335  0.09871289  0.50239317  1
  Zr  Zr73  1  0.59590801  0.80110404  0.19634743  1
  Zr  Zr74  1  0.81231532  0.39523335  0.40889313  1
  Zr  Zr75  1  0.00343353  0.79164912  0.19688894  1
  Zr  Zr76  1  0.29837219  0.71487006  0.90872745  1
  Zr  Zr77  1  0.90234324  0.88780654  0.89056482  1
  Zr  Zr78  1  0.79217923  0.00022887  0.59141879  1
  Zr  Zr79  1  -0.00014647  -0.00224879  0.39620588  1
  Zr  Zr80  1  0.00996583  0.78507716  0.41555020  1
  Zr  Zr81  1  0.70070414  0.89723910  0.70185159  1
  Zr  Zr82  1  0.00114869  0.19043436  0.79829073  1
  Zr  Zr83  1  0.59864476  0.19563550  0.00515448  1
  Zr  Zr84  1  0.90438009  0.49360414  0.89932825  1
  Zr  Zr85  1  0.40718320  0.60341709  0.00749970  1
  Zr  Zr86  1  0.59160368  0.39663986  0.59304099  1
  Zr  Zr87  1  0.31026694  0.10048698  0.29302021  1
  Zr  Zr88  1  0.90991353  0.29401365  0.30360005  1
  Zr  Zr89  1  0.89568483  0.48608055  0.69832155  1
  Zr  Zr90  1  0.79687997  0.19223381  0.20664997  1
  Zr  Zr91  1  0.09986549  0.30608980  0.90449640  1
  Zr  Zr92  1  0.70326849  0.50210171  0.50759948  1
  Zr  Zr93  1  0.70524819  0.70242360  0.48883938  1
  Zr  Zr94  1  0.10721066  0.90876140  0.51004142  1
  Zr  Zr95  1  0.10358116  0.50221571  0.30618652  1
  Zr  Zr96  1  -0.00226744  0.58654619  0.41881147  1
  Zr  Zr97  1  0.19967426  0.40648385  0.80075228  1
  Zr  Zr98  1  0.19548771  0.79355284  0.59897686  1
  Zr  Zr99  1  0.40247290  0.39771262  0.59600553  1
  Ta  Ta100  1  0.50578339  0.70513548  0.90391635  1
  Ta  Ta101  1  0.30071434  0.49893618  0.10201931  1
  Ta  Ta102  1  0.59625128  0.80458518  0.80297007  1
  Ta  Ta103  1  0.31335232  0.90371055  0.52061176  1
  Ta  Ta104  1  0.19908175  0.20293821  0.19649007  1
  Ta  Ta105  1  0.59952954  0.60808537  0.60745873  1
  Ta  Ta106  1  0.60107398  -0.00184912  0.80107034  1
  Ta  Ta107  1  0.20869872  0.80263109  0.39963448  1
  Ta  Ta108  1  0.50272656  0.09959763  0.69848078  1
  Ta  Ta109  1  0.59881477  0.00126779  0.58745201  1
  Ta  Ta110  1  0.60138316  0.00131636  0.40011178  1
  Ta  Ta111  1  0.59856248  0.19582058  0.39594605  1
  Ta  Ta112  1  0.69927524  0.09107637  0.10010185  1
  Ta  Ta113  1  0.10485553  0.70163076  0.09444583  1
  Ta  Ta114  1  0.29761143  0.09805348  0.50784617  1
  Ta  Ta115  1  0.40469533  0.60503590  0.19804350  1
  Ta  Ta116  1  0.49752428  0.51407827  0.50204405  1
  Ta  Ta117  1  0.79762963  0.00096842  -0.00452804  1
  Ta  Ta118  1  0.19903506  -0.01033421  0.19301402  1
  Ta  Ta119  1  0.40024793  0.39882249  0.00795182  1
  Ta  Ta120  1  0.29864553  0.49614821  0.91165230  1
  Ta  Ta121  1  0.90081949  0.09378673  0.09762399  1
  Ta  Ta122  1  0.20227225  0.20163699  0.39236268  1
  Ta  Ta123  1  0.20368615  0.60117226  0.19455544  1
  Ta  Ta124  1  0.09809434  0.30018255  0.09867640  1
  Ta  Ta125  1  0.89587171  0.09206873  0.70138516  1
  Ta  Ta126  1  0.30829371  0.29559248  0.29505328  1
  Ta  Ta127  1  0.31030754  0.50017415  0.29528175  1
  Ta  Ta128  1  0.59458629  0.80394297  0.00225935  1
  Ta  Ta129  1  0.50574013  0.50255757  0.70098599  1
  Ta  Ta130  1  0.10415738  0.09792466  0.09663794  1
  Ta  Ta131  1  -0.00212638  0.60181298  0.01164006  1
  Ta  Ta132  1  0.60061556  0.60179459  0.00641782  1
  Ta  Ta133  1  0.29829766  0.70352518  0.09567660  1
  Ta  Ta134  1  0.00001850  0.19089332  -0.00051225  1
  Ta  Ta135  1  0.30154318  0.89998882  0.09108165  1
  Ta  Ta136  1  0.79810044  -0.00384793  0.19638971  1
  Ta  Ta137  1  0.60085449  0.19309350  0.59485660  1
  Ta  Ta138  1  0.41147221  0.61114587  0.60691272  1
  Ta  Ta139  1  0.00044409  0.40206243  0.19951464  1
  Ta  Ta140  1  0.80188234  0.60783339  0.60566759  1
  Ta  Ta141  1  0.20030423  0.59816679  0.00416582  1
  Ta  Ta142  1  0.90036877  0.49755554  0.30556869  1
  Ta  Ta143  1  0.19564592  0.20294676  0.00569220  1
  Ta  Ta144  1  0.09932480  0.30204020  0.49052916  1
  Ta  Ta145  1  0.10037044  0.49997919  0.90959123  1
  Ta  Ta146  1  0.29906194  0.51725740  0.49970528  1
  Ta  Ta147  1  0.49434437  0.49829317  0.29555495  1
  Ta  Ta148  1  0.79867408  0.19665263  0.60198374  1
  Ta  Ta149  1  0.10419312  0.49770631  0.09741907  1
  Ti  Ti150  1  0.59902026  0.81458680  0.39734339  1
  Ti  Ti151  1  0.70200031  0.90183704  0.09444637  1
  Ti  Ti152  1  0.10675328  0.89550992  0.89424831  1
  Ti  Ti153  1  0.79090798  0.40029387  0.80370995  1
  Ti  Ti154  1  0.00368598  0.20307256  0.40233949  1
  Ti  Ti155  1  0.39829205  0.40495049  0.80124062  1
  Ti  Ti156  1  0.89775830  0.89698293  0.49441061  1
  Ti  Ti157  1  0.00524082  0.19745340  0.19208602  1
  Ti  Ti158  1  0.49775027  0.90520327  0.09462327  1
  Ti  Ti159  1  0.90059288  0.90019892  0.70593434  1
  Ti  Ti160  1  0.89288857  0.30618976  0.69821020  1
  Ti  Ti161  1  0.50348032  0.08735482  0.11494625  1
  Ti  Ti162  1  0.19316820  0.00669253  0.79885383  1
  Ti  Ti163  1  0.10691919  0.10315911  0.89938243  1
  Ti  Ti164  1  0.79874966  0.80709181  0.19860123  1
  Ti  Ti165  1  0.29575753  0.09789758  0.69828500  1
  Ti  Ti166  1  0.40446012  0.19580990  0.19513149  1
  Ti  Ti167  1  0.68740319  0.10289561  0.29302565  1
  Ti  Ti168  1  0.09861290  0.29840408  0.30000186  1
  Ti  Ti169  1  0.90451253  0.09863727  0.29446415  1
  Ti  Ti170  1  0.10451774  0.70669181  0.70953995  1
  Ti  Ti171  1  0.50020412  0.70174163  0.49703113  1
  Ti  Ti172  1  0.89468539  0.71804643  0.72013162  1
  Ti  Ti173  1  0.68573531  0.29826803  0.88980107  1
  Ti  Ti174  1  0.59916713  0.60614997  0.79459110  1
  Ti  Ti175  1  -0.00056230  0.40647424  0.00969724  1
  Ti  Ti176  1  0.69256193  0.50227124  0.89526069  1
  Ti  Ti177  1  0.79103329  0.19633492  0.39595881  1
  Ti  Ti178  1  0.30144266  0.70828373  0.69737083  1
  Ti  Ti179  1  -0.00264638  0.00680119  0.80401030  1
  Ti  Ti180  1  0.50192569  0.89819271  0.90354838  1
  Ti  Ti181  1  0.40885895  0.60233816  0.39414194  1
  Ti  Ti182  1  0.12920146  0.67147087  0.49675951  1
  Ti  Ti183  1  0.69636993  0.49433228  0.69865512  1
  Ti  Ti184  1  0.19783949  0.81328626  0.00246482  1
  Ti  Ti185  1  -0.00358613  0.00280735  0.60538662  1
  Ti  Ti186  1  0.40405352  0.19833315  0.60552067  1
  Ti  Ti187  1  0.49994143  0.30642350  0.11191735  1
  Ti  Ti188  1  0.30077241  0.30382969  0.10312319  1
  Ti  Ti189  1  0.20018717  0.40154994  0.59132048  1
  Ti  Ti190  1  0.61010727  -0.00203313  0.20003746  1
  Ti  Ti191  1  0.60913858  0.41066923  0.20892059  1
  Ti  Ti192  1  0.39582748  0.19614140  0.79716004  1
  Ti  Ti193  1  0.49475182  0.49325332  0.10929126  1
  Ti  Ti194  1  0.10117166  0.89391800  0.30350021  1
  Ti  Ti195  1  0.69851835  0.70735412  0.70405705  1
  Ti  Ti196  1  0.60710398  -0.00248810  -0.00679190  1
  Ti  Ti197  1  0.80088162  0.59069501  0.19874780  1
  Ti  Ti198  1  0.10839232  0.69305171  0.30664798  1
  Ti  Ti199  1  0.69206065  0.10024760  0.69898389  1
  Mo  Mo200  1  0.29946849  0.89639332  0.28601449  1
  Mo  Mo201  1  0.28604988  0.90600981  0.89933128  1
  Mo  Mo202  1  0.50736184  0.70012293  0.70696819  1
  Mo  Mo203  1  0.80259329  0.39423568  0.60604477  1
  Mo  Mo204  1  0.69521653  0.50520302  0.10517953  1
  Mo  Mo205  1  0.19513854  0.19375560  0.80232159  1
  Mo  Mo206  1  0.40358574  0.79337491  0.59991030  1
  Mo  Mo207  1  0.79217386  0.80284995  0.79817026  1
  Mo  Mo208  1  0.40418501  0.80672340  0.00050942  1
  Mo  Mo209  1  0.90036499  0.28340100  0.49657278  1
  Mo  Mo210  1  0.39980314  0.40206728  0.19552446  1
  Mo  Mo211  1  0.49879089  0.28346291  0.49682669  1
  Mo  Mo212  1  0.69508646  0.29441497  0.30373683  1
  Mo  Mo213  1  0.12289000  0.49710866  0.50291522  1
  Mo  Mo214  1  0.21210959  0.59795619  0.39130094  1
  Mo  Mo215  1  0.79607660  0.58684865  0.39546734  1
  Mo  Mo216  1  0.60713993  0.41050328  0.79936904  1
  Mo  Mo217  1  0.89934632  0.70034240  0.10375556  1
  Mo  Mo218  1  0.00174946  0.40574797  0.80898298  1
  Mo  Mo219  1  0.49836713  0.69614857  0.30012942  1
  Mo  Mo220  1  0.20934125  0.60344762  0.60937917  1
  Mo  Mo221  1  0.79251320  0.81841422  0.40485008  1
  Mo  Mo222  1  0.69340717  0.10281804  0.49620997  1
  Mo  Mo223  1  0.88169521  0.51282539  0.50056257  1
  Mo  Mo224  1  0.90260864  0.09557480  0.90239573  1
  Mo  Mo225  1  0.10418285  0.89934866  0.09196741  1
  Mo  Mo226  1  0.69125839  0.90070956  0.49235281  1
  Mo  Mo227  1  0.69513990  0.09214331  0.90439214  1
  Mo  Mo228  1  0.20032278  0.80452396  0.80216921  1
  Mo  Mo229  1  0.00253158  0.80168070  0.79736945  1
  Mo  Mo230  1  0.50479436  0.09880265  0.29167316  1
  Mo  Mo231  1  0.39731599  0.01069542  0.60308203  1
  Mo  Mo232  1  0.20344837  0.40161574  0.00761053  1
  Mo  Mo233  1  0.70403197  0.49919877  0.29961270  1
  Mo  Mo234  1  0.09359038  0.08823799  0.70608871  1
  Mo  Mo235  1  0.39686299  -0.00516241  0.18953582  1
  Mo  Mo236  1  0.69082211  0.89996343  0.90450615  1
  Mo  Mo237  1  0.69568886  0.90484653  0.29286322  1
  Mo  Mo238  1  0.50107061  0.90348629  0.49647062  1
  Mo  Mo239  1  0.60585150  0.19063387  0.79262726  1
  Mo  Mo240  1  0.39731498  0.19911438  0.39560840  1
  Mo  Mo241  1  0.90670842  0.49737991  0.10875046  1
  Mo  Mo242  1  0.59391588  0.18436442  0.20048048  1
  Mo  Mo243  1  0.88407766  0.70155517  0.49995579  1
  Mo  Mo244  1  0.00498144  0.39633879  0.39561388  1
  Mo  Mo245  1  0.01524878  0.80048029  0.00196966  1
  Mo  Mo246  1  0.19581370  -0.00231108  -0.00411833  1
  Mo  Mo247  1  0.78547604  0.80971799  0.00101653  1
  Mo  Mo248  1  0.49879263  0.70306251  0.09253796  1
  Mo  Mo249  1  0.20468493  0.00693104  0.60876644  1
