# generated using pymatgen
data_HfZrTaTiMo
_symmetry_space_group_name_H-M   'P 1'
_cell_length_a   16.88122601
_cell_length_b   16.88484539
_cell_length_c   16.87770095
_cell_angle_alpha   90.00742805
_cell_angle_beta   90.02051187
_cell_angle_gamma   90.02600987
_symmetry_Int_Tables_number   1
_chemical_formula_structural   HfZrTaTiMo
_chemical_formula_sum   'Hf50 Zr50 Ta50 Ti50 Mo50'
_cell_volume   4810.76656334
_cell_formula_units_Z   50
loop_
 _symmetry_equiv_pos_site_id
 _symmetry_equiv_pos_as_xyz
  1  'x, y, z'
loop_
 _atom_site_type_symbol
 _atom_site_label
 _atom_site_symmetry_multiplicity
 _atom_site_fract_x
 _atom_site_fract_y
 _atom_site_fract_z
 _atom_site_occupancy
  Hf  Hf0  1  -0.00275328  0.01061630  -0.00381892  1
  Hf  Hf1  1  0.70514905  0.49069250  0.09511849  1
  Hf  Hf2  1  0.20272801  0.39743072  -0.00611809  1
  Hf  Hf3  1  0.89827895  0.49835681  0.69030149  1
  Hf  Hf4  1  0.10575016  0.10316730  0.88105378  1
  Hf  Hf5  1  0.41008407  -0.00919732  0.21057107  1
  Hf  Hf6  1  0.70654946  0.30318140  0.29411880  1
  Hf  Hf7  1  -0.00306489  0.38726920  0.00082148  1
  Hf  Hf8  1  0.89661629  0.50480351  0.90734076  1
  Hf  Hf9  1  0.49327825  0.29121721  0.10229457  1
  Hf  Hf10  1  0.50028556  0.91191104  0.89323427  1
  Hf  Hf11  1  0.90476181  0.89801983  0.90204366  1
  Hf  Hf12  1  0.30046315  0.70163863  0.69777447  1
  Hf  Hf13  1  0.80354565  0.80478038  0.79447500  1
  Hf  Hf14  1  0.90081429  0.10474137  0.50434469  1
  Hf  Hf15  1  0.49601158  0.90629435  0.69852297  1
  Hf  Hf16  1  0.60131748  0.19521353  -0.00201840  1
  Hf  Hf17  1  0.79448734  0.19325622  0.39553146  1
  Hf  Hf18  1  0.20969986  0.40201765  0.80467078  1
  Hf  Hf19  1  0.70785791  0.30412311  0.50543098  1
  Hf  Hf20  1  0.59776618  0.58976428  0.59852005  1
  Hf  Hf21  1  0.89771603  0.49379086  0.10261576  1
  Hf  Hf22  1  0.90499927  0.89393210  0.49564534  1
  Hf  Hf23  1  0.29620552  0.90557277  0.88663522  1
  Hf  Hf24  1  0.59399547  0.39111469  -0.00776243  1
  Hf  Hf25  1  0.59790372  0.39348656  0.79309464  1
  Hf  Hf26  1  0.39123212  0.39395309  0.21309248  1
  Hf  Hf27  1  0.40342890  0.79967836  0.58873344  1
  Hf  Hf28  1  0.79090521  0.80903637  0.20212317  1
  Hf  Hf29  1  0.09349606  0.70223230  0.90049993  1
  Hf  Hf30  1  0.48620337  0.48566334  0.49950891  1
  Hf  Hf31  1  0.29331333  0.28923410  0.10309600  1
  Hf  Hf32  1  0.10343242  0.70405515  0.31438531  1
  Hf  Hf33  1  0.11009993  0.89984758  0.49420402  1
  Hf  Hf34  1  0.00828070  0.01333892  0.60373876  1
  Hf  Hf35  1  0.59837027  0.18987661  0.39519511  1
  Hf  Hf36  1  0.38745180  0.59937674  0.40705988  1
  Hf  Hf37  1  0.00430294  0.81171370  0.20605076  1
  Hf  Hf38  1  0.10416597  0.69088957  0.10120650  1
  Hf  Hf39  1  0.70549179  0.49460312  0.30557118  1
  Hf  Hf40  1  0.49723437  0.50701006  0.30692355  1
  Hf  Hf41  1  0.20559349  0.80093071  0.20124767  1
  Hf  Hf42  1  0.90158760  0.09749053  0.29671498  1
  Hf  Hf43  1  0.59576934  0.39592017  0.19747767  1
  Hf  Hf44  1  0.20629898  0.59052196  0.79750208  1
  Hf  Hf45  1  0.20603994  0.20232654  0.40508616  1
  Hf  Hf46  1  -0.00820735  0.19870003  -0.00603131  1
  Hf  Hf47  1  -0.00056450  0.20114680  0.18971015  1
  Hf  Hf48  1  0.58732256  0.81247491  0.20005643  1
  Hf  Hf49  1  0.30580090  0.29745246  0.70206799  1
  Zr  Zr50  1  0.59992417  0.79611867  0.80842010  1
  Zr  Zr51  1  0.29660946  0.50258164  0.10535321  1
  Zr  Zr52  1  0.81104038  -0.00167770  0.61349822  1
  Zr  Zr53  1  0.48906563  0.50193773  0.89060005  1
  Zr  Zr54  1  0.20439192  0.01039608  -0.00877260  1
  Zr  Zr55  1  0.00650468  0.00316760  0.19454309  1
  Zr  Zr56  1  0.09393628  0.70202947  0.50096601  1
  Zr  Zr57  1  0.10395601  0.29119329  0.69849897  1
  Zr  Zr58  1  0.10543324  0.90315304  0.08976625  1
  Zr  Zr59  1  0.68631070  0.70124066  0.31515815  1
  Zr  Zr60  1  0.49862425  0.69330029  0.70413260  1
  Zr  Zr61  1  -0.01210802  0.00710852  0.78857321  1
  Zr  Zr62  1  0.89826898  0.30604096  0.50186721  1
  Zr  Zr63  1  0.30232738  0.90749882  0.49859896  1
  Zr  Zr64  1  0.30902766  0.69881559  0.89239821  1
  Zr  Zr65  1  0.09840298  0.49743480  0.69164354  1
  Zr  Zr66  1  0.40703554  0.79864066  0.00255981  1
  Zr  Zr67  1  0.01232916  0.20131656  0.40850172  1
  Zr  Zr68  1  0.39695633  0.19806139  -0.01229603  1
  Zr  Zr69  1  0.38968956  0.59431064  0.59713651  1
  Zr  Zr70  1  0.09472254  0.69728608  0.69698339  1
  Zr  Zr71  1  0.10485145  0.90138553  0.70685858  1
  Zr  Zr72  1  0.89905409  0.30616755  0.29814963  1
  Zr  Zr73  1  0.30323750  0.90138511  0.09925535  1
  Zr  Zr74  1  0.90143273  0.70366722  0.09438695  1
  Zr  Zr75  1  0.20818071  0.59994182  -0.00076268  1
  Zr  Zr76  1  0.60097889  0.00478975  0.21117581  1
  Zr  Zr77  1  0.80414240  0.38955143  0.79749283  1
  Zr  Zr78  1  0.59568892  0.60574596  0.19737380  1
  Zr  Zr79  1  0.29087584  0.69795317  0.30610970  1
  Zr  Zr80  1  0.40677600  0.00928390  -0.00280702  1
  Zr  Zr81  1  0.59338629  0.60757343  -0.00499049  1
  Zr  Zr82  1  0.01270806  0.00196050  0.39641162  1
  Zr  Zr83  1  0.40197266  0.20101871  0.40379370  1
  Zr  Zr84  1  0.70610269  0.69410229  0.89675234  1
  Zr  Zr85  1  0.79990250  0.00488052  0.80295229  1
  Zr  Zr86  1  0.59919982  0.80924712  0.00398408  1
  Zr  Zr87  1  0.79876000  0.60590602  0.20293977  1
  Zr  Zr88  1  0.80241246  0.59961529  0.41180139  1
  Zr  Zr89  1  0.90578900  0.71046333  0.31707096  1
  Zr  Zr90  1  0.29812671  0.10375420  0.11349663  1
  Zr  Zr91  1  0.59303169  0.20743251  0.59954273  1
  Zr  Zr92  1  0.90408559  0.69951887  0.90121531  1
  Zr  Zr93  1  0.19982731  0.40126854  0.40204059  1
  Zr  Zr94  1  -0.00459212  0.39013786  0.80348806  1
  Zr  Zr95  1  0.59411666  0.39079991  0.40652364  1
  Zr  Zr96  1  -0.00053747  0.59635727  0.20869793  1
  Zr  Zr97  1  0.69405933  0.89523493  0.69485761  1
  Zr  Zr98  1  0.49007973  0.49790384  0.09714905  1
  Zr  Zr99  1  0.69563200  0.89857123  0.50216682  1
  Ta  Ta100  1  0.40451006  0.80155835  0.20733672  1
  Ta  Ta101  1  0.60597907  0.00897607  0.79996385  1
  Ta  Ta102  1  0.10796547  0.29539633  0.09868019  1
  Ta  Ta103  1  0.70387451  0.49520611  0.89682707  1
  Ta  Ta104  1  0.59684607  0.00892650  0.60481194  1
  Ta  Ta105  1  0.89808150  0.48724578  0.30577049  1
  Ta  Ta106  1  0.79217807  0.81292947  0.00054560  1
  Ta  Ta107  1  0.89585967  0.90389004  0.30303109  1
  Ta  Ta108  1  0.69894046  0.11129263  0.70112384  1
  Ta  Ta109  1  0.80162855  0.19581088  -0.00285947  1
  Ta  Ta110  1  0.40441975  0.80450253  0.39733344  1
  Ta  Ta111  1  0.79534630  0.19407054  0.19095427  1
  Ta  Ta112  1  0.79895710  0.59969148  0.59662289  1
  Ta  Ta113  1  0.10330163  0.29763220  0.29440442  1
  Ta  Ta114  1  0.00141504  0.39663019  0.59510840  1
  Ta  Ta115  1  0.70114954  0.09622807  0.50639542  1
  Ta  Ta116  1  0.20291961  0.01156104  0.60515587  1
  Ta  Ta117  1  0.09298069  0.50342981  0.90597998  1
  Ta  Ta118  1  0.40204491  0.01194710  0.60017697  1
  Ta  Ta119  1  0.59382636  0.39600587  0.60602672  1
  Ta  Ta120  1  0.70225701  0.69273061  0.69423530  1
  Ta  Ta121  1  0.40229007  0.19875790  0.59946601  1
  Ta  Ta122  1  0.60109867  0.59152200  0.79540507  1
  Ta  Ta123  1  0.30200358  0.90546655  0.69950705  1
  Ta  Ta124  1  0.10922843  0.28732929  0.89689767  1
  Ta  Ta125  1  0.70126156  0.29308528  0.89660432  1
  Ta  Ta126  1  0.20352551  0.80337282  0.60138024  1
  Ta  Ta127  1  0.40989677  0.00487426  0.39700969  1
  Ta  Ta128  1  0.00133801  0.58428901  0.40962430  1
  Ta  Ta129  1  0.50111466  0.10857624  0.70576816  1
  Ta  Ta130  1  0.79223743  0.00686135  -0.00112154  1
  Ta  Ta131  1  0.70274056  0.49647108  0.69588072  1
  Ta  Ta132  1  0.79121520  0.00394661  0.20152502  1
  Ta  Ta133  1  0.30636045  0.31020772  0.50896800  1
  Ta  Ta134  1  0.20309666  0.58966781  0.59006222  1
  Ta  Ta135  1  0.39190328  0.61146989  0.20045798  1
  Ta  Ta136  1  0.79287935  0.00216860  0.39634086  1
  Ta  Ta137  1  0.90306221  0.69488447  0.69490320  1
  Ta  Ta138  1  0.60363885  0.00741942  0.00013153  1
  Ta  Ta139  1  0.10050442  0.89658264  0.89222757  1
  Ta  Ta140  1  0.70436977  0.29677648  0.09769560  1
  Ta  Ta141  1  0.09835219  0.49802557  0.10092453  1
  Ta  Ta142  1  0.50284987  0.10187565  0.10842181  1
  Ta  Ta143  1  0.69397730  0.70120919  0.50545217  1
  Ta  Ta144  1  0.19649984  0.39756054  0.20421421  1
  Ta  Ta145  1  0.00348863  0.39477614  0.19659001  1
  Ta  Ta146  1  -0.00336923  0.59701573  0.79914315  1
  Ta  Ta147  1  0.11353410  0.10234733  0.29724409  1
  Ta  Ta148  1  0.89249072  0.90655492  0.10027547  1
  Ta  Ta149  1  0.38926927  0.39281211  -0.01544639  1
  Ti  Ti150  1  0.58976019  0.80595332  0.40326127  1
  Ti  Ti151  1  0.69897265  0.70445443  0.09976182  1
  Ti  Ti152  1  0.29475351  0.90202411  0.31231081  1
  Ti  Ti153  1  0.81073552  0.20119508  0.80122543  1
  Ti  Ti154  1  0.70000272  0.10775612  0.89308316  1
  Ti  Ti155  1  0.70377237  0.29760401  0.69965953  1
  Ti  Ti156  1  0.29490181  0.11354479  0.88049001  1
  Ti  Ti157  1  0.79653696  0.80277758  0.40480204  1
  Ti  Ti158  1  -0.01211087  0.19908698  0.79300264  1
  Ti  Ti159  1  0.10083726  0.49850442  0.29633082  1
  Ti  Ti160  1  0.11778970  0.11342869  0.09887219  1
  Ti  Ti161  1  0.39478882  0.01524042  0.79091475  1
  Ti  Ti162  1  0.00085551  0.80552694  0.00383999  1
  Ti  Ti163  1  0.50480794  0.91067350  0.49736380  1
  Ti  Ti164  1  0.48558070  0.48921018  0.70124199  1
  Ti  Ti165  1  0.00934023  0.40246640  0.40282133  1
  Ti  Ti166  1  0.10714466  0.30195019  0.51092058  1
  Ti  Ti167  1  0.29397768  0.50252268  0.30124892  1
  Ti  Ti168  1  0.50415788  0.09596076  0.50060654  1
  Ti  Ti169  1  -0.00124654  0.80406892  0.60595378  1
  Ti  Ti170  1  0.79868465  0.59703717  0.79309041  1
  Ti  Ti171  1  0.29678589  0.09625089  0.30253574  1
  Ti  Ti172  1  0.20232730  0.19233275  0.59986280  1
  Ti  Ti173  1  0.89712061  0.49142137  0.50144370  1
  Ti  Ti174  1  0.59299896  0.79605415  0.59771067  1
  Ti  Ti175  1  0.90753029  0.70060640  0.50496943  1
  Ti  Ti176  1  0.80769106  0.20381292  0.61059039  1
  Ti  Ti177  1  0.28437376  0.71058471  0.49168667  1
  Ti  Ti178  1  0.60393797  0.19344256  0.20323127  1
  Ti  Ti179  1  0.19772543  -0.00498440  0.20872382  1
  Ti  Ti180  1  0.80433248  0.38271335  -0.00322545  1
  Ti  Ti181  1  0.19396871  0.58612177  0.41012135  1
  Ti  Ti182  1  0.80464335  0.79321729  0.60132590  1
  Ti  Ti183  1  0.50461008  0.10688958  0.88614353  1
  Ti  Ti184  1  0.69825045  0.91125430  0.09776641  1
  Ti  Ti185  1  0.49165369  0.70102321  0.10280302  1
  Ti  Ti186  1  0.49841505  0.69813277  0.30880917  1
  Ti  Ti187  1  0.79563093  0.60327090  0.00359923  1
  Ti  Ti188  1  0.19975640  0.79876864  0.79721067  1
  Ti  Ti189  1  0.49140714  0.29267431  0.88000440  1
  Ti  Ti190  1  0.50750640  0.69281665  0.49059448  1
  Ti  Ti191  1  0.40136329  0.19441565  0.21602335  1
  Ti  Ti192  1  0.88954094  0.09608374  0.09825673  1
  Ti  Ti193  1  0.30037856  0.09775946  0.50067319  1
  Ti  Ti194  1  0.20689611  0.79662537  -0.00141761  1
  Ti  Ti195  1  0.70100850  0.49410746  0.50222757  1
  Ti  Ti196  1  0.39629016  0.60280234  -0.00148924  1
  Ti  Ti197  1  0.49597648  0.29824574  0.30462735  1
  Ti  Ti198  1  0.40600427  0.79789496  0.79994236  1
  Ti  Ti199  1  0.69425584  0.90480129  0.31224842  1
  Mo  Mo200  1  0.79972358  0.40378116  0.40297054  1
  Mo  Mo201  1  0.69789585  0.10321211  0.09993208  1
  Mo  Mo202  1  0.50008690  0.89843395  0.31500014  1
  Mo  Mo203  1  0.30306549  0.49410808  0.69493180  1
  Mo  Mo204  1  0.49819972  0.69194019  0.89715202  1
  Mo  Mo205  1  0.00210117  0.59238404  -0.00059269  1
  Mo  Mo206  1  0.39139871  0.39625007  0.39742646  1
  Mo  Mo207  1  0.79485342  0.40313208  0.60067656  1
  Mo  Mo208  1  0.69961461  0.91136309  0.90492405  1
  Mo  Mo209  1  0.60491928  0.20144297  0.79928504  1
  Mo  Mo210  1  0.29300288  0.49063866  0.50218554  1
  Mo  Mo211  1  0.49586183  0.30074962  0.70025198  1
  Mo  Mo212  1  0.20994688  0.00919235  0.39919795  1
  Mo  Mo213  1  0.20641823  0.00344763  0.79132456  1
  Mo  Mo214  1  0.29792579  0.29827592  0.30271309  1
  Mo  Mo215  1  0.30535216  0.49779078  0.89723314  1
  Mo  Mo216  1  0.30596904  0.70161156  0.10616438  1
  Mo  Mo217  1  0.19845135  0.20145904  -0.00967736  1
  Mo  Mo218  1  0.50441640  0.90694887  0.09828468  1
  Mo  Mo219  1  0.89449271  0.29698496  0.09886294  1
  Mo  Mo220  1  0.19806837  0.59096808  0.20541814  1
  Mo  Mo221  1  0.00488251  0.20359969  0.60373087  1
  Mo  Mo222  1  0.30373233  0.10197544  0.69533294  1
  Mo  Mo223  1  -0.00938339  0.59662855  0.59330555  1
  Mo  Mo224  1  0.10422522  0.10833581  0.69731881  1
  Mo  Mo225  1  0.90168214  0.29834931  0.69427783  1
  Mo  Mo226  1  0.49183807  0.29987278  0.50538160  1
  Mo  Mo227  1  0.89580974  0.29131332  0.89976835  1
  Mo  Mo228  1  0.80479861  0.39227076  0.19351253  1
  Mo  Mo229  1  0.39892579  0.59183603  0.79437238  1
  Mo  Mo230  1  0.20287153  0.81032470  0.40095654  1
  Mo  Mo231  1  0.70188317  0.09922725  0.29982217  1
  Mo  Mo232  1  0.11060281  0.90442273  0.30383840  1
  Mo  Mo233  1  0.40351635  0.19818101  0.79359267  1
  Mo  Mo234  1  0.39940396  0.39649778  0.79680982  1
  Mo  Mo235  1  0.50077427  0.10156971  0.30153704  1
  Mo  Mo236  1  0.30006974  0.29483816  0.89478077  1
  Mo  Mo237  1  0.11265935  0.10446813  0.50370035  1
  Mo  Mo238  1  0.20321770  0.40211785  0.59891393  1
  Mo  Mo239  1  0.40028220  0.39432232  0.60362431  1
  Mo  Mo240  1  0.09511828  0.49555187  0.50094516  1
  Mo  Mo241  1  0.60097903  0.00299750  0.40961655  1
  Mo  Mo242  1  0.90629850  0.88082291  0.69789968  1
  Mo  Mo243  1  0.59690446  0.59976018  0.41111647  1
  Mo  Mo244  1  0.20014635  0.20220100  0.20988061  1
  Mo  Mo245  1  -0.00151359  0.80721991  0.40098140  1
  Mo  Mo246  1  0.89914245  0.11754083  0.69750904  1
  Mo  Mo247  1  -0.00104809  0.79541196  0.79803558  1
  Mo  Mo248  1  0.89247047  0.10309796  0.89720932  1
  Mo  Mo249  1  0.20695548  0.19919370  0.79266525  1
