# generated using pymatgen
data_HfZrTaTiMo
_symmetry_space_group_name_H-M   'P 1'
_cell_length_a   16.87250705
_cell_length_b   16.89340777
_cell_length_c   16.88258973
_cell_angle_alpha   89.99810410
_cell_angle_beta   90.10180481
_cell_angle_gamma   90.01849684
_symmetry_Int_Tables_number   1
_chemical_formula_structural   HfZrTaTiMo
_chemical_formula_sum   'Hf50 Zr50 Ta50 Ti50 Mo50'
_cell_volume   4812.10662267
_cell_formula_units_Z   50
loop_
 _symmetry_equiv_pos_site_id
 _symmetry_equiv_pos_as_xyz
  1  'x, y, z'
loop_
 _atom_site_type_symbol
 _atom_site_label
 _atom_site_symmetry_multiplicity
 _atom_site_fract_x
 _atom_site_fract_y
 _atom_site_fract_z
 _atom_site_occupancy
  Hf  Hf0  1  0.40719897  0.00690234  0.39564014  1
  Hf  Hf1  1  0.20610179  0.40390559  0.19228668  1
  Hf  Hf2  1  0.80848655  0.60387199  0.00239656  1
  Hf  Hf3  1  0.21183055  0.20231525  0.00609820  1
  Hf  Hf4  1  0.41593843  0.59742510  0.42315233  1
  Hf  Hf5  1  0.21495861  -0.01201945  0.00752380  1
  Hf  Hf6  1  0.10152764  0.09348371  0.30295751  1
  Hf  Hf7  1  0.09548783  0.69835218  0.70540146  1
  Hf  Hf8  1  -0.01199829  -0.00743578  -0.01700417  1
  Hf  Hf9  1  0.20430043  0.80439058  0.40118549  1
  Hf  Hf10  1  0.79782715  0.39101340  0.39442612  1
  Hf  Hf11  1  0.69993833  0.30327350  0.09543709  1
  Hf  Hf12  1  0.20943313  0.00600220  0.40250423  1
  Hf  Hf13  1  0.79488348  -0.00486166  -0.00705772  1
  Hf  Hf14  1  0.68920038  0.50367348  0.48538540  1
  Hf  Hf15  1  0.40877826  0.80641091  0.40172113  1
  Hf  Hf16  1  0.40672284  0.79677329  0.61141692  1
  Hf  Hf17  1  -0.00072343  -0.00269639  0.59447008  1
  Hf  Hf18  1  0.40164660  0.58462271  0.18998025  1
  Hf  Hf19  1  0.30709986  0.69423873  0.30042797  1
  Hf  Hf20  1  0.20419640  0.39855542  0.79930182  1
  Hf  Hf21  1  0.19856675  0.59457788  0.60590820  1
  Hf  Hf22  1  0.79759030  0.20636484  0.79734582  1
  Hf  Hf23  1  0.09306236  0.49783627  0.70366551  1
  Hf  Hf24  1  0.89269389  0.89705286  0.69132467  1
  Hf  Hf25  1  0.79497577  0.79922143  0.80128772  1
  Hf  Hf26  1  0.00014114  0.39724513  0.59534024  1
  Hf  Hf27  1  0.10139033  0.70622856  0.30033701  1
  Hf  Hf28  1  0.20317265  0.20256025  0.40489497  1
  Hf  Hf29  1  0.79332926  0.20752016  0.60237912  1
  Hf  Hf30  1  0.90613371  0.31181478  0.89371966  1
  Hf  Hf31  1  0.40309445  0.20572488  0.80276918  1
  Hf  Hf32  1  0.20187805  0.59456945  0.40309821  1
  Hf  Hf33  1  -0.01198298  0.79603243  0.20809782  1
  Hf  Hf34  1  0.40097057  0.18611369  0.39853694  1
  Hf  Hf35  1  0.69740098  0.51282384  0.30159791  1
  Hf  Hf36  1  0.30216448  0.70011955  0.09631645  1
  Hf  Hf37  1  0.80001267  0.19865756  0.20658664  1
  Hf  Hf38  1  -0.00455771  0.19673460  0.20396476  1
  Hf  Hf39  1  0.49889044  0.70052185  0.09063041  1
  Hf  Hf40  1  0.30401259  0.69900405  0.51367488  1
  Hf  Hf41  1  0.80436235  -0.00535426  0.80897083  1
  Hf  Hf42  1  -0.00479972  0.58952194  0.00530310  1
  Hf  Hf43  1  0.60242653  0.19930602  0.60285640  1
  Hf  Hf44  1  0.40106569  0.80321743  0.80414769  1
  Hf  Hf45  1  -0.01634175  -0.00633067  0.21817351  1
  Hf  Hf46  1  0.89253287  0.89286743  0.10240420  1
  Hf  Hf47  1  0.09547926  0.89858198  0.10251396  1
  Hf  Hf48  1  -0.00349689  0.19149834  -0.00889837  1
  Hf  Hf49  1  0.60323099  0.21196853  0.79578414  1
  Zr  Zr50  1  0.30546905  0.30527041  0.69598397  1
  Zr  Zr51  1  0.30552030  0.69935719  0.90666627  1
  Zr  Zr52  1  0.09994015  0.10692130  0.51013538  1
  Zr  Zr53  1  0.79367028  0.40047501  0.60362283  1
  Zr  Zr54  1  0.89549135  0.50447081  0.49700893  1
  Zr  Zr55  1  0.49535440  0.29482693  0.09575076  1
  Zr  Zr56  1  0.11202792  0.09396693  0.89242828  1
  Zr  Zr57  1  0.19145240  0.58583199  0.19709308  1
  Zr  Zr58  1  0.69606641  0.10088144  0.89622635  1
  Zr  Zr59  1  0.50964869  0.49414467  0.31032039  1
  Zr  Zr60  1  0.69922489  0.50769947  0.89120632  1
  Zr  Zr61  1  0.60004395  0.20612580  -0.00469801  1
  Zr  Zr62  1  0.10114138  0.09031728  0.10325127  1
  Zr  Zr63  1  0.51845057  0.90636761  0.50801453  1
  Zr  Zr64  1  0.90388864  0.30757652  0.09281462  1
  Zr  Zr65  1  0.50992231  0.69449650  0.30142177  1
  Zr  Zr66  1  0.19233428  0.40426515  0.40410406  1
  Zr  Zr67  1  0.79488396  0.80110241  -0.00695218  1
  Zr  Zr68  1  0.21113745  0.19624153  0.19740793  1
  Zr  Zr69  1  0.90380836  0.10411184  0.69249081  1
  Zr  Zr70  1  0.00519021  -0.00714552  0.79694343  1
  Zr  Zr71  1  0.60453271  0.40035749  0.60806896  1
  Zr  Zr72  1  0.69445528  0.69545151  0.69914054  1
  Zr  Zr73  1  0.50275498  0.29584774  0.29435590  1
  Zr  Zr74  1  0.29658351  0.89981418  0.51156083  1
  Zr  Zr75  1  0.50429970  0.30504507  0.49560180  1
  Zr  Zr76  1  0.19557615  0.59100713  0.00239116  1
  Zr  Zr77  1  0.69667124  0.50575480  0.09319891  1
  Zr  Zr78  1  -0.00599071  0.60269980  0.19478643  1
  Zr  Zr79  1  0.59458595  0.80351186  -0.00580232  1
  Zr  Zr80  1  0.00072796  0.60239097  0.39596058  1
  Zr  Zr81  1  0.70367599  0.08638962  0.50065348  1
  Zr  Zr82  1  0.20451437  0.80668194  0.19554846  1
  Zr  Zr83  1  0.41028816  0.81309873  0.19778145  1
  Zr  Zr84  1  0.09878891  0.30449710  0.89722286  1
  Zr  Zr85  1  0.49435700  0.10062750  0.90410874  1
  Zr  Zr86  1  0.40397980  0.00240346  0.60443091  1
  Zr  Zr87  1  0.09893339  0.30015615  0.30110217  1
  Zr  Zr88  1  0.69499233  0.90061912  0.68607544  1
  Zr  Zr89  1  -0.00899636  0.79773479  0.59577445  1
  Zr  Zr90  1  0.30698457  0.09363140  0.90183991  1
  Zr  Zr91  1  0.30386598  0.30170761  0.50535731  1
  Zr  Zr92  1  0.80087496  0.40580217  0.19903879  1
  Zr  Zr93  1  0.59980418  -0.00693587  0.00556375  1
  Zr  Zr94  1  0.70248152  0.89565836  0.30949875  1
  Zr  Zr95  1  0.89207669  0.09650516  0.09996852  1
  Zr  Zr96  1  0.57902295  0.59967854  0.58802133  1
  Zr  Zr97  1  0.90232440  0.69463507  0.88759529  1
  Zr  Zr98  1  0.00749187  0.41639867  0.19890980  1
  Zr  Zr99  1  0.09757111  0.70648420  0.50615046  1
  Ta  Ta100  1  0.40290694  0.59882070  0.80571094  1
  Ta  Ta101  1  0.49655930  0.10043002  0.10031867  1
  Ta  Ta102  1  0.30719223  0.49529126  0.30783188  1
  Ta  Ta103  1  0.30281216  0.49554630  0.89868586  1
  Ta  Ta104  1  0.69600603  0.70242422  0.10077756  1
  Ta  Ta105  1  0.40883145  0.19470816  0.60388498  1
  Ta  Ta106  1  0.90843631  0.30301055  0.70052502  1
  Ta  Ta107  1  0.20367938  0.80149415  0.80214899  1
  Ta  Ta108  1  0.70464040  0.31685378  0.90218752  1
  Ta  Ta109  1  0.68950150  0.69144547  0.89273206  1
  Ta  Ta110  1  0.80321091  0.61189673  0.19905836  1
  Ta  Ta111  1  0.69786205  0.09842322  0.29915203  1
  Ta  Ta112  1  0.39599030  0.40138242  0.19107343  1
  Ta  Ta113  1  0.09749337  0.29033482  0.69480780  1
  Ta  Ta114  1  0.09843439  0.30441957  0.09124521  1
  Ta  Ta115  1  0.11049410  0.10600481  0.69830250  1
  Ta  Ta116  1  0.49882747  0.30565686  0.70248222  1
  Ta  Ta117  1  0.79714832  0.60275391  0.59667774  1
  Ta  Ta118  1  0.60044305  0.80396240  0.20018857  1
  Ta  Ta119  1  0.20668790  0.20435170  0.79876149  1
  Ta  Ta120  1  0.09421453  0.49188145  0.89686989  1
  Ta  Ta121  1  0.69979207  0.70024128  0.48723839  1
  Ta  Ta122  1  -0.00722491  0.19719859  0.40333870  1
  Ta  Ta123  1  0.58676366  0.40674270  -0.00784299  1
  Ta  Ta124  1  0.59497904  0.40417300  0.19134753  1
  Ta  Ta125  1  0.09983220  0.90091550  0.49983730  1
  Ta  Ta126  1  0.59186843  -0.00236136  0.20458188  1
  Ta  Ta127  1  0.69903916  0.89839527  0.10994259  1
  Ta  Ta128  1  0.90222679  0.29284096  0.50015535  1
  Ta  Ta129  1  0.80099209  0.19820140  0.39562781  1
  Ta  Ta130  1  0.29788012  0.09999484  0.70199524  1
  Ta  Ta131  1  0.29810098  0.69723712  0.70410139  1
  Ta  Ta132  1  0.80248842  0.40746283  0.79266038  1
  Ta  Ta133  1  0.09607075  0.70818431  0.09171446  1
  Ta  Ta134  1  0.59760336  -0.00809427  0.80106591  1
  Ta  Ta135  1  0.30696603  0.49689290  0.51133984  1
  Ta  Ta136  1  0.79496336  -0.00142190  0.20797118  1
  Ta  Ta137  1  0.30816439  0.30317828  0.29800887  1
  Ta  Ta138  1  0.30690716  0.50265091  0.70242849  1
  Ta  Ta139  1  0.30139508  0.90996935  0.29509420  1
  Ta  Ta140  1  0.19360346  0.39834807  0.59784678  1
  Ta  Ta141  1  0.50479371  0.09615684  0.70324644  1
  Ta  Ta142  1  0.59325387  0.00493451  0.39423538  1
  Ta  Ta143  1  0.20197803  0.59824911  0.80595828  1
  Ta  Ta144  1  0.80018124  0.20048817  -0.00821261  1
  Ta  Ta145  1  0.89451873  0.50536007  0.30459540  1
  Ta  Ta146  1  0.39935787  0.00426327  0.19682002  1
  Ta  Ta147  1  0.59835585  0.18922582  0.39604517  1
  Ta  Ta148  1  0.39805229  -0.00942567  0.79589713  1
  Ta  Ta149  1  0.39519222  0.19345051  0.19733853  1
  Ti  Ti150  1  0.90105330  0.50706964  0.70075878  1
  Ti  Ti151  1  0.40675515  0.58485455  -0.00385035  1
  Ti  Ti152  1  -0.01551240  0.81528953  0.40083486  1
  Ti  Ti153  1  0.20596149  0.40089157  0.00414147  1
  Ti  Ti154  1  0.79622515  0.79448068  0.20665035  1
  Ti  Ti155  1  0.81235288  -0.00330820  0.39729458  1
  Ti  Ti156  1  0.09971510  0.70063244  0.90058158  1
  Ti  Ti157  1  0.69429850  0.10226384  0.10738628  1
  Ti  Ti158  1  0.00246392  0.19529121  0.79870322  1
  Ti  Ti159  1  0.50863145  0.90243317  0.69980662  1
  Ti  Ti160  1  0.68782742  0.29517151  0.29437109  1
  Ti  Ti161  1  -0.00688189  0.79506181  -0.00363335  1
  Ti  Ti162  1  0.41022723  0.41037680  0.60137243  1
  Ti  Ti163  1  0.40219618  0.40495537  0.00294493  1
  Ti  Ti164  1  0.89242878  0.69663257  0.49575043  1
  Ti  Ti165  1  0.10289865  0.90422956  0.30495148  1
  Ti  Ti166  1  0.88335401  0.70296200  0.31374599  1
  Ti  Ti167  1  0.50010648  0.69294943  0.70921638  1
  Ti  Ti168  1  0.40881716  0.40330665  0.81055629  1
  Ti  Ti169  1  0.69946853  0.08666413  0.69620388  1
  Ti  Ti170  1  0.20845691  -0.01366207  0.79675488  1
  Ti  Ti171  1  0.70608583  0.90035869  0.49984007  1
  Ti  Ti172  1  0.60060682  0.60244490  0.19220102  1
  Ti  Ti173  1  0.09289465  0.50444907  0.50523928  1
  Ti  Ti174  1  0.00010419  0.80463576  0.80148875  1
  Ti  Ti175  1  0.10353828  0.89039516  0.89985823  1
  Ti  Ti176  1  0.79964688  0.79531003  0.58718660  1
  Ti  Ti177  1  0.31054561  0.30292069  0.90889995  1
  Ti  Ti178  1  0.39621561  0.82039333  0.00177617  1
  Ti  Ti179  1  0.10808612  0.89097607  0.69356213  1
  Ti  Ti180  1  0.90473663  0.30206036  0.30368509  1
  Ti  Ti181  1  0.89886666  0.68896184  0.69566925  1
  Ti  Ti182  1  0.49685039  0.50397648  0.70780957  1
  Ti  Ti183  1  0.20014412  -0.00349624  0.60948912  1
  Ti  Ti184  1  0.81434750  0.41609453  -0.00461040  1
  Ti  Ti185  1  0.69541743  0.29751209  0.48803137  1
  Ti  Ti186  1  0.29653623  0.10538863  0.51785855  1
  Ti  Ti187  1  -0.00194082  0.59288971  0.80343312  1
  Ti  Ti188  1  0.59264981  0.79922142  0.80672696  1
  Ti  Ti189  1  0.49423888  0.90654304  0.90198485  1
  Ti  Ti190  1  0.00215167  0.39913494  0.40226794  1
  Ti  Ti191  1  0.60080046  0.79896311  0.39799771  1
  Ti  Ti192  1  0.58750514  0.59803609  -0.01011615  1
  Ti  Ti193  1  0.59910692  0.79157387  0.59632693  1
  Ti  Ti194  1  0.59574066  0.40313920  0.80322204  1
  Ti  Ti195  1  -0.00910089  -0.00292570  0.40351933  1
  Ti  Ti196  1  0.69602860  0.51162819  0.70554797  1
  Ti  Ti197  1  0.89648297  0.10123348  0.50130411  1
  Ti  Ti198  1  0.20438727  0.80459576  -0.00280803  1
  Ti  Ti199  1  0.40142938  0.40110877  0.40200728  1
  Mo  Mo200  1  0.20390007  0.20184837  0.60668855  1
  Mo  Mo201  1  0.89641290  0.50475283  0.10797180  1
  Mo  Mo202  1  0.50371222  0.10040838  0.29143796  1
  Mo  Mo203  1  -0.01084293  0.59963581  0.60391903  1
  Mo  Mo204  1  0.49504540  0.49999277  0.89780535  1
  Mo  Mo205  1  0.80026100  0.79890380  0.40634311  1
  Mo  Mo206  1  -0.00060046  0.20215512  0.59736608  1
  Mo  Mo207  1  0.09128709  0.29792627  0.50406641  1
  Mo  Mo208  1  0.30576954  0.90100939  0.10099825  1
  Mo  Mo209  1  0.19912429  0.80104980  0.61066729  1
  Mo  Mo210  1  0.80212127  -0.00116538  0.59186868  1
  Mo  Mo211  1  0.60099666  0.61235922  0.40042266  1
  Mo  Mo212  1  0.50628384  0.10280533  0.50576679  1
  Mo  Mo213  1  0.49911947  0.48810207  0.50049491  1
  Mo  Mo214  1  0.89307618  0.09894539  0.31156516  1
  Mo  Mo215  1  0.49882463  0.31068409  0.89736813  1
  Mo  Mo216  1  0.50200306  0.90541716  0.10254409  1
  Mo  Mo217  1  0.89107803  0.89627891  0.30637091  1
  Mo  Mo218  1  0.69900529  0.70278282  0.29454906  1
  Mo  Mo219  1  0.39908303  0.59714992  0.61318895  1
  Mo  Mo220  1  0.50225092  0.49866323  0.09522491  1
  Mo  Mo221  1  0.40367574  -0.00632813  0.00700272  1
  Mo  Mo222  1  0.60375556  0.00366823  0.60490981  1
  Mo  Mo223  1  0.89520153  0.70483061  0.10172281  1
  Mo  Mo224  1  0.89663351  0.11080927  0.89501609  1
  Mo  Mo225  1  0.89456325  0.90259678  0.49629973  1
  Mo  Mo226  1  0.60254010  0.19177775  0.19879798  1
  Mo  Mo227  1  0.09849404  0.50065374  0.31320509  1
  Mo  Mo228  1  0.79875537  0.59887824  0.78881015  1
  Mo  Mo229  1  0.79773230  0.60681539  0.39729461  1
  Mo  Mo230  1  -0.00206973  0.40246305  0.79238383  1
  Mo  Mo231  1  0.30503126  0.30229340  0.09704894  1
  Mo  Mo232  1  0.50406170  0.90440593  0.30097949  1
  Mo  Mo233  1  0.20722045  -0.00236095  0.20422663  1
  Mo  Mo234  1  0.00082506  0.40599105  -0.00187972  1
  Mo  Mo235  1  0.70048872  0.31222649  0.71094560  1
  Mo  Mo236  1  0.30466494  0.49331391  0.08935578  1
  Mo  Mo237  1  0.50567921  0.71292307  0.50356354  1
  Mo  Mo238  1  0.30253539  0.89610840  0.89953002  1
  Mo  Mo239  1  0.49776461  0.69576461  0.89992226  1
  Mo  Mo240  1  0.60627400  0.38621744  0.38958470  1
  Mo  Mo241  1  0.90766571  0.88817527  0.89463336  1
  Mo  Mo242  1  0.90250386  0.49909962  0.88556075  1
  Mo  Mo243  1  0.58895824  0.60037829  0.79966656  1
  Mo  Mo244  1  0.39676715  0.20351265  0.00428638  1
  Mo  Mo245  1  0.29361250  0.89831787  0.70543551  1
  Mo  Mo246  1  0.30180594  0.09912952  0.29219459  1
  Mo  Mo247  1  0.31190095  0.09637347  0.09938396  1
  Mo  Mo248  1  0.68847305  0.89251666  0.89162163  1
  Mo  Mo249  1  0.10002947  0.48997140  0.08460034  1
