# generated using pymatgen
data_HfZrTaTiMo
_symmetry_space_group_name_H-M   'P 1'
_cell_length_a   16.88232155
_cell_length_b   16.89406891
_cell_length_c   16.89317699
_cell_angle_alpha   89.92386168
_cell_angle_beta   89.96946249
_cell_angle_gamma   89.97720252
_symmetry_Int_Tables_number   1
_chemical_formula_structural   HfZrTaTiMo
_chemical_formula_sum   'Hf50 Zr50 Ta50 Ti50 Mo50'
_cell_volume   4818.11633447
_cell_formula_units_Z   50
loop_
 _symmetry_equiv_pos_site_id
 _symmetry_equiv_pos_as_xyz
  1  'x, y, z'
loop_
 _atom_site_type_symbol
 _atom_site_label
 _atom_site_symmetry_multiplicity
 _atom_site_fract_x
 _atom_site_fract_y
 _atom_site_fract_z
 _atom_site_occupancy
  Hf  Hf0  1  0.70245388  0.09957203  0.30187763  1
  Hf  Hf1  1  0.20451610  -0.00502448  0.80137153  1
  Hf  Hf2  1  0.39477324  0.19148382  0.60021113  1
  Hf  Hf3  1  0.49803361  0.09287675  0.70601494  1
  Hf  Hf4  1  0.89970701  0.50526241  0.29949514  1
  Hf  Hf5  1  0.89529885  0.30083701  0.10044705  1
  Hf  Hf6  1  0.69639640  0.90144222  0.09317901  1
  Hf  Hf7  1  0.40746583  0.79628872  0.20015638  1
  Hf  Hf8  1  0.50065187  0.90023722  0.30564754  1
  Hf  Hf9  1  0.19279285  0.61149653  0.40298222  1
  Hf  Hf10  1  0.00953457  0.80785381  0.81214113  1
  Hf  Hf11  1  0.00027507  0.39550990  0.39715790  1
  Hf  Hf12  1  0.20523970  0.19784753  0.19854947  1
  Hf  Hf13  1  0.49838116  0.10990051  0.08637390  1
  Hf  Hf14  1  0.11106838  0.68974725  0.90473305  1
  Hf  Hf15  1  0.89288528  0.49736620  0.49655698  1
  Hf  Hf16  1  0.29891657  0.69770911  0.09673493  1
  Hf  Hf17  1  0.49858280  0.69711420  0.91026525  1
  Hf  Hf18  1  0.79935079  0.80200585  0.20448613  1
  Hf  Hf19  1  0.00271915  0.81086620  0.00481124  1
  Hf  Hf20  1  0.70626565  0.91177719  0.70725767  1
  Hf  Hf21  1  0.60213834  0.79880523  0.80361392  1
  Hf  Hf22  1  0.49241637  0.70757313  0.70155936  1
  Hf  Hf23  1  0.49799771  0.29056327  0.71221524  1
  Hf  Hf24  1  0.10648147  0.49188950  0.69418277  1
  Hf  Hf25  1  0.79596516  0.61711745  0.59809859  1
  Hf  Hf26  1  0.20556520  0.19134501  0.79674979  1
  Hf  Hf27  1  0.59834460  0.39464852  0.59533097  1
  Hf  Hf28  1  0.60943394  0.60789557  0.60369391  1
  Hf  Hf29  1  0.49915780  0.49333669  0.29986388  1
  Hf  Hf30  1  0.10400785  0.91331182  0.11456858  1
  Hf  Hf31  1  0.19389354  0.79890598  0.59100666  1
  Hf  Hf32  1  0.00284269  0.80411772  0.21154182  1
  Hf  Hf33  1  0.90506905  0.90630005  0.70004434  1
  Hf  Hf34  1  0.79387502  0.61987501  0.40230171  1
  Hf  Hf35  1  0.10315360  0.30232441  0.09904617  1
  Hf  Hf36  1  0.19348388  0.39669101  0.39651210  1
  Hf  Hf37  1  0.29525892  0.50372321  0.29224984  1
  Hf  Hf38  1  0.28937258  0.90441108  0.30473523  1
  Hf  Hf39  1  0.69147562  0.30568991  0.09267821  1
  Hf  Hf40  1  0.40258181  0.38786374  0.39270255  1
  Hf  Hf41  1  0.40458855  0.60493458  0.19311030  1
  Hf  Hf42  1  0.70494755  0.29701795  0.70248778  1
  Hf  Hf43  1  0.39826007  0.20468892  0.20239613  1
  Hf  Hf44  1  0.51196367  0.50279970  0.48682365  1
  Hf  Hf45  1  0.40181319  0.00549851  0.19993744  1
  Hf  Hf46  1  0.71203483  0.90652668  0.48897527  1
  Hf  Hf47  1  0.80600307  0.19940685  0.59799141  1
  Hf  Hf48  1  0.49761286  0.70299443  0.49895456  1
  Hf  Hf49  1  0.59726910  0.00099388  0.20072922  1
  Zr  Zr50  1  -0.00518667  0.38503966  0.60357350  1
  Zr  Zr51  1  0.61538676  0.79799716  0.60390041  1
  Zr  Zr52  1  0.10020874  0.69961613  0.70408753  1
  Zr  Zr53  1  0.39574728  0.20216252  0.39287470  1
  Zr  Zr54  1  0.00890402  0.00171824  0.80947312  1
  Zr  Zr55  1  0.68708923  0.49899435  0.31339992  1
  Zr  Zr56  1  0.60276414  0.19297899  0.58803772  1
  Zr  Zr57  1  0.80925614  0.80015412  0.58884153  1
  Zr  Zr58  1  0.70243252  0.49318111  0.69613681  1
  Zr  Zr59  1  0.29710530  0.49206314  0.50022146  1
  Zr  Zr60  1  0.09141497  0.09842930  0.69350321  1
  Zr  Zr61  1  0.90084940  0.09461654  0.30553122  1
  Zr  Zr62  1  -0.00247315  0.61490026  0.58995673  1
  Zr  Zr63  1  0.39440276  0.59713430  0.80445663  1
  Zr  Zr64  1  0.50473868  0.49585733  0.09546306  1
  Zr  Zr65  1  0.49641440  0.30389504  0.09765368  1
  Zr  Zr66  1  0.80885889  0.01275279  0.58750303  1
  Zr  Zr67  1  0.39613570  0.59954007  0.59840478  1
  Zr  Zr68  1  0.10830114  0.68935180  0.11037898  1
  Zr  Zr69  1  0.29837562  0.90527805  0.10607123  1
  Zr  Zr70  1  0.81052477  0.00075728  0.18767069  1
  Zr  Zr71  1  -0.00119436  0.58906818  0.00112460  1
  Zr  Zr72  1  0.09882805  0.09761243  0.10068122  1
  Zr  Zr73  1  0.70524688  0.91091781  0.89522290  1
  Zr  Zr74  1  0.29743987  0.48931313  0.69596892  1
  Zr  Zr75  1  -0.00344460  0.40031106  0.20211243  1
  Zr  Zr76  1  0.20692667  0.39565642  0.00220585  1
  Zr  Zr77  1  0.59126198  -0.00138471  -0.00669925  1
  Zr  Zr78  1  0.69610433  0.70457132  0.08570023  1
  Zr  Zr79  1  0.79220797  0.60021660  0.20188500  1
  Zr  Zr80  1  0.59864102  0.39936787  0.80728340  1
  Zr  Zr81  1  0.20238184  0.81329307  -0.01081909  1
  Zr  Zr82  1  0.79285121  0.60179834  0.80452821  1
  Zr  Zr83  1  0.90431035  0.69359529  0.10576688  1
  Zr  Zr84  1  0.89564311  0.70148837  0.90507504  1
  Zr  Zr85  1  0.29940574  0.08688646  0.49408068  1
  Zr  Zr86  1  0.19522937  0.19453789  0.59566483  1
  Zr  Zr87  1  0.80608811  0.39544865  0.81496285  1
  Zr  Zr88  1  -0.00958350  0.58791598  0.80204877  1
  Zr  Zr89  1  0.60000525  0.61018504  0.20084809  1
  Zr  Zr90  1  0.69574873  0.09755483  0.71283219  1
  Zr  Zr91  1  0.89270840  0.49082470  0.69121748  1
  Zr  Zr92  1  0.79959858  0.19903207  -0.00085401  1
  Zr  Zr93  1  0.61198783  0.79626035  0.39425215  1
  Zr  Zr94  1  0.49008881  0.89935948  0.50829883  1
  Zr  Zr95  1  -0.00349347  0.19288560  0.20348074  1
  Zr  Zr96  1  0.10981477  0.49508235  0.89638432  1
  Zr  Zr97  1  0.30084157  0.30432848  0.69739679  1
  Zr  Zr98  1  0.20736612  0.80913720  0.80129287  1
  Zr  Zr99  1  0.19391181  0.19924937  0.39451916  1
  Ta  Ta100  1  -0.00205934  0.39066302  0.80349497  1
  Ta  Ta101  1  0.10428536  0.50195941  0.11032390  1
  Ta  Ta102  1  0.89679584  0.91005198  0.90257155  1
  Ta  Ta103  1  0.31086203  0.10295513  0.89962179  1
  Ta  Ta104  1  0.40164454  0.80432251  -0.00405658  1
  Ta  Ta105  1  0.60224694  0.00702204  0.40465058  1
  Ta  Ta106  1  0.59859449  0.79814286  0.19884106  1
  Ta  Ta107  1  0.20422672  0.00607406  -0.00786774  1
  Ta  Ta108  1  0.69401187  0.10670233  0.09461926  1
  Ta  Ta109  1  0.89450724  0.49410255  0.10102809  1
  Ta  Ta110  1  0.60012924  0.00116590  0.59478763  1
  Ta  Ta111  1  0.09510725  0.90039112  0.68786688  1
  Ta  Ta112  1  0.29512401  0.70090402  0.29781458  1
  Ta  Ta113  1  0.70094161  0.49609121  0.49689940  1
  Ta  Ta114  1  0.89032843  0.29383132  0.30374657  1
  Ta  Ta115  1  0.39092008  0.79675761  0.39775100  1
  Ta  Ta116  1  0.79077969  0.40036568  0.20142682  1
  Ta  Ta117  1  0.09920052  0.10697384  0.90680552  1
  Ta  Ta118  1  0.39344233  0.40202327  -0.00220228  1
  Ta  Ta119  1  0.79576292  0.39200098  0.39693469  1
  Ta  Ta120  1  0.80674617  0.81077151  0.00209524  1
  Ta  Ta121  1  0.90446804  0.90515467  0.31177385  1
  Ta  Ta122  1  0.19947279  -0.00306158  0.59780289  1
  Ta  Ta123  1  0.39252022  0.80760119  0.80478046  1
  Ta  Ta124  1  0.09895745  0.29194243  0.89967165  1
  Ta  Ta125  1  0.49742736  0.10948684  0.89213624  1
  Ta  Ta126  1  0.09760904  0.50008895  0.49947774  1
  Ta  Ta127  1  0.49775176  0.29182173  0.90678579  1
  Ta  Ta128  1  0.30896141  0.29294307  0.89826147  1
  Ta  Ta129  1  0.29918695  0.89800120  0.49758003  1
  Ta  Ta130  1  0.10029678  0.51188453  0.29276487  1
  Ta  Ta131  1  0.60261265  0.60061211  0.80367516  1
  Ta  Ta132  1  0.49481810  0.90295758  0.69927244  1
  Ta  Ta133  1  0.00569283  0.80362283  0.41096780  1
  Ta  Ta134  1  0.69402290  0.49528885  0.91820496  1
  Ta  Ta135  1  0.90363342  0.71298289  0.70272685  1
  Ta  Ta136  1  0.20836503  0.19952179  -0.00150507  1
  Ta  Ta137  1  0.19742729  0.60429612  0.59379382  1
  Ta  Ta138  1  0.00308870  0.19421930  0.40599824  1
  Ta  Ta139  1  0.80662034  0.20028204  0.80375750  1
  Ta  Ta140  1  0.59875566  0.20162460  0.20384961  1
  Ta  Ta141  1  -0.00312549  0.40084363  -0.00396903  1
  Ta  Ta142  1  0.89685644  0.29717916  0.49563686  1
  Ta  Ta143  1  0.90592433  0.29545758  0.90424825  1
  Ta  Ta144  1  0.49882448  0.49979560  0.90632375  1
  Ta  Ta145  1  0.50060154  0.49818275  0.70390808  1
  Ta  Ta146  1  0.00329097  0.61271500  0.39895395  1
  Ta  Ta147  1  0.79820492  0.19475602  0.40744996  1
  Ta  Ta148  1  0.69507167  0.10161810  0.89597356  1
  Ta  Ta149  1  0.90273143  0.10197930  0.90177304  1
  Ti  Ti150  1  0.90451696  0.70569938  0.30532121  1
  Ti  Ti151  1  0.60164405  0.39532328  0.20462553  1
  Ti  Ti152  1  0.49804816  0.09508087  0.49747032  1
  Ti  Ti153  1  0.59885418  0.59803110  0.00305852  1
  Ti  Ti154  1  0.30063470  0.49115132  0.11177391  1
  Ti  Ti155  1  -0.00784196  0.00138143  0.00954882  1
  Ti  Ti156  1  0.39751408  -0.00351939  -0.00566544  1
  Ti  Ti157  1  0.29511325  0.30407662  0.50579663  1
  Ti  Ti158  1  0.20249188  0.39143664  0.80535295  1
  Ti  Ti159  1  0.39277387  -0.00177471  0.79828771  1
  Ti  Ti160  1  0.39531327  0.60445306  0.39785177  1
  Ti  Ti161  1  0.00378016  -0.00268348  0.57693482  1
  Ti  Ti162  1  0.19355330  0.79783059  0.21325485  1
  Ti  Ti163  1  0.50258360  0.89263282  0.09293001  1
  Ti  Ti164  1  0.18898115  0.79879695  0.39958321  1
  Ti  Ti165  1  0.41110933  0.39627168  0.59483545  1
  Ti  Ti166  1  0.70879211  0.90641577  0.30287071  1
  Ti  Ti167  1  0.17995765  -0.00721753  0.40877896  1
  Ti  Ti168  1  0.80667649  0.00645535  0.00258219  1
  Ti  Ti169  1  0.29633547  0.31680477  0.27895970  1
  Ti  Ti170  1  0.21770653  0.58317911  -0.00036699  1
  Ti  Ti171  1  0.21175239  0.59635742  0.79763360  1
  Ti  Ti172  1  0.69869078  0.70237727  0.90789353  1
  Ti  Ti173  1  0.10103819  0.29884291  0.70143607  1
  Ti  Ti174  1  0.09814228  0.29848172  0.50361554  1
  Ti  Ti175  1  0.09640060  0.08003642  0.29734082  1
  Ti  Ti176  1  0.50188088  0.10315365  0.30477565  1
  Ti  Ti177  1  0.30452320  0.69401464  0.90658760  1
  Ti  Ti178  1  -0.00126507  0.19785260  0.00192763  1
  Ti  Ti179  1  0.40036321  0.40150861  0.80854179  1
  Ti  Ti180  1  0.90316012  0.09848405  0.70442052  1
  Ti  Ti181  1  0.69202667  0.29480647  0.90545627  1
  Ti  Ti182  1  0.29070250  0.08890157  0.30195131  1
  Ti  Ti183  1  0.30104588  0.70492559  0.69619179  1
  Ti  Ti184  1  0.80133881  0.79962225  0.80295101  1
  Ti  Ti185  1  0.79849205  0.58887906  0.00270749  1
  Ti  Ti186  1  -0.00669374  0.19426957  0.59314863  1
  Ti  Ti187  1  0.70183947  0.30203893  0.49421661  1
  Ti  Ti188  1  0.09805814  0.30007647  0.29393312  1
  Ti  Ti189  1  0.30207010  0.10045532  0.09317882  1
  Ti  Ti190  1  0.50122828  0.69662470  0.30902495  1
  Ti  Ti191  1  -0.00383410  0.20530266  0.79682831  1
  Ti  Ti192  1  0.30947298  0.90309766  0.68555372  1
  Ti  Ti193  1  0.60049916  0.20034274  0.39768281  1
  Ti  Ti194  1  0.40343406  -0.00107977  0.39862384  1
  Ti  Ti195  1  0.49699390  0.90295664  0.89252898  1
  Ti  Ti196  1  0.79517693  0.19985504  0.19806120  1
  Ti  Ti197  1  0.69829429  0.29651705  0.30198907  1
  Ti  Ti198  1  0.30232551  0.70645002  0.49879733  1
  Ti  Ti199  1  0.50319617  0.29589042  0.49196050  1
  Mo  Mo200  1  0.09929497  0.90211568  0.30700790  1
  Mo  Mo201  1  0.10114428  0.89950783  0.50080452  1
  Mo  Mo202  1  0.79874536  0.40001015  0.00388114  1
  Mo  Mo203  1  0.69835993  0.70852508  0.29526016  1
  Mo  Mo204  1  0.79549410  0.38835985  0.58546220  1
  Mo  Mo205  1  0.19562180  0.40195342  0.20008128  1
  Mo  Mo206  1  0.89262969  0.48795340  0.91189226  1
  Mo  Mo207  1  0.00169885  0.60062320  0.20702724  1
  Mo  Mo208  1  0.38741707  0.80081614  0.60090440  1
  Mo  Mo209  1  0.80330607  0.00225550  0.39725911  1
  Mo  Mo210  1  0.00052457  0.80859278  0.59846213  1
  Mo  Mo211  1  0.58460663  -0.00337986  0.79887268  1
  Mo  Mo212  1  0.50914720  0.29704642  0.29658455  1
  Mo  Mo213  1  0.20315935  0.59989562  0.20140296  1
  Mo  Mo214  1  0.70036167  0.49413610  0.09624220  1
  Mo  Mo215  1  0.09641847  0.09638583  0.49728657  1
  Mo  Mo216  1  0.39889651  0.19777046  0.80075434  1
  Mo  Mo217  1  0.39748172  0.39999885  0.19619110  1
  Mo  Mo218  1  0.80995039  0.80458991  0.39279782  1
  Mo  Mo219  1  0.90787955  0.90597737  0.49151584  1
  Mo  Mo220  1  0.30518771  0.49176148  0.89747741  1
  Mo  Mo221  1  0.39324919  0.59458850  0.00151824  1
  Mo  Mo222  1  0.09887800  0.91628846  0.91269671  1
  Mo  Mo223  1  0.89736508  0.10069476  0.09493099  1
  Mo  Mo224  1  0.70030823  0.70481895  0.49204531  1
  Mo  Mo225  1  0.60251026  0.38139988  0.40085536  1
  Mo  Mo226  1  0.39881980  -0.00246814  0.59963770  1
  Mo  Mo227  1  0.00328907  -0.00229978  0.40378300  1
  Mo  Mo228  1  0.30169221  0.30022925  0.09802679  1
  Mo  Mo229  1  0.00213016  -0.00526246  0.20584922  1
  Mo  Mo230  1  0.69586847  0.10066967  0.49226262  1
  Mo  Mo231  1  0.39495575  0.20253834  -0.00204108  1
  Mo  Mo232  1  0.59633302  0.39886016  -0.00416234  1
  Mo  Mo233  1  0.90294550  0.90441970  0.09877606  1
  Mo  Mo234  1  0.20436138  0.00803756  0.20383029  1
  Mo  Mo235  1  0.70756329  0.70549042  0.71807692  1
  Mo  Mo236  1  0.90265033  0.28873353  0.70518167  1
  Mo  Mo237  1  0.30428544  0.08564027  0.70120888  1
  Mo  Mo238  1  0.60269307  0.60831847  0.40396992  1
  Mo  Mo239  1  0.18712395  0.39768743  0.59258078  1
  Mo  Mo240  1  0.90694064  0.10438861  0.49642306  1
  Mo  Mo241  1  0.60334111  0.19945520  0.80830570  1
  Mo  Mo242  1  0.59971920  0.19970342  -0.00415874  1
  Mo  Mo243  1  0.59335489  0.80178821  -0.00210444  1
  Mo  Mo244  1  0.31187396  0.91078477  0.90203590  1
  Mo  Mo245  1  0.90335028  0.71108332  0.49447063  1
  Mo  Mo246  1  0.10088395  0.70394976  0.30458660  1
  Mo  Mo247  1  0.81443328  0.01218836  0.80526289  1
  Mo  Mo248  1  0.49994528  0.70803306  0.08978677  1
  Mo  Mo249  1  0.09876054  0.70305568  0.49907206  1
