# generated using pymatgen
data_HfZrTaTiMo
_symmetry_space_group_name_H-M   'P 1'
_cell_length_a   16.87708417
_cell_length_b   16.88990771
_cell_length_c   16.89430559
_cell_angle_alpha   89.95712290
_cell_angle_beta   90.01859082
_cell_angle_gamma   90.01829404
_symmetry_Int_Tables_number   1
_chemical_formula_structural   HfZrTaTiMo
_chemical_formula_sum   'Hf50 Zr50 Ta50 Ti50 Mo50'
_cell_volume   4815.76040510
_cell_formula_units_Z   50
loop_
 _symmetry_equiv_pos_site_id
 _symmetry_equiv_pos_as_xyz
  1  'x, y, z'
loop_
 _atom_site_type_symbol
 _atom_site_label
 _atom_site_symmetry_multiplicity
 _atom_site_fract_x
 _atom_site_fract_y
 _atom_site_fract_z
 _atom_site_occupancy
  Hf  Hf0  1  0.39886627  0.00823733  0.80448954  1
  Hf  Hf1  1  0.10032546  0.29917750  0.90137398  1
  Hf  Hf2  1  0.20594009  0.79556463  0.19814095  1
  Hf  Hf3  1  0.89145269  0.50711472  0.70651208  1
  Hf  Hf4  1  0.90429573  0.89216745  0.51012631  1
  Hf  Hf5  1  0.79934776  0.19630857  0.80582048  1
  Hf  Hf6  1  0.09423555  0.49584101  0.50089551  1
  Hf  Hf7  1  0.38877195  -0.00627633  0.38935514  1
  Hf  Hf8  1  0.40551550  0.39572670  0.40945313  1
  Hf  Hf9  1  0.50421575  0.89534016  0.09904558  1
  Hf  Hf10  1  0.90149452  0.50525889  0.49801304  1
  Hf  Hf11  1  0.60813883  0.79210574  0.60992731  1
  Hf  Hf12  1  0.78581036  0.39476203  0.39927882  1
  Hf  Hf13  1  0.60765956  0.00158481  -0.00595633  1
  Hf  Hf14  1  0.79598393  0.59507905  0.18125724  1
  Hf  Hf15  1  0.60534155  0.79507384  0.79811322  1
  Hf  Hf16  1  0.69528716  0.10695961  0.70361531  1
  Hf  Hf17  1  -0.00477415  0.79569649  0.19779799  1
  Hf  Hf18  1  -0.00131268  0.79334544  0.40560839  1
  Hf  Hf19  1  0.40557189  0.21137534  0.20013567  1
  Hf  Hf20  1  0.39702936  0.20551991  0.59586808  1
  Hf  Hf21  1  0.80062401  0.40616271  0.19181244  1
  Hf  Hf22  1  0.00501575  0.39196873  0.60924649  1
  Hf  Hf23  1  -0.00706536  0.00276406  -0.00149548  1
  Hf  Hf24  1  0.10333501  0.11290975  0.70919027  1
  Hf  Hf25  1  0.28824127  0.48575529  0.50910829  1
  Hf  Hf26  1  0.49712874  0.88820723  0.90407458  1
  Hf  Hf27  1  0.39323685  0.59949668  0.40387316  1
  Hf  Hf28  1  0.49694016  0.09788061  0.49880150  1
  Hf  Hf29  1  0.20415137  0.79811900  0.00058346  1
  Hf  Hf30  1  0.89416931  0.30445821  0.90845695  1
  Hf  Hf31  1  0.90223402  0.70643963  0.69828350  1
  Hf  Hf32  1  0.39344357  0.60130396  0.60246210  1
  Hf  Hf33  1  0.39893540  0.00575008  -0.00674115  1
  Hf  Hf34  1  0.59226685  0.20795881  0.60160914  1
  Hf  Hf35  1  0.50630390  0.10487855  0.09623762  1
  Hf  Hf36  1  0.09857195  0.89950750  0.30904522  1
  Hf  Hf37  1  0.80546191  -0.00026091  0.60781349  1
  Hf  Hf38  1  0.60606358  -0.00205882  0.80484572  1
  Hf  Hf39  1  0.29929908  0.70403336  0.89416124  1
  Hf  Hf40  1  0.90442134  0.50423030  0.31318630  1
  Hf  Hf41  1  0.29131214  0.29615867  0.70441093  1
  Hf  Hf42  1  0.89456884  0.89560485  0.30501314  1
  Hf  Hf43  1  0.69715555  0.69127745  0.31060017  1
  Hf  Hf44  1  0.19488658  0.00824923  0.60387093  1
  Hf  Hf45  1  0.70707462  0.29902264  0.08345778  1
  Hf  Hf46  1  0.40827821  0.40286455  0.20103012  1
  Hf  Hf47  1  0.80683935  0.19997794  0.19538839  1
  Hf  Hf48  1  0.29901797  0.30314007  0.30496317  1
  Hf  Hf49  1  0.10174534  0.89954882  0.09222149  1
  Zr  Zr50  1  0.90196242  0.69899693  0.07797962  1
  Zr  Zr51  1  0.61117352  0.39948738  0.79327387  1
  Zr  Zr52  1  -0.00344098  0.00421744  0.19868853  1
  Zr  Zr53  1  0.60431448  0.20869377  0.39791334  1
  Zr  Zr54  1  0.60366773  -0.00467171  0.39514210  1
  Zr  Zr55  1  0.09252798  0.49514760  0.08546426  1
  Zr  Zr56  1  0.49776129  0.49792308  0.70331197  1
  Zr  Zr57  1  0.60250283  0.80137700  0.40041496  1
  Zr  Zr58  1  0.10783645  0.09562047  0.09388479  1
  Zr  Zr59  1  0.09303752  0.69194552  0.30282514  1
  Zr  Zr60  1  0.50526144  0.50465148  0.09335467  1
  Zr  Zr61  1  0.49899683  0.09678352  0.29551773  1
  Zr  Zr62  1  0.19629623  0.59704911  0.40193353  1
  Zr  Zr63  1  0.01207832  0.19296340  0.40263304  1
  Zr  Zr64  1  0.90608329  0.30384075  0.49931142  1
  Zr  Zr65  1  0.50831868  0.69185129  0.49834258  1
  Zr  Zr66  1  0.20620322  0.59820924  -0.00458820  1
  Zr  Zr67  1  0.60340115  -0.00492361  0.60676338  1
  Zr  Zr68  1  0.30463355  0.09903256  0.10310259  1
  Zr  Zr69  1  0.20499313  0.20649045  0.00400072  1
  Zr  Zr70  1  0.50232105  0.29947568  0.89388199  1
  Zr  Zr71  1  0.01440862  0.80612783  0.78583486  1
  Zr  Zr72  1  -0.00450355  0.40119471  0.80233785  1
  Zr  Zr73  1  0.80269200  -0.00363992  0.80143671  1
  Zr  Zr74  1  0.18979659  0.01312895  0.40266022  1
  Zr  Zr75  1  0.49002857  0.89904871  0.70197482  1
  Zr  Zr76  1  0.20899354  -0.00402337  0.21175174  1
  Zr  Zr77  1  0.79842167  0.19724611  0.40111994  1
  Zr  Zr78  1  0.19014334  0.39812149  0.20612185  1
  Zr  Zr79  1  0.70524422  0.51617204  0.89074896  1
  Zr  Zr80  1  0.80244782  -0.00343417  0.18636544  1
  Zr  Zr81  1  0.79301638  0.78988341  0.19100222  1
  Zr  Zr82  1  0.30072947  0.49554245  0.10200546  1
  Zr  Zr83  1  0.39328128  0.79715672  0.39062902  1
  Zr  Zr84  1  0.60746782  0.20941925  0.20163447  1
  Zr  Zr85  1  0.29947127  0.48996925  0.70720069  1
  Zr  Zr86  1  0.51111279  0.51065160  0.30571003  1
  Zr  Zr87  1  0.90161865  0.89085853  0.89884551  1
  Zr  Zr88  1  0.49314354  0.89965480  0.50555341  1
  Zr  Zr89  1  0.69656377  0.50652634  0.30596850  1
  Zr  Zr90  1  0.79113410  0.40286652  0.60590892  1
  Zr  Zr91  1  0.90572450  0.30296283  0.30056713  1
  Zr  Zr92  1  0.29131465  0.89847743  0.50454042  1
  Zr  Zr93  1  0.18551404  0.79483696  0.61515305  1
  Zr  Zr94  1  -0.00462581  0.59183248  0.19436566  1
  Zr  Zr95  1  0.19497410  0.20265174  0.40596949  1
  Zr  Zr96  1  0.80261799  0.00113616  0.40663457  1
  Zr  Zr97  1  0.40014787  0.60700997  0.00132789  1
  Zr  Zr98  1  0.49650150  0.50383807  0.89333918  1
  Zr  Zr99  1  0.38574480  0.78327850  0.60629490  1
  Ta  Ta100  1  0.39797912  0.79382918  0.00871799  1
  Ta  Ta101  1  0.61031775  -0.00595455  0.19341653  1
  Ta  Ta102  1  -0.00398515  0.19762411  0.00329995  1
  Ta  Ta103  1  0.60502639  0.60816684  0.18050458  1
  Ta  Ta104  1  0.69153996  0.50742579  0.49893455  1
  Ta  Ta105  1  0.50627161  0.30513816  0.08660096  1
  Ta  Ta106  1  0.29581939  0.90180726  0.71033246  1
  Ta  Ta107  1  0.70258559  0.29646967  0.70154823  1
  Ta  Ta108  1  0.20040351  0.60634963  0.60650593  1
  Ta  Ta109  1  0.09322691  0.89980005  0.50778520  1
  Ta  Ta110  1  -0.00020944  0.00130679  0.60774713  1
  Ta  Ta111  1  0.39912686  0.61039694  0.19960808  1
  Ta  Ta112  1  0.30262532  0.11044800  0.29953284  1
  Ta  Ta113  1  0.29705019  0.69637942  0.29892403  1
  Ta  Ta114  1  0.10418965  0.49871435  0.70060278  1
  Ta  Ta115  1  0.89660713  0.29259841  0.70364400  1
  Ta  Ta116  1  0.19975835  0.59827580  0.19984610  1
  Ta  Ta117  1  0.70018431  0.10225269  0.50410014  1
  Ta  Ta118  1  0.30020477  0.89748652  0.89698120  1
  Ta  Ta119  1  0.39696581  0.79568662  0.19677896  1
  Ta  Ta120  1  0.19972934  0.00039281  0.80215317  1
  Ta  Ta121  1  0.90433873  0.30530382  0.09211099  1
  Ta  Ta122  1  0.39576765  0.39858425  -0.00816296  1
  Ta  Ta123  1  0.90337413  0.09914949  0.29879571  1
  Ta  Ta124  1  0.40486235  0.38856637  0.59722898  1
  Ta  Ta125  1  0.09592365  0.69573908  0.89948069  1
  Ta  Ta126  1  0.09829022  0.69401531  0.09128813  1
  Ta  Ta127  1  0.79889379  0.00417755  -0.00289300  1
  Ta  Ta128  1  0.89795458  0.69709316  0.50578928  1
  Ta  Ta129  1  0.29683262  0.10854584  0.70719384  1
  Ta  Ta130  1  0.10137935  0.09932679  0.89874081  1
  Ta  Ta131  1  -0.00194478  0.60109360  0.80336910  1
  Ta  Ta132  1  -0.00006279  0.39913923  0.19900522  1
  Ta  Ta133  1  0.60875196  0.40686926  -0.00376329  1
  Ta  Ta134  1  0.89054468  0.68924772  0.31418770  1
  Ta  Ta135  1  0.30471054  0.30070110  0.88892741  1
  Ta  Ta136  1  0.40118141  0.20458939  -0.00501900  1
  Ta  Ta137  1  0.59697473  0.39865802  0.59942390  1
  Ta  Ta138  1  0.80528949  0.19671691  0.59799210  1
  Ta  Ta139  1  0.70494573  0.09428193  0.29328608  1
  Ta  Ta140  1  0.60608642  0.59972575  0.60945896  1
  Ta  Ta141  1  0.61075667  0.40484457  0.19146577  1
  Ta  Ta142  1  0.09754395  0.49982321  0.89758627  1
  Ta  Ta143  1  0.19735275  0.60025608  0.79851223  1
  Ta  Ta144  1  0.79267282  0.60415040  0.60208647  1
  Ta  Ta145  1  0.19098299  0.20363110  0.20721015  1
  Ta  Ta146  1  0.00461156  0.20126849  0.19536566  1
  Ta  Ta147  1  0.00567061  0.60529947  0.60705188  1
  Ta  Ta148  1  0.70226498  0.10663213  0.09018701  1
  Ta  Ta149  1  0.70117264  0.89420133  0.29320585  1
  Ti  Ti150  1  0.40163973  0.78950252  0.79540650  1
  Ti  Ti151  1  0.60258780  0.79022096  0.18987471  1
  Ti  Ti152  1  0.90242168  0.10357757  0.90234554  1
  Ti  Ti153  1  0.80113817  0.80065292  0.79816388  1
  Ti  Ti154  1  0.80711367  0.59871653  -0.00828477  1
  Ti  Ti155  1  0.18685428  0.38992611  0.40266176  1
  Ti  Ti156  1  0.10787079  0.90612201  0.90022454  1
  Ti  Ti157  1  0.69395300  0.30179596  0.50564087  1
  Ti  Ti158  1  0.89566232  0.89049329  0.08849802  1
  Ti  Ti159  1  0.50668303  0.69973028  0.90512310  1
  Ti  Ti160  1  0.69727332  0.28858463  0.90249452  1
  Ti  Ti161  1  0.70268113  0.89822581  0.50414827  1
  Ti  Ti162  1  0.90581797  0.10524034  0.70205108  1
  Ti  Ti163  1  0.70747550  0.70321843  0.90640915  1
  Ti  Ti164  1  0.00030017  0.01070476  0.41169354  1
  Ti  Ti165  1  0.19530518  0.80044076  0.79558198  1
  Ti  Ti166  1  0.00216141  -0.00220662  0.79454234  1
  Ti  Ti167  1  0.20159085  0.79455121  0.40558495  1
  Ti  Ti168  1  0.30391319  0.30390205  0.09840708  1
  Ti  Ti169  1  0.09407592  0.30441484  0.09485831  1
  Ti  Ti170  1  0.39102210  0.00716938  0.60697740  1
  Ti  Ti171  1  0.50512626  0.69672728  0.29527987  1
  Ti  Ti172  1  0.40201315  0.20899435  0.40545313  1
  Ti  Ti173  1  -0.00127705  0.20463899  0.80287616  1
  Ti  Ti174  1  0.50906406  0.49772736  0.50107957  1
  Ti  Ti175  1  0.49521808  0.10980426  0.70895008  1
  Ti  Ti176  1  0.69965810  0.88714500  0.08780906  1
  Ti  Ti177  1  0.30036064  0.10520577  0.50070313  1
  Ti  Ti178  1  0.51430775  0.31412542  0.30507237  1
  Ti  Ti179  1  0.29706218  0.49859274  0.30113933  1
  Ti  Ti180  1  0.79448767  0.80334579  0.60932945  1
  Ti  Ti181  1  0.00438636  0.79535405  -0.01095574  1
  Ti  Ti182  1  0.79780897  0.40167216  0.80212421  1
  Ti  Ti183  1  0.19212976  0.21107237  0.59272498  1
  Ti  Ti184  1  0.20857690  0.40089991  -0.00974629  1
  Ti  Ti185  1  0.30150466  0.90357504  0.09421584  1
  Ti  Ti186  1  0.19402792  0.39933267  0.80070542  1
  Ti  Ti187  1  0.51211668  0.11702942  0.89496082  1
  Ti  Ti188  1  0.80254738  0.41643773  -0.00255319  1
  Ti  Ti189  1  0.00236138  0.19870600  0.59805583  1
  Ti  Ti190  1  0.71019673  0.69355922  0.70887791  1
  Ti  Ti191  1  0.09392173  0.69942609  0.50612567  1
  Ti  Ti192  1  0.79421362  0.79416002  0.40974994  1
  Ti  Ti193  1  0.29210765  0.10741553  0.89520809  1
  Ti  Ti194  1  0.39544975  0.60655853  0.79664681  1
  Ti  Ti195  1  0.50562280  0.89391544  0.28904967  1
  Ti  Ti196  1  0.60045212  0.60952351  0.79348541  1
  Ti  Ti197  1  0.49447001  0.29721983  0.71156022  1
  Ti  Ti198  1  0.70411874  0.88901160  0.90539096  1
  Ti  Ti199  1  0.39832886  -0.00928868  0.20388972  1
  Mo  Mo200  1  0.09591801  0.10163453  0.29340101  1
  Mo  Mo201  1  0.09332741  0.10069057  0.51640225  1
  Mo  Mo202  1  0.59890516  0.60162317  0.41092055  1
  Mo  Mo203  1  0.60129142  0.79447786  -0.00248469  1
  Mo  Mo204  1  0.80453580  0.61169224  0.80077906  1
  Mo  Mo205  1  0.29767626  0.30145447  0.50284006  1
  Mo  Mo206  1  0.29911290  0.69971398  0.10633044  1
  Mo  Mo207  1  0.10098814  0.91537148  0.70458089  1
  Mo  Mo208  1  0.90344159  0.89887418  0.69908781  1
  Mo  Mo209  1  -0.00398279  0.60279009  0.41212107  1
  Mo  Mo210  1  -0.00209429  0.59636337  -0.01413105  1
  Mo  Mo211  1  0.28525840  0.69497119  0.49607982  1
  Mo  Mo212  1  0.79608265  0.80115266  -0.00817865  1
  Mo  Mo213  1  0.89776601  0.10902993  0.09517714  1
  Mo  Mo214  1  0.29892453  0.89069309  0.29895064  1
  Mo  Mo215  1  0.39848844  0.19643884  0.80013591  1
  Mo  Mo216  1  -0.00396570  0.39940307  -0.00068405  1
  Mo  Mo217  1  0.69998169  0.50396376  0.69798786  1
  Mo  Mo218  1  0.90019105  0.69795231  0.89196130  1
  Mo  Mo219  1  0.80437540  0.19224761  -0.00293357  1
  Mo  Mo220  1  0.50302008  0.70488639  0.10181475  1
  Mo  Mo221  1  0.89971377  0.50496832  0.90032639  1
  Mo  Mo222  1  0.19311834  0.39126211  0.60453776  1
  Mo  Mo223  1  0.70096773  0.50325477  0.08560765  1
  Mo  Mo224  1  0.60228630  0.20286146  -0.00538418  1
  Mo  Mo225  1  0.29610237  0.49291794  0.89219318  1
  Mo  Mo226  1  0.70892262  0.89266982  0.70682876  1
  Mo  Mo227  1  0.10194423  0.30198853  0.50736968  1
  Mo  Mo228  1  0.60146187  0.20099150  0.79789235  1
  Mo  Mo229  1  0.69662010  0.69745274  0.07896062  1
  Mo  Mo230  1  0.01462171  0.39956353  0.39380327  1
  Mo  Mo231  1  0.09834044  0.29719139  0.70354578  1
  Mo  Mo232  1  0.09733882  0.30039878  0.29625140  1
  Mo  Mo233  1  0.60426722  0.60742481  -0.00634225  1
  Mo  Mo234  1  0.89945357  0.49477160  0.08707140  1
  Mo  Mo235  1  0.79708985  0.60415490  0.41510895  1
  Mo  Mo236  1  0.00145215  0.80018797  0.59805301  1
  Mo  Mo237  1  0.69751735  0.30652274  0.29000723  1
  Mo  Mo238  1  0.70073857  0.10406684  0.90451214  1
  Mo  Mo239  1  0.39499361  0.39548987  0.79844712  1
  Mo  Mo240  1  0.50069789  0.69223458  0.70797994  1
  Mo  Mo241  1  0.29603886  0.69962446  0.70985777  1
  Mo  Mo242  1  0.20482090  -0.00584374  -0.01504232  1
  Mo  Mo243  1  0.09994246  0.68754041  0.70623691  1
  Mo  Mo244  1  0.19893535  0.19757318  0.80679884  1
  Mo  Mo245  1  0.90263177  0.09874284  0.50797375  1
  Mo  Mo246  1  0.50177327  0.30436445  0.50015168  1
  Mo  Mo247  1  0.70690570  0.69961221  0.50808047  1
  Mo  Mo248  1  0.60063630  0.40151269  0.40723639  1
  Mo  Mo249  1  0.09506981  0.49400903  0.30495240  1
