# generated using pymatgen
data_HfZrTaTiMo
_symmetry_space_group_name_H-M   'P 1'
_cell_length_a   16.88925948
_cell_length_b   16.88286337
_cell_length_c   16.89245471
_cell_angle_alpha   89.94832047
_cell_angle_beta   90.02269386
_cell_angle_gamma   89.97524603
_symmetry_Int_Tables_number   1
_chemical_formula_structural   HfZrTaTiMo
_chemical_formula_sum   'Hf50 Zr50 Ta50 Ti50 Mo50'
_cell_volume   4816.69587296
_cell_formula_units_Z   50
loop_
 _symmetry_equiv_pos_site_id
 _symmetry_equiv_pos_as_xyz
  1  'x, y, z'
loop_
 _atom_site_type_symbol
 _atom_site_label
 _atom_site_symmetry_multiplicity
 _atom_site_fract_x
 _atom_site_fract_y
 _atom_site_fract_z
 _atom_site_occupancy
  Hf  Hf0  1  0.59956650  0.19686503  0.19425162  1
  Hf  Hf1  1  0.29941226  0.69473596  0.09924456  1
  Hf  Hf2  1  0.29847236  0.50371730  0.50447085  1
  Hf  Hf3  1  0.70727059  0.48905795  0.90099598  1
  Hf  Hf4  1  0.79273566  0.59835861  0.39556870  1
  Hf  Hf5  1  0.89822843  0.49654875  0.50217796  1
  Hf  Hf6  1  0.00266786  0.59533444  -0.00137824  1
  Hf  Hf7  1  0.61295070  0.79375680  0.39712927  1
  Hf  Hf8  1  0.00155783  0.39103963  0.61339968  1
  Hf  Hf9  1  0.19613757  0.20376723  0.60068482  1
  Hf  Hf10  1  0.29348513  0.70957096  0.49635006  1
  Hf  Hf11  1  0.20333487  0.80412433  0.62163721  1
  Hf  Hf12  1  0.19271844  -0.00681320  0.60715822  1
  Hf  Hf13  1  0.70881261  0.69454475  0.69936315  1
  Hf  Hf14  1  0.49761946  0.09546054  0.69972817  1
  Hf  Hf15  1  0.91327535  0.10235110  0.69073666  1
  Hf  Hf16  1  0.79332811  0.20124797  0.39328861  1
  Hf  Hf17  1  0.50017454  0.10425561  0.89880027  1
  Hf  Hf18  1  0.79043676  0.00729372  0.18300819  1
  Hf  Hf19  1  0.29825381  0.09883905  0.90271091  1
  Hf  Hf20  1  -0.00659195  0.60148449  0.39581586  1
  Hf  Hf21  1  0.40126376  0.38553595  0.00939058  1
  Hf  Hf22  1  0.50811859  0.69170216  0.29478188  1
  Hf  Hf23  1  0.40074728  0.39877901  0.40136228  1
  Hf  Hf24  1  0.80067369  0.00472240  0.40468202  1
  Hf  Hf25  1  0.31092484  0.70004569  0.91230135  1
  Hf  Hf26  1  0.49721589  0.89439378  0.90487411  1
  Hf  Hf27  1  0.78930712  0.80013565  0.19167934  1
  Hf  Hf28  1  0.19632778  0.80194371  0.80215976  1
  Hf  Hf29  1  0.39960895  0.20183640  0.40441108  1
  Hf  Hf30  1  0.89652259  0.70098797  0.09841351  1
  Hf  Hf31  1  0.60034040  0.40067575  0.60152423  1
  Hf  Hf32  1  0.39944499  0.38542531  0.60401682  1
  Hf  Hf33  1  0.61259701  0.79929343  0.19683616  1
  Hf  Hf34  1  0.49533174  0.90476938  0.49798791  1
  Hf  Hf35  1  0.00492918  0.79649580  -0.00073038  1
  Hf  Hf36  1  0.49649778  0.30006279  0.29228712  1
  Hf  Hf37  1  0.39767469  0.79844601  0.79573362  1
  Hf  Hf38  1  0.40443052  0.00634221  0.19429559  1
  Hf  Hf39  1  0.10853230  0.10175909  0.90441019  1
  Hf  Hf40  1  0.50236160  0.69672059  0.09605174  1
  Hf  Hf41  1  0.30700449  0.09521496  0.50633615  1
  Hf  Hf42  1  0.70665635  0.89778470  0.90378364  1
  Hf  Hf43  1  0.19303098  0.79566429  -0.00513789  1
  Hf  Hf44  1  0.60501751  0.59365290  0.40347114  1
  Hf  Hf45  1  0.00054676  0.40075873  0.81457752  1
  Hf  Hf46  1  0.39687621  0.79775138  0.20411722  1
  Hf  Hf47  1  0.79422646  0.40083521  0.19656332  1
  Hf  Hf48  1  0.79786443  0.02488630  -0.00945478  1
  Hf  Hf49  1  0.50399933  0.90907175  0.30101483  1
  Zr  Zr50  1  0.39802982  0.79844648  0.39476706  1
  Zr  Zr51  1  0.09955834  0.09021763  0.28203927  1
  Zr  Zr52  1  0.80491327  0.00546668  0.79773511  1
  Zr  Zr53  1  0.20084634  0.20416637  0.40080282  1
  Zr  Zr54  1  0.09865740  0.50079088  0.49723044  1
  Zr  Zr55  1  0.10313320  0.90864128  0.10384483  1
  Zr  Zr56  1  0.59616062  0.39027606  0.79459701  1
  Zr  Zr57  1  0.19854112  0.61852295  0.80351353  1
  Zr  Zr58  1  0.40032284  0.59828202  0.39551041  1
  Zr  Zr59  1  0.90092216  0.09760015  0.28983668  1
  Zr  Zr60  1  0.29815456  0.90204252  0.09598513  1
  Zr  Zr61  1  0.89797130  0.69890303  0.70437989  1
  Zr  Zr62  1  0.69792280  0.29441951  0.90290444  1
  Zr  Zr63  1  0.29892637  0.10415470  0.28741164  1
  Zr  Zr64  1  0.70948407  0.69409927  0.90299199  1
  Zr  Zr65  1  0.10469004  0.09829179  0.09595286  1
  Zr  Zr66  1  0.20178782  -0.00814318  0.79417619  1
  Zr  Zr67  1  0.19449584  0.00278132  0.39962106  1
  Zr  Zr68  1  0.80033983  0.18634561  0.81575244  1
  Zr  Zr69  1  0.30083168  0.49718530  0.71110035  1
  Zr  Zr70  1  0.08664619  0.30644754  0.49058314  1
  Zr  Zr71  1  0.19813401  0.39301325  0.00712104  1
  Zr  Zr72  1  0.79573619  0.79927518  0.39092469  1
  Zr  Zr73  1  0.60562362  0.01170008  0.40726357  1
  Zr  Zr74  1  0.00797188  0.21017820  0.80594056  1
  Zr  Zr75  1  0.39925768  0.60687398  0.60917475  1
  Zr  Zr76  1  0.89400751  0.70025754  0.50708846  1
  Zr  Zr77  1  0.10173047  0.70418190  0.49513515  1
  Zr  Zr78  1  0.09879778  0.70386776  0.29901452  1
  Zr  Zr79  1  0.09667377  0.49555966  0.29584355  1
  Zr  Zr80  1  0.10809416  0.49479291  0.71030343  1
  Zr  Zr81  1  -0.00028732  0.80296958  0.60831931  1
  Zr  Zr82  1  0.79360549  0.39799724  0.60051758  1
  Zr  Zr83  1  0.60436562  0.80310732  0.60039220  1
  Zr  Zr84  1  0.59997096  0.19491646  0.59620552  1
  Zr  Zr85  1  -0.00488755  0.19418593  0.39604188  1
  Zr  Zr86  1  0.10069995  0.89141889  0.48661764  1
  Zr  Zr87  1  0.69517036  0.50046647  0.09630864  1
  Zr  Zr88  1  0.90679234  0.89902186  0.89823579  1
  Zr  Zr89  1  0.88892940  0.30016869  0.70846575  1
  Zr  Zr90  1  0.20379934  0.38984096  0.60018584  1
  Zr  Zr91  1  0.89852548  0.30933646  0.09412310  1
  Zr  Zr92  1  0.59434243  0.59877405  0.80256544  1
  Zr  Zr93  1  0.79485725  0.19269767  0.59708592  1
  Zr  Zr94  1  0.69611732  0.30072207  0.49393151  1
  Zr  Zr95  1  0.09390195  0.30962962  0.29227447  1
  Zr  Zr96  1  0.61176193  0.79417072  0.00557129  1
  Zr  Zr97  1  0.40126520  0.20590687  0.80357187  1
  Zr  Zr98  1  0.29918094  0.49925777  0.90264705  1
  Zr  Zr99  1  0.60516280  0.00634818  0.01025470  1
  Ta  Ta100  1  0.00361420  0.59803934  0.61311499  1
  Ta  Ta101  1  0.59935384  0.19986393  0.39497791  1
  Ta  Ta102  1  0.30207964  0.90136430  0.49776663  1
  Ta  Ta103  1  0.81088819  0.59106562  0.00245316  1
  Ta  Ta104  1  0.80460901  0.80476147  0.79746153  1
  Ta  Ta105  1  0.79380881  0.20447709  0.19637257  1
  Ta  Ta106  1  0.20391396  0.20962623  0.00351915  1
  Ta  Ta107  1  0.20719498  0.60026419  0.39108475  1
  Ta  Ta108  1  0.21385109  0.39808761  0.39679717  1
  Ta  Ta109  1  0.79743753  -0.00144959  0.59922447  1
  Ta  Ta110  1  0.58837716  0.39439774  0.00219833  1
  Ta  Ta111  1  0.69297454  0.49745408  0.29270464  1
  Ta  Ta112  1  0.40026806  0.80302970  0.60584877  1
  Ta  Ta113  1  0.71041371  0.49936671  0.70367569  1
  Ta  Ta114  1  0.20269707  0.80012434  0.21020549  1
  Ta  Ta115  1  0.90026961  0.90212931  0.28933781  1
  Ta  Ta116  1  0.89775805  0.49682731  0.29235738  1
  Ta  Ta117  1  0.10777431  0.50067004  0.90565124  1
  Ta  Ta118  1  0.19611048  0.61415547  0.61081784  1
  Ta  Ta119  1  0.50488150  0.70288479  0.69992321  1
  Ta  Ta120  1  0.49912472  0.89780910  0.09810391  1
  Ta  Ta121  1  0.60123517  0.79810997  0.80087404  1
  Ta  Ta122  1  0.59988789  0.40030233  0.39486936  1
  Ta  Ta123  1  0.40420484  0.59114761  0.19596735  1
  Ta  Ta124  1  0.60912755  0.00169454  0.60066309  1
  Ta  Ta125  1  0.70055229  0.90297264  0.70426570  1
  Ta  Ta126  1  0.50647227  0.90339758  0.70326923  1
  Ta  Ta127  1  0.49663567  0.49461349  0.90207967  1
  Ta  Ta128  1  0.59279956  0.39601565  0.19273771  1
  Ta  Ta129  1  0.60421701  0.59122404  0.60098440  1
  Ta  Ta130  1  0.90026926  0.70110753  0.89949026  1
  Ta  Ta131  1  0.40359208  0.39203543  0.80486688  1
  Ta  Ta132  1  0.40806344  0.59190728  0.00333497  1
  Ta  Ta133  1  0.89999755  0.30848331  0.29675912  1
  Ta  Ta134  1  0.89018597  0.89800644  0.09016489  1
  Ta  Ta135  1  -0.00220610  0.20996950  0.18965780  1
  Ta  Ta136  1  0.40426756  0.00576796  0.00467072  1
  Ta  Ta137  1  0.29960844  0.49867786  0.10391347  1
  Ta  Ta138  1  0.69955118  0.29999345  0.09141673  1
  Ta  Ta139  1  0.10473624  0.69333614  0.10553369  1
  Ta  Ta140  1  0.70660829  0.69273365  0.51354101  1
  Ta  Ta141  1  0.30242941  0.10344223  0.69853637  1
  Ta  Ta142  1  0.10208385  0.50111654  0.10542638  1
  Ta  Ta143  1  -0.00252011  0.80303152  0.19589680  1
  Ta  Ta144  1  0.50572621  0.69773365  0.50618014  1
  Ta  Ta145  1  0.50184026  0.49784858  0.50318646  1
  Ta  Ta146  1  0.79213345  0.40203529  0.39286869  1
  Ta  Ta147  1  0.30495306  0.30343735  0.28686815  1
  Ta  Ta148  1  0.30152788  0.49488018  0.29034931  1
  Ta  Ta149  1  0.00232869  0.60070444  0.80712934  1
  Ti  Ti150  1  -0.00584016  0.00541841  -0.00015749  1
  Ti  Ti151  1  0.39544332  -0.00671406  0.79821340  1
  Ti  Ti152  1  0.90099017  0.11640932  0.08953872  1
  Ti  Ti153  1  0.89605241  0.70079428  0.29046201  1
  Ti  Ti154  1  0.50200088  0.28704660  0.70000359  1
  Ti  Ti155  1  0.70449819  0.89992790  0.50348499  1
  Ti  Ti156  1  0.01057435  0.21666674  -0.00255259  1
  Ti  Ti157  1  0.40414132  0.20423987  0.17759718  1
  Ti  Ti158  1  0.19663127  0.21234830  0.18695925  1
  Ti  Ti159  1  0.90638134  0.09917393  0.50476433  1
  Ti  Ti160  1  0.40723475  0.60458989  0.80464186  1
  Ti  Ti161  1  0.49952798  0.29601312  0.50063798  1
  Ti  Ti162  1  0.70056328  0.91298969  0.29509383  1
  Ti  Ti163  1  0.49282686  0.09742225  0.50481513  1
  Ti  Ti164  1  -0.00684235  0.59714684  0.19468510  1
  Ti  Ti165  1  -0.01298168  -0.00228902  0.18665516  1
  Ti  Ti166  1  0.29676565  0.29555521  0.89918994  1
  Ti  Ti167  1  0.07508193  0.89944240  0.71855167  1
  Ti  Ti168  1  0.09919992  0.10684882  0.70083122  1
  Ti  Ti169  1  0.59489238  0.59489766  -0.00199233  1
  Ti  Ti170  1  0.81202384  0.59043829  0.80833653  1
  Ti  Ti171  1  0.29506317  0.10108746  0.09429320  1
  Ti  Ti172  1  0.60119633  0.00770462  0.18917108  1
  Ti  Ti173  1  0.69400856  0.10186604  0.70532414  1
  Ti  Ti174  1  0.69695063  0.10172987  0.29565050  1
  Ti  Ti175  1  0.29822682  0.90920822  0.30604002  1
  Ti  Ti176  1  0.39868401  -0.00702092  0.60603029  1
  Ti  Ti177  1  0.50160209  0.49599384  0.29103389  1
  Ti  Ti178  1  -0.01047355  0.80386688  0.38791143  1
  Ti  Ti179  1  0.20370568  0.39552379  0.19403530  1
  Ti  Ti180  1  0.90019211  0.90051579  0.49708350  1
  Ti  Ti181  1  0.89581394  0.49923227  0.70617510  1
  Ti  Ti182  1  -0.00416379  0.01023126  0.80659672  1
  Ti  Ti183  1  0.30462542  0.90231121  0.91030916  1
  Ti  Ti184  1  0.00170065  0.40624487  0.00210790  1
  Ti  Ti185  1  0.88760231  0.30802051  0.91114575  1
  Ti  Ti186  1  -0.00400761  -0.00333707  0.39782457  1
  Ti  Ti187  1  -0.00277880  -0.00850469  0.60036586  1
  Ti  Ti188  1  0.49676557  0.49980366  0.70198799  1
  Ti  Ti189  1  0.29386473  0.29275730  0.70943735  1
  Ti  Ti190  1  0.60611873  0.00035641  0.80292817  1
  Ti  Ti191  1  0.79311622  0.60132341  0.19677003  1
  Ti  Ti192  1  0.08526887  0.10090236  0.51121834  1
  Ti  Ti193  1  0.58676887  0.20320490  0.00519263  1
  Ti  Ti194  1  0.09733802  0.90867466  0.90257308  1
  Ti  Ti195  1  0.09735220  0.90198092  0.29337390  1
  Ti  Ti196  1  0.49594915  0.10004227  0.30120577  1
  Ti  Ti197  1  0.20514455  0.60042759  0.20392005  1
  Ti  Ti198  1  0.90141750  0.30040273  0.49580193  1
  Ti  Ti199  1  0.80418195  0.81523888  0.60769870  1
  Mo  Mo200  1  0.49773405  0.29929300  0.90418368  1
  Mo  Mo201  1  0.10761116  0.30390178  0.90657218  1
  Mo  Mo202  1  0.50099352  0.69303458  0.89887759  1
  Mo  Mo203  1  0.11010235  0.29712659  0.71376836  1
  Mo  Mo204  1  0.80059721  0.58955342  0.60352813  1
  Mo  Mo205  1  0.39995695  0.40293825  0.19826489  1
  Mo  Mo206  1  0.39550764  0.19895648  0.00414308  1
  Mo  Mo207  1  0.92214757  0.10915157  0.91301189  1
  Mo  Mo208  1  0.20806070  0.00018941  -0.00388906  1
  Mo  Mo209  1  0.20230158  0.20059808  0.79858891  1
  Mo  Mo210  1  0.00231491  0.79547052  0.80752771  1
  Mo  Mo211  1  0.80378473  0.79187552  -0.00109293  1
  Mo  Mo212  1  0.30839653  0.70444537  0.70299767  1
  Mo  Mo213  1  0.70151871  0.91084126  0.09745408  1
  Mo  Mo214  1  0.69642931  0.49899766  0.49755084  1
  Mo  Mo215  1  0.59892340  0.59322917  0.19936373  1
  Mo  Mo216  1  0.80005789  0.40223446  -0.00040564  1
  Mo  Mo217  1  0.70184024  0.09830999  0.49903321  1
  Mo  Mo218  1  0.90246584  0.49887082  0.90330268  1
  Mo  Mo219  1  0.69746445  0.11558038  0.09532438  1
  Mo  Mo220  1  0.67956170  0.10639001  0.89680420  1
  Mo  Mo221  1  0.40559652  0.80104619  -0.00027411  1
  Mo  Mo222  1  0.30401675  0.29606353  0.49491991  1
  Mo  Mo223  1  0.70029011  0.68483694  0.29012645  1
  Mo  Mo224  1  0.20159180  0.38527484  0.81011084  1
  Mo  Mo225  1  0.31309655  0.90620901  0.69747427  1
  Mo  Mo226  1  0.09496453  0.69566678  0.90366229  1
  Mo  Mo227  1  0.29893204  0.68837038  0.29286775  1
  Mo  Mo228  1  0.70170814  0.68314312  0.09730335  1
  Mo  Mo229  1  0.20763523  0.80358995  0.38316044  1
  Mo  Mo230  1  0.09712796  0.30471160  0.09967880  1
  Mo  Mo231  1  -0.01840399  0.40368512  0.39384040  1
  Mo  Mo232  1  0.89884258  0.90780402  0.70060139  1
  Mo  Mo233  1  0.60114758  0.19741825  0.79577832  1
  Mo  Mo234  1  0.69535941  0.30267014  0.29450206  1
  Mo  Mo235  1  0.90412353  0.50290071  0.10286596  1
  Mo  Mo236  1  0.79752417  0.20102936  0.00373237  1
  Mo  Mo237  1  0.20816489  -0.00593728  0.19797027  1
  Mo  Mo238  1  0.49482168  0.10217607  0.09738871  1
  Mo  Mo239  1  -0.00473901  0.40663866  0.19414950  1
  Mo  Mo240  1  0.80221007  0.40300677  0.80277158  1
  Mo  Mo241  1  0.40102404  0.00373261  0.40082640  1
  Mo  Mo242  1  0.00350796  0.19918584  0.59927457  1
  Mo  Mo243  1  0.69508000  0.29781032  0.70755626  1
  Mo  Mo244  1  0.50006615  0.29771665  0.09992823  1
  Mo  Mo245  1  0.09178071  0.70098948  0.70700184  1
  Mo  Mo246  1  0.30042285  0.29530848  0.10641767  1
  Mo  Mo247  1  0.39737496  0.19986911  0.60275618  1
  Mo  Mo248  1  0.49854719  0.49809988  0.09884842  1
  Mo  Mo249  1  0.19874914  0.59635529  0.00904202  1
