# generated using pymatgen
data_HfZrTaTiMo
_symmetry_space_group_name_H-M   'P 1'
_cell_length_a   16.89910913
_cell_length_b   16.88807058
_cell_length_c   16.89307906
_cell_angle_alpha   89.98822721
_cell_angle_beta   89.98890750
_cell_angle_gamma   90.01467002
_symmetry_Int_Tables_number   1
_chemical_formula_structural   HfZrTaTiMo
_chemical_formula_sum   'Hf50 Zr50 Ta50 Ti50 Mo50'
_cell_volume   4821.17203429
_cell_formula_units_Z   50
loop_
 _symmetry_equiv_pos_site_id
 _symmetry_equiv_pos_as_xyz
  1  'x, y, z'
loop_
 _atom_site_type_symbol
 _atom_site_label
 _atom_site_symmetry_multiplicity
 _atom_site_fract_x
 _atom_site_fract_y
 _atom_site_fract_z
 _atom_site_occupancy
  Hf  Hf0  1  0.20385539  0.21323909  -0.00722680  1
  Hf  Hf1  1  0.34763906  0.10838985  0.48821041  1
  Hf  Hf2  1  0.79420555  0.39643605  0.80482588  1
  Hf  Hf3  1  0.19704325  0.60538069  0.20334099  1
  Hf  Hf4  1  0.89032273  0.89617181  0.09930939  1
  Hf  Hf5  1  0.09887234  0.50377494  0.30583691  1
  Hf  Hf6  1  0.60710872  0.00372164  0.79999364  1
  Hf  Hf7  1  0.70154657  0.10433081  0.10984034  1
  Hf  Hf8  1  0.79026554  0.59364498  0.59363769  1
  Hf  Hf9  1  0.40696846  0.79575619  0.01147117  1
  Hf  Hf10  1  0.50344631  0.89654948  0.69927857  1
  Hf  Hf11  1  -0.00514074  0.79858263  0.20137527  1
  Hf  Hf12  1  0.09975069  0.28255789  0.49209549  1
  Hf  Hf13  1  0.48853697  0.09529721  0.32314117  1
  Hf  Hf14  1  -0.00301089  0.39984593  0.00011840  1
  Hf  Hf15  1  0.30809797  0.29874123  0.69764660  1
  Hf  Hf16  1  0.30818448  0.10198018  0.69909023  1
  Hf  Hf17  1  0.89937175  0.49639617  0.70528282  1
  Hf  Hf18  1  -0.00246901  -0.00044292  0.79410440  1
  Hf  Hf19  1  0.30103537  0.90039505  0.10742216  1
  Hf  Hf20  1  0.89456293  0.88856923  0.90410391  1
  Hf  Hf21  1  0.49642657  0.28203585  0.50303232  1
  Hf  Hf22  1  0.38756407  0.20391174  0.21189923  1
  Hf  Hf23  1  -0.00540385  0.19158540  0.21214504  1
  Hf  Hf24  1  0.29511976  0.49246528  0.69705531  1
  Hf  Hf25  1  0.69932267  0.90871665  0.48740169  1
  Hf  Hf26  1  0.60078789  0.19749570  0.80680538  1
  Hf  Hf27  1  0.70507809  0.90257955  0.10608111  1
  Hf  Hf28  1  0.10187180  0.10072161  0.68413311  1
  Hf  Hf29  1  0.50420458  0.70158702  0.71022278  1
  Hf  Hf30  1  0.79862377  0.40489557  0.00273754  1
  Hf  Hf31  1  0.21870546  0.19611413  0.57846677  1
  Hf  Hf32  1  0.79720719  0.80248676  0.59931283  1
  Hf  Hf33  1  0.19686222  0.80480903  0.00450742  1
  Hf  Hf34  1  0.50130576  0.30506039  0.29624174  1
  Hf  Hf35  1  0.50250793  0.50378300  0.90271763  1
  Hf  Hf36  1  0.10322948  0.50025811  0.49864694  1
  Hf  Hf37  1  0.20131997  0.61007687  0.60348934  1
  Hf  Hf38  1  0.00657104  0.20471884  0.79991450  1
  Hf  Hf39  1  0.00328205  -0.00846986  0.00750941  1
  Hf  Hf40  1  0.29579801  0.09834994  0.10390400  1
  Hf  Hf41  1  0.40680440  0.79736932  0.40327025  1
  Hf  Hf42  1  0.89489349  0.29026487  0.69657125  1
  Hf  Hf43  1  0.59901503  0.40026163  0.59908427  1
  Hf  Hf44  1  -0.00653174  0.60853294  0.20056954  1
  Hf  Hf45  1  0.79533313  0.40110550  0.19656828  1
  Hf  Hf46  1  0.08869092  0.70205752  0.90560851  1
  Hf  Hf47  1  0.40652055  0.00268108  0.80675275  1
  Hf  Hf48  1  0.90475284  0.50394960  0.49263210  1
  Hf  Hf49  1  0.78951555  0.39680561  0.60001624  1
  Zr  Zr50  1  0.89776945  0.09912512  0.89888147  1
  Zr  Zr51  1  -0.00572704  0.79485659  0.78920395  1
  Zr  Zr52  1  0.10976653  0.29887460  0.68765332  1
  Zr  Zr53  1  0.40882811  -0.00592898  0.00017361  1
  Zr  Zr54  1  0.90200878  0.69621199  0.48886843  1
  Zr  Zr55  1  0.49835714  0.10812627  0.68609928  1
  Zr  Zr56  1  -0.00315604  0.37931472  0.39463310  1
  Zr  Zr57  1  0.69430378  0.69895176  0.90112694  1
  Zr  Zr58  1  0.59942822  -0.00611611  0.21571802  1
  Zr  Zr59  1  0.89919536  0.50466467  0.30361521  1
  Zr  Zr60  1  0.60567197  0.80945026  0.60101351  1
  Zr  Zr61  1  0.20394900  0.79849243  0.59671907  1
  Zr  Zr62  1  0.21379496  0.00992653  0.40896649  1
  Zr  Zr63  1  0.09639490  0.50418797  0.90448866  1
  Zr  Zr64  1  0.79746592  0.19223026  0.39792801  1
  Zr  Zr65  1  0.20779129  0.39180730  0.40201408  1
  Zr  Zr66  1  0.59850940  0.00821411  -0.00939462  1
  Zr  Zr67  1  0.68968077  0.50288115  0.09609453  1
  Zr  Zr68  1  0.49777713  0.30583534  0.90461259  1
  Zr  Zr69  1  0.19355025  0.60421327  0.79106291  1
  Zr  Zr70  1  0.88651513  0.28714191  0.10581930  1
  Zr  Zr71  1  0.39820692  0.20384025  0.00059653  1
  Zr  Zr72  1  0.30957260  0.70493077  0.89571809  1
  Zr  Zr73  1  0.00063316  -0.00187932  0.20337080  1
  Zr  Zr74  1  0.21042719  0.59726744  0.00379195  1
  Zr  Zr75  1  0.00100306  0.20252769  -0.00001884  1
  Zr  Zr76  1  0.50025446  0.50555914  0.70519527  1
  Zr  Zr77  1  0.40489141  0.40587280  0.40027885  1
  Zr  Zr78  1  0.11135768  0.30390281  0.10853820  1
  Zr  Zr79  1  0.59594920  0.79818036  0.01886178  1
  Zr  Zr80  1  -0.00138018  0.39402509  0.59770592  1
  Zr  Zr81  1  0.18889600  0.79937608  0.20437435  1
  Zr  Zr82  1  0.40787593  0.59918854  0.19799653  1
  Zr  Zr83  1  0.79499071  0.00497485  0.79620872  1
  Zr  Zr84  1  0.10747928  0.09407209  0.89989260  1
  Zr  Zr85  1  0.79763983  0.79836439  0.38260864  1
  Zr  Zr86  1  0.00511242  0.60549482  0.61013210  1
  Zr  Zr87  1  0.30616041  0.89673981  0.30531527  1
  Zr  Zr88  1  0.50577219  0.87571004  0.88528387  1
  Zr  Zr89  1  0.50569045  0.69955159  0.50080173  1
  Zr  Zr90  1  0.50262182  0.10832417  0.10546066  1
  Zr  Zr91  1  0.09964918  0.90914039  0.68896031  1
  Zr  Zr92  1  0.78812061  0.19728697  -0.00500430  1
  Zr  Zr93  1  0.09293040  0.91157426  0.49746349  1
  Zr  Zr94  1  0.79317838  0.39698412  0.40565683  1
  Zr  Zr95  1  0.10920212  0.10258219  0.10539678  1
  Zr  Zr96  1  0.69149621  0.69998638  0.49012179  1
  Zr  Zr97  1  -0.00330945  0.39851781  0.19875191  1
  Zr  Zr98  1  0.20108999  0.79812024  0.78858761  1
  Zr  Zr99  1  0.80703295  0.60452188  0.80850735  1
  Ta  Ta100  1  0.60376524  0.19497354  0.40010615  1
  Ta  Ta101  1  0.69234433  0.49748496  0.29552479  1
  Ta  Ta102  1  0.39964771  0.59961994  0.59535803  1
  Ta  Ta103  1  0.19638207  0.39343611  0.80799440  1
  Ta  Ta104  1  0.69457642  0.50507475  0.70903656  1
  Ta  Ta105  1  0.10103929  0.50198911  0.10100056  1
  Ta  Ta106  1  0.39358195  0.40710979  0.00665356  1
  Ta  Ta107  1  0.79863632  0.60856707  0.19773768  1
  Ta  Ta108  1  0.20425859  0.20133258  0.80323122  1
  Ta  Ta109  1  0.40386612  0.59625228  0.40032632  1
  Ta  Ta110  1  0.30703899  0.69938298  0.30184099  1
  Ta  Ta111  1  0.39768890  0.79757624  0.60009857  1
  Ta  Ta112  1  0.30219126  0.10079924  0.89698576  1
  Ta  Ta113  1  0.20616212  -0.00204158  0.79972950  1
  Ta  Ta114  1  0.89645446  0.90586655  0.68732074  1
  Ta  Ta115  1  0.08421512  0.10240385  0.49701373  1
  Ta  Ta116  1  0.30295303  0.50324482  0.29963388  1
  Ta  Ta117  1  0.69278282  0.69332333  0.70307596  1
  Ta  Ta118  1  0.09929030  0.89753770  0.90069906  1
  Ta  Ta119  1  -0.00236529  0.80213193  0.38993618  1
  Ta  Ta120  1  0.10569463  0.10511347  0.31310489  1
  Ta  Ta121  1  0.89848563  0.09470339  0.50035767  1
  Ta  Ta122  1  -0.00591147  0.80254825  0.59227513  1
  Ta  Ta123  1  0.50164003  0.69317453  0.89400956  1
  Ta  Ta124  1  0.70080024  0.10929386  0.68784087  1
  Ta  Ta125  1  0.09219307  0.70104122  0.09340775  1
  Ta  Ta126  1  0.78743004  0.20267382  0.79853075  1
  Ta  Ta127  1  0.40364551  0.60030720  0.00769358  1
  Ta  Ta128  1  0.40455147  -0.00546856  0.20781268  1
  Ta  Ta129  1  0.30404284  0.70179007  0.10815256  1
  Ta  Ta130  1  0.20407021  0.60743070  0.39816645  1
  Ta  Ta131  1  0.78770465  0.60029339  0.38791675  1
  Ta  Ta132  1  0.68888387  0.30575285  0.91083327  1
  Ta  Ta133  1  0.19741019  0.79539106  0.39966073  1
  Ta  Ta134  1  0.69457790  0.28933580  0.50611115  1
  Ta  Ta135  1  0.29888947  0.50228705  0.50162239  1
  Ta  Ta136  1  0.69587586  0.29723575  0.29702150  1
  Ta  Ta137  1  0.59667638  0.58760517  0.39585327  1
  Ta  Ta138  1  0.60340830  0.39694871  0.79779230  1
  Ta  Ta139  1  0.00356049  0.39505142  0.80583876  1
  Ta  Ta140  1  0.50213796  0.30795779  0.10174441  1
  Ta  Ta141  1  0.68905048  0.50296274  0.90381541  1
  Ta  Ta142  1  0.19990562  0.00256934  0.21018127  1
  Ta  Ta143  1  0.10000629  0.90582339  0.30722428  1
  Ta  Ta144  1  0.89717839  0.90896067  0.49313555  1
  Ta  Ta145  1  0.70462542  0.89122163  0.89943444  1
  Ta  Ta146  1  0.09563875  0.70219667  0.49274528  1
  Ta  Ta147  1  0.60156342  0.40101734  0.40549330  1
  Ta  Ta148  1  0.40154471  0.40184291  0.59314901  1
  Ta  Ta149  1  0.50836101  0.70073183  0.30367061  1
  Ti  Ti150  1  0.20457801  0.40155903  0.20945447  1
  Ti  Ti151  1  0.30406191  0.49836222  0.89808377  1
  Ti  Ti152  1  0.89915070  0.27984075  0.50709004  1
  Ti  Ti153  1  0.59983365  0.58919194  0.59187507  1
  Ti  Ti154  1  0.60221806  0.20067791  0.20643313  1
  Ti  Ti155  1  0.79110941  0.00612683  0.38351946  1
  Ti  Ti156  1  0.39291511  0.60171077  0.79643824  1
  Ti  Ti157  1  0.00013490  0.60148938  0.79572198  1
  Ti  Ti158  1  0.20500270  0.40111167  -0.00355990  1
  Ti  Ti159  1  0.40175028  0.40169930  0.80005361  1
  Ti  Ti160  1  0.30605113  0.30339390  0.89225082  1
  Ti  Ti161  1  0.10296729  0.48937280  0.69918668  1
  Ti  Ti162  1  0.89719929  0.10568848  0.68569962  1
  Ti  Ti163  1  0.30006232  0.30997384  0.11199609  1
  Ti  Ti164  1  0.89061020  0.90598102  0.29437554  1
  Ti  Ti165  1  0.79577056  0.78408608  0.01178548  1
  Ti  Ti166  1  0.88924513  0.28966186  0.29789070  1
  Ti  Ti167  1  0.90156851  0.50375619  0.90221859  1
  Ti  Ti168  1  0.30229754  0.69741680  0.49608170  1
  Ti  Ti169  1  0.50434194  0.49705509  0.29226022  1
  Ti  Ti170  1  0.58992016  0.60925116  0.01128446  1
  Ti  Ti171  1  0.40881281  -0.00926385  0.59215103  1
  Ti  Ti172  1  0.20022501  -0.00742993  -0.00064736  1
  Ti  Ti173  1  0.11011224  0.28641291  0.29984477  1
  Ti  Ti174  1  0.60237623  0.79754759  0.20663097  1
  Ti  Ti175  1  0.79299105  0.80393911  0.78801680  1
  Ti  Ti176  1  0.79505850  0.00208051  0.59869050  1
  Ti  Ti177  1  0.69517839  0.10111692  0.50225553  1
  Ti  Ti178  1  0.29983515  0.89873437  0.89611982  1
  Ti  Ti179  1  0.80550634  0.60192917  0.01227075  1
  Ti  Ti180  1  0.79252504  0.78687684  0.20232529  1
  Ti  Ti181  1  0.30915906  0.90069489  0.69955563  1
  Ti  Ti182  1  0.41651978  0.80093396  0.20058281  1
  Ti  Ti183  1  0.50145937  0.49329648  0.10024247  1
  Ti  Ti184  1  0.30738839  0.89809645  0.50017251  1
  Ti  Ti185  1  0.89606981  0.29834016  0.89805374  1
  Ti  Ti186  1  0.90292957  0.70512177  0.91068366  1
  Ti  Ti187  1  0.88635144  0.09312177  0.11114844  1
  Ti  Ti188  1  0.79250906  0.00393883  -0.00579671  1
  Ti  Ti189  1  0.60281241  0.60925023  0.20014951  1
  Ti  Ti190  1  0.60274395  0.39684715  0.19631858  1
  Ti  Ti191  1  -0.01078734  0.00487715  0.39142091  1
  Ti  Ti192  1  0.60400735  0.00292275  0.59714446  1
  Ti  Ti193  1  0.21568518  0.00450164  0.59339370  1
  Ti  Ti194  1  0.89309976  0.70128266  0.69585883  1
  Ti  Ti195  1  0.29920014  0.49587982  0.10740972  1
  Ti  Ti196  1  -0.01400973  0.59954678  0.01302176  1
  Ti  Ti197  1  0.23164844  0.20206384  0.38640324  1
  Ti  Ti198  1  0.50915068  0.90864045  0.48869726  1
  Ti  Ti199  1  0.49739171  0.29571371  0.70065183  1
  Mo  Mo200  1  0.89495590  0.70112962  0.29636924  1
  Mo  Mo201  1  0.10391470  0.89984805  0.10175409  1
  Mo  Mo202  1  0.79991220  0.00093486  0.20869364  1
  Mo  Mo203  1  0.69618505  0.29978724  0.70305385  1
  Mo  Mo204  1  0.59852283  0.20859266  0.00659218  1
  Mo  Mo205  1  0.40461675  0.21807732  0.39228214  1
  Mo  Mo206  1  0.89734594  0.50701428  0.09745848  1
  Mo  Mo207  1  0.40913597  -0.01954132  0.40187282  1
  Mo  Mo208  1  0.79734088  0.19449963  0.59792953  1
  Mo  Mo209  1  0.69131656  0.69366177  0.29493929  1
  Mo  Mo210  1  0.40077461  0.19958570  0.80425584  1
  Mo  Mo211  1  0.09820525  0.70436768  0.30606474  1
  Mo  Mo212  1  0.30656338  0.30365838  0.50009763  1
  Mo  Mo213  1  0.39987829  0.40593820  0.19380461  1
  Mo  Mo214  1  0.70565956  0.90976329  0.69842394  1
  Mo  Mo215  1  0.89480403  0.09402727  0.30251125  1
  Mo  Mo216  1  0.60521477  0.20277333  0.60174497  1
  Mo  Mo217  1  0.70204982  0.89799495  0.29628237  1
  Mo  Mo218  1  0.60207626  0.59800613  0.80522942  1
  Mo  Mo219  1  -0.00141186  0.79951968  0.00412477  1
  Mo  Mo220  1  0.30229133  0.09339761  0.30108154  1
  Mo  Mo221  1  0.08689411  0.70740539  0.69230084  1
  Mo  Mo222  1  0.50043250  0.89829025  0.11524227  1
  Mo  Mo223  1  -0.00714690  0.19259273  0.59474842  1
  Mo  Mo224  1  0.69445374  0.49535219  0.49289432  1
  Mo  Mo225  1  0.69850218  0.69773919  0.10542758  1
  Mo  Mo226  1  0.61674423  0.79830739  0.79635285  1
  Mo  Mo227  1  0.69548874  0.10487679  0.90094763  1
  Mo  Mo228  1  0.51505986  0.09383318  0.50157550  1
  Mo  Mo229  1  0.79216658  0.19678799  0.20675519  1
  Mo  Mo230  1  0.49887814  0.50126067  0.50206252  1
  Mo  Mo231  1  0.20633892  0.39987501  0.59777797  1
  Mo  Mo232  1  0.60556217  0.00370125  0.40395111  1
  Mo  Mo233  1  0.00639600  0.61338126  0.39516295  1
  Mo  Mo234  1  0.10620656  0.30556323  0.89796847  1
  Mo  Mo235  1  0.40593550  0.20908159  0.60661450  1
  Mo  Mo236  1  0.50143649  0.69710692  0.10960049  1
  Mo  Mo237  1  0.68446999  0.29737540  0.10352041  1
  Mo  Mo238  1  0.59454001  0.40376324  0.00236941  1
  Mo  Mo239  1  0.60000388  0.80790838  0.38649297  1
  Mo  Mo240  1  0.31498065  0.69804626  0.69395761  1
  Mo  Mo241  1  -0.01024725  0.19049094  0.39639187  1
  Mo  Mo242  1  0.20328076  0.19916120  0.21215182  1
  Mo  Mo243  1  0.89481060  0.70249276  0.09851858  1
  Mo  Mo244  1  0.39253594  0.79993074  0.79154627  1
  Mo  Mo245  1  0.69630849  0.10176011  0.30211495  1
  Mo  Mo246  1  -0.01460582  0.00127378  0.59455686  1
  Mo  Mo247  1  0.50525729  0.89371073  0.30518506  1
  Mo  Mo248  1  0.30189909  0.31283803  0.29437216  1
  Mo  Mo249  1  0.49518362  0.11205077  0.89801504  1
