# generated using pymatgen
data_HfZrTaTiMo
_symmetry_space_group_name_H-M   'P 1'
_cell_length_a   16.87596104
_cell_length_b   16.88912250
_cell_length_c   16.88058445
_cell_angle_alpha   90.00638230
_cell_angle_beta   90.04544086
_cell_angle_gamma   89.98521639
_symmetry_Int_Tables_number   1
_chemical_formula_structural   HfZrTaTiMo
_chemical_formula_sum   'Hf50 Zr50 Ta50 Ti50 Mo50'
_cell_volume   4811.30540182
_cell_formula_units_Z   50
loop_
 _symmetry_equiv_pos_site_id
 _symmetry_equiv_pos_as_xyz
  1  'x, y, z'
loop_
 _atom_site_type_symbol
 _atom_site_label
 _atom_site_symmetry_multiplicity
 _atom_site_fract_x
 _atom_site_fract_y
 _atom_site_fract_z
 _atom_site_occupancy
  Hf  Hf0  1  -0.00815245  0.79773758  -0.01134255  1
  Hf  Hf1  1  0.19967587  0.00649403  0.21032437  1
  Hf  Hf2  1  0.91211060  0.10065911  0.50872780  1
  Hf  Hf3  1  0.19778093  0.80276437  0.20502988  1
  Hf  Hf4  1  0.50369947  0.10683483  0.70134005  1
  Hf  Hf5  1  0.10631452  0.30640560  0.09318086  1
  Hf  Hf6  1  0.09698847  0.70291396  0.30433295  1
  Hf  Hf7  1  0.00343708  0.40047227  0.19774943  1
  Hf  Hf8  1  0.49654003  0.49762861  0.30167965  1
  Hf  Hf9  1  0.89618897  0.10191844  0.90105349  1
  Hf  Hf10  1  0.10003182  0.89485455  0.88995954  1
  Hf  Hf11  1  0.90188755  0.09972593  0.29960068  1
  Hf  Hf12  1  0.50047209  0.30128009  0.30324930  1
  Hf  Hf13  1  0.78655158  0.00216141  0.19637372  1
  Hf  Hf14  1  0.90084185  0.30535039  0.90062244  1
  Hf  Hf15  1  0.09631755  0.10287256  0.89745041  1
  Hf  Hf16  1  0.70060963  0.70519919  0.30926188  1
  Hf  Hf17  1  0.39238433  0.20841360  0.58478240  1
  Hf  Hf18  1  0.60668984  0.40338654  0.58897708  1
  Hf  Hf19  1  0.20130943  0.79191094  -0.00831582  1
  Hf  Hf20  1  -0.00323715  -0.00219527  -0.00262910  1
  Hf  Hf21  1  0.29884629  0.10118744  0.68945967  1
  Hf  Hf22  1  0.69886713  0.89958499  0.90836311  1
  Hf  Hf23  1  0.80345800  0.21154355  0.60175992  1
  Hf  Hf24  1  0.91420959  0.69450622  0.70791017  1
  Hf  Hf25  1  -0.00046692  0.60111124  -0.00711122  1
  Hf  Hf26  1  0.58109176  0.00280167  0.41182005  1
  Hf  Hf27  1  0.60052713  0.01184585  0.81481665  1
  Hf  Hf28  1  0.39427502  0.40239657  -0.00491767  1
  Hf  Hf29  1  0.50820304  0.50059174  0.71024788  1
  Hf  Hf30  1  0.40617914  0.79559199  0.60007654  1
  Hf  Hf31  1  0.10083589  0.49641816  0.69645341  1
  Hf  Hf32  1  0.59546773  0.00805713  0.19425582  1
  Hf  Hf33  1  0.09234568  0.29842235  0.69451140  1
  Hf  Hf34  1  0.28738104  0.50679801  0.09878872  1
  Hf  Hf35  1  0.00492266  0.80849445  0.59847187  1
  Hf  Hf36  1  0.00224359  0.20175192  0.19536315  1
  Hf  Hf37  1  0.70265541  0.49517909  0.70387533  1
  Hf  Hf38  1  0.59641030  0.79497820  0.19524950  1
  Hf  Hf39  1  0.79805256  0.80505137  0.19924164  1
  Hf  Hf40  1  0.39575562  0.19472992  0.20331255  1
  Hf  Hf41  1  0.40432854  0.60724232  0.60481298  1
  Hf  Hf42  1  0.69249350  0.90163751  0.30715039  1
  Hf  Hf43  1  0.50890618  0.30648326  0.70935177  1
  Hf  Hf44  1  0.79451878  0.20269884  0.79907190  1
  Hf  Hf45  1  0.09051577  0.10034066  0.68182641  1
  Hf  Hf46  1  0.80348643  0.60029026  0.20668738  1
  Hf  Hf47  1  0.60338642  0.19186769  0.00400598  1
  Hf  Hf48  1  0.00529352  0.59269394  0.58875419  1
  Hf  Hf49  1  0.39337502  0.20689384  0.80449864  1
  Zr  Zr50  1  0.89661506  0.49762246  0.89702473  1
  Zr  Zr51  1  0.51051094  0.89900130  0.70560647  1
  Zr  Zr52  1  0.80396963  0.59707139  0.40726271  1
  Zr  Zr53  1  0.60330678  0.79481473  0.00710779  1
  Zr  Zr54  1  0.48250293  0.88808936  0.30273977  1
  Zr  Zr55  1  0.71343073  0.49665294  0.09347488  1
  Zr  Zr56  1  0.20511611  0.20256787  -0.00775786  1
  Zr  Zr57  1  -0.00033352  0.58955305  0.40472600  1
  Zr  Zr58  1  0.30157211  0.70041419  0.30151963  1
  Zr  Zr59  1  0.39855500  0.00999727  0.20285317  1
  Zr  Zr60  1  0.59679591  0.60053593  0.00367832  1
  Zr  Zr61  1  0.50495813  0.30411084  0.89915912  1
  Zr  Zr62  1  0.30479609  0.89610016  0.10392446  1
  Zr  Zr63  1  0.78480725  0.20229523  0.19686491  1
  Zr  Zr64  1  0.20699714  0.19663394  0.40822730  1
  Zr  Zr65  1  0.20287883  0.20263587  0.79419159  1
  Zr  Zr66  1  0.69761906  0.10008067  0.50198094  1
  Zr  Zr67  1  0.29368156  0.50661863  0.70023849  1
  Zr  Zr68  1  0.49910947  0.69223255  0.89492431  1
  Zr  Zr69  1  0.88826001  0.10234137  0.09020168  1
  Zr  Zr70  1  0.29702708  0.30532625  0.10019205  1
  Zr  Zr71  1  0.80504636  0.58925064  0.59726227  1
  Zr  Zr72  1  0.09940137  0.49422650  0.89428526  1
  Zr  Zr73  1  0.38844490  0.01966585  0.39754748  1
  Zr  Zr74  1  0.21358664  0.38847131  0.80371548  1
  Zr  Zr75  1  0.69367204  0.89411575  0.50883845  1
  Zr  Zr76  1  0.60776071  0.59109537  0.40383012  1
  Zr  Zr77  1  0.80046973  -0.00296380  0.80190232  1
  Zr  Zr78  1  0.80191085  0.80097431  0.60602098  1
  Zr  Zr79  1  0.90364941  0.69497011  0.10531128  1
  Zr  Zr80  1  0.10063895  0.90157077  0.09688450  1
  Zr  Zr81  1  0.41059399  0.00865433  0.00131408  1
  Zr  Zr82  1  0.40163758  0.78697531  0.00401415  1
  Zr  Zr83  1  0.39986907  0.39476313  0.59990288  1
  Zr  Zr84  1  0.89173128  0.30646311  0.30146535  1
  Zr  Zr85  1  0.59927703  0.59761845  0.19822568  1
  Zr  Zr86  1  0.59535025  0.20776043  0.58973578  1
  Zr  Zr87  1  0.30887134  0.90604569  0.69879441  1
  Zr  Zr88  1  0.10395647  0.69155000  0.10643772  1
  Zr  Zr89  1  0.41576333  0.00421371  0.57985335  1
  Zr  Zr90  1  0.29388817  0.50199484  0.50455633  1
  Zr  Zr91  1  0.20224454  0.80405267  0.60219190  1
  Zr  Zr92  1  0.79387366  0.20246384  0.39785936  1
  Zr  Zr93  1  0.29867612  0.50332404  0.30136104  1
  Zr  Zr94  1  0.80240747  -0.00320837  0.40497404  1
  Zr  Zr95  1  0.18698216  0.59386662  0.40831515  1
  Zr  Zr96  1  0.50004387  0.30052915  0.10044772  1
  Zr  Zr97  1  0.80568949  0.79714346  0.80614588  1
  Zr  Zr98  1  0.89851951  0.49170646  0.29866974  1
  Zr  Zr99  1  0.19736108  -0.00382705  0.79177713  1
  Ta  Ta100  1  0.10582633  0.90606937  0.49401681  1
  Ta  Ta101  1  0.00277736  -0.00082171  0.20284144  1
  Ta  Ta102  1  0.40092554  0.79190188  0.79554332  1
  Ta  Ta103  1  0.20301270  0.79670407  0.79607113  1
  Ta  Ta104  1  0.39780451  0.40361648  0.20040248  1
  Ta  Ta105  1  0.49976540  0.89581520  0.90001086  1
  Ta  Ta106  1  0.10183126  0.69639290  0.70111549  1
  Ta  Ta107  1  0.49167631  0.69832443  0.30419705  1
  Ta  Ta108  1  0.60436340  0.39570731  0.19807208  1
  Ta  Ta109  1  0.69937470  0.70107746  0.50457857  1
  Ta  Ta110  1  0.89811670  0.49655790  0.09437309  1
  Ta  Ta111  1  0.80531613  0.79999080  -0.00014322  1
  Ta  Ta112  1  0.30287355  0.51001080  0.90311322  1
  Ta  Ta113  1  0.61032155  0.19747923  0.81027886  1
  Ta  Ta114  1  0.29321967  0.89415057  0.31159728  1
  Ta  Ta115  1  -0.00140219  0.20567173  0.00190147  1
  Ta  Ta116  1  0.29970442  0.69203517  0.89381648  1
  Ta  Ta117  1  0.30302875  0.09418533  0.89738185  1
  Ta  Ta118  1  0.50299065  0.69547927  0.49884383  1
  Ta  Ta119  1  0.09819473  0.10169439  0.30621389  1
  Ta  Ta120  1  0.49977018  0.49974079  0.89532835  1
  Ta  Ta121  1  0.29929563  0.89705892  0.48782878  1
  Ta  Ta122  1  0.10216829  0.29952064  0.30382966  1
  Ta  Ta123  1  0.90394155  0.10049421  0.69593039  1
  Ta  Ta124  1  -0.00061252  0.81034327  0.20619311  1
  Ta  Ta125  1  0.80129789  0.60088193  0.80390056  1
  Ta  Ta126  1  0.20522782  0.00021892  -0.00446095  1
  Ta  Ta127  1  0.00329734  0.20425714  0.40382458  1
  Ta  Ta128  1  0.29643977  0.30578691  0.30147781  1
  Ta  Ta129  1  0.49867242  0.89546084  0.10123019  1
  Ta  Ta130  1  0.90257016  0.90182325  0.30082823  1
  Ta  Ta131  1  0.00409672  -0.00165908  0.39981217  1
  Ta  Ta132  1  0.00628515  0.39731624  0.40932646  1
  Ta  Ta133  1  0.19866935  0.19998189  0.20565260  1
  Ta  Ta134  1  0.70830132  0.48051082  0.29932817  1
  Ta  Ta135  1  0.60632274  0.19790528  0.20051155  1
  Ta  Ta136  1  0.60347785  0.40713429  -0.00323953  1
  Ta  Ta137  1  0.70090813  0.09955699  0.69678385  1
  Ta  Ta138  1  0.30706075  0.89630727  0.89520277  1
  Ta  Ta139  1  0.89639920  0.90243904  0.09986767  1
  Ta  Ta140  1  -0.01151963  0.39768816  0.59064621  1
  Ta  Ta141  1  -0.00145217  -0.00401616  0.79499426  1
  Ta  Ta142  1  0.19250832  0.40696317  0.20586639  1
  Ta  Ta143  1  0.09053078  0.30561242  0.89825820  1
  Ta  Ta144  1  0.91039501  0.90366160  0.70051016  1
  Ta  Ta145  1  0.50015993  0.50072048  0.49711018  1
  Ta  Ta146  1  0.59054130  0.79696503  0.40798782  1
  Ta  Ta147  1  0.80655657  -0.00412384  0.60498999  1
  Ta  Ta148  1  0.90377526  0.70977132  0.49680697  1
  Ta  Ta149  1  0.60482062  0.39606138  0.40163590  1
  Ti  Ti150  1  0.69844412  0.69495218  0.69950572  1
  Ti  Ti151  1  0.09005139  0.69789333  0.88010554  1
  Ti  Ti152  1  0.09981337  0.09847069  0.50231236  1
  Ti  Ti153  1  0.39593420  0.20263986  0.40480960  1
  Ti  Ti154  1  0.71157706  0.69592599  0.09537069  1
  Ti  Ti155  1  0.10227936  0.10095983  0.09778374  1
  Ti  Ti156  1  -0.00491215  0.20048479  0.79679820  1
  Ti  Ti157  1  0.80218972  0.40355968  0.42373341  1
  Ti  Ti158  1  0.40795877  0.00329760  0.80664012  1
  Ti  Ti159  1  0.80547815  0.80511900  0.40713317  1
  Ti  Ti160  1  0.40197883  0.19469074  -0.00385928  1
  Ti  Ti161  1  0.90297015  0.30555719  0.70000246  1
  Ti  Ti162  1  0.90383453  0.49226918  0.70497428  1
  Ti  Ti163  1  0.29515290  0.10174810  0.09678337  1
  Ti  Ti164  1  0.70237068  0.30300414  0.49505869  1
  Ti  Ti165  1  0.01242418  0.58586163  0.20232293  1
  Ti  Ti166  1  0.79658553  0.40041866  0.79987988  1
  Ti  Ti167  1  0.20237329  0.00087313  0.58756939  1
  Ti  Ti168  1  0.40074461  0.60152564  0.40736077  1
  Ti  Ti169  1  0.29611563  0.70395028  0.49567685  1
  Ti  Ti170  1  0.59887891  0.00378557  0.00808136  1
  Ti  Ti171  1  0.60233149  0.79114827  0.79913860  1
  Ti  Ti172  1  0.19125840  0.39809532  0.40401849  1
  Ti  Ti173  1  0.90592222  0.70741258  0.30566459  1
  Ti  Ti174  1  0.70943977  0.69143560  0.90669533  1
  Ti  Ti175  1  0.50809669  0.11398049  0.30691724  1
  Ti  Ti176  1  0.29924611  0.68967699  0.10125887  1
  Ti  Ti177  1  0.69697788  0.30546408  0.70473880  1
  Ti  Ti178  1  0.49459916  0.50005790  0.09632240  1
  Ti  Ti179  1  0.69657272  0.90347686  0.70208330  1
  Ti  Ti180  1  0.71445931  0.09912964  0.91852040  1
  Ti  Ti181  1  0.39189120  0.39772315  0.80180726  1
  Ti  Ti182  1  0.10271259  0.70970492  0.49915327  1
  Ti  Ti183  1  0.70485203  0.30513554  0.09252880  1
  Ti  Ti184  1  0.19339486  0.60006431  -0.00580551  1
  Ti  Ti185  1  0.19719778  0.60284248  0.79985455  1
  Ti  Ti186  1  0.61064249  0.59955648  0.80488716  1
  Ti  Ti187  1  0.88812904  0.30869091  0.09081766  1
  Ti  Ti188  1  0.09725679  0.29163462  0.50672921  1
  Ti  Ti189  1  0.39680160  0.39334937  0.40830248  1
  Ti  Ti190  1  0.59746692  0.00216011  0.59854983  1
  Ti  Ti191  1  0.40293296  0.60180755  0.19254132  1
  Ti  Ti192  1  0.00108906  0.81214835  0.40083173  1
  Ti  Ti193  1  0.29270754  0.69594867  0.70136498  1
  Ti  Ti194  1  0.70480993  0.30982842  0.90652847  1
  Ti  Ti195  1  0.59527662  0.79041628  0.60401245  1
  Ti  Ti196  1  0.40130359  0.60454724  0.79531954  1
  Ti  Ti197  1  0.20610303  0.38194401  0.59401372  1
  Ti  Ti198  1  0.00273495  0.40396189  0.00486950  1
  Ti  Ti199  1  0.60224238  0.59993397  0.59871012  1
  Mo  Mo200  1  0.60298479  0.20563609  0.39370753  1
  Mo  Mo201  1  0.00694234  0.80190753  0.79459966  1
  Mo  Mo202  1  0.39621894  0.59544817  -0.00084193  1
  Mo  Mo203  1  0.70045622  0.49600602  0.50172152  1
  Mo  Mo204  1  0.29194829  0.09729953  0.49997725  1
  Mo  Mo205  1  0.48712845  0.69718818  0.11003302  1
  Mo  Mo206  1  0.29949830  0.29927420  0.69142279  1
  Mo  Mo207  1  0.89811401  0.69723560  0.89554068  1
  Mo  Mo208  1  0.49566261  0.88345797  0.50196569  1
  Mo  Mo209  1  0.50125913  0.10408929  0.09972602  1
  Mo  Mo210  1  0.10020126  0.90111514  0.69469164  1
  Mo  Mo211  1  -0.00521526  0.39655069  0.78907185  1
  Mo  Mo212  1  0.90185177  0.29929835  0.49977611  1
  Mo  Mo213  1  0.79730761  -0.01350404  0.00287824  1
  Mo  Mo214  1  0.19263444  0.59776571  0.20164733  1
  Mo  Mo215  1  0.69580530  0.30713534  0.30036808  1
  Mo  Mo216  1  0.19469580  0.00092625  0.40112111  1
  Mo  Mo217  1  0.19823270  0.20240569  0.59300405  1
  Mo  Mo218  1  0.19720920  0.80201082  0.40325898  1
  Mo  Mo219  1  0.50113467  0.11910803  0.49238321  1
  Mo  Mo220  1  0.09672946  0.90438746  0.30581763  1
  Mo  Mo221  1  -0.00264518  0.20535486  0.59588943  1
  Mo  Mo222  1  0.49878202  0.30766919  0.48623130  1
  Mo  Mo223  1  0.09990063  0.49185257  0.30202916  1
  Mo  Mo224  1  0.10110970  0.48111702  0.50733160  1
  Mo  Mo225  1  0.79863496  0.40032719  -0.00385959  1
  Mo  Mo226  1  0.19659490  0.40675508  -0.00418750  1
  Mo  Mo227  1  0.89899371  0.49137785  0.50352485  1
  Mo  Mo228  1  0.49894942  0.10181119  0.89959472  1
  Mo  Mo229  1  0.00186555  -0.00346239  0.59645925  1
  Mo  Mo230  1  0.79901740  0.39733003  0.18832703  1
  Mo  Mo231  1  0.09895449  0.50040510  0.09799546  1
  Mo  Mo232  1  0.61070896  0.40115396  0.80906166  1
  Mo  Mo233  1  0.00108536  0.59654818  0.79429842  1
  Mo  Mo234  1  0.80412663  0.60541869  -0.00661405  1
  Mo  Mo235  1  0.80161952  0.39460896  0.60376557  1
  Mo  Mo236  1  0.39560616  0.78948679  0.40786537  1
  Mo  Mo237  1  0.69904769  0.49917490  0.89600983  1
  Mo  Mo238  1  0.79717652  0.21026063  -0.00300181  1
  Mo  Mo239  1  0.29611637  0.30470594  0.49128824  1
  Mo  Mo240  1  0.39739236  0.79133956  0.19996511  1
  Mo  Mo241  1  0.68596460  0.10407376  0.30281881  1
  Mo  Mo242  1  0.90749564  0.90181566  0.49885382  1
  Mo  Mo243  1  0.30177251  0.30110492  0.90586859  1
  Mo  Mo244  1  0.69929889  0.90052894  0.09542633  1
  Mo  Mo245  1  0.29193085  0.10900332  0.30091687  1
  Mo  Mo246  1  0.90216383  0.89787645  0.89785649  1
  Mo  Mo247  1  0.69608748  0.09820947  0.09328011  1
  Mo  Mo248  1  0.19633466  0.61295743  0.59989159  1
  Mo  Mo249  1  0.51529434  0.69562233  0.70133975  1
