# generated using pymatgen
data_HfZrTaTiMo
_symmetry_space_group_name_H-M   'P 1'
_cell_length_a   16.89059404
_cell_length_b   16.89106769
_cell_length_c   16.88315976
_cell_angle_alpha   90.01272555
_cell_angle_beta   90.06635919
_cell_angle_gamma   89.95346808
_symmetry_Int_Tables_number   1
_chemical_formula_structural   HfZrTaTiMo
_chemical_formula_sum   'Hf50 Zr50 Ta50 Ti50 Mo50'
_cell_volume   4816.76336707
_cell_formula_units_Z   50
loop_
 _symmetry_equiv_pos_site_id
 _symmetry_equiv_pos_as_xyz
  1  'x, y, z'
loop_
 _atom_site_type_symbol
 _atom_site_label
 _atom_site_symmetry_multiplicity
 _atom_site_fract_x
 _atom_site_fract_y
 _atom_site_fract_z
 _atom_site_occupancy
  Hf  Hf0  1  0.79062599  0.80063370  0.40328642  1
  Hf  Hf1  1  0.89987513  0.29480845  0.30215467  1
  Hf  Hf2  1  0.90733876  0.09584913  0.31030771  1
  Hf  Hf3  1  0.30835170  0.70795133  0.29908851  1
  Hf  Hf4  1  -0.00181853  0.58294947  0.79772228  1
  Hf  Hf5  1  0.00474525  0.79768819  0.39881224  1
  Hf  Hf6  1  0.09686086  0.89510312  0.88754585  1
  Hf  Hf7  1  0.00163334  0.20182104  -0.00388609  1
  Hf  Hf8  1  0.49940827  0.90151306  0.88510434  1
  Hf  Hf9  1  0.61139985  0.80315429  0.79205599  1
  Hf  Hf10  1  0.59013359  0.39131274  0.39542697  1
  Hf  Hf11  1  0.50626927  0.30223615  0.69666139  1
  Hf  Hf12  1  0.89515374  0.89837266  0.89617040  1
  Hf  Hf13  1  0.60521879  0.39890310  0.80241983  1
  Hf  Hf14  1  0.29767060  0.30361864  0.69809350  1
  Hf  Hf15  1  0.90297864  0.70839126  0.89277250  1
  Hf  Hf16  1  0.60015141  0.00837118  0.40091135  1
  Hf  Hf17  1  0.30403061  0.90294139  0.29910488  1
  Hf  Hf18  1  0.00595717  0.80894337  0.01051206  1
  Hf  Hf19  1  0.78727286  0.59395649  0.40808608  1
  Hf  Hf20  1  0.90055170  0.69669112  0.50802950  1
  Hf  Hf21  1  0.39754238  0.39825131  0.00285369  1
  Hf  Hf22  1  0.69143349  0.49748554  0.29643553  1
  Hf  Hf23  1  0.00019130  0.39899137  0.80422568  1
  Hf  Hf24  1  0.89566574  0.90069268  0.69565258  1
  Hf  Hf25  1  0.50538787  0.09743307  0.69405643  1
  Hf  Hf26  1  -0.00628289  0.01374699  0.59174224  1
  Hf  Hf27  1  0.10120235  0.10473196  0.90016875  1
  Hf  Hf28  1  0.28922616  0.89289792  0.89807105  1
  Hf  Hf29  1  0.72209371  0.70505477  0.91399496  1
  Hf  Hf30  1  0.50878326  0.49916620  0.10825281  1
  Hf  Hf31  1  0.29538642  0.09819582  0.10683520  1
  Hf  Hf32  1  0.69860521  0.89851751  0.10580677  1
  Hf  Hf33  1  0.39590182  0.60119466  0.59166939  1
  Hf  Hf34  1  0.70989353  0.29530639  0.90306678  1
  Hf  Hf35  1  0.19851414  0.79279510  0.40261225  1
  Hf  Hf36  1  0.78776299  0.19790140  0.19316237  1
  Hf  Hf37  1  0.10518808  0.30151561  0.09939002  1
  Hf  Hf38  1  0.09635086  0.49074430  0.10126337  1
  Hf  Hf39  1  0.69310681  0.29736482  0.49754213  1
  Hf  Hf40  1  0.19600108  0.00772209  0.40409137  1
  Hf  Hf41  1  0.31120819  0.90530856  0.49726101  1
  Hf  Hf42  1  0.50313698  0.10477326  0.89747700  1
  Hf  Hf43  1  0.89927435  0.30001054  0.09502259  1
  Hf  Hf44  1  0.00400015  0.59910275  0.39230800  1
  Hf  Hf45  1  0.40044492  -0.00476714  0.00588640  1
  Hf  Hf46  1  0.60216189  0.60129181  0.58657210  1
  Hf  Hf47  1  0.10068295  0.90773438  0.30000233  1
  Hf  Hf48  1  0.60225073  -0.00280035  0.00385232  1
  Hf  Hf49  1  0.10347837  0.49248433  0.29907800  1
  Zr  Zr50  1  0.30152357  0.70958834  0.10625226  1
  Zr  Zr51  1  0.18811114  -0.00220473  0.01310126  1
  Zr  Zr52  1  0.79806112  0.00439961  0.20100620  1
  Zr  Zr53  1  0.50243844  0.69913538  0.69381124  1
  Zr  Zr54  1  0.28833567  0.29976122  0.10812703  1
  Zr  Zr55  1  0.60379264  0.60334845  0.00187222  1
  Zr  Zr56  1  0.29792088  0.30198473  0.30794699  1
  Zr  Zr57  1  0.51017608  0.09362468  0.11545568  1
  Zr  Zr58  1  0.90055121  0.70328933  0.69864410  1
  Zr  Zr59  1  0.00786901  -0.00067361  0.18570353  1
  Zr  Zr60  1  0.09853420  0.69534844  0.70191625  1
  Zr  Zr61  1  0.31842547  0.09459432  0.49768202  1
  Zr  Zr62  1  0.19778829  0.19860790  0.40775246  1
  Zr  Zr63  1  0.89229041  0.69720640  0.29768141  1
  Zr  Zr64  1  0.39020547  0.79663974  0.78299509  1
  Zr  Zr65  1  0.20124242  0.00781490  0.79288143  1
  Zr  Zr66  1  0.00214650  0.79451378  0.19733016  1
  Zr  Zr67  1  0.49053316  0.69861353  0.89401369  1
  Zr  Zr68  1  0.79962029  0.59405014  0.19764083  1
  Zr  Zr69  1  0.61669740  0.20081906  0.01943533  1
  Zr  Zr70  1  0.80076886  0.40020765  0.59409713  1
  Zr  Zr71  1  0.40530207  0.20594373  0.00468363  1
  Zr  Zr72  1  0.50178393  0.49927489  0.89964560  1
  Zr  Zr73  1  0.20766210  0.79414225  0.59766683  1
  Zr  Zr74  1  0.38881066  0.59458737  0.00236178  1
  Zr  Zr75  1  0.80439759  0.19188103  0.59347909  1
  Zr  Zr76  1  0.88262057  0.70123494  0.08549946  1
  Zr  Zr77  1  0.39748154  0.00792177  0.79579804  1
  Zr  Zr78  1  0.78074814  0.19170792  0.39277103  1
  Zr  Zr79  1  0.10015168  0.68682569  0.51359759  1
  Zr  Zr80  1  0.61258735  0.60080626  0.79837998  1
  Zr  Zr81  1  0.39293151  0.40033986  0.80767307  1
  Zr  Zr82  1  0.40524720  0.20641899  0.59335045  1
  Zr  Zr83  1  0.19537690  0.60101497  -0.00256531  1
  Zr  Zr84  1  0.10213260  0.30346471  0.69676818  1
  Zr  Zr85  1  0.10227756  0.49782183  0.50652311  1
  Zr  Zr86  1  0.39931063  0.80483887  0.00537324  1
  Zr  Zr87  1  0.30276301  0.91067116  0.68435338  1
  Zr  Zr88  1  0.40906532  0.20121480  0.21022672  1
  Zr  Zr89  1  0.40417630  0.40264138  0.21303135  1
  Zr  Zr90  1  0.59536974  0.80374438  0.00246571  1
  Zr  Zr91  1  0.89632509  0.90718822  0.49477093  1
  Zr  Zr92  1  0.79466828  0.59129705  0.59897267  1
  Zr  Zr93  1  0.19249000  0.57311545  0.80521146  1
  Zr  Zr94  1  0.10096253  0.30011196  0.29856965  1
  Zr  Zr95  1  0.80895882  0.39978116  0.79699750  1
  Zr  Zr96  1  0.00688223  0.60254016  -0.00408225  1
  Zr  Zr97  1  0.70639736  0.10281903  0.89649590  1
  Zr  Zr98  1  0.09508056  0.11003393  0.69432946  1
  Zr  Zr99  1  0.19623410  0.60568018  0.20641072  1
  Ta  Ta100  1  0.80336325  0.59031527  0.79903536  1
  Ta  Ta101  1  0.60820277  0.20222691  0.22076765  1
  Ta  Ta102  1  0.69871731  0.10277162  0.69613557  1
  Ta  Ta103  1  0.79686397  0.40019591  0.39934771  1
  Ta  Ta104  1  0.59609660  0.80458197  0.20676649  1
  Ta  Ta105  1  0.20352619  0.40704708  -0.01177747  1
  Ta  Ta106  1  -0.00417329  0.39650994  0.40218989  1
  Ta  Ta107  1  0.29585237  0.11019454  0.90710765  1
  Ta  Ta108  1  0.20000663  0.20076139  0.59108973  1
  Ta  Ta109  1  0.61021810  -0.00303676  0.79197686  1
  Ta  Ta110  1  0.49817104  0.70223148  0.11423629  1
  Ta  Ta111  1  -0.00414023  -0.00018980  0.00127343  1
  Ta  Ta112  1  0.70068179  0.49769930  0.09955260  1
  Ta  Ta113  1  0.09674617  0.90125057  0.69730259  1
  Ta  Ta114  1  0.69668487  0.90064768  0.30291899  1
  Ta  Ta115  1  0.50626260  0.90177950  0.68492103  1
  Ta  Ta116  1  0.59987439  0.80036738  0.40919188  1
  Ta  Ta117  1  0.29652116  0.90125585  0.11854649  1
  Ta  Ta118  1  -0.00716850  0.40154016  0.60127064  1
  Ta  Ta119  1  0.49974255  0.49823211  0.69503094  1
  Ta  Ta120  1  0.79736148  0.00336733  0.79301673  1
  Ta  Ta121  1  0.50157663  0.90377014  0.50493846  1
  Ta  Ta122  1  0.09900528  0.90869823  0.50338466  1
  Ta  Ta123  1  -0.00774005  0.00595933  0.79833778  1
  Ta  Ta124  1  0.90004540  0.49310956  0.29938306  1
  Ta  Ta125  1  0.80127008  0.00310364  0.00341072  1
  Ta  Ta126  1  0.50190429  0.70113266  0.30201237  1
  Ta  Ta127  1  0.69222062  0.70439608  0.29871118  1
  Ta  Ta128  1  0.00177235  0.19462726  0.19742698  1
  Ta  Ta129  1  -0.00789009  0.20541730  0.80293419  1
  Ta  Ta130  1  0.40296229  0.60167205  0.40224045  1
  Ta  Ta131  1  0.90500142  0.29199577  0.49291245  1
  Ta  Ta132  1  0.00263800  0.80739762  0.59740615  1
  Ta  Ta133  1  -0.00721132  0.39833815  0.20014085  1
  Ta  Ta134  1  0.89858477  0.10403599  0.09276309  1
  Ta  Ta135  1  0.59640886  0.60478949  0.40479564  1
  Ta  Ta136  1  0.80093467  0.39720915  0.00369325  1
  Ta  Ta137  1  0.40179920  0.59798044  0.20830228  1
  Ta  Ta138  1  0.28711496  0.70265361  0.88967571  1
  Ta  Ta139  1  0.41051271  0.79777539  0.40537817  1
  Ta  Ta140  1  0.21016950  0.60225428  0.40516823  1
  Ta  Ta141  1  0.51540037  0.30745387  0.11297688  1
  Ta  Ta142  1  0.79547437  0.39570109  0.20017422  1
  Ta  Ta143  1  0.30915272  0.09309685  0.30303841  1
  Ta  Ta144  1  0.69683690  0.49404608  0.69627221  1
  Ta  Ta145  1  0.20244332  0.20409742  0.80036239  1
  Ta  Ta146  1  0.69874182  0.70323080  0.10554051  1
  Ta  Ta147  1  0.89794407  0.90558301  0.30232594  1
  Ta  Ta148  1  0.89599392  0.10209425  0.89914950  1
  Ta  Ta149  1  0.69654985  0.29416623  0.69508814  1
  Ti  Ti150  1  0.69960035  0.90515206  0.68733999  1
  Ti  Ti151  1  0.29356925  0.49467096  0.11159614  1
  Ti  Ti152  1  0.78398695  0.80217926  0.58947847  1
  Ti  Ti153  1  0.59854822  0.40416976  0.59350286  1
  Ti  Ti154  1  0.41077281  -0.00315274  0.20675192  1
  Ti  Ti155  1  0.90496533  0.49722364  0.49680599  1
  Ti  Ti156  1  0.19397633  0.01322231  0.59318843  1
  Ti  Ti157  1  0.18559055  0.80024040  0.19808694  1
  Ti  Ti158  1  0.50782326  0.29633323  0.90451447  1
  Ti  Ti159  1  0.30234456  0.10752627  0.69364213  1
  Ti  Ti160  1  0.60740459  0.00253102  0.59046927  1
  Ti  Ti161  1  0.60839582  0.39614569  0.00490005  1
  Ti  Ti162  1  0.29113355  0.29602998  0.90113057  1
  Ti  Ti163  1  0.29942708  0.49608856  0.30957205  1
  Ti  Ti164  1  0.79422072  0.80391036  0.79101897  1
  Ti  Ti165  1  0.59855635  0.60604805  0.20407001  1
  Ti  Ti166  1  0.29589389  0.49208609  0.69561728  1
  Ti  Ti167  1  0.08865537  0.29459568  0.50362968  1
  Ti  Ti168  1  0.50182864  0.90173034  0.30332318  1
  Ti  Ti169  1  0.70874206  0.49996207  0.90620857  1
  Ti  Ti170  1  0.70746435  0.90084901  0.90068189  1
  Ti  Ti171  1  0.79338453  0.00887998  0.59139754  1
  Ti  Ti172  1  0.10459419  0.30359905  0.90171790  1
  Ti  Ti173  1  0.19971229  0.39894074  0.59679870  1
  Ti  Ti174  1  0.00195410  0.60310038  0.19833177  1
  Ti  Ti175  1  0.49964264  0.50380939  0.30359829  1
  Ti  Ti176  1  0.30041601  0.49641741  0.49786650  1
  Ti  Ti177  1  0.59733306  0.19297503  0.58347241  1
  Ti  Ti178  1  0.28889365  0.68740115  0.69990507  1
  Ti  Ti179  1  0.10323434  0.71428350  0.88538287  1
  Ti  Ti180  1  0.90095527  0.49599013  0.09799348  1
  Ti  Ti181  1  0.39054926  0.59227657  0.79714669  1
  Ti  Ti182  1  0.49575448  0.49502155  0.49477759  1
  Ti  Ti183  1  0.89799124  0.10333811  0.70151303  1
  Ti  Ti184  1  0.70384653  0.69944393  0.69263878  1
  Ti  Ti185  1  0.89974244  0.49500834  0.91366738  1
  Ti  Ti186  1  0.19068386  0.18252347  0.20389035  1
  Ti  Ti187  1  0.42200394  0.20489731  0.40079658  1
  Ti  Ti188  1  0.19189022  0.79809240  0.01013216  1
  Ti  Ti189  1  0.80591955  0.20193412  0.79566246  1
  Ti  Ti190  1  0.40401971  0.78978481  0.59044116  1
  Ti  Ti191  1  0.78972857  0.00414857  0.40617480  1
  Ti  Ti192  1  0.39758152  0.20377094  0.80206078  1
  Ti  Ti193  1  0.09383475  0.09884106  0.30515884  1
  Ti  Ti194  1  0.80069701  0.80561395  0.20133009  1
  Ti  Ti195  1  0.19882274  0.39864251  0.40759298  1
  Ti  Ti196  1  0.90341960  0.29421701  0.69231530  1
  Ti  Ti197  1  0.30955027  0.30910834  0.49537830  1
  Ti  Ti198  1  0.60407763  0.20047473  0.79585185  1
  Ti  Ti199  1  0.40564285  0.40265506  0.59358398  1
  Mo  Mo200  1  -0.00470667  0.20531506  0.59758935  1
  Mo  Mo201  1  0.69576630  0.90355022  0.50268178  1
  Mo  Mo202  1  0.29871943  0.49756361  0.89842475  1
  Mo  Mo203  1  0.10627357  0.89980498  0.10399303  1
  Mo  Mo204  1  0.60114720  -0.00310611  0.20987960  1
  Mo  Mo205  1  0.69671562  0.09752578  0.50344980  1
  Mo  Mo206  1  0.00148259  0.19806042  0.40404731  1
  Mo  Mo207  1  0.09992737  0.70213064  0.10395731  1
  Mo  Mo208  1  0.09067583  0.10664214  0.49835604  1
  Mo  Mo209  1  0.80138176  0.58277115  -0.00187605  1
  Mo  Mo210  1  0.09268448  0.48156615  0.90768075  1
  Mo  Mo211  1  0.50311952  0.29737321  0.30432587  1
  Mo  Mo212  1  0.40065474  0.40724306  0.40683301  1
  Mo  Mo213  1  0.80577901  0.19836972  0.00028939  1
  Mo  Mo214  1  0.49631569  0.89835752  0.11754301  1
  Mo  Mo215  1  0.80092879  0.81763976  0.00749374  1
  Mo  Mo216  1  0.00160647  0.00101147  0.40042298  1
  Mo  Mo217  1  0.69521538  0.70539764  0.49817972  1
  Mo  Mo218  1  0.89552382  0.90597004  0.09859913  1
  Mo  Mo219  1  0.70061815  0.31001634  0.10332992  1
  Mo  Mo220  1  0.41187676  0.80473508  0.20827327  1
  Mo  Mo221  1  0.50612597  0.10016760  0.49862831  1
  Mo  Mo222  1  0.89800682  0.49588114  0.69709834  1
  Mo  Mo223  1  0.69308851  0.09264745  0.29858047  1
  Mo  Mo224  1  0.68909525  0.49252172  0.49548918  1
  Mo  Mo225  1  -0.00269566  0.39742274  -0.00096885  1
  Mo  Mo226  1  0.60343172  0.39893226  0.20444725  1
  Mo  Mo227  1  0.19898596  0.20554277  -0.00634891  1
  Mo  Mo228  1  0.09779433  0.10620155  0.09944824  1
  Mo  Mo229  1  0.89764499  0.10229144  0.49361265  1
  Mo  Mo230  1  0.70317101  0.09523242  0.10404717  1
  Mo  Mo231  1  0.41600054  0.00528757  0.59573455  1
  Mo  Mo232  1  0.30650477  0.69550515  0.49554993  1
  Mo  Mo233  1  0.41157698  -0.00416328  0.39536765  1
  Mo  Mo234  1  0.60682438  0.80515682  0.59653701  1
  Mo  Mo235  1  -0.00882426  0.58337032  0.60726474  1
  Mo  Mo236  1  0.21542432  0.58738270  0.60210765  1
  Mo  Mo237  1  0.19840338  0.39330096  0.80366219  1
  Mo  Mo238  1  0.19720218  0.79674148  0.79122115  1
  Mo  Mo239  1  0.10544839  0.69423448  0.30086297  1
  Mo  Mo240  1  0.00082321  0.80978388  0.79072363  1
  Mo  Mo241  1  0.69888973  0.30471067  0.29867692  1
  Mo  Mo242  1  0.09876165  0.49234546  0.68918260  1
  Mo  Mo243  1  0.20026945  0.40792185  0.20175845  1
  Mo  Mo244  1  0.49978924  0.70526647  0.49550390  1
  Mo  Mo245  1  0.59150581  0.19781483  0.39869465  1
  Mo  Mo246  1  0.49965640  0.30216653  0.50115016  1
  Mo  Mo247  1  0.49941224  0.09941556  0.30658711  1
  Mo  Mo248  1  0.89722831  0.29467530  0.90154519  1
  Mo  Mo249  1  0.20331469  0.00824685  0.20757185  1
