# generated using pymatgen
data_HfZrTaTiMo
_symmetry_space_group_name_H-M   'P 1'
_cell_length_a   16.87955825
_cell_length_b   16.89493163
_cell_length_c   16.88591761
_cell_angle_alpha   90.02497992
_cell_angle_beta   89.99134889
_cell_angle_gamma   90.05717741
_symmetry_Int_Tables_number   1
_chemical_formula_structural   HfZrTaTiMo
_chemical_formula_sum   'Hf50 Zr50 Ta50 Ti50 Mo50'
_cell_volume   4815.50589703
_cell_formula_units_Z   50
loop_
 _symmetry_equiv_pos_site_id
 _symmetry_equiv_pos_as_xyz
  1  'x, y, z'
loop_
 _atom_site_type_symbol
 _atom_site_label
 _atom_site_symmetry_multiplicity
 _atom_site_fract_x
 _atom_site_fract_y
 _atom_site_fract_z
 _atom_site_occupancy
  Hf  Hf0  1  0.78787721  0.00331657  0.19296539  1
  Hf  Hf1  1  0.90462712  0.70395061  0.50582240  1
  Hf  Hf2  1  0.90127726  0.10596330  0.50628047  1
  Hf  Hf3  1  0.20145065  0.80779669  0.19922765  1
  Hf  Hf4  1  0.61832873  0.00094051  0.80969932  1
  Hf  Hf5  1  0.50521738  0.69018401  0.89500687  1
  Hf  Hf6  1  0.91226784  0.09864761  0.28245241  1
  Hf  Hf7  1  0.09341395  0.10355451  0.69579970  1
  Hf  Hf8  1  0.59394446  0.01212330  0.59526693  1
  Hf  Hf9  1  0.69571817  0.70283733  0.70189408  1
  Hf  Hf10  1  0.09359571  0.10834417  0.50520526  1
  Hf  Hf11  1  0.51414849  0.29712968  0.50954986  1
  Hf  Hf12  1  0.50747209  0.50095409  0.30608194  1
  Hf  Hf13  1  0.69815010  0.11208628  0.09097444  1
  Hf  Hf14  1  0.69801108  0.69467152  0.49794748  1
  Hf  Hf15  1  0.40363503  0.38700367  0.20207025  1
  Hf  Hf16  1  0.89349788  0.90171791  0.29289594  1
  Hf  Hf17  1  0.29662271  0.09964421  0.90552562  1
  Hf  Hf18  1  0.69934214  0.50147603  0.29700505  1
  Hf  Hf19  1  0.60108102  0.39776241  -0.00027262  1
  Hf  Hf20  1  0.00236658  0.79967655  0.80564572  1
  Hf  Hf21  1  0.81502597  0.39350837  0.39268007  1
  Hf  Hf22  1  0.29976542  0.70782021  0.30823200  1
  Hf  Hf23  1  0.69758461  0.49580482  0.88900807  1
  Hf  Hf24  1  0.40668649  0.18824080  0.59762222  1
  Hf  Hf25  1  -0.00502477  0.21171907  0.79676079  1
  Hf  Hf26  1  0.10785724  0.70657802  0.31061900  1
  Hf  Hf27  1  -0.00226743  0.59521611  0.19991202  1
  Hf  Hf28  1  0.50993354  0.89733012  0.69463408  1
  Hf  Hf29  1  -0.00539166  0.60877771  -0.00301844  1
  Hf  Hf30  1  0.58649194  0.20174648  0.19440103  1
  Hf  Hf31  1  0.40091385  0.79083165  0.79384126  1
  Hf  Hf32  1  0.00388163  0.20988346  0.38514246  1
  Hf  Hf33  1  0.49617855  0.90049571  0.29730407  1
  Hf  Hf34  1  0.90933498  0.29583292  0.51388300  1
  Hf  Hf35  1  0.09708593  0.10079345  0.90765148  1
  Hf  Hf36  1  0.00188890  0.60861137  0.79787391  1
  Hf  Hf37  1  0.09832817  0.70325709  0.50056767  1
  Hf  Hf38  1  0.50512811  0.69877233  0.50011063  1
  Hf  Hf39  1  -0.00300252  -0.01024309  0.80215145  1
  Hf  Hf40  1  0.89464164  0.09827201  0.89566651  1
  Hf  Hf41  1  0.09708042  0.29810918  0.10019949  1
  Hf  Hf42  1  0.79677150  0.20784901  0.80090828  1
  Hf  Hf43  1  0.78380355  -0.00440286  -0.01873580  1
  Hf  Hf44  1  0.11802968  0.31982972  0.29658143  1
  Hf  Hf45  1  0.40057518  0.20187072  0.40423280  1
  Hf  Hf46  1  0.19062999  -0.00676536  0.80110667  1
  Hf  Hf47  1  0.69187653  0.31140864  0.70456184  1
  Hf  Hf48  1  0.28932025  0.10328158  0.09607651  1
  Hf  Hf49  1  0.00270270  0.00330622  0.39620430  1
  Zr  Zr50  1  0.10788211  0.70542816  0.08802328  1
  Zr  Zr51  1  0.30451640  0.70277709  0.09862046  1
  Zr  Zr52  1  0.39241485  0.59161200  0.20634832  1
  Zr  Zr53  1  0.70312017  0.30440441  0.10006661  1
  Zr  Zr54  1  0.69687586  0.29849474  0.30239071  1
  Zr  Zr55  1  0.29160394  0.70515972  0.49447268  1
  Zr  Zr56  1  -0.00342249  0.40716370  0.20203485  1
  Zr  Zr57  1  0.89270577  0.70218892  0.29555630  1
  Zr  Zr58  1  0.20303418  0.80730626  0.60140350  1
  Zr  Zr59  1  0.69825697  0.69759303  0.90062124  1
  Zr  Zr60  1  0.39884530  0.39804231  0.00204125  1
  Zr  Zr61  1  0.80800527  0.58773247  0.40040378  1
  Zr  Zr62  1  0.39881460  0.60062726  0.60716046  1
  Zr  Zr63  1  0.78963441  0.00742456  0.60314741  1
  Zr  Zr64  1  -0.00145986  0.79777921  0.19275926  1
  Zr  Zr65  1  0.50611118  0.49428893  0.50117238  1
  Zr  Zr66  1  0.50028271  0.70016718  0.09929163  1
  Zr  Zr67  1  0.29462340  0.09980454  0.70222520  1
  Zr  Zr68  1  0.30154365  0.90146497  0.30322582  1
  Zr  Zr69  1  0.30441696  0.90318083  0.69921714  1
  Zr  Zr70  1  0.59398590  0.80456046  0.39869797  1
  Zr  Zr71  1  0.41692094  0.00566119  0.80033508  1
  Zr  Zr72  1  0.19269063  0.58883907  0.60130153  1
  Zr  Zr73  1  0.90097963  0.49799182  0.89387387  1
  Zr  Zr74  1  0.70211599  0.69803932  0.29588831  1
  Zr  Zr75  1  0.89173101  0.89795227  0.09741267  1
  Zr  Zr76  1  0.40953170  0.19951833  0.79407198  1
  Zr  Zr77  1  0.40161764  0.00817122  0.41704454  1
  Zr  Zr78  1  0.10356746  0.49969206  0.89291701  1
  Zr  Zr79  1  0.38970752  0.58814978  0.40088890  1
  Zr  Zr80  1  0.60054361  -0.00044908  0.00176093  1
  Zr  Zr81  1  0.89930203  0.10608861  0.09103417  1
  Zr  Zr82  1  0.19491745  0.58858498  0.20348995  1
  Zr  Zr83  1  0.70465090  0.29838636  0.50828260  1
  Zr  Zr84  1  0.08407699  0.10078952  0.10536032  1
  Zr  Zr85  1  0.49240831  0.89011558  0.09823419  1
  Zr  Zr86  1  0.41268861  0.20559673  0.01290617  1
  Zr  Zr87  1  0.29993157  0.49154642  0.70977385  1
  Zr  Zr88  1  0.00480768  0.58736475  0.39630511  1
  Zr  Zr89  1  0.20643141  0.20266667  0.40773497  1
  Zr  Zr90  1  0.69475251  0.89408856  0.50450193  1
  Zr  Zr91  1  0.29964030  0.90201114  0.90555609  1
  Zr  Zr92  1  0.50299283  0.50194664  0.10335402  1
  Zr  Zr93  1  0.40414601  0.01529396  0.19231452  1
  Zr  Zr94  1  0.30141800  0.30333728  0.89201699  1
  Zr  Zr95  1  0.60066041  0.59438732  0.61218272  1
  Zr  Zr96  1  0.89661887  0.90163272  0.50401652  1
  Zr  Zr97  1  0.80408124  0.59163856  0.60830538  1
  Zr  Zr98  1  0.29611846  0.90355913  0.08915770  1
  Zr  Zr99  1  0.91289450  0.48687306  0.51426489  1
  Ta  Ta100  1  0.60015017  0.79939705  0.79953470  1
  Ta  Ta101  1  -0.00376007  0.39964672  0.00010277  1
  Ta  Ta102  1  0.80319392  0.40212875  0.00011215  1
  Ta  Ta103  1  0.39562061  0.59514020  -0.00913226  1
  Ta  Ta104  1  0.60151002  0.00651723  0.39966059  1
  Ta  Ta105  1  0.19363810  0.79307756  0.80280737  1
  Ta  Ta106  1  0.89106215  0.90079861  0.70277439  1
  Ta  Ta107  1  0.10133034  0.90404223  0.09248162  1
  Ta  Ta108  1  0.60373716  0.59621953  0.00143410  1
  Ta  Ta109  1  -0.00507616  -0.01350921  -0.00651768  1
  Ta  Ta110  1  0.39654583  0.38613148  0.40273315  1
  Ta  Ta111  1  0.50609785  0.89054430  0.90406583  1
  Ta  Ta112  1  0.50747728  0.48816117  0.70978800  1
  Ta  Ta113  1  0.40264790  0.39106707  0.60318597  1
  Ta  Ta114  1  0.19989212  0.40049362  -0.00126222  1
  Ta  Ta115  1  0.69464168  0.88319530  0.09645187  1
  Ta  Ta116  1  0.40534733  0.80250721  0.59594526  1
  Ta  Ta117  1  0.19430766  0.57659332  0.40476632  1
  Ta  Ta118  1  0.90047191  0.70683147  0.70036421  1
  Ta  Ta119  1  0.09768953  0.90587929  0.29769476  1
  Ta  Ta120  1  0.51743779  0.11290646  0.90236762  1
  Ta  Ta121  1  0.49844233  0.49797644  0.88987157  1
  Ta  Ta122  1  0.69931126  0.90090975  0.29438584  1
  Ta  Ta123  1  0.80805727  0.40332835  0.20041514  1
  Ta  Ta124  1  0.20236978  0.20586820  0.59926462  1
  Ta  Ta125  1  0.19478262  0.20763099  -0.00306018  1
  Ta  Ta126  1  0.39804489  0.78899254  -0.01307542  1
  Ta  Ta127  1  0.20365162  0.00291545  0.58801351  1
  Ta  Ta128  1  0.69570175  0.48791388  0.50358510  1
  Ta  Ta129  1  0.20421429  0.59685216  -0.00877618  1
  Ta  Ta130  1  0.80617904  0.20820613  0.20580835  1
  Ta  Ta131  1  0.30066103  0.50001708  0.89164238  1
  Ta  Ta132  1  0.59976503  0.00167497  0.19883334  1
  Ta  Ta133  1  0.50175037  0.10170317  0.30223173  1
  Ta  Ta134  1  0.89955319  0.09962115  0.69919894  1
  Ta  Ta135  1  0.28247017  0.47183403  0.30294744  1
  Ta  Ta136  1  0.79129718  0.00931264  0.39566686  1
  Ta  Ta137  1  0.80435222  0.59923246  0.79422575  1
  Ta  Ta138  1  0.00010428  0.80845789  0.40011175  1
  Ta  Ta139  1  0.79833704  0.60104414  -0.00019442  1
  Ta  Ta140  1  -0.00775503  0.79582072  -0.01071200  1
  Ta  Ta141  1  0.20032522  0.00598633  0.40172375  1
  Ta  Ta142  1  0.51335909  0.30363398  0.89015626  1
  Ta  Ta143  1  0.19298866  0.00614175  0.20398912  1
  Ta  Ta144  1  0.60023026  0.79745425  0.19928027  1
  Ta  Ta145  1  0.80586496  0.19595354  0.39290088  1
  Ta  Ta146  1  0.09584436  0.30780123  0.50861387  1
  Ta  Ta147  1  0.70477339  0.50421221  0.10381457  1
  Ta  Ta148  1  0.29823360  0.10404064  0.29872990  1
  Ta  Ta149  1  0.29919496  0.30115428  0.69905703  1
  Ti  Ti150  1  0.00265937  0.59334565  0.60924851  1
  Ti  Ti151  1  0.79590276  0.21388319  -0.01117509  1
  Ti  Ti152  1  0.50894997  0.30022287  0.70219406  1
  Ti  Ti153  1  0.59724998  0.19555989  0.39908228  1
  Ti  Ti154  1  0.19119519  0.19460523  0.20662673  1
  Ti  Ti155  1  0.10249488  0.89960173  0.49545418  1
  Ti  Ti156  1  0.41298271  0.00738207  -0.00266461  1
  Ti  Ti157  1  0.70264185  0.89649651  0.70304268  1
  Ti  Ti158  1  0.29171162  0.69184924  0.89240201  1
  Ti  Ti159  1  0.79849442  0.79932985  0.80233361  1
  Ti  Ti160  1  0.40084147  0.81069698  0.41292517  1
  Ti  Ti161  1  0.90098177  0.29832241  0.10148280  1
  Ti  Ti162  1  0.00607853  0.40404555  0.39515706  1
  Ti  Ti163  1  0.19347559  0.20563805  0.79972614  1
  Ti  Ti164  1  0.09569007  0.30269988  0.69538377  1
  Ti  Ti165  1  0.88223213  0.70036212  0.10210889  1
  Ti  Ti166  1  0.29622571  0.29690330  0.29619280  1
  Ti  Ti167  1  0.10911998  0.89156881  0.91581409  1
  Ti  Ti168  1  0.79867096  0.79947564  0.60400370  1
  Ti  Ti169  1  0.10242707  0.70058628  0.69924325  1
  Ti  Ti170  1  0.19863174  0.39576343  0.59958909  1
  Ti  Ti171  1  0.40390876  0.00306055  0.59253356  1
  Ti  Ti172  1  0.69936699  0.11347492  0.49880743  1
  Ti  Ti173  1  0.28889345  0.29568155  0.10687834  1
  Ti  Ti174  1  -0.00002804  0.80601021  0.60456105  1
  Ti  Ti175  1  0.09883579  0.89935089  0.69462537  1
  Ti  Ti176  1  0.19485615  0.39385665  0.79787007  1
  Ti  Ti177  1  0.10315265  0.49599301  0.09290613  1
  Ti  Ti178  1  0.80617984  0.40432160  0.61899212  1
  Ti  Ti179  1  0.09441221  0.49043685  0.70409926  1
  Ti  Ti180  1  0.88623366  0.89571037  0.89392573  1
  Ti  Ti181  1  0.29512538  0.49615416  0.09691026  1
  Ti  Ti182  1  -0.00660872  0.21154652  -0.00754987  1
  Ti  Ti183  1  0.79999390  0.80524218  0.39971030  1
  Ti  Ti184  1  0.29357080  0.69509808  0.70279329  1
  Ti  Ti185  1  0.89682361  0.31372110  0.89384646  1
  Ti  Ti186  1  0.40560154  0.20404932  0.20189931  1
  Ti  Ti187  1  0.59468728  0.39276044  0.20062932  1
  Ti  Ti188  1  0.00019235  -0.00603920  0.60217372  1
  Ti  Ti189  1  0.80160653  0.20284909  0.61175894  1
  Ti  Ti190  1  0.40261324  0.59969971  0.79493853  1
  Ti  Ti191  1  0.60435825  0.60653972  0.19691433  1
  Ti  Ti192  1  0.69690243  0.10325693  0.29787669  1
  Ti  Ti193  1  0.59905704  0.39381939  0.39809325  1
  Ti  Ti194  1  0.49646616  0.69870411  0.30213927  1
  Ti  Ti195  1  0.89296578  0.50381441  0.09826190  1
  Ti  Ti196  1  0.79677927  0.79273485  -0.00347489  1
  Ti  Ti197  1  0.09551627  0.30795594  0.89963654  1
  Ti  Ti198  1  0.29886733  0.48459951  0.50302357  1
  Ti  Ti199  1  0.69579383  0.10967796  0.70611617  1
  Mo  Mo200  1  0.30145743  0.90493494  0.50202973  1
  Mo  Mo201  1  0.49777523  0.90131467  0.50420923  1
  Mo  Mo202  1  0.40593524  0.39576600  0.79512200  1
  Mo  Mo203  1  0.10474366  0.49553438  0.30433960  1
  Mo  Mo204  1  0.51335764  0.10178325  0.70375692  1
  Mo  Mo205  1  0.49900104  0.70045135  0.70102136  1
  Mo  Mo206  1  0.69971208  0.11974073  0.89893874  1
  Mo  Mo207  1  0.79814309  -0.00107263  0.79426706  1
  Mo  Mo208  1  0.78855733  0.79823792  0.19385420  1
  Mo  Mo209  1  0.50293733  0.10308178  0.09955819  1
  Mo  Mo210  1  0.90576229  0.49925584  0.70697294  1
  Mo  Mo211  1  0.59731896  0.79385946  -0.00146476  1
  Mo  Mo212  1  0.40479311  0.79317757  0.20813089  1
  Mo  Mo213  1  0.00643033  0.39830951  0.61458048  1
  Mo  Mo214  1  0.20691461  0.39866539  0.18136295  1
  Mo  Mo215  1  0.89719706  0.30626302  0.70238875  1
  Mo  Mo216  1  0.70486038  0.30710349  0.90097565  1
  Mo  Mo217  1  0.90039782  0.49667238  0.29303456  1
  Mo  Mo218  1  0.60406533  0.20761541  -0.00540523  1
  Mo  Mo219  1  0.19308514  0.81917973  0.40255042  1
  Mo  Mo220  1  0.70021154  0.69649005  0.09772152  1
  Mo  Mo221  1  0.69894284  0.88118141  0.90033447  1
  Mo  Mo222  1  0.10514606  0.09761221  0.29811102  1
  Mo  Mo223  1  0.70270776  0.49861346  0.70398521  1
  Mo  Mo224  1  0.60148018  0.39969266  0.80098737  1
  Mo  Mo225  1  0.80385552  0.40301365  0.79693279  1
  Mo  Mo226  1  0.00032375  0.20529689  0.60828585  1
  Mo  Mo227  1  -0.00236560  0.21354360  0.20129849  1
  Mo  Mo228  1  0.00566114  -0.00905808  0.19320992  1
  Mo  Mo229  1  0.00174536  0.39617023  0.79880562  1
  Mo  Mo230  1  0.49880451  0.29924743  0.30743927  1
  Mo  Mo231  1  0.59991365  0.40030678  0.60507110  1
  Mo  Mo232  1  0.20178987  0.79352205  -0.00834669  1
  Mo  Mo233  1  0.10052643  0.48919060  0.50716010  1
  Mo  Mo234  1  0.60332090  0.19523351  0.60927347  1
  Mo  Mo235  1  0.90369712  0.29910183  0.29810541  1
  Mo  Mo236  1  0.29373907  0.10124918  0.50278215  1
  Mo  Mo237  1  0.50294093  0.30188332  0.10204142  1
  Mo  Mo238  1  0.80111087  0.59607268  0.18949252  1
  Mo  Mo239  1  0.89232428  0.70362949  0.89761597  1
  Mo  Mo240  1  0.51158827  0.10442125  0.49661488  1
  Mo  Mo241  1  0.59913482  0.59689401  0.79980966  1
  Mo  Mo242  1  0.20478647  0.39454509  0.42071245  1
  Mo  Mo243  1  0.18807374  0.00744093  0.00150434  1
  Mo  Mo244  1  0.30238503  0.30211101  0.51374798  1
  Mo  Mo245  1  0.60552101  0.59380521  0.40055265  1
  Mo  Mo246  1  0.60488237  0.20168863  0.80033108  1
  Mo  Mo247  1  0.59813842  0.80027515  0.60591514  1
  Mo  Mo248  1  0.19919442  0.60489965  0.79760662  1
  Mo  Mo249  1  0.10551325  0.70198157  0.89920895  1
