# generated using pymatgen
data_HfZrTaTiMo
_symmetry_space_group_name_H-M   'P 1'
_cell_length_a   16.88843999
_cell_length_b   16.89993411
_cell_length_c   16.89625945
_cell_angle_alpha   89.99870436
_cell_angle_beta   89.93741990
_cell_angle_gamma   90.06292903
_symmetry_Int_Tables_number   1
_chemical_formula_structural   HfZrTaTiMo
_chemical_formula_sum   'Hf50 Zr50 Ta50 Ti50 Mo50'
_cell_volume   4822.41514908
_cell_formula_units_Z   50
loop_
 _symmetry_equiv_pos_site_id
 _symmetry_equiv_pos_as_xyz
  1  'x, y, z'
loop_
 _atom_site_type_symbol
 _atom_site_label
 _atom_site_symmetry_multiplicity
 _atom_site_fract_x
 _atom_site_fract_y
 _atom_site_fract_z
 _atom_site_occupancy
  Hf  Hf0  1  0.39450037  0.20457286  0.60008895  1
  Hf  Hf1  1  0.00528592  0.39809145  -0.00111155  1
  Hf  Hf2  1  0.00185324  0.79483669  0.39485437  1
  Hf  Hf3  1  0.50214754  0.90697939  0.69483462  1
  Hf  Hf4  1  0.79467151  0.59743002  0.79641889  1
  Hf  Hf5  1  0.30459416  0.30023920  0.90440470  1
  Hf  Hf6  1  0.59928292  0.20295925  0.80039415  1
  Hf  Hf7  1  0.00462447  0.59957689  0.19689384  1
  Hf  Hf8  1  0.49938696  0.09597074  0.50837366  1
  Hf  Hf9  1  0.89166529  0.50183064  0.29956842  1
  Hf  Hf10  1  0.89634414  0.10427231  0.89807812  1
  Hf  Hf11  1  0.01098778  0.20463554  0.19949346  1
  Hf  Hf12  1  0.40393515  0.60745686  0.79830883  1
  Hf  Hf13  1  0.20439470  0.19355106  0.80455281  1
  Hf  Hf14  1  -0.00397239  -0.00297191  0.60674964  1
  Hf  Hf15  1  0.79870614  0.79147150  0.79537546  1
  Hf  Hf16  1  0.49086604  0.69399620  0.10842965  1
  Hf  Hf17  1  0.70326409  0.90268177  0.90196177  1
  Hf  Hf18  1  0.70345523  0.49815836  0.10948714  1
  Hf  Hf19  1  0.19799856  0.79383908  0.79823912  1
  Hf  Hf20  1  0.30445892  0.70241862  0.28608949  1
  Hf  Hf21  1  0.09271161  0.89726825  0.89673462  1
  Hf  Hf22  1  0.69431543  0.90495142  0.30793484  1
  Hf  Hf23  1  0.00077252  0.40151079  0.60075306  1
  Hf  Hf24  1  0.60289822  0.60135172  0.80088903  1
  Hf  Hf25  1  0.90321835  0.09928379  0.30637479  1
  Hf  Hf26  1  0.80066713  0.20437517  0.20182050  1
  Hf  Hf27  1  0.30053041  0.69736030  0.69296565  1
  Hf  Hf28  1  0.59792264  0.00164529  0.19159565  1
  Hf  Hf29  1  0.79680030  0.39500344  0.40679411  1
  Hf  Hf30  1  0.10259505  0.30355743  0.70269589  1
  Hf  Hf31  1  0.19449474  0.00722454  0.60350742  1
  Hf  Hf32  1  0.62833095  0.79738159  0.01720534  1
  Hf  Hf33  1  0.69724523  0.50753056  0.50265593  1
  Hf  Hf34  1  0.59645715  0.60312461  0.39812325  1
  Hf  Hf35  1  0.49231669  0.50482446  0.91289590  1
  Hf  Hf36  1  0.78993444  0.20987661  0.60706680  1
  Hf  Hf37  1  0.39738509  0.40918318  0.79948215  1
  Hf  Hf38  1  0.68905794  0.31358963  0.29302529  1
  Hf  Hf39  1  0.79659108  0.79401481  0.39680476  1
  Hf  Hf40  1  0.49473800  0.30231577  0.70124870  1
  Hf  Hf41  1  0.59221522  0.39853798  0.00523509  1
  Hf  Hf42  1  0.69470335  0.30391005  0.10105497  1
  Hf  Hf43  1  0.61196487  0.78412312  0.20333313  1
  Hf  Hf44  1  0.79559756  0.20838295  0.40643696  1
  Hf  Hf45  1  0.49628952  0.70296763  0.92391616  1
  Hf  Hf46  1  0.29413058  0.90437862  0.50117776  1
  Hf  Hf47  1  0.79461544  0.80180372  0.18426512  1
  Hf  Hf48  1  0.00386208  -0.00010869  -0.00170112  1
  Hf  Hf49  1  0.68876122  0.08870525  0.50388578  1
  Zr  Zr50  1  0.80546416  -0.00224480  0.60669287  1
  Zr  Zr51  1  0.89792478  0.49984135  0.09808607  1
  Zr  Zr52  1  0.80430776  -0.01249492  0.01002364  1
  Zr  Zr53  1  0.31633703  0.50130117  0.30202126  1
  Zr  Zr54  1  0.20075397  0.40189247  0.40754549  1
  Zr  Zr55  1  0.00201850  0.40815414  0.80964680  1
  Zr  Zr56  1  0.49807994  0.88780734  0.29355033  1
  Zr  Zr57  1  0.80514308  0.20932064  -0.00254378  1
  Zr  Zr58  1  0.40521659  -0.00880111  -0.03369944  1
  Zr  Zr59  1  0.30455627  0.30001217  0.29808955  1
  Zr  Zr60  1  0.20277579  0.80464362  -0.00804846  1
  Zr  Zr61  1  0.39793640  0.81374994  0.81865109  1
  Zr  Zr62  1  0.19898775  0.79831987  0.39336302  1
  Zr  Zr63  1  0.59892955  0.79043262  0.80306893  1
  Zr  Zr64  1  0.40071127  0.79378366  0.40122216  1
  Zr  Zr65  1  0.59769407  0.20449252  0.40203435  1
  Zr  Zr66  1  0.90397973  0.10497852  0.50122114  1
  Zr  Zr67  1  0.49902092  0.88967341  0.08779070  1
  Zr  Zr68  1  0.19892920  0.00326492  0.80423580  1
  Zr  Zr69  1  0.10031222  0.48954343  0.29770654  1
  Zr  Zr70  1  0.41192694  0.79021636  0.59778185  1
  Zr  Zr71  1  0.30485450  0.90560783  0.69551719  1
  Zr  Zr72  1  0.89393938  0.69256495  0.08917361  1
  Zr  Zr73  1  -0.00100218  0.79361159  0.78967086  1
  Zr  Zr74  1  0.90157470  0.50587437  0.69919133  1
  Zr  Zr75  1  0.90635236  0.10561272  0.10064956  1
  Zr  Zr76  1  0.19720671  0.59601606  0.19636918  1
  Zr  Zr77  1  0.69851545  0.09717436  0.29971200  1
  Zr  Zr78  1  0.69399485  0.09325090  0.70730468  1
  Zr  Zr79  1  0.20607173  0.39510808  0.18120153  1
  Zr  Zr80  1  0.30230626  0.09924294  0.09047059  1
  Zr  Zr81  1  0.89602438  0.51188564  0.50107045  1
  Zr  Zr82  1  0.51430699  0.90581015  0.49960603  1
  Zr  Zr83  1  0.78999541  0.39500106  0.60980647  1
  Zr  Zr84  1  0.19727351  0.59884324  0.80112952  1
  Zr  Zr85  1  0.57907139  -0.00048436  0.82164501  1
  Zr  Zr86  1  0.49485019  0.31065157  0.30008894  1
  Zr  Zr87  1  0.10363512  0.69643028  0.09101516  1
  Zr  Zr88  1  0.09554193  0.10094596  0.49621220  1
  Zr  Zr89  1  0.39655974  -0.00109484  0.39193505  1
  Zr  Zr90  1  0.20394386  0.20337095  0.60327834  1
  Zr  Zr91  1  0.30137294  0.89535445  0.10157775  1
  Zr  Zr92  1  0.60642866  0.40751931  0.79678897  1
  Zr  Zr93  1  0.00730244  0.60362341  0.39789298  1
  Zr  Zr94  1  0.90000229  0.90048644  0.29878981  1
  Zr  Zr95  1  0.00588885  -0.00425548  0.19651133  1
  Zr  Zr96  1  0.40198514  0.00354201  0.19973743  1
  Zr  Zr97  1  0.20147509  0.20015728  0.40114943  1
  Zr  Zr98  1  0.00019933  0.20670422  0.81630911  1
  Zr  Zr99  1  0.69865179  0.70145558  0.50465766  1
  Ta  Ta100  1  0.90193260  0.88986872  0.50352900  1
  Ta  Ta101  1  0.29877672  0.69215971  0.49774204  1
  Ta  Ta102  1  0.70103028  0.10142659  0.90337763  1
  Ta  Ta103  1  0.08787216  0.10363738  0.70608973  1
  Ta  Ta104  1  0.79720809  0.39967030  0.80351511  1
  Ta  Ta105  1  0.09071333  0.69341733  0.90720791  1
  Ta  Ta106  1  0.10830959  0.10149380  0.09547725  1
  Ta  Ta107  1  0.00543533  0.79619943  0.19982862  1
  Ta  Ta108  1  0.49890271  0.10159802  0.08308958  1
  Ta  Ta109  1  0.80198255  -0.00576339  0.40928960  1
  Ta  Ta110  1  0.49300358  0.09832862  0.69941943  1
  Ta  Ta111  1  0.69773930  0.50474618  0.29566036  1
  Ta  Ta112  1  0.00398679  0.60176164  0.80021289  1
  Ta  Ta113  1  0.60771079  0.59975288  0.00945320  1
  Ta  Ta114  1  0.69574756  0.89828561  0.50569307  1
  Ta  Ta115  1  0.30413180  0.50538783  0.49912441  1
  Ta  Ta116  1  0.89948290  0.69960310  0.50535082  1
  Ta  Ta117  1  0.20486373  0.40426366  0.60060264  1
  Ta  Ta118  1  0.50124248  0.50722263  0.69095050  1
  Ta  Ta119  1  -0.00106024  0.39518425  0.40341585  1
  Ta  Ta120  1  0.69374893  0.10145176  0.09256108  1
  Ta  Ta121  1  -0.00549269  -0.00081067  0.79870765  1
  Ta  Ta122  1  0.50202806  0.49838133  0.29322020  1
  Ta  Ta123  1  0.29636854  0.10046572  0.29837007  1
  Ta  Ta124  1  0.40275537  0.20158740  0.19038656  1
  Ta  Ta125  1  0.19827978  0.60492252  0.40018331  1
  Ta  Ta126  1  0.39836325  0.40580899  0.59840719  1
  Ta  Ta127  1  0.49148843  0.68466741  0.29341466  1
  Ta  Ta128  1  0.10143420  0.29975243  0.29977554  1
  Ta  Ta129  1  0.09698685  0.30161180  0.50250182  1
  Ta  Ta130  1  0.09968793  0.70274607  0.50551758  1
  Ta  Ta131  1  0.89195054  0.69317122  0.29560395  1
  Ta  Ta132  1  0.20087639  0.19632123  -0.00610577  1
  Ta  Ta133  1  0.20246071  0.40767851  0.80264053  1
  Ta  Ta134  1  0.30138359  0.50306650  0.69384021  1
  Ta  Ta135  1  0.49289188  0.29789733  0.90208554  1
  Ta  Ta136  1  0.49640458  0.30784639  0.50109773  1
  Ta  Ta137  1  0.40522210  0.60134249  0.59317286  1
  Ta  Ta138  1  0.59898791  0.40356764  0.60002777  1
  Ta  Ta139  1  0.59621288  0.20103793  -0.00517104  1
  Ta  Ta140  1  0.30687107  0.69772565  0.09733966  1
  Ta  Ta141  1  0.69307795  0.89806350  0.69545127  1
  Ta  Ta142  1  0.40255470  0.39680260  0.18025226  1
  Ta  Ta143  1  0.30258430  0.09485507  0.49742868  1
  Ta  Ta144  1  0.90293629  0.69385690  0.90563872  1
  Ta  Ta145  1  0.09709575  0.89750554  0.50004527  1
  Ta  Ta146  1  0.70100111  0.29950958  0.89782752  1
  Ta  Ta147  1  0.58833004  0.20036647  0.18957354  1
  Ta  Ta148  1  0.19811140  0.59796827  0.59566084  1
  Ta  Ta149  1  0.10840327  0.90069758  0.29852249  1
  Ti  Ti150  1  0.20406353  0.20027189  0.19448851  1
  Ti  Ti151  1  0.30736429  0.30765697  0.49661172  1
  Ti  Ti152  1  0.89732398  0.10966866  0.71010586  1
  Ti  Ti153  1  0.89763660  0.50817590  0.90520475  1
  Ti  Ti154  1  0.10147454  0.50163270  0.50237007  1
  Ti  Ti155  1  0.79291872  0.60181994  0.60824428  1
  Ti  Ti156  1  0.90657812  0.29871033  0.50389902  1
  Ti  Ti157  1  0.89745083  0.88953743  0.90023697  1
  Ti  Ti158  1  0.10698886  0.89965168  0.10352330  1
  Ti  Ti159  1  0.79948372  0.79910164  0.60315919  1
  Ti  Ti160  1  0.10813267  0.29524944  0.08991825  1
  Ti  Ti161  1  0.68655594  0.70054654  0.68758034  1
  Ti  Ti162  1  0.20349336  -0.00193465  0.20502460  1
  Ti  Ti163  1  0.31270559  0.09631734  0.70400507  1
  Ti  Ti164  1  0.00353233  -0.00661857  0.40143944  1
  Ti  Ti165  1  0.89443684  0.29666041  0.71541037  1
  Ti  Ti166  1  0.60343378  0.21211661  0.60240856  1
  Ti  Ti167  1  0.59839859  0.78857572  0.39875011  1
  Ti  Ti168  1  0.29970880  0.68848575  0.91493389  1
  Ti  Ti169  1  0.19195116  0.79471575  0.60074880  1
  Ti  Ti170  1  0.90787803  0.30434155  0.29986249  1
  Ti  Ti171  1  0.80004365  -0.00270403  0.19494182  1
  Ti  Ti172  1  0.59792541  0.40499505  0.40680654  1
  Ti  Ti173  1  0.01095885  0.60693834  0.60494932  1
  Ti  Ti174  1  0.39969332  0.19923756  0.39910751  1
  Ti  Ti175  1  0.90517493  0.69884470  0.68970172  1
  Ti  Ti176  1  0.89875627  0.89224465  0.69842436  1
  Ti  Ti177  1  0.49872591  0.50712364  0.10708838  1
  Ti  Ti178  1  0.80432169  0.39743483  -0.00631568  1
  Ti  Ti179  1  0.10551022  0.50197563  0.69837205  1
  Ti  Ti180  1  0.80567522  -0.00482267  0.79891076  1
  Ti  Ti181  1  0.49423217  0.50224727  0.49537436  1
  Ti  Ti182  1  0.71695014  0.69375999  0.91651485  1
  Ti  Ti183  1  0.70364758  0.49960500  0.90932907  1
  Ti  Ti184  1  0.09549781  0.89579645  0.69457656  1
  Ti  Ti185  1  0.00335074  0.20855690  0.39704937  1
  Ti  Ti186  1  0.29918894  0.50711991  0.08616365  1
  Ti  Ti187  1  -0.00343775  0.20409620  0.60794296  1
  Ti  Ti188  1  -0.00675421  0.80648864  0.00829613  1
  Ti  Ti189  1  0.39704580  0.39424858  0.01073935  1
  Ti  Ti190  1  0.90772504  0.29998270  0.09606022  1
  Ti  Ti191  1  0.10765838  0.09670755  0.30122709  1
  Ti  Ti192  1  0.50131134  0.10216294  0.30137783  1
  Ti  Ti193  1  0.00649874  0.39608502  0.19400419  1
  Ti  Ti194  1  0.80697435  0.39538693  0.20087827  1
  Ti  Ti195  1  0.10940630  0.50661791  0.91579196  1
  Ti  Ti196  1  0.29797752  0.50142520  0.91084389  1
  Ti  Ti197  1  0.19949481  0.00528808  -0.01168095  1
  Ti  Ti198  1  0.11074778  0.30332840  0.90622374  1
  Ti  Ti199  1  0.30054457  0.30618775  0.70588919  1
  Mo  Mo200  1  0.60310441  0.00065298  0.39886050  1
  Mo  Mo201  1  0.39709869  0.00846523  0.59913611  1
  Mo  Mo202  1  0.01268769  0.20548696  0.00267245  1
  Mo  Mo203  1  0.20200059  0.59760241  -0.00120226  1
  Mo  Mo204  1  0.60218645  0.00767730  -0.00063993  1
  Mo  Mo205  1  0.69483968  0.50569297  0.69631022  1
  Mo  Mo206  1  0.89292786  0.30941827  0.90234525  1
  Mo  Mo207  1  0.38951602  0.79576157  0.00017532  1
  Mo  Mo208  1  0.40088657  0.20100319  -0.00254195  1
  Mo  Mo209  1  -0.00140546  0.79889292  0.59564594  1
  Mo  Mo210  1  0.28614350  0.90548585  0.89665658  1
  Mo  Mo211  1  0.70183131  0.91448226  0.10615806  1
  Mo  Mo212  1  0.70179210  0.69223170  0.29970850  1
  Mo  Mo213  1  0.70646730  0.67769761  0.10373584  1
  Mo  Mo214  1  0.79591763  0.20715254  0.80222718  1
  Mo  Mo215  1  0.49981264  0.69337043  0.49402859  1
  Mo  Mo216  1  0.79543357  0.60187497  0.20487940  1
  Mo  Mo217  1  0.39552938  0.79641521  0.19955513  1
  Mo  Mo218  1  0.79656876  0.60299305  0.39587921  1
  Mo  Mo219  1  0.80776734  0.79667239  -0.00449172  1
  Mo  Mo220  1  0.09910288  0.70514581  0.29667027  1
  Mo  Mo221  1  0.10041178  0.69510402  0.69364065  1
  Mo  Mo222  1  0.90604619  0.89259606  0.10149268  1
  Mo  Mo223  1  0.49630370  0.29560854  0.09545130  1
  Mo  Mo224  1  0.50328551  0.69512964  0.69192044  1
  Mo  Mo225  1  0.51506306  0.88027179  0.90705659  1
  Mo  Mo226  1  0.39850292  0.19951097  0.79891409  1
  Mo  Mo227  1  0.59966457  -0.00214012  0.60694393  1
  Mo  Mo228  1  0.19664386  -0.00000105  0.39478424  1
  Mo  Mo229  1  0.79819121  0.59085474  -0.00630625  1
  Mo  Mo230  1  0.39867575  0.58942919  0.19525643  1
  Mo  Mo231  1  0.39821688  0.00737226  0.79795662  1
  Mo  Mo232  1  0.59019399  0.40251234  0.19849512  1
  Mo  Mo233  1  0.60272331  0.79821693  0.60175806  1
  Mo  Mo234  1  0.19647485  0.80610444  0.19756769  1
  Mo  Mo235  1  0.59845346  0.59471418  0.20288586  1
  Mo  Mo236  1  0.59020636  0.60075913  0.59922520  1
  Mo  Mo237  1  0.30219250  0.10426323  0.89527926  1
  Mo  Mo238  1  0.30195621  0.29250268  0.09364357  1
  Mo  Mo239  1  0.10181993  0.49343213  0.09063100  1
  Mo  Mo240  1  0.20213040  0.40036376  -0.00353310  1
  Mo  Mo241  1  0.09630428  0.10038565  0.90436132  1
  Mo  Mo242  1  0.00155363  0.59128404  -0.00801890  1
  Mo  Mo243  1  0.40127223  0.59785207  0.40067613  1
  Mo  Mo244  1  0.29071570  0.90283053  0.29322372  1
  Mo  Mo245  1  0.69449616  0.30524213  0.70408118  1
  Mo  Mo246  1  0.40569063  0.40418279  0.41260318  1
  Mo  Mo247  1  0.39701260  0.59433107  0.00389336  1
  Mo  Mo248  1  0.49289549  0.12121161  0.89683029  1
  Mo  Mo249  1  0.68541878  0.30477961  0.50343101  1
