# generated using pymatgen
data_HfZrTaTiMo
_symmetry_space_group_name_H-M   'P 1'
_cell_length_a   16.88492850
_cell_length_b   16.89558104
_cell_length_c   16.88551978
_cell_angle_alpha   90.00764231
_cell_angle_beta   89.97895080
_cell_angle_gamma   90.06294066
_symmetry_Int_Tables_number   1
_chemical_formula_structural   HfZrTaTiMo
_chemical_formula_sum   'Hf50 Zr50 Ta50 Ti50 Mo50'
_cell_volume   4817.10925247
_cell_formula_units_Z   50
loop_
 _symmetry_equiv_pos_site_id
 _symmetry_equiv_pos_as_xyz
  1  'x, y, z'
loop_
 _atom_site_type_symbol
 _atom_site_label
 _atom_site_symmetry_multiplicity
 _atom_site_fract_x
 _atom_site_fract_y
 _atom_site_fract_z
 _atom_site_occupancy
  Hf  Hf0  1  0.09627714  0.09323935  0.89415848  1
  Hf  Hf1  1  0.89291909  0.89173797  0.90146885  1
  Hf  Hf2  1  0.39828772  0.00516601  0.39471293  1
  Hf  Hf3  1  -0.00060724  -0.00315963  0.20436582  1
  Hf  Hf4  1  0.39584403  0.41330817  0.00472146  1
  Hf  Hf5  1  0.49726063  0.50643305  0.70214623  1
  Hf  Hf6  1  0.39427417  0.00173841  0.20285348  1
  Hf  Hf7  1  0.00217255  0.00223328  0.59219414  1
  Hf  Hf8  1  0.81474649  0.21199299  0.39273758  1
  Hf  Hf9  1  0.80046020  -0.00408001  0.78430139  1
  Hf  Hf10  1  0.70719840  0.30895493  0.49750314  1
  Hf  Hf11  1  0.29510362  0.69722739  0.30838116  1
  Hf  Hf12  1  0.50584118  0.50736903  0.29848800  1
  Hf  Hf13  1  0.80914387  0.20230760  0.79302353  1
  Hf  Hf14  1  0.29906035  0.90218699  0.49909549  1
  Hf  Hf15  1  0.89013861  0.89651536  0.10189439  1
  Hf  Hf16  1  0.60609463  -0.00400220  0.79544001  1
  Hf  Hf17  1  0.30326742  0.10493166  0.90372944  1
  Hf  Hf18  1  0.30022687  0.90399607  0.69606976  1
  Hf  Hf19  1  0.19471393  0.19423724  0.21013021  1
  Hf  Hf20  1  0.39637896  0.79086554  0.79536812  1
  Hf  Hf21  1  0.19724175  0.20098076  0.79798489  1
  Hf  Hf22  1  0.71297013  0.10580813  0.29659283  1
  Hf  Hf23  1  0.61047759  0.00268599  0.59788822  1
  Hf  Hf24  1  0.51375905  0.70314673  0.89882909  1
  Hf  Hf25  1  0.28726884  0.71019899  0.09002112  1
  Hf  Hf26  1  0.09640200  0.30749457  0.69606803  1
  Hf  Hf27  1  0.19664725  0.20377565  0.00103801  1
  Hf  Hf28  1  -0.00365699  0.79151250  0.80002567  1
  Hf  Hf29  1  0.29271453  0.89612434  0.90656914  1
  Hf  Hf30  1  0.80709524  0.19869763  0.59986065  1
  Hf  Hf31  1  0.90098389  0.89314116  0.49822993  1
  Hf  Hf32  1  0.61075861  0.20933929  0.19864098  1
  Hf  Hf33  1  0.80303138  0.20123419  0.00652056  1
  Hf  Hf34  1  0.90056286  0.08907415  0.89785222  1
  Hf  Hf35  1  0.19716480  0.39445053  0.39777800  1
  Hf  Hf36  1  0.70081432  0.68892897  0.30280897  1
  Hf  Hf37  1  0.70171780  0.30730776  0.69903949  1
  Hf  Hf38  1  0.29412873  0.50664342  0.30563132  1
  Hf  Hf39  1  -0.00390570  0.60274722  0.19839534  1
  Hf  Hf40  1  -0.00301477  0.20126040  -0.00686163  1
  Hf  Hf41  1  0.51068891  0.69420237  0.69218112  1
  Hf  Hf42  1  0.10304073  0.49314725  0.69741643  1
  Hf  Hf43  1  0.50666961  0.89058488  0.09896553  1
  Hf  Hf44  1  0.19603478  0.79596653  0.79879675  1
  Hf  Hf45  1  0.49371381  0.10947340  0.09595807  1
  Hf  Hf46  1  0.70395850  0.50419274  0.10409176  1
  Hf  Hf47  1  0.49595936  0.30082586  0.91430489  1
  Hf  Hf48  1  0.09260869  0.30345228  0.10751130  1
  Hf  Hf49  1  0.10177454  0.68861572  0.69188789  1
  Zr  Zr50  1  -0.00871186  0.60109067  0.80541745  1
  Zr  Zr51  1  0.61615852  -0.01026935  0.19799344  1
  Zr  Zr52  1  0.60930762  -0.00169413  0.00168207  1
  Zr  Zr53  1  0.70213369  0.50209053  0.90998627  1
  Zr  Zr54  1  0.69547462  0.68623492  0.50366037  1
  Zr  Zr55  1  0.50237654  0.89254237  0.50007664  1
  Zr  Zr56  1  0.80912355  0.40060635  0.21491322  1
  Zr  Zr57  1  0.18837117  0.80342651  0.40529208  1
  Zr  Zr58  1  0.39350677  0.20269878  0.40322888  1
  Zr  Zr59  1  0.59296917  0.40725989  0.80593964  1
  Zr  Zr60  1  0.70447391  0.87467052  0.89817487  1
  Zr  Zr61  1  0.50010865  0.10952389  0.70018136  1
  Zr  Zr62  1  0.18530530  0.59765563  0.19790105  1
  Zr  Zr63  1  0.50763177  0.88939862  0.69288179  1
  Zr  Zr64  1  0.70314519  0.10002848  0.89477777  1
  Zr  Zr65  1  0.51079466  0.10699488  0.49419581  1
  Zr  Zr66  1  0.18403052  0.80374632  0.19762235  1
  Zr  Zr67  1  0.20295024  0.59641279  0.81224586  1
  Zr  Zr68  1  0.30057639  0.30051269  0.29602450  1
  Zr  Zr69  1  0.61335639  -0.00988678  0.39618807  1
  Zr  Zr70  1  0.60631442  0.19920223  0.00470350  1
  Zr  Zr71  1  0.30023675  0.49854265  0.70032378  1
  Zr  Zr72  1  0.39480095  0.59986417  0.18766330  1
  Zr  Zr73  1  0.70330784  0.31128787  0.90555635  1
  Zr  Zr74  1  0.39939264  0.79807849  0.19801860  1
  Zr  Zr75  1  0.20246290  0.19980510  0.59013987  1
  Zr  Zr76  1  0.80472348  -0.00010775  0.40051291  1
  Zr  Zr77  1  0.59191400  0.40195590  0.59584219  1
  Zr  Zr78  1  0.19642015  0.59439949  0.00392053  1
  Zr  Zr79  1  0.08642656  0.29689005  0.49985061  1
  Zr  Zr80  1  0.90231688  0.31178992  0.89573766  1
  Zr  Zr81  1  0.30640801  0.30342555  0.70485680  1
  Zr  Zr82  1  0.70501233  0.50697000  0.31420125  1
  Zr  Zr83  1  0.40708868  0.00334655  0.80219839  1
  Zr  Zr84  1  -0.01953285  0.58761656  0.59687483  1
  Zr  Zr85  1  0.09780410  0.68902369  0.49856310  1
  Zr  Zr86  1  0.09133085  0.90320726  0.90132951  1
  Zr  Zr87  1  0.51330403  0.50156784  0.09639926  1
  Zr  Zr88  1  -0.01090692  0.60360709  0.00601932  1
  Zr  Zr89  1  0.40299339  0.00078575  -0.00107595  1
  Zr  Zr90  1  0.08950757  0.10147890  0.10341906  1
  Zr  Zr91  1  0.90656636  0.29632235  0.11608496  1
  Zr  Zr92  1  0.20425764  0.40423970  0.00395127  1
  Zr  Zr93  1  0.29439625  0.90066762  0.30544776  1
  Zr  Zr94  1  0.51142193  0.10684897  0.29795484  1
  Zr  Zr95  1  0.09853078  0.49689202  0.49776950  1
  Zr  Zr96  1  0.80048949  0.00689372  0.59877033  1
  Zr  Zr97  1  0.19686262  0.80186599  0.59842845  1
  Zr  Zr98  1  0.40215985  0.40292993  0.41163339  1
  Zr  Zr99  1  0.51119695  0.88532334  0.89982149  1
  Ta  Ta100  1  0.80364633  0.41382309  0.78916652  1
  Ta  Ta101  1  -0.00451015  0.79438471  0.20141274  1
  Ta  Ta102  1  -0.00726306  0.59145052  0.39038408  1
  Ta  Ta103  1  0.60113801  0.40207225  0.40261549  1
  Ta  Ta104  1  0.50280109  0.69567497  0.49667216  1
  Ta  Ta105  1  0.09458461  0.90318164  0.69639126  1
  Ta  Ta106  1  0.09715915  0.31047937  0.89010217  1
  Ta  Ta107  1  0.89810545  0.89598496  0.30044626  1
  Ta  Ta108  1  0.70417960  0.88289747  0.50505119  1
  Ta  Ta109  1  0.61061016  0.61238822  0.00236568  1
  Ta  Ta110  1  0.91409439  0.11122561  0.49623278  1
  Ta  Ta111  1  0.88797191  0.70213412  0.69209237  1
  Ta  Ta112  1  0.09418128  0.48761067  0.89722120  1
  Ta  Ta113  1  0.81162049  0.60342592  0.19378306  1
  Ta  Ta114  1  -0.00218495  0.19899037  0.78968703  1
  Ta  Ta115  1  0.30225229  0.68851574  0.69187762  1
  Ta  Ta116  1  0.39776797  0.00794108  0.59579211  1
  Ta  Ta117  1  0.19762465  0.00021039  0.01084003  1
  Ta  Ta118  1  0.39793481  0.40278845  0.19798666  1
  Ta  Ta119  1  0.79673796  0.60281999  0.79704384  1
  Ta  Ta120  1  0.21325112  0.39777865  0.58742679  1
  Ta  Ta121  1  0.40102791  0.60087313  -0.00507253  1
  Ta  Ta122  1  0.90627002  0.30846985  0.68936550  1
  Ta  Ta123  1  0.30028985  0.10072255  0.69599662  1
  Ta  Ta124  1  0.60246202  0.39847720  0.20496965  1
  Ta  Ta125  1  0.19502416  0.19150664  0.39724921  1
  Ta  Ta126  1  0.40048214  0.59390168  0.58966929  1
  Ta  Ta127  1  0.08735241  0.90396378  0.30957719  1
  Ta  Ta128  1  0.59625564  0.21122488  0.59480451  1
  Ta  Ta129  1  0.50484997  0.88989414  0.29977150  1
  Ta  Ta130  1  0.50483539  0.30294614  0.30074683  1
  Ta  Ta131  1  0.49730628  0.30380541  0.10572980  1
  Ta  Ta132  1  0.29676992  0.68765529  0.49790390  1
  Ta  Ta133  1  0.19362098  0.00295312  0.59344123  1
  Ta  Ta134  1  0.70526773  0.87291477  0.69027275  1
  Ta  Ta135  1  0.61196099  0.79658931  0.20113511  1
  Ta  Ta136  1  0.79872641  0.79501256  0.39714858  1
  Ta  Ta137  1  0.39692228  0.78895350  0.59356360  1
  Ta  Ta138  1  0.90712338  0.30826854  0.50079673  1
  Ta  Ta139  1  0.60490388  0.79574145  0.39615485  1
  Ta  Ta140  1  0.29838226  0.10391552  0.10223650  1
  Ta  Ta141  1  0.50627029  0.69617705  0.30155796  1
  Ta  Ta142  1  0.69747751  0.50921536  0.69223716  1
  Ta  Ta143  1  0.40120270  0.20745016  0.59309935  1
  Ta  Ta144  1  0.29924646  0.30397448  0.89962928  1
  Ta  Ta145  1  0.89804485  0.88700402  0.69273488  1
  Ta  Ta146  1  0.19618633  0.00116177  0.20376807  1
  Ta  Ta147  1  0.39912486  0.41020977  0.81511928  1
  Ta  Ta148  1  0.19983703  0.40590389  0.19795914  1
  Ta  Ta149  1  0.09868197  0.10045327  0.69452709  1
  Ti  Ti150  1  0.90329108  0.10148738  0.29476756  1
  Ti  Ti151  1  0.40408139  0.20202949  0.80549503  1
  Ti  Ti152  1  0.89417718  0.50401968  0.90362354  1
  Ti  Ti153  1  0.29702324  0.09793902  0.49955307  1
  Ti  Ti154  1  0.80815470  0.41465712  0.59644590  1
  Ti  Ti155  1  0.19778967  0.00120216  0.79274483  1
  Ti  Ti156  1  0.89464833  0.69724707  0.49620190  1
  Ti  Ti157  1  -0.00532712  0.40554595  0.00234679  1
  Ti  Ti158  1  0.70009749  0.11490299  0.49099726  1
  Ti  Ti159  1  0.89648361  0.69980791  0.30391025  1
  Ti  Ti160  1  0.10337127  0.70673280  0.91594708  1
  Ti  Ti161  1  0.18389724  0.00991776  0.40292438  1
  Ti  Ti162  1  0.40339142  0.79395372  0.40233355  1
  Ti  Ti163  1  0.49419221  0.30378482  0.70287511  1
  Ti  Ti164  1  0.81270789  0.40830981  0.01155786  1
  Ti  Ti165  1  -0.00276917  0.79747165  0.39910086  1
  Ti  Ti166  1  -0.00185535  0.41454830  0.21183113  1
  Ti  Ti167  1  0.00815302  0.19130765  0.39060913  1
  Ti  Ti168  1  0.30561707  0.29566286  0.10085751  1
  Ti  Ti169  1  0.87984052  0.70387087  0.90334464  1
  Ti  Ti170  1  0.08868175  0.30213707  0.29607759  1
  Ti  Ti171  1  -0.00804266  0.00037102  0.78400470  1
  Ti  Ti172  1  0.61045830  0.60296230  0.80303431  1
  Ti  Ti173  1  0.29494785  0.89997753  0.09586051  1
  Ti  Ti174  1  -0.00564315  -0.00204399  0.00660096  1
  Ti  Ti175  1  0.40040549  0.39749783  0.58943763  1
  Ti  Ti176  1  0.59458006  0.20364210  0.80348237  1
  Ti  Ti177  1  0.79738452  0.59363613  0.59681603  1
  Ti  Ti178  1  0.40166477  0.59971888  0.40539101  1
  Ti  Ti179  1  0.89363574  0.09981363  0.11390688  1
  Ti  Ti180  1  0.39997504  0.59713922  0.81276846  1
  Ti  Ti181  1  0.29820600  0.70251726  0.90521679  1
  Ti  Ti182  1  0.70274092  0.31192108  0.10117055  1
  Ti  Ti183  1  0.09207398  0.49405961  0.09987100  1
  Ti  Ti184  1  -0.01066949  0.40858347  0.79251668  1
  Ti  Ti185  1  0.69410993  0.11330301  0.69815320  1
  Ti  Ti186  1  0.70325820  0.30428546  0.30647691  1
  Ti  Ti187  1  0.51064409  0.50979046  0.49799937  1
  Ti  Ti188  1  0.51104652  0.69963484  0.10223871  1
  Ti  Ti189  1  0.78628809  0.77925433  0.01772902  1
  Ti  Ti190  1  0.71738747  0.09785773  0.11195357  1
  Ti  Ti191  1  -0.00676727  0.79123885  0.00953699  1
  Ti  Ti192  1  0.09572052  0.69679586  0.30658251  1
  Ti  Ti193  1  -0.01256002  0.40682703  0.39213105  1
  Ti  Ti194  1  0.40328571  0.79407131  0.00042288  1
  Ti  Ti195  1  0.09591896  0.89565975  0.09479422  1
  Ti  Ti196  1  0.39679082  0.19959946  0.20398772  1
  Ti  Ti197  1  0.79649938  0.79834741  0.20431653  1
  Ti  Ti198  1  0.79444258  -0.00385950  0.00685548  1
  Ti  Ti199  1  0.00135751  0.79762827  0.59571075  1
  Mo  Mo200  1  0.60987647  0.21599611  0.39777225  1
  Mo  Mo201  1  -0.00232205  0.19569139  0.21506286  1
  Mo  Mo202  1  0.91350973  0.30155034  0.30697658  1
  Mo  Mo203  1  0.80401980  0.79065026  0.79078387  1
  Mo  Mo204  1  0.89402797  0.70578245  0.10502589  1
  Mo  Mo205  1  0.59224918  0.59820990  0.40107372  1
  Mo  Mo206  1  0.09863889  0.10049086  0.49591614  1
  Mo  Mo207  1  0.80429323  0.78786273  0.59219388  1
  Mo  Mo208  1  0.30235031  0.50256329  0.90135106  1
  Mo  Mo209  1  0.30101361  0.29805414  0.49884279  1
  Mo  Mo210  1  0.61198169  0.78655823  0.78701887  1
  Mo  Mo211  1  0.90931677  0.10184487  0.69553199  1
  Mo  Mo212  1  0.19246918  0.80656867  -0.00207098  1
  Mo  Mo213  1  0.39257550  0.20862724  0.00672269  1
  Mo  Mo214  1  0.80760543  -0.00177786  0.20136912  1
  Mo  Mo215  1  0.09007446  0.71074365  0.09634660  1
  Mo  Mo216  1  0.30056926  0.50240818  0.49888536  1
  Mo  Mo217  1  0.19129253  0.59656729  0.39878727  1
  Mo  Mo218  1  0.59824320  0.59429394  0.59643933  1
  Mo  Mo219  1  -0.00688506  0.40146869  0.59869500  1
  Mo  Mo220  1  -0.00102177  0.19910322  0.60033891  1
  Mo  Mo221  1  0.60458240  0.60438709  0.19960525  1
  Mo  Mo222  1  0.89239249  0.49678829  0.49362834  1
  Mo  Mo223  1  0.80317999  0.20334709  0.20298716  1
  Mo  Mo224  1  0.70661566  0.89113064  0.10404414  1
  Mo  Mo225  1  0.70200446  0.69151406  0.69876382  1
  Mo  Mo226  1  0.28870761  0.09763969  0.29910436  1
  Mo  Mo227  1  0.80219431  0.60345961  0.00018942  1
  Mo  Mo228  1  0.89071437  0.50318204  0.69875018  1
  Mo  Mo229  1  0.09244005  0.90351487  0.49762034  1
  Mo  Mo230  1  0.70116890  0.69483190  0.11015159  1
  Mo  Mo231  1  0.80467197  0.40310839  0.40584897  1
  Mo  Mo232  1  0.09627132  0.49571949  0.29986754  1
  Mo  Mo233  1  0.29982677  0.50273943  0.10437107  1
  Mo  Mo234  1  0.60860031  0.78933139  0.01504400  1
  Mo  Mo235  1  0.20145688  0.39785541  0.80585918  1
  Mo  Mo236  1  0.49999753  0.11516945  0.89748957  1
  Mo  Mo237  1  -0.00253325  0.00110152  0.39823493  1
  Mo  Mo238  1  0.21082255  0.59041247  0.59509173  1
  Mo  Mo239  1  0.50193427  0.51280362  0.90294968  1
  Mo  Mo240  1  0.70795296  0.88702949  0.30234119  1
  Mo  Mo241  1  0.70433816  0.49907715  0.50120042  1
  Mo  Mo242  1  0.89977421  0.50336579  0.30157750  1
  Mo  Mo243  1  0.60006760  0.39999948  0.01191254  1
  Mo  Mo244  1  0.50288159  0.30232212  0.49651126  1
  Mo  Mo245  1  0.90073618  0.49936598  0.10154590  1
  Mo  Mo246  1  0.70506658  0.69542217  0.89880150  1
  Mo  Mo247  1  0.60119626  0.79130856  0.59246132  1
  Mo  Mo248  1  0.81443257  0.59992175  0.40282288  1
  Mo  Mo249  1  0.09552755  0.09303243  0.30485475  1
