# generated using pymatgen
data_HfZrTaTiMo
_symmetry_space_group_name_H-M   'P 1'
_cell_length_a   16.88933210
_cell_length_b   16.88387157
_cell_length_c   16.87136801
_cell_angle_alpha   89.90483963
_cell_angle_beta   90.07317404
_cell_angle_gamma   89.93971109
_symmetry_Int_Tables_number   1
_chemical_formula_structural   HfZrTaTiMo
_chemical_formula_sum   'Hf50 Zr50 Ta50 Ti50 Mo50'
_cell_volume   4810.98075503
_cell_formula_units_Z   50
loop_
 _symmetry_equiv_pos_site_id
 _symmetry_equiv_pos_as_xyz
  1  'x, y, z'
loop_
 _atom_site_type_symbol
 _atom_site_label
 _atom_site_symmetry_multiplicity
 _atom_site_fract_x
 _atom_site_fract_y
 _atom_site_fract_z
 _atom_site_occupancy
  Hf  Hf0  1  0.49491135  0.10346870  0.31657991  1
  Hf  Hf1  1  0.89601287  0.49378538  0.69588427  1
  Hf  Hf2  1  0.70868157  0.50348385  0.69258165  1
  Hf  Hf3  1  0.40527996  0.59071066  0.79574166  1
  Hf  Hf4  1  0.59883633  0.59134008  -0.00032241  1
  Hf  Hf5  1  -0.00121472  0.20732754  0.79573846  1
  Hf  Hf6  1  0.71171646  0.50183411  0.89590626  1
  Hf  Hf7  1  0.59211494  0.01760142  -0.01328749  1
  Hf  Hf8  1  0.38957027  0.20210677  -0.00067310  1
  Hf  Hf9  1  0.10292230  0.48607623  0.90102602  1
  Hf  Hf10  1  0.59939873  0.20094709  0.20426204  1
  Hf  Hf11  1  0.29944522  0.90868978  0.29758610  1
  Hf  Hf12  1  0.31004222  0.70322969  0.50302904  1
  Hf  Hf13  1  0.00037132  0.59362781  0.80479535  1
  Hf  Hf14  1  0.50007835  0.29133414  0.49326221  1
  Hf  Hf15  1  0.59903646  0.39864111  0.00579704  1
  Hf  Hf16  1  0.20567038  0.20561618  0.40402704  1
  Hf  Hf17  1  0.00181163  0.60113097  0.61048154  1
  Hf  Hf18  1  0.50061749  0.09752406  0.70684520  1
  Hf  Hf19  1  0.00306592  -0.00418968  0.59506133  1
  Hf  Hf20  1  0.49886822  0.49085921  0.29560968  1
  Hf  Hf21  1  0.19587233  0.79742173  0.39347523  1
  Hf  Hf22  1  0.09950737  0.49903725  0.29850624  1
  Hf  Hf23  1  0.19243634  0.80228266  0.60910348  1
  Hf  Hf24  1  0.10985732  0.30003110  0.90331175  1
  Hf  Hf25  1  0.49176380  0.69475363  0.09792258  1
  Hf  Hf26  1  0.30678045  0.50144158  0.50131910  1
  Hf  Hf27  1  0.59531028  0.60123821  0.20232966  1
  Hf  Hf28  1  0.00052095  0.19702107  0.00318386  1
  Hf  Hf29  1  0.19228859  0.59972923  0.60607156  1
  Hf  Hf30  1  0.30012108  0.69633829  0.28931308  1
  Hf  Hf31  1  0.70688728  0.69729525  0.09246177  1
  Hf  Hf32  1  0.40297180  0.80242695  0.20169450  1
  Hf  Hf33  1  0.79232183  -0.00432089  0.59771588  1
  Hf  Hf34  1  0.01032006  0.00492830  0.39495869  1
  Hf  Hf35  1  0.30199759  0.09813045  0.29732968  1
  Hf  Hf36  1  0.89559444  0.69796495  0.50587183  1
  Hf  Hf37  1  0.90348276  0.30427068  0.90288126  1
  Hf  Hf38  1  0.90689796  0.89778916  0.29293930  1
  Hf  Hf39  1  0.60119295  0.40358345  0.79946482  1
  Hf  Hf40  1  0.01271731  0.00615624  0.19225396  1
  Hf  Hf41  1  0.90927072  0.70099573  0.29982544  1
  Hf  Hf42  1  0.70160435  0.50241640  0.50380119  1
  Hf  Hf43  1  0.30306939  0.49482048  0.69965619  1
  Hf  Hf44  1  0.89543060  0.30226757  0.30488024  1
  Hf  Hf45  1  0.21178634  0.38520357  0.59978985  1
  Hf  Hf46  1  0.49969211  0.70012387  0.89848346  1
  Hf  Hf47  1  0.11005269  0.30270668  0.09960453  1
  Hf  Hf48  1  0.39692906  0.40591224  0.17563766  1
  Hf  Hf49  1  0.19703566  0.60061225  0.39948105  1
  Zr  Zr50  1  0.10627231  0.10046183  0.90001961  1
  Zr  Zr51  1  0.70432012  0.90197695  0.89922499  1
  Zr  Zr52  1  0.10291756  0.30772936  0.29942005  1
  Zr  Zr53  1  0.09416562  0.29888102  0.50495726  1
  Zr  Zr54  1  0.38654923  0.81984795  0.78886407  1
  Zr  Zr55  1  0.80924451  0.00084708  0.80109450  1
  Zr  Zr56  1  0.70552201  0.69882159  0.89692843  1
  Zr  Zr57  1  0.89998082  0.70283013  0.90405663  1
  Zr  Zr58  1  0.51609166  0.90436937  0.87228082  1
  Zr  Zr59  1  0.59910896  0.79463335  0.20966712  1
  Zr  Zr60  1  0.19653095  0.80363827  -0.00079940  1
  Zr  Zr61  1  0.79378850  0.80108219  0.20304232  1
  Zr  Zr62  1  0.90365449  0.11303133  0.49693456  1
  Zr  Zr63  1  0.30006699  0.70003681  0.69879052  1
  Zr  Zr64  1  0.79226352  0.00260295  0.40315064  1
  Zr  Zr65  1  0.39634137  0.00812402  -0.01061893  1
  Zr  Zr66  1  0.10270455  0.10728788  0.69594337  1
  Zr  Zr67  1  0.49892108  0.29497004  0.70019554  1
  Zr  Zr68  1  0.80050009  0.40029348  0.00599110  1
  Zr  Zr69  1  0.78300375  0.79369482  0.39524872  1
  Zr  Zr70  1  0.08745071  0.70563484  0.50036628  1
  Zr  Zr71  1  0.30957666  0.09642224  0.49348462  1
  Zr  Zr72  1  0.50128737  0.90326132  0.49136414  1
  Zr  Zr73  1  0.70287119  0.30205951  0.69632456  1
  Zr  Zr74  1  0.08786969  0.48863144  0.49916776  1
  Zr  Zr75  1  0.30582041  0.69480873  0.90247634  1
  Zr  Zr76  1  0.88928897  0.09798864  0.08738066  1
  Zr  Zr77  1  0.69689663  0.91011969  0.09599429  1
  Zr  Zr78  1  -0.00592945  0.40238119  0.19938981  1
  Zr  Zr79  1  0.50866081  0.71349411  0.70363734  1
  Zr  Zr80  1  0.79132909  0.20211965  0.59241612  1
  Zr  Zr81  1  0.50521667  0.91129994  0.10495263  1
  Zr  Zr82  1  0.90359454  0.88750673  0.49967136  1
  Zr  Zr83  1  0.80629133  0.20064391  0.80067602  1
  Zr  Zr84  1  0.69579313  0.49084085  0.30424511  1
  Zr  Zr85  1  0.60280683  0.18935850  0.81858582  1
  Zr  Zr86  1  0.40766576  0.60369618  0.39351097  1
  Zr  Zr87  1  0.78971874  0.00509484  0.20458019  1
  Zr  Zr88  1  0.78356016  0.20876195  0.20053372  1
  Zr  Zr89  1  0.30428230  0.29895036  0.28830592  1
  Zr  Zr90  1  0.40012040  -0.00806921  0.61222685  1
  Zr  Zr91  1  0.89695918  0.10697922  0.29919992  1
  Zr  Zr92  1  0.39917662  0.81354807  -0.00203956  1
  Zr  Zr93  1  0.49226794  0.30198599  0.90262482  1
  Zr  Zr94  1  0.80589431  0.59971586  0.20587600  1
  Zr  Zr95  1  0.30193450  0.89884013  0.49252620  1
  Zr  Zr96  1  0.00974118  0.80765563  0.00118670  1
  Zr  Zr97  1  0.50949155  0.49735204  0.49541414  1
  Zr  Zr98  1  0.19794350  0.59714478  -0.00293161  1
  Zr  Zr99  1  0.90705538  0.10045714  0.69275842  1
  Ta  Ta100  1  0.09699318  0.69486767  0.10660331  1
  Ta  Ta101  1  0.69005399  0.89884864  0.70715920  1
  Ta  Ta102  1  0.68874837  0.89707213  0.50039472  1
  Ta  Ta103  1  0.28985589  0.10502220  0.69938022  1
  Ta  Ta104  1  0.29067943  0.91109009  0.10599730  1
  Ta  Ta105  1  0.89910388  0.30503202  0.49938952  1
  Ta  Ta106  1  0.79757518  0.60033244  0.40169449  1
  Ta  Ta107  1  0.39618597  0.39416042  0.39874380  1
  Ta  Ta108  1  0.39194410  0.20176054  0.60033043  1
  Ta  Ta109  1  0.41458956  0.59725039  0.60413733  1
  Ta  Ta110  1  0.79139719  0.80172938  0.60611762  1
  Ta  Ta111  1  0.59743787  0.59295797  0.79518574  1
  Ta  Ta112  1  0.20013025  -0.00367239  0.79792871  1
  Ta  Ta113  1  0.89994867  0.70591291  0.69810831  1
  Ta  Ta114  1  0.19737048  -0.00340689  0.60032411  1
  Ta  Ta115  1  0.49338899  0.49373446  0.90079232  1
  Ta  Ta116  1  0.38864991  0.00748707  0.80025505  1
  Ta  Ta117  1  0.59941114  0.79929793  -0.00287596  1
  Ta  Ta118  1  0.38485785  0.19606502  0.80501444  1
  Ta  Ta119  1  0.09945825  0.48323651  0.70579012  1
  Ta  Ta120  1  0.10505707  0.10713631  0.50437160  1
  Ta  Ta121  1  0.79471885  0.39705749  0.40258127  1
  Ta  Ta122  1  0.10630931  0.90160376  0.28797165  1
  Ta  Ta123  1  -0.00312887  0.59139249  0.00653309  1
  Ta  Ta124  1  0.80444587  0.80220234  0.79589405  1
  Ta  Ta125  1  -0.00475295  0.40581837  0.00286121  1
  Ta  Ta126  1  0.72523070  0.10136987  0.91778743  1
  Ta  Ta127  1  0.70470192  0.49472641  0.10861610  1
  Ta  Ta128  1  0.29116125  0.09933337  0.09950812  1
  Ta  Ta129  1  0.59824547  0.39932913  0.59987760  1
  Ta  Ta130  1  0.20884473  0.38985619  0.79758963  1
  Ta  Ta131  1  0.90756959  0.90307814  0.09867826  1
  Ta  Ta132  1  0.67690387  0.91625091  0.30736368  1
  Ta  Ta133  1  0.21162403  0.40070404  0.40015590  1
  Ta  Ta134  1  0.09178781  0.89925763  0.70471788  1
  Ta  Ta135  1  0.30379122  0.48840646  0.90005212  1
  Ta  Ta136  1  0.29968146  0.49866756  0.29017678  1
  Ta  Ta137  1  0.39807803  0.57584051  0.01412602  1
  Ta  Ta138  1  0.30021400  0.69470031  0.10386495  1
  Ta  Ta139  1  0.18870519  0.80136403  0.80363589  1
  Ta  Ta140  1  0.00757386  0.19584151  0.20019432  1
  Ta  Ta141  1  0.89634894  0.29826855  0.10455077  1
  Ta  Ta142  1  0.50499903  0.70558977  0.50430382  1
  Ta  Ta143  1  0.89342911  0.49541392  0.50365386  1
  Ta  Ta144  1  0.00737978  0.20152147  0.39549629  1
  Ta  Ta145  1  0.10497631  0.49481339  0.10067402  1
  Ta  Ta146  1  0.90437915  0.89298977  0.70043851  1
  Ta  Ta147  1  0.60479355  0.20254241  0.00737229  1
  Ta  Ta148  1  0.59975010  0.00214740  0.60105222  1
  Ta  Ta149  1  0.19405977  0.59618156  0.79819903  1
  Ti  Ti150  1  0.19267695  -0.00403040  -0.00156173  1
  Ti  Ti151  1  0.59708431  0.19342558  0.59462377  1
  Ti  Ti152  1  0.09953526  0.89757132  0.49890511  1
  Ti  Ti153  1  0.10538890  0.29483922  0.69956489  1
  Ti  Ti154  1  0.19449186  0.80320467  0.19045911  1
  Ti  Ti155  1  0.59604744  0.79159702  0.39466805  1
  Ti  Ti156  1  -0.00762872  0.38769865  0.61027013  1
  Ti  Ti157  1  0.60305646  0.80468806  0.60361922  1
  Ti  Ti158  1  0.19577196  0.19259699  0.19776135  1
  Ti  Ti159  1  0.49834467  0.29836376  0.09721054  1
  Ti  Ti160  1  0.00263209  -0.00233283  0.80840801  1
  Ti  Ti161  1  0.80969971  0.60199740  0.79743749  1
  Ti  Ti162  1  0.50052884  0.29968146  0.30533779  1
  Ti  Ti163  1  0.40008736  0.20160283  0.19223434  1
  Ti  Ti164  1  0.00299628  0.79964408  0.80202540  1
  Ti  Ti165  1  0.80650990  0.80799804  0.00173443  1
  Ti  Ti166  1  0.69647541  0.09709725  0.70385866  1
  Ti  Ti167  1  0.70774312  0.29594588  0.90771591  1
  Ti  Ti168  1  0.40459794  0.39558988  0.60058204  1
  Ti  Ti169  1  0.68149140  0.09925009  0.48933129  1
  Ti  Ti170  1  0.81443272  0.59276778  0.00220052  1
  Ti  Ti171  1  0.78169692  0.20486764  0.39665672  1
  Ti  Ti172  1  0.80985932  0.39595870  0.79831316  1
  Ti  Ti173  1  0.59485307  0.59911934  0.60764680  1
  Ti  Ti174  1  0.49853558  0.10303583  0.10279802  1
  Ti  Ti175  1  0.69111085  0.30606578  0.49439229  1
  Ti  Ti176  1  0.10956221  0.09776567  0.09410761  1
  Ti  Ti177  1  -0.00121444  0.59616122  0.19472642  1
  Ti  Ti178  1  0.20117476  0.59458952  0.19384425  1
  Ti  Ti179  1  0.09523427  0.70132895  0.28631240  1
  Ti  Ti180  1  0.49993185  0.91512839  0.30323003  1
  Ti  Ti181  1  0.09711594  0.69608199  0.90138396  1
  Ti  Ti182  1  0.70511153  0.69679728  0.69930230  1
  Ti  Ti183  1  0.60235657  0.61311762  0.39477111  1
  Ti  Ti184  1  0.89669126  0.49579895  0.10552106  1
  Ti  Ti185  1  0.89826405  0.49346130  0.30992637  1
  Ti  Ti186  1  0.28879308  0.90655735  0.89911524  1
  Ti  Ti187  1  0.19101708  0.00412390  0.39663541  1
  Ti  Ti188  1  0.22305848  0.39208255  0.00767038  1
  Ti  Ti189  1  0.60449810  0.38868288  0.19593775  1
  Ti  Ti190  1  0.41015472  0.79644218  0.38900308  1
  Ti  Ti191  1  0.40390271  0.80837245  0.60615019  1
  Ti  Ti192  1  0.90606259  0.90857412  0.90622331  1
  Ti  Ti193  1  0.40174010  0.00638353  0.19678360  1
  Ti  Ti194  1  0.69828701  0.09985904  0.09587311  1
  Ti  Ti195  1  0.90841438  0.70732376  0.10329653  1
  Ti  Ti196  1  0.00818075  0.80321978  0.39127500  1
  Ti  Ti197  1  -0.00462941  0.59533435  0.40029473  1
  Ti  Ti198  1  0.69555046  0.69638219  0.50903313  1
  Ti  Ti199  1  0.39553792  0.39205143  0.79737988  1
  Mo  Mo200  1  0.61021329  0.01433645  0.79867958  1
  Mo  Mo201  1  0.69753450  0.69276414  0.30693043  1
  Mo  Mo202  1  0.29608792  0.28992997  0.09971362  1
  Mo  Mo203  1  0.60229914  0.20177854  0.40133834  1
  Mo  Mo204  1  0.19907044  0.00466425  0.19542059  1
  Mo  Mo205  1  0.00860593  0.80032606  0.19584288  1
  Mo  Mo206  1  0.59882241  0.39169578  0.39966689  1
  Mo  Mo207  1  0.20401255  0.19684968  0.60076476  1
  Mo  Mo208  1  0.39741930  0.59665467  0.19464768  1
  Mo  Mo209  1  0.80612519  -0.00558877  0.00120970  1
  Mo  Mo210  1  0.69647753  0.30194336  0.10339878  1
  Mo  Mo211  1  0.50078220  0.10403699  0.50807999  1
  Mo  Mo212  1  0.30390941  0.29569019  0.69931966  1
  Mo  Mo213  1  0.79768101  0.39651629  0.59123066  1
  Mo  Mo214  1  0.00622744  0.39606643  0.79727184  1
  Mo  Mo215  1  0.68757577  0.10373948  0.31092372  1
  Mo  Mo216  1  0.29679589  0.29944356  0.89758707  1
  Mo  Mo217  1  0.28246688  0.90509700  0.70154753  1
  Mo  Mo218  1  0.00209457  0.00048961  -0.00232295  1
  Mo  Mo219  1  0.61692972  0.78529720  0.79836104  1
  Mo  Mo220  1  -0.00154868  0.80189314  0.60938618  1
  Mo  Mo221  1  0.20369928  0.40652412  0.19719073  1
  Mo  Mo222  1  0.29025845  0.09990276  0.89805051  1
  Mo  Mo223  1  0.59526653  0.01427973  0.20482419  1
  Mo  Mo224  1  0.79759278  0.20719858  0.00372837  1
  Mo  Mo225  1  0.80013813  0.60967869  0.59785431  1
  Mo  Mo226  1  0.50954364  0.49418138  0.10006730  1
  Mo  Mo227  1  0.51742483  0.90484546  0.69684195  1
  Mo  Mo228  1  0.09481276  0.70240898  0.71424893  1
  Mo  Mo229  1  0.90335468  0.49783591  0.89852946  1
  Mo  Mo230  1  0.90645082  0.09631740  0.90293488  1
  Mo  Mo231  1  0.09703966  0.90541172  0.89333437  1
  Mo  Mo232  1  0.50133352  0.49329507  0.69931895  1
  Mo  Mo233  1  0.59411747  0.00521274  0.40772601  1
  Mo  Mo234  1  0.20403296  0.19706831  0.00359823  1
  Mo  Mo235  1  0.00083469  0.20796241  0.59620508  1
  Mo  Mo236  1  0.79821268  0.40124768  0.20388174  1
  Mo  Mo237  1  0.40111325  -0.00119828  0.39629143  1
  Mo  Mo238  1  0.28976422  0.50015698  0.09887325  1
  Mo  Mo239  1  -0.01271879  0.40213706  0.40223837  1
  Mo  Mo240  1  0.90070833  0.30456356  0.69581592  1
  Mo  Mo241  1  0.10480524  0.90478456  0.09909847  1
  Mo  Mo242  1  0.69245609  0.30232256  0.30825346  1
  Mo  Mo243  1  0.10604552  0.10314971  0.30266419  1
  Mo  Mo244  1  0.30901901  0.30068093  0.49979395  1
  Mo  Mo245  1  0.39754918  0.39756088  -0.00145772  1
  Mo  Mo246  1  0.48775021  0.10390879  0.89707724  1
  Mo  Mo247  1  0.49853126  0.69900781  0.30362172  1
  Mo  Mo248  1  0.40047192  0.20499253  0.40274200  1
  Mo  Mo249  1  0.20580048  0.20332199  0.79939840  1
