# generated using pymatgen
data_HfZrTaTiMo
_symmetry_space_group_name_H-M   'P 1'
_cell_length_a   16.89499283
_cell_length_b   16.88399766
_cell_length_c   16.88190152
_cell_angle_alpha   90.04055397
_cell_angle_beta   90.03332567
_cell_angle_gamma   89.94891135
_symmetry_Int_Tables_number   1
_chemical_formula_structural   HfZrTaTiMo
_chemical_formula_sum   'Hf50 Zr50 Ta50 Ti50 Mo50'
_cell_volume   4815.64321236
_cell_formula_units_Z   50
loop_
 _symmetry_equiv_pos_site_id
 _symmetry_equiv_pos_as_xyz
  1  'x, y, z'
loop_
 _atom_site_type_symbol
 _atom_site_label
 _atom_site_symmetry_multiplicity
 _atom_site_fract_x
 _atom_site_fract_y
 _atom_site_fract_z
 _atom_site_occupancy
  Hf  Hf0  1  -0.00856393  -0.00244921  0.60184403  1
  Hf  Hf1  1  0.89682146  0.70920972  0.49270334  1
  Hf  Hf2  1  0.60030592  0.60060240  0.40191274  1
  Hf  Hf3  1  0.01208942  0.58593382  0.20145853  1
  Hf  Hf4  1  0.80656917  0.59431069  0.20006055  1
  Hf  Hf5  1  0.28614444  0.09730777  0.50219407  1
  Hf  Hf6  1  0.60126425  0.79979678  0.19195375  1
  Hf  Hf7  1  0.79681022  0.19801473  0.40860227  1
  Hf  Hf8  1  0.09438062  0.50819042  0.70590200  1
  Hf  Hf9  1  0.29717369  0.69945706  0.29698855  1
  Hf  Hf10  1  0.40106161  0.00077891  0.40491043  1
  Hf  Hf11  1  0.70670389  0.70354982  0.50334042  1
  Hf  Hf12  1  0.10148696  0.89821722  0.09740322  1
  Hf  Hf13  1  0.09814021  0.49288774  0.90359363  1
  Hf  Hf14  1  -0.01448114  0.00524606  0.79353801  1
  Hf  Hf15  1  0.09627879  0.10351094  0.69971874  1
  Hf  Hf16  1  0.90820452  0.70608965  0.10024668  1
  Hf  Hf17  1  0.09503858  0.09788105  0.90166255  1
  Hf  Hf18  1  0.78729870  0.80533038  0.19834036  1
  Hf  Hf19  1  0.20196908  0.79456477  -0.00547799  1
  Hf  Hf20  1  0.29621015  0.30471445  0.09040764  1
  Hf  Hf21  1  0.60424056  0.79450096  -0.00580154  1
  Hf  Hf22  1  0.40807975  0.41072825  0.80601075  1
  Hf  Hf23  1  0.79899371  0.39714970  0.40450006  1
  Hf  Hf24  1  0.89681178  0.89690899  0.90210483  1
  Hf  Hf25  1  0.20276015  0.60564216  0.59490601  1
  Hf  Hf26  1  0.00042853  0.59259949  0.39598371  1
  Hf  Hf27  1  0.39765724  0.39790876  0.19780937  1
  Hf  Hf28  1  0.40148967  -0.00512034  -0.00357373  1
  Hf  Hf29  1  0.90882852  0.29915853  0.89880366  1
  Hf  Hf30  1  0.29639775  0.50522472  0.30603348  1
  Hf  Hf31  1  0.19126254  0.20314558  0.20636593  1
  Hf  Hf32  1  0.41244651  0.80358043  0.19917223  1
  Hf  Hf33  1  -0.00575701  0.60249622  0.60014232  1
  Hf  Hf34  1  0.60092371  0.80129457  0.38746696  1
  Hf  Hf35  1  0.29343232  0.89664289  0.29562472  1
  Hf  Hf36  1  0.60500260  0.59984789  0.61050245  1
  Hf  Hf37  1  0.59844167  0.60068464  -0.00437203  1
  Hf  Hf38  1  0.61118591  -0.00386166  0.61052315  1
  Hf  Hf39  1  0.30473238  0.51148196  0.70523116  1
  Hf  Hf40  1  0.50440401  0.70565586  0.51050555  1
  Hf  Hf41  1  0.08981105  0.90363937  0.90725371  1
  Hf  Hf42  1  0.08918415  0.31372530  0.31199456  1
  Hf  Hf43  1  0.29151515  0.10079581  0.30617348  1
  Hf  Hf44  1  0.09563408  0.71027883  0.49517428  1
  Hf  Hf45  1  0.09760816  0.09868417  0.49579471  1
  Hf  Hf46  1  0.59511174  0.40219805  0.19513391  1
  Hf  Hf47  1  0.89856508  0.69860697  0.89484192  1
  Hf  Hf48  1  0.49882735  0.50223480  0.30384179  1
  Hf  Hf49  1  0.09729454  0.49058019  0.49486147  1
  Zr  Zr50  1  0.78974115  0.00360991  0.19755762  1
  Zr  Zr51  1  0.91182743  0.89893702  0.09562102  1
  Zr  Zr52  1  0.40464680  0.59335318  0.18856607  1
  Zr  Zr53  1  0.09212849  0.69747719  0.89319891  1
  Zr  Zr54  1  0.50265763  0.89132340  0.89317965  1
  Zr  Zr55  1  0.39556092  0.19626307  0.79683595  1
  Zr  Zr56  1  0.90395579  0.89511995  0.30682839  1
  Zr  Zr57  1  0.39735927  0.19815263  0.60987732  1
  Zr  Zr58  1  0.19136938  0.40946491  0.19889408  1
  Zr  Zr59  1  0.50924490  0.91719938  0.30095343  1
  Zr  Zr60  1  0.19982433  0.80565912  0.79173564  1
  Zr  Zr61  1  0.80484967  0.81167816  0.61096027  1
  Zr  Zr62  1  0.38437134  0.80059206  0.60327452  1
  Zr  Zr63  1  0.28766205  0.90072468  0.49661986  1
  Zr  Zr64  1  0.39526122  0.19408696  -0.01151752  1
  Zr  Zr65  1  0.79529818  0.00501786  0.41059968  1
  Zr  Zr66  1  0.20452460  0.40165088  0.59780569  1
  Zr  Zr67  1  0.80500025  0.00663637  0.60856376  1
  Zr  Zr68  1  0.90826552  0.70877641  0.30172854  1
  Zr  Zr69  1  0.20777313  0.19865437  0.80198319  1
  Zr  Zr70  1  0.90797158  0.09822164  0.31257440  1
  Zr  Zr71  1  0.19816093  0.20985232  0.60540254  1
  Zr  Zr72  1  0.50697869  0.29847172  0.51157733  1
  Zr  Zr73  1  0.30278508  0.70276726  0.09590787  1
  Zr  Zr74  1  0.00631498  0.59742901  0.00631084  1
  Zr  Zr75  1  0.50890131  0.88441336  0.70006652  1
  Zr  Zr76  1  0.69925766  0.28670995  0.88059461  1
  Zr  Zr77  1  0.71059910  0.69751518  0.30512768  1
  Zr  Zr78  1  0.79848774  0.39495929  0.20334478  1
  Zr  Zr79  1  0.39582878  0.20282238  0.20523631  1
  Zr  Zr80  1  0.19997634  0.40000752  0.79917158  1
  Zr  Zr81  1  0.39166625  0.00172464  0.79297801  1
  Zr  Zr82  1  0.70395666  0.50156317  0.09691506  1
  Zr  Zr83  1  0.59602779  0.40307501  -0.00965773  1
  Zr  Zr84  1  0.79723330  0.39574202  -0.00730211  1
  Zr  Zr85  1  0.69935041  0.12254769  0.70837500  1
  Zr  Zr86  1  0.50127793  0.09636833  0.09797847  1
  Zr  Zr87  1  0.01432314  0.00605620  0.21195348  1
  Zr  Zr88  1  0.00288772  0.19895464  0.19851010  1
  Zr  Zr89  1  0.09437847  0.30906075  0.08051848  1
  Zr  Zr90  1  0.39869167  0.20224564  0.40072620  1
  Zr  Zr91  1  0.50556731  0.90008096  0.50480177  1
  Zr  Zr92  1  0.59934835  0.40184562  0.79003918  1
  Zr  Zr93  1  0.78548677  0.79318887  -0.00256548  1
  Zr  Zr94  1  0.39412884  0.40064208  0.40765609  1
  Zr  Zr95  1  0.79921399  0.19143258  0.00504630  1
  Zr  Zr96  1  0.60390787  0.40057485  0.40557756  1
  Zr  Zr97  1  0.28933949  0.09479719  0.09436957  1
  Zr  Zr98  1  0.60422308  0.19371844  0.19815998  1
  Zr  Zr99  1  0.79627889  0.19224938  0.19927539  1
  Ta  Ta100  1  0.79670558  0.00330345  -0.00667755  1
  Ta  Ta101  1  0.70226061  0.29958159  0.51755459  1
  Ta  Ta102  1  0.19435765  0.59709898  0.19161139  1
  Ta  Ta103  1  0.40538231  0.79304069  0.39418621  1
  Ta  Ta104  1  0.70157468  0.70507025  0.70972101  1
  Ta  Ta105  1  0.90699230  0.89687473  0.49146847  1
  Ta  Ta106  1  -0.00649410  0.40080845  0.79608759  1
  Ta  Ta107  1  0.39913243  -0.00232766  0.19668531  1
  Ta  Ta108  1  0.30017490  0.31507869  0.90568774  1
  Ta  Ta109  1  0.50515011  0.29732341  0.30077814  1
  Ta  Ta110  1  0.60230006  0.19893111  0.40586109  1
  Ta  Ta111  1  0.89761515  0.69878888  0.70607174  1
  Ta  Ta112  1  0.51204529  0.09882685  0.89065642  1
  Ta  Ta113  1  0.30234570  0.69635667  0.70632275  1
  Ta  Ta114  1  0.50786151  0.09863340  0.50841960  1
  Ta  Ta115  1  0.70494242  0.49653333  0.51206337  1
  Ta  Ta116  1  -0.00441887  0.80643402  0.78853683  1
  Ta  Ta117  1  -0.00309995  0.39577517  0.60480286  1
  Ta  Ta118  1  0.61113541  -0.00665523  0.79997811  1
  Ta  Ta119  1  0.39430557  0.00325845  0.60841559  1
  Ta  Ta120  1  0.40153284  0.40532978  0.60408696  1
  Ta  Ta121  1  0.09475505  0.89856072  0.49707552  1
  Ta  Ta122  1  0.60163225  0.19587445  -0.00427329  1
  Ta  Ta123  1  0.10075964  0.09305269  0.08562877  1
  Ta  Ta124  1  0.69789641  0.89528008  0.49853112  1
  Ta  Ta125  1  0.29556657  0.89946796  0.10090300  1
  Ta  Ta126  1  0.50065194  0.50333812  0.51085743  1
  Ta  Ta127  1  0.31119318  0.69254357  0.89734636  1
  Ta  Ta128  1  0.69678540  0.29547801  0.30507221  1
  Ta  Ta129  1  0.40665518  0.41428752  -0.00378991  1
  Ta  Ta130  1  0.90115321  0.30165820  0.50482937  1
  Ta  Ta131  1  0.90660202  0.30419516  0.10088735  1
  Ta  Ta132  1  0.49899782  0.29508883  0.89770451  1
  Ta  Ta133  1  0.10669987  0.70352261  0.29551202  1
  Ta  Ta134  1  0.20028582  -0.00385277  0.79622217  1
  Ta  Ta135  1  0.49817946  0.69840754  0.09054791  1
  Ta  Ta136  1  0.49891118  0.30026386  0.09165827  1
  Ta  Ta137  1  0.89838153  0.29782272  0.69846849  1
  Ta  Ta138  1  0.89705926  0.49236344  0.50782515  1
  Ta  Ta139  1  0.90003347  0.50206069  0.89570318  1
  Ta  Ta140  1  0.70049936  0.09859972  0.89365139  1
  Ta  Ta141  1  0.91004273  0.48713062  0.09352925  1
  Ta  Ta142  1  0.19557114  0.00100081  0.20155336  1
  Ta  Ta143  1  0.80484086  0.58482133  0.40144641  1
  Ta  Ta144  1  0.59698013  0.60705067  0.19621651  1
  Ta  Ta145  1  0.70662911  0.50651319  0.88904797  1
  Ta  Ta146  1  0.60519631  -0.00266030  -0.00679993  1
  Ta  Ta147  1  0.80201848  0.39981239  0.79148160  1
  Ta  Ta148  1  0.20302200  0.59614233  -0.00003204  1
  Ta  Ta149  1  0.90295886  0.30053064  0.30420164  1
  Ti  Ti150  1  0.80221699  0.59957887  0.60217924  1
  Ti  Ti151  1  0.18006774  -0.00102942  0.38558419  1
  Ti  Ti152  1  0.09543753  0.69753934  0.70350115  1
  Ti  Ti153  1  0.79935097  0.59988621  0.79653109  1
  Ti  Ti154  1  0.19803245  -0.01130293  0.61384093  1
  Ti  Ti155  1  0.69588873  0.29651951  0.09845058  1
  Ti  Ti156  1  0.20228053  0.19853771  -0.01101582  1
  Ti  Ti157  1  0.40295551  0.60545161  0.40767323  1
  Ti  Ti158  1  0.09654651  0.88341715  0.29892834  1
  Ti  Ti159  1  0.50489268  0.09945067  0.30514355  1
  Ti  Ti160  1  -0.00958633  0.19843360  0.60129009  1
  Ti  Ti161  1  0.19939269  0.79857914  0.39815750  1
  Ti  Ti162  1  0.09771940  0.30100797  0.89863870  1
  Ti  Ti163  1  0.60210732  -0.00390361  0.18894062  1
  Ti  Ti164  1  0.40365969  0.80223337  0.00010094  1
  Ti  Ti165  1  0.89766602  0.50042461  0.70107980  1
  Ti  Ti166  1  0.39751230  0.60099058  0.59582715  1
  Ti  Ti167  1  0.70953102  0.49899267  0.69787175  1
  Ti  Ti168  1  0.91424726  0.48024203  0.30155313  1
  Ti  Ti169  1  0.49460289  0.69680505  0.89252404  1
  Ti  Ti170  1  0.08687049  0.29749758  0.70705521  1
  Ti  Ti171  1  0.20430237  0.60256969  0.80749883  1
  Ti  Ti172  1  0.79698272  0.60264863  0.00044295  1
  Ti  Ti173  1  0.09409005  0.30050924  0.49894231  1
  Ti  Ti174  1  0.59959913  0.60061546  0.80220325  1
  Ti  Ti175  1  0.82216327  0.19175996  0.80004056  1
  Ti  Ti176  1  0.69875027  0.49903992  0.30084395  1
  Ti  Ti177  1  0.20571522  0.39926918  0.40210229  1
  Ti  Ti178  1  0.29784790  0.49880391  0.08656093  1
  Ti  Ti179  1  0.69740671  0.90656636  0.09063928  1
  Ti  Ti180  1  -0.00643512  0.19316590  -0.00523859  1
  Ti  Ti181  1  0.69036235  0.10714328  0.51004881  1
  Ti  Ti182  1  0.49592233  0.51041026  0.70034844  1
  Ti  Ti183  1  0.29828753  0.70048867  0.49479317  1
  Ti  Ti184  1  0.19785897  0.59706416  0.40110410  1
  Ti  Ti185  1  -0.00190120  0.19973335  0.40713445  1
  Ti  Ti186  1  0.60031058  0.39892867  0.61246907  1
  Ti  Ti187  1  0.68397980  0.08965630  0.31026277  1
  Ti  Ti188  1  0.39237073  0.79867949  0.79895297  1
  Ti  Ti189  1  0.00120077  0.80685505  0.60955408  1
  Ti  Ti190  1  0.10024288  0.71038334  0.10564660  1
  Ti  Ti191  1  0.79896322  -0.00349577  0.79675171  1
  Ti  Ti192  1  0.30841136  0.30998121  0.70400852  1
  Ti  Ti193  1  0.90815926  0.09223633  0.09390719  1
  Ti  Ti194  1  0.29667557  0.29883110  0.49918270  1
  Ti  Ti195  1  0.80717020  0.19999801  0.60049061  1
  Ti  Ti196  1  0.19425975  0.80248099  0.60785894  1
  Ti  Ti197  1  0.29689143  0.89947102  0.90233267  1
  Ti  Ti198  1  0.50158884  0.70216957  0.70700099  1
  Ti  Ti199  1  0.50972050  0.10387752  0.70034659  1
  Mo  Mo200  1  0.00355921  0.79633598  -0.00267580  1
  Mo  Mo201  1  0.09712754  0.90022327  0.69464076  1
  Mo  Mo202  1  0.69789704  0.69334985  0.10131050  1
  Mo  Mo203  1  0.40215629  0.59671030  -0.00857019  1
  Mo  Mo204  1  0.59983004  0.20369021  0.60426660  1
  Mo  Mo205  1  0.49882681  0.50126819  0.09659181  1
  Mo  Mo206  1  0.29469203  0.89552829  0.69869347  1
  Mo  Mo207  1  0.10471387  0.11170517  0.31026161  1
  Mo  Mo208  1  0.29028739  0.08810146  0.89816184  1
  Mo  Mo209  1  0.20033765  0.79973341  0.19827792  1
  Mo  Mo210  1  -0.00026867  0.20500321  0.79818225  1
  Mo  Mo211  1  0.80194286  0.40008684  0.60540091  1
  Mo  Mo212  1  0.00825028  -0.00434305  0.40603778  1
  Mo  Mo213  1  0.69664447  0.91147664  0.30211849  1
  Mo  Mo214  1  0.00956174  0.79964483  0.39882734  1
  Mo  Mo215  1  0.79587223  0.81132237  0.40168706  1
  Mo  Mo216  1  0.58890639  0.20111399  0.79689753  1
  Mo  Mo217  1  0.00990522  0.79633611  0.20064424  1
  Mo  Mo218  1  0.60224255  0.00830313  0.41398607  1
  Mo  Mo219  1  0.10553726  0.50390412  0.30645553  1
  Mo  Mo220  1  0.10461526  0.49974426  0.09498250  1
  Mo  Mo221  1  0.30267416  0.50939661  0.90304687  1
  Mo  Mo222  1  0.60876729  0.79019162  0.80517493  1
  Mo  Mo223  1  0.20378877  -0.00494309  -0.00437012  1
  Mo  Mo224  1  -0.00724788  0.39655445  0.40928005  1
  Mo  Mo225  1  0.40967079  0.60701636  0.79768722  1
  Mo  Mo226  1  0.29056071  0.08957790  0.69646454  1
  Mo  Mo227  1  0.89851456  0.89692672  0.70467477  1
  Mo  Mo228  1  0.49908935  0.89881466  0.09486743  1
  Mo  Mo229  1  0.70953317  0.30264761  0.69415830  1
  Mo  Mo230  1  0.70226470  0.68867421  0.88959478  1
  Mo  Mo231  1  0.30593704  0.50808946  0.50081665  1
  Mo  Mo232  1  -0.00296237  0.39936439  0.19761003  1
  Mo  Mo233  1  0.70321643  0.90473776  0.89473682  1
  Mo  Mo234  1  0.29019501  0.30212330  0.30979573  1
  Mo  Mo235  1  0.89886053  0.10729709  0.70023355  1
  Mo  Mo236  1  0.89567717  0.09807271  0.89907691  1
  Mo  Mo237  1  0.69558428  0.09199449  0.08712388  1
  Mo  Mo238  1  0.61035565  0.79646528  0.60929081  1
  Mo  Mo239  1  -0.00750586  0.00630444  -0.00221146  1
  Mo  Mo240  1  -0.00236827  0.39979000  -0.00729787  1
  Mo  Mo241  1  0.70360423  0.89138080  0.71029552  1
  Mo  Mo242  1  0.50050399  0.30418130  0.70201322  1
  Mo  Mo243  1  0.90682718  0.10797357  0.50523991  1
  Mo  Mo244  1  -0.00967869  0.59751355  0.79426604  1
  Mo  Mo245  1  0.79827254  0.79982499  0.80144619  1
  Mo  Mo246  1  0.20465985  0.40508992  -0.00627028  1
  Mo  Mo247  1  0.50196438  0.50934588  0.89634904  1
  Mo  Mo248  1  0.49633128  0.69484451  0.29873763  1
  Mo  Mo249  1  0.19613062  0.21292512  0.40233291  1
