# generated using pymatgen
data_HfZrTaTiMo
_symmetry_space_group_name_H-M   'P 1'
_cell_length_a   16.88914722
_cell_length_b   16.89372639
_cell_length_c   16.88985551
_cell_angle_alpha   89.96754861
_cell_angle_beta   89.98490743
_cell_angle_gamma   90.06590324
_symmetry_Int_Tables_number   1
_chemical_formula_structural   HfZrTaTiMo
_chemical_formula_sum   'Hf50 Zr50 Ta50 Ti50 Mo50'
_cell_volume   4819.02012111
_cell_formula_units_Z   50
loop_
 _symmetry_equiv_pos_site_id
 _symmetry_equiv_pos_as_xyz
  1  'x, y, z'
loop_
 _atom_site_type_symbol
 _atom_site_label
 _atom_site_symmetry_multiplicity
 _atom_site_fract_x
 _atom_site_fract_y
 _atom_site_fract_z
 _atom_site_occupancy
  Hf  Hf0  1  0.78842845  -0.01072959  0.80243378  1
  Hf  Hf1  1  0.79686732  0.40019840  0.20137202  1
  Hf  Hf2  1  0.70057630  0.10915551  0.70177575  1
  Hf  Hf3  1  0.59011612  0.58964446  0.39244188  1
  Hf  Hf4  1  0.60074172  0.60357949  0.00334536  1
  Hf  Hf5  1  0.49403370  0.89557541  0.50147334  1
  Hf  Hf6  1  0.10935502  0.51365302  0.29372328  1
  Hf  Hf7  1  0.29470671  0.10284026  0.30090001  1
  Hf  Hf8  1  0.79812685  0.58984093  0.38553037  1
  Hf  Hf9  1  0.10052707  0.29341974  0.68690689  1
  Hf  Hf10  1  0.20517242  0.40866988  0.40012354  1
  Hf  Hf11  1  0.49940413  0.10857115  0.69959585  1
  Hf  Hf12  1  -0.00197115  0.59135326  0.60808084  1
  Hf  Hf13  1  0.60813586  0.21430526  0.19851343  1
  Hf  Hf14  1  0.60031332  0.79740793  0.39376175  1
  Hf  Hf15  1  0.49015558  0.70356736  0.49833357  1
  Hf  Hf16  1  0.01001663  0.59564881  0.79876986  1
  Hf  Hf17  1  0.79472439  -0.00554566  0.60765294  1
  Hf  Hf18  1  -0.00030355  0.60714748  -0.00441456  1
  Hf  Hf19  1  0.29872106  0.29776006  0.29935933  1
  Hf  Hf20  1  -0.00427072  0.40425179  0.00282976  1
  Hf  Hf21  1  0.10463089  0.29670409  0.29713714  1
  Hf  Hf22  1  0.59215366  0.00713671  -0.02120334  1
  Hf  Hf23  1  0.80669857  0.20461413  0.01211838  1
  Hf  Hf24  1  0.19875555  0.80326973  0.39902643  1
  Hf  Hf25  1  0.60305102  0.20719263  0.00096197  1
  Hf  Hf26  1  0.11047128  0.30951521  0.90920755  1
  Hf  Hf27  1  0.90229128  0.89381857  0.50538106  1
  Hf  Hf28  1  0.20538066  0.40155378  0.79650885  1
  Hf  Hf29  1  0.71183433  0.30471440  0.89630072  1
  Hf  Hf30  1  0.00147147  0.20248497  0.80412684  1
  Hf  Hf31  1  0.09676672  0.28992510  0.49638044  1
  Hf  Hf32  1  0.88698701  0.69163348  0.70928665  1
  Hf  Hf33  1  0.39660307  0.00618980  0.59574444  1
  Hf  Hf34  1  0.59667011  0.39410117  0.79655163  1
  Hf  Hf35  1  -0.00086438  0.79593950  0.39637350  1
  Hf  Hf36  1  0.69961604  0.69549817  0.50602376  1
  Hf  Hf37  1  0.50378005  0.30469356  0.49855284  1
  Hf  Hf38  1  0.49882116  0.70799701  0.70022340  1
  Hf  Hf39  1  0.29488272  0.11048821  0.69557590  1
  Hf  Hf40  1  0.49660489  0.48655150  0.68723998  1
  Hf  Hf41  1  0.89176894  0.70027841  0.90028388  1
  Hf  Hf42  1  0.30871409  0.89772847  0.30111385  1
  Hf  Hf43  1  0.69247746  0.10701825  0.30618153  1
  Hf  Hf44  1  0.50551463  0.89684207  0.10606591  1
  Hf  Hf45  1  0.80484331  0.00712721  0.19523634  1
  Hf  Hf46  1  0.49954990  0.89448551  0.70155374  1
  Hf  Hf47  1  0.29892336  0.69765626  0.50209815  1
  Hf  Hf48  1  0.40146890  0.40824280  0.39756925  1
  Hf  Hf49  1  0.89221315  0.29431672  0.50213288  1
  Zr  Zr50  1  0.79515683  0.79773559  0.39369938  1
  Zr  Zr51  1  0.39927932  0.00244861  0.00324751  1
  Zr  Zr52  1  0.79881508  0.20687438  0.19264269  1
  Zr  Zr53  1  0.10108779  0.09643961  0.90403776  1
  Zr  Zr54  1  0.50055496  0.90271065  0.29462122  1
  Zr  Zr55  1  0.50886828  0.09872475  0.10922646  1
  Zr  Zr56  1  0.89480148  0.30327229  0.31544480  1
  Zr  Zr57  1  0.70056458  0.11166004  0.49836795  1
  Zr  Zr58  1  0.30152467  0.30107027  0.69153114  1
  Zr  Zr59  1  0.89203550  0.49587819  0.49972718  1
  Zr  Zr60  1  0.00710487  0.78604477  0.60960418  1
  Zr  Zr61  1  0.89129268  0.70343043  0.28557894  1
  Zr  Zr62  1  0.89664308  0.89372006  0.09111747  1
  Zr  Zr63  1  0.20992189  0.20194447  0.01093720  1
  Zr  Zr64  1  0.89830562  0.11164516  0.31993506  1
  Zr  Zr65  1  0.69411261  0.48832128  0.50079604  1
  Zr  Zr66  1  0.68985565  0.90354430  0.10104977  1
  Zr  Zr67  1  0.09950896  0.89166449  0.91046702  1
  Zr  Zr68  1  0.10908821  0.68931288  0.50170682  1
  Zr  Zr69  1  0.59240460  0.20342463  0.80836073  1
  Zr  Zr70  1  0.19822978  -0.00538814  0.79425440  1
  Zr  Zr71  1  0.50482053  0.49903551  0.10488885  1
  Zr  Zr72  1  0.79736066  -0.00881677  0.39887285  1
  Zr  Zr73  1  0.29975992  0.69400292  0.30512212  1
  Zr  Zr74  1  0.40872358  0.00701919  0.80599303  1
  Zr  Zr75  1  0.30456692  0.49460169  0.90771092  1
  Zr  Zr76  1  0.00240984  0.00304704  0.20415574  1
  Zr  Zr77  1  0.10733417  0.50224181  0.10211009  1
  Zr  Zr78  1  0.90404302  0.10400862  0.69860091  1
  Zr  Zr79  1  0.29860123  0.10532040  0.90085367  1
  Zr  Zr80  1  0.90489305  0.10949516  0.50576721  1
  Zr  Zr81  1  0.78702593  0.79161249  0.00427436  1
  Zr  Zr82  1  0.49626720  0.70050871  0.29004698  1
  Zr  Zr83  1  0.30412211  0.89181266  0.89667966  1
  Zr  Zr84  1  0.59829968  0.59310836  0.60025923  1
  Zr  Zr85  1  0.68939348  0.89500184  0.50958755  1
  Zr  Zr86  1  0.00216932  0.80513185  0.19418679  1
  Zr  Zr87  1  -0.00819950  0.20119068  0.19221340  1
  Zr  Zr88  1  0.01965646  0.78247334  0.80295695  1
  Zr  Zr89  1  0.70600481  0.49965397  0.89417871  1
  Zr  Zr90  1  0.00134460  0.40772111  0.79312426  1
  Zr  Zr91  1  0.10287769  0.89855996  0.50697442  1
  Zr  Zr92  1  0.90392342  0.89444454  0.90349229  1
  Zr  Zr93  1  0.89750568  0.08405988  0.90877499  1
  Zr  Zr94  1  -0.00533580  0.20468166  0.00868233  1
  Zr  Zr95  1  0.30676033  0.69813200  0.89371729  1
  Zr  Zr96  1  0.90594309  0.89443058  0.70579610  1
  Zr  Zr97  1  0.00091254  0.41278110  0.39678363  1
  Zr  Zr98  1  0.60237392  0.59533829  0.79067302  1
  Zr  Zr99  1  0.09842502  0.69780033  0.10349201  1
  Ta  Ta100  1  0.60119968  0.20862856  0.59761302  1
  Ta  Ta101  1  0.20191279  0.40433623  0.59079562  1
  Ta  Ta102  1  0.40309012  0.20370336  0.00624621  1
  Ta  Ta103  1  0.89859358  0.29858360  0.69377606  1
  Ta  Ta104  1  0.40287368  0.59467490  0.79522645  1
  Ta  Ta105  1  0.20384312  -0.00040767  0.59630395  1
  Ta  Ta106  1  0.11264194  0.50431299  0.90577484  1
  Ta  Ta107  1  0.49910681  0.69903258  0.89596676  1
  Ta  Ta108  1  0.69603311  0.69839882  0.89015369  1
  Ta  Ta109  1  0.39948821  0.00767906  0.40137379  1
  Ta  Ta110  1  0.49842471  0.30847184  0.10357659  1
  Ta  Ta111  1  0.19868844  0.00067480  0.40108509  1
  Ta  Ta112  1  0.79550115  0.39893819  0.60711199  1
  Ta  Ta113  1  0.20412696  0.79581128  0.00857650  1
  Ta  Ta114  1  0.40028916  0.40488959  0.20444761  1
  Ta  Ta115  1  0.40320804  0.60371575  0.00793266  1
  Ta  Ta116  1  -0.00676146  0.40526311  0.19952423  1
  Ta  Ta117  1  0.89136636  0.69152279  0.50556738  1
  Ta  Ta118  1  0.00826436  -0.00069424  0.39911619  1
  Ta  Ta119  1  0.50037834  0.87956042  0.89419707  1
  Ta  Ta120  1  0.30235753  0.50175808  0.69476055  1
  Ta  Ta121  1  0.89155911  0.50344487  0.89560230  1
  Ta  Ta122  1  0.60391236  0.39868405  0.00317553  1
  Ta  Ta123  1  0.59811043  0.39859826  0.39302824  1
  Ta  Ta124  1  0.39839211  0.20385999  0.19502747  1
  Ta  Ta125  1  0.79523862  0.60116145  0.00610443  1
  Ta  Ta126  1  0.80115840  0.40356457  0.00755613  1
  Ta  Ta127  1  0.20361991  0.78715225  0.78688451  1
  Ta  Ta128  1  -0.00512202  0.60285177  0.39501220  1
  Ta  Ta129  1  0.10658169  0.09968946  0.10714390  1
  Ta  Ta130  1  0.40094619  0.21299563  0.80775291  1
  Ta  Ta131  1  0.10221159  0.10497544  0.68818335  1
  Ta  Ta132  1  0.59597935  0.00566070  0.60251515  1
  Ta  Ta133  1  0.20392149  -0.00516388  0.01590970  1
  Ta  Ta134  1  0.21095656  0.60396884  0.00663146  1
  Ta  Ta135  1  0.79063093  0.58954450  0.61839632  1
  Ta  Ta136  1  0.89616575  0.50756129  0.09999324  1
  Ta  Ta137  1  0.40197653  0.20056032  0.59007032  1
  Ta  Ta138  1  0.39721253  0.00957910  0.20125906  1
  Ta  Ta139  1  0.20372231  0.80141762  0.19543171  1
  Ta  Ta140  1  0.40249258  0.39911545  0.80135117  1
  Ta  Ta141  1  0.29507526  0.10475274  0.49501701  1
  Ta  Ta142  1  0.40386310  0.19827816  0.39751529  1
  Ta  Ta143  1  0.10353083  0.10381208  0.50056502  1
  Ta  Ta144  1  0.10580987  0.69383364  0.29618273  1
  Ta  Ta145  1  0.39564897  0.59289291  0.19653958  1
  Ta  Ta146  1  0.40213993  0.79095734  0.00651629  1
  Ta  Ta147  1  0.29483430  0.29126287  0.49534365  1
  Ta  Ta148  1  0.10775655  0.30972017  0.10776617  1
  Ta  Ta149  1  0.50163161  0.30028295  0.29660812  1
  Ti  Ti150  1  0.89684556  0.89797748  0.29652279  1
  Ti  Ti151  1  0.59559665  0.00038970  0.40073830  1
  Ti  Ti152  1  0.39824466  0.59577263  0.59964918  1
  Ti  Ti153  1  0.49035801  0.31015559  0.91239146  1
  Ti  Ti154  1  0.70603906  0.29888283  0.69747550  1
  Ti  Ti155  1  0.69417633  0.69834607  0.28498573  1
  Ti  Ti156  1  0.89647466  0.31187536  0.89443868  1
  Ti  Ti157  1  0.40192843  0.58500870  0.39560696  1
  Ti  Ti158  1  0.11484048  0.50127997  0.69192898  1
  Ti  Ti159  1  0.29435154  0.51114835  0.50116765  1
  Ti  Ti160  1  0.50350637  0.10533763  0.30171599  1
  Ti  Ti161  1  0.10569847  0.10831899  0.30513278  1
  Ti  Ti162  1  0.00822815  -0.00178813  0.79459130  1
  Ti  Ti163  1  0.59337047  0.78851218  0.00221842  1
  Ti  Ti164  1  -0.01206660  0.59800098  0.20098751  1
  Ti  Ti165  1  0.20720513  0.19994377  0.19117356  1
  Ti  Ti166  1  -0.00133463  0.40492300  0.60172077  1
  Ti  Ti167  1  0.39697681  0.79017857  0.18788753  1
  Ti  Ti168  1  0.49443126  0.30096597  0.69034245  1
  Ti  Ti169  1  0.79663804  0.59792206  0.19411352  1
  Ti  Ti170  1  0.30639648  0.31664360  0.09545116  1
  Ti  Ti171  1  0.10410707  0.50688400  0.49972565  1
  Ti  Ti172  1  0.78483578  0.79880198  0.79646029  1
  Ti  Ti173  1  0.10445213  0.90158065  0.29691474  1
  Ti  Ti174  1  0.20308226  0.60192912  0.79560676  1
  Ti  Ti175  1  0.69497518  0.49988951  0.10540142  1
  Ti  Ti176  1  0.68102321  0.88757964  0.69955281  1
  Ti  Ti177  1  0.50515479  0.10546205  0.49436581  1
  Ti  Ti178  1  0.80795763  0.20297693  0.80013156  1
  Ti  Ti179  1  0.00617618  0.00116873  0.60166723  1
  Ti  Ti180  1  0.21469633  0.41242230  0.19797044  1
  Ti  Ti181  1  0.30426461  0.30801910  0.90946043  1
  Ti  Ti182  1  0.39238760  0.40201299  0.58700822  1
  Ti  Ti183  1  0.79309326  0.79354865  0.60858946  1
  Ti  Ti184  1  0.69231468  0.89894995  0.28305160  1
  Ti  Ti185  1  0.30092735  0.89433836  0.70016691  1
  Ti  Ti186  1  0.68906940  0.49437487  0.28970150  1
  Ti  Ti187  1  0.49667329  0.49781001  0.90404650  1
  Ti  Ti188  1  0.01107507  -0.00362037  0.01699341  1
  Ti  Ti189  1  0.69908226  0.09061319  0.09490219  1
  Ti  Ti190  1  0.10855466  0.89604081  0.69390545  1
  Ti  Ti191  1  0.20159089  -0.00280850  0.19719636  1
  Ti  Ti192  1  0.59785491  0.00122139  0.80167038  1
  Ti  Ti193  1  0.30175222  0.89882286  0.49894061  1
  Ti  Ti194  1  0.20053219  0.20539423  0.80244716  1
  Ti  Ti195  1  0.30395596  0.89858459  0.10505669  1
  Ti  Ti196  1  0.68781479  0.89054085  0.89943618  1
  Ti  Ti197  1  0.69241459  0.70091132  0.11484359  1
  Ti  Ti198  1  0.38644043  0.79849319  0.60565841  1
  Ti  Ti199  1  0.70743133  0.10289558  0.90025189  1
  Mo  Mo200  1  0.30207704  0.50260675  0.29599149  1
  Mo  Mo201  1  0.30023862  0.09767348  0.10931525  1
  Mo  Mo202  1  0.80503860  0.39852908  0.79328187  1
  Mo  Mo203  1  0.78427103  0.00216513  -0.00584204  1
  Mo  Mo204  1  0.69549154  0.30547381  0.30941607  1
  Mo  Mo205  1  0.60374925  0.59898533  0.19952946  1
  Mo  Mo206  1  0.60114028  0.79791186  0.80288210  1
  Mo  Mo207  1  0.30178158  0.70036557  0.10210536  1
  Mo  Mo208  1  0.69726351  0.31306907  0.09544624  1
  Mo  Mo209  1  0.60403612  0.38925332  0.60065883  1
  Mo  Mo210  1  0.90230250  0.31870903  0.10085346  1
  Mo  Mo211  1  0.90153757  0.08436095  0.09186355  1
  Mo  Mo212  1  0.20553497  0.59270125  0.60278357  1
  Mo  Mo213  1  0.20233521  0.19526714  0.39628690  1
  Mo  Mo214  1  0.79629880  0.59588631  0.80115252  1
  Mo  Mo215  1  0.77976518  0.21493526  0.40544071  1
  Mo  Mo216  1  0.79095063  0.80111385  0.19857227  1
  Mo  Mo217  1  0.49214929  0.49673094  0.49791515  1
  Mo  Mo218  1  0.30433416  0.50249808  0.10255272  1
  Mo  Mo219  1  0.19754417  0.59803447  0.40144493  1
  Mo  Mo220  1  0.59862260  0.79882678  0.60064703  1
  Mo  Mo221  1  0.89891360  0.50598710  0.29183985  1
  Mo  Mo222  1  0.00922522  0.79526485  0.00018605  1
  Mo  Mo223  1  0.89215368  0.69269325  0.09856152  1
  Mo  Mo224  1  0.20453817  0.40372545  0.00747591  1
  Mo  Mo225  1  0.11655549  0.69416860  0.90258743  1
  Mo  Mo226  1  0.30623382  0.69150134  0.69671146  1
  Mo  Mo227  1  0.69879926  0.70824647  0.70048740  1
  Mo  Mo228  1  0.11215017  0.90125434  0.10440618  1
  Mo  Mo229  1  0.59015618  0.20560308  0.39820007  1
  Mo  Mo230  1  0.21341727  0.60529732  0.19901002  1
  Mo  Mo231  1  0.69910329  0.48273707  0.70049776  1
  Mo  Mo232  1  0.39499372  0.81027217  0.40743854  1
  Mo  Mo233  1  0.11880532  0.68612043  0.69686893  1
  Mo  Mo234  1  0.00017213  0.19929480  0.60027066  1
  Mo  Mo235  1  0.78667086  0.40085380  0.39579855  1
  Mo  Mo236  1  0.20307890  0.19719701  0.59301590  1
  Mo  Mo237  1  0.89232776  0.49376245  0.70365652  1
  Mo  Mo238  1  0.39851078  0.79355745  0.79822967  1
  Mo  Mo239  1  0.59963432  0.79336133  0.19854608  1
  Mo  Mo240  1  0.59995897  0.00853470  0.20911147  1
  Mo  Mo241  1  0.01326565  0.19353767  0.39907740  1
  Mo  Mo242  1  0.79511788  0.21016179  0.60443842  1
  Mo  Mo243  1  0.49889851  0.69873619  0.09793811  1
  Mo  Mo244  1  0.49672293  0.11755874  0.90079549  1
  Mo  Mo245  1  0.21038203  0.80441147  0.60838574  1
  Mo  Mo246  1  0.59980085  0.40132045  0.20201389  1
  Mo  Mo247  1  0.69660142  0.30318109  0.50034553  1
  Mo  Mo248  1  0.50000252  0.49728727  0.29570789  1
  Mo  Mo249  1  0.40437132  0.39986305  0.00394132  1
