# generated using pymatgen
data_HfZrTaTiMo
_symmetry_space_group_name_H-M   'P 1'
_cell_length_a   16.88910363
_cell_length_b   16.88358359
_cell_length_c   16.88390750
_cell_angle_alpha   90.00621534
_cell_angle_beta   90.03843273
_cell_angle_gamma   89.97128969
_symmetry_Int_Tables_number   1
_chemical_formula_structural   HfZrTaTiMo
_chemical_formula_sum   'Hf50 Zr50 Ta50 Ti50 Mo50'
_cell_volume   4814.42075240
_cell_formula_units_Z   50
loop_
 _symmetry_equiv_pos_site_id
 _symmetry_equiv_pos_as_xyz
  1  'x, y, z'
loop_
 _atom_site_type_symbol
 _atom_site_label
 _atom_site_symmetry_multiplicity
 _atom_site_fract_x
 _atom_site_fract_y
 _atom_site_fract_z
 _atom_site_occupancy
  Hf  Hf0  1  -0.00037492  0.58543997  -0.00774667  1
  Hf  Hf1  1  0.20225675  0.59858819  0.60503647  1
  Hf  Hf2  1  0.90459734  0.29811845  0.49781902  1
  Hf  Hf3  1  0.89462724  0.70010280  0.08659842  1
  Hf  Hf4  1  0.30270497  0.29997699  0.10882617  1
  Hf  Hf5  1  0.19989413  0.60276763  0.19526949  1
  Hf  Hf6  1  0.39974972  0.79691316  0.00429701  1
  Hf  Hf7  1  0.60790932  0.19567931  -0.00330266  1
  Hf  Hf8  1  0.19061628  0.79414587  0.00492483  1
  Hf  Hf9  1  0.20001791  0.59684022  0.40869103  1
  Hf  Hf10  1  0.09967092  0.30220973  0.88755754  1
  Hf  Hf11  1  0.49973309  0.10005488  0.29399641  1
  Hf  Hf12  1  0.29676346  0.69774318  0.89401680  1
  Hf  Hf13  1  0.60188026  0.20979416  0.39657438  1
  Hf  Hf14  1  0.80564614  0.40435388  0.59966843  1
  Hf  Hf15  1  0.28955936  0.90593505  0.10140322  1
  Hf  Hf16  1  0.29751013  0.89893331  0.70076252  1
  Hf  Hf17  1  0.80580996  0.20199621  0.20093915  1
  Hf  Hf18  1  0.39760357  0.59483714  0.00833295  1
  Hf  Hf19  1  -0.00465039  0.80536941  0.19428903  1
  Hf  Hf20  1  0.69464356  0.49982463  0.31027639  1
  Hf  Hf21  1  0.19167915  0.20070414  0.01109905  1
  Hf  Hf22  1  0.89767280  0.09668052  0.09910551  1
  Hf  Hf23  1  0.70105549  0.70113258  0.70558607  1
  Hf  Hf24  1  0.50428976  0.70465194  0.31057671  1
  Hf  Hf25  1  -0.00319506  0.40346671  -0.00124767  1
  Hf  Hf26  1  0.90772806  0.70901321  0.50794027  1
  Hf  Hf27  1  0.00081968  0.20560879  0.00680434  1
  Hf  Hf28  1  0.50665548  0.70362736  0.89903214  1
  Hf  Hf29  1  0.49572539  0.49546258  0.89863078  1
  Hf  Hf30  1  0.10290768  0.29447477  0.50691161  1
  Hf  Hf31  1  0.59798685  0.59343665  0.00540612  1
  Hf  Hf32  1  0.30593482  0.29776799  0.89783593  1
  Hf  Hf33  1  0.70870246  0.08755558  0.29928594  1
  Hf  Hf34  1  0.78843210  0.60149203  0.42564409  1
  Hf  Hf35  1  0.29589343  0.89563014  0.89839182  1
  Hf  Hf36  1  0.09430921  0.90576647  0.29762670  1
  Hf  Hf37  1  0.00166637  0.59699543  0.40704588  1
  Hf  Hf38  1  0.39458644  0.20348951  0.59651844  1
  Hf  Hf39  1  -0.00813957  0.19862458  0.78782073  1
  Hf  Hf40  1  0.80737008  0.20442199  0.39065649  1
  Hf  Hf41  1  0.89511005  0.49889314  0.30195153  1
  Hf  Hf42  1  0.10395306  0.10592820  0.89186212  1
  Hf  Hf43  1  0.70272395  0.09676512  0.50461554  1
  Hf  Hf44  1  0.10066372  0.49635284  0.29776539  1
  Hf  Hf45  1  0.30782966  0.48534984  0.50990751  1
  Hf  Hf46  1  -0.00381533  0.00092451  0.79031964  1
  Hf  Hf47  1  0.89773937  0.09342300  0.49084373  1
  Hf  Hf48  1  0.41138776  0.59536245  0.41322522  1
  Hf  Hf49  1  -0.00430880  0.19259031  0.60024212  1
  Zr  Zr50  1  0.19639752  0.19488367  0.39889341  1
  Zr  Zr51  1  0.59250328  0.59360173  0.79397990  1
  Zr  Zr52  1  0.69112609  0.70203359  0.30771269  1
  Zr  Zr53  1  0.30282687  0.49186354  0.30105238  1
  Zr  Zr54  1  -0.00720268  0.41082219  0.80198920  1
  Zr  Zr55  1  0.50342783  0.09354971  0.10806070  1
  Zr  Zr56  1  0.80155000  0.80887070  0.20157791  1
  Zr  Zr57  1  0.40692873  -0.00141830  -0.00309487  1
  Zr  Zr58  1  0.30846100  0.10543570  0.89374787  1
  Zr  Zr59  1  -0.00433369  0.59918731  0.79653931  1
  Zr  Zr60  1  0.61249121  0.20240033  0.19890689  1
  Zr  Zr61  1  0.50241168  0.10310267  0.70236887  1
  Zr  Zr62  1  0.49327692  0.29416489  0.10748414  1
  Zr  Zr63  1  0.70082292  0.30054923  0.70200218  1
  Zr  Zr64  1  0.69321920  0.70857912  0.09645669  1
  Zr  Zr65  1  0.80198984  0.59920635  0.19597940  1
  Zr  Zr66  1  0.00094796  0.38988225  0.39216104  1
  Zr  Zr67  1  0.30655004  0.10488371  0.10755767  1
  Zr  Zr68  1  0.30734718  0.30007185  0.29524300  1
  Zr  Zr69  1  0.70655668  0.49581670  0.10172536  1
  Zr  Zr70  1  0.88872987  0.69804386  0.90145803  1
  Zr  Zr71  1  0.90255983  0.89895583  0.69154679  1
  Zr  Zr72  1  0.20001753  0.80707019  0.39898330  1
  Zr  Zr73  1  0.39317900  0.40474756  0.79358527  1
  Zr  Zr74  1  0.19549719  0.40246924  -0.00186611  1
  Zr  Zr75  1  0.20074829  -0.00065299  0.79904487  1
  Zr  Zr76  1  0.50135189  0.89025528  0.49657734  1
  Zr  Zr77  1  0.59736864  0.39584050  0.00256890  1
  Zr  Zr78  1  0.59951227  0.60091308  0.58383206  1
  Zr  Zr79  1  0.19570284  0.00966356  0.40132523  1
  Zr  Zr80  1  0.79837959  0.80025390  0.59724538  1
  Zr  Zr81  1  0.89870364  0.70362004  0.30849849  1
  Zr  Zr82  1  0.00710776  0.00108794  -0.00283350  1
  Zr  Zr83  1  0.62432975  0.00332578  0.00070475  1
  Zr  Zr84  1  0.40781513  0.79265878  0.60540660  1
  Zr  Zr85  1  0.11505144  0.10130945  0.68511811  1
  Zr  Zr86  1  0.70727721  0.50002727  0.70276972  1
  Zr  Zr87  1  0.80349770  0.80433658  0.79912786  1
  Zr  Zr88  1  0.88850328  0.10229534  0.89512234  1
  Zr  Zr89  1  0.52053989  0.89312352  0.10806169  1
  Zr  Zr90  1  0.30505588  0.70345981  0.30719269  1
  Zr  Zr91  1  0.39301195  0.80241948  0.20332225  1
  Zr  Zr92  1  0.29931197  0.89885786  0.50355832  1
  Zr  Zr93  1  0.50292142  0.10072318  0.50514513  1
  Zr  Zr94  1  0.39035358  0.00156486  0.39665752  1
  Zr  Zr95  1  0.70208551  0.09886431  0.69842185  1
  Zr  Zr96  1  0.50924635  0.89400017  0.89347074  1
  Zr  Zr97  1  0.49440516  0.31689403  0.49758804  1
  Zr  Zr98  1  0.60561751  -0.00612608  0.40625658  1
  Zr  Zr99  1  0.09439287  0.70237451  0.29958252  1
  Ta  Ta100  1  0.89780152  0.90608528  0.09068249  1
  Ta  Ta101  1  -0.00093827  0.59777534  0.60590389  1
  Ta  Ta102  1  0.20361000  0.40676263  0.79270005  1
  Ta  Ta103  1  0.09873730  0.89435176  0.89466563  1
  Ta  Ta104  1  0.80645038  0.19986732  0.60312635  1
  Ta  Ta105  1  0.59851589  0.39628444  0.80093808  1
  Ta  Ta106  1  -0.00565133  0.59202102  0.18980024  1
  Ta  Ta107  1  0.69959319  0.69784640  0.90109924  1
  Ta  Ta108  1  0.88741091  0.30011672  0.89749747  1
  Ta  Ta109  1  0.49603262  0.29498228  0.89346536  1
  Ta  Ta110  1  0.29825635  0.49363246  0.10731534  1
  Ta  Ta111  1  0.39630016  0.59918341  0.78883470  1
  Ta  Ta112  1  0.59434142  0.40066965  0.20646316  1
  Ta  Ta113  1  0.39874087  0.40307316  0.00435163  1
  Ta  Ta114  1  0.79133827  0.19671106  0.00174075  1
  Ta  Ta115  1  0.58779907  0.59088402  0.20392160  1
  Ta  Ta116  1  0.09782121  0.70469974  0.50653799  1
  Ta  Ta117  1  0.79239561  0.81384368  0.40919364  1
  Ta  Ta118  1  0.20986604  0.21083483  0.78572506  1
  Ta  Ta119  1  0.49994878  0.30136550  0.70061798  1
  Ta  Ta120  1  0.10094875  0.49046643  0.50967124  1
  Ta  Ta121  1  0.10292961  0.49526195  0.69612548  1
  Ta  Ta122  1  0.19668660  0.59654719  0.00131355  1
  Ta  Ta123  1  0.69379669  0.89799730  0.29818154  1
  Ta  Ta124  1  0.00171538  0.79739506  0.79608417  1
  Ta  Ta125  1  0.60506156  0.00435752  0.80437198  1
  Ta  Ta126  1  0.30326642  0.10211970  0.69484229  1
  Ta  Ta127  1  0.18040310  0.19827853  0.20280356  1
  Ta  Ta128  1  0.89565747  0.30157891  0.09738188  1
  Ta  Ta129  1  0.70673598  0.30297073  0.89558931  1
  Ta  Ta130  1  0.30585704  0.70262169  0.50426287  1
  Ta  Ta131  1  0.50537034  0.70103159  0.10661511  1
  Ta  Ta132  1  0.40802049  0.59310863  0.20005374  1
  Ta  Ta133  1  -0.00358324  0.39370758  0.19565801  1
  Ta  Ta134  1  0.40510634  0.59877328  0.60487556  1
  Ta  Ta135  1  0.19763903  0.79647081  0.60213423  1
  Ta  Ta136  1  0.70799811  0.49975693  0.89619870  1
  Ta  Ta137  1  0.70198631  0.31431546  0.30162154  1
  Ta  Ta138  1  0.10033741  0.89679359  0.69240562  1
  Ta  Ta139  1  0.10105610  0.49636375  0.10235834  1
  Ta  Ta140  1  0.39666828  0.20112361  0.40002127  1
  Ta  Ta141  1  0.10588616  0.30512151  0.69270292  1
  Ta  Ta142  1  0.50645970  0.89277954  0.30155890  1
  Ta  Ta143  1  0.00452555  0.00178853  0.59280276  1
  Ta  Ta144  1  0.18954352  0.01142153  0.20301896  1
  Ta  Ta145  1  0.68986409  0.90407327  0.69755693  1
  Ta  Ta146  1  0.39946078  0.00038644  0.60265553  1
  Ta  Ta147  1  0.19745720  0.39348078  0.40181168  1
  Ta  Ta148  1  0.60304336  0.20089971  0.80594057  1
  Ta  Ta149  1  0.29681700  0.69989994  0.70230758  1
  Ti  Ti150  1  0.09652965  0.90585183  0.10039467  1
  Ti  Ti151  1  0.29690025  0.50435625  0.90032767  1
  Ti  Ti152  1  0.90051705  0.90268343  0.90280611  1
  Ti  Ti153  1  0.90514814  0.49880841  0.50560616  1
  Ti  Ti154  1  0.09898782  0.69763977  0.89788590  1
  Ti  Ti155  1  0.70642177  0.30573821  0.09978801  1
  Ti  Ti156  1  0.30274478  0.10596720  0.29093789  1
  Ti  Ti157  1  0.79462444  -0.00385585  0.18876059  1
  Ti  Ti158  1  0.19172282  0.00675406  0.00467238  1
  Ti  Ti159  1  0.89241862  0.30346556  0.70656552  1
  Ti  Ti160  1  0.78992887  0.81777923  0.00031119  1
  Ti  Ti161  1  0.70137589  0.30577602  0.49923986  1
  Ti  Ti162  1  0.09732461  0.90132830  0.50630541  1
  Ti  Ti163  1  0.00340838  0.01074765  0.39748593  1
  Ti  Ti164  1  0.79552938  0.00072909  0.80160132  1
  Ti  Ti165  1  0.49461897  0.48930459  0.68823014  1
  Ti  Ti166  1  0.60517605  0.79804484  0.59220594  1
  Ti  Ti167  1  0.60244353  0.40538021  0.59454802  1
  Ti  Ti168  1  0.40368140  0.79667206  0.79549268  1
  Ti  Ti169  1  0.40547175  -0.00089571  0.79519256  1
  Ti  Ti170  1  0.51083870  0.90090336  0.70079437  1
  Ti  Ti171  1  0.39483486  -0.00871912  0.20760696  1
  Ti  Ti172  1  0.40517211  0.20011181  -0.00100093  1
  Ti  Ti173  1  0.89372951  0.91729387  0.30519167  1
  Ti  Ti174  1  0.80630822  0.40322962  -0.00147763  1
  Ti  Ti175  1  0.19632835  0.59448949  0.79836792  1
  Ti  Ti176  1  0.90427056  0.90495995  0.49669036  1
  Ti  Ti177  1  0.18473667  0.38709703  0.20064364  1
  Ti  Ti178  1  0.80783059  0.60047428  0.60631659  1
  Ti  Ti179  1  0.80758585  0.39632210  0.20061979  1
  Ti  Ti180  1  0.80036615  -0.00425179  0.59689936  1
  Ti  Ti181  1  0.19050911  0.79464297  0.79576905  1
  Ti  Ti182  1  0.00266716  0.80294727  -0.00498099  1
  Ti  Ti183  1  0.49888511  0.10535626  0.89261597  1
  Ti  Ti184  1  0.50449567  0.48876448  0.31810706  1
  Ti  Ti185  1  0.69755644  0.89478795  0.89380340  1
  Ti  Ti186  1  -0.00154406  0.00897589  0.20128655  1
  Ti  Ti187  1  0.09472597  0.70327983  0.69488097  1
  Ti  Ti188  1  -0.00356850  0.40245301  0.60850387  1
  Ti  Ti189  1  0.50637074  0.70433871  0.70240725  1
  Ti  Ti190  1  0.19659895  0.80318925  0.19927352  1
  Ti  Ti191  1  0.79977454  0.40046778  0.40595955  1
  Ti  Ti192  1  0.09159311  0.69500773  0.09827415  1
  Ti  Ti193  1  -0.00194952  0.80943507  0.40289443  1
  Ti  Ti194  1  0.29831370  0.30459908  0.50046030  1
  Ti  Ti195  1  0.41357044  0.40600668  0.20325896  1
  Ti  Ti196  1  0.29792890  0.30904458  0.68650300  1
  Ti  Ti197  1  -0.00203874  0.20515319  0.21244745  1
  Ti  Ti198  1  0.29982863  0.69636276  0.10264494  1
  Ti  Ti199  1  0.60307616  0.20767070  0.59844443  1
  Mo  Mo200  1  0.08666932  0.10224326  0.30085383  1
  Mo  Mo201  1  0.40027131  0.39668582  0.39801499  1
  Mo  Mo202  1  0.80319491  -0.00932608  0.40174171  1
  Mo  Mo203  1  0.50237489  0.69983008  0.50035676  1
  Mo  Mo204  1  0.00747100  0.80252326  0.59902839  1
  Mo  Mo205  1  -0.00027346  0.19312928  0.39060675  1
  Mo  Mo206  1  0.09551730  0.29774192  0.30106566  1
  Mo  Mo207  1  0.09165048  0.10112642  0.10925330  1
  Mo  Mo208  1  0.59692032  -0.00801560  0.60698531  1
  Mo  Mo209  1  0.60923125  0.79643511  -0.00467802  1
  Mo  Mo210  1  0.88984598  0.09346357  0.69151469  1
  Mo  Mo211  1  0.40002319  0.39990759  0.60357295  1
  Mo  Mo212  1  0.60345245  0.40125766  0.40198603  1
  Mo  Mo213  1  0.09117647  0.30120229  0.10873306  1
  Mo  Mo214  1  0.40165645  0.20542802  0.79177730  1
  Mo  Mo215  1  0.70985496  0.09583932  0.10079629  1
  Mo  Mo216  1  0.90397150  0.69604206  0.69828794  1
  Mo  Mo217  1  0.79968734  0.40076209  0.80177619  1
  Mo  Mo218  1  0.69935580  0.48668909  0.50145468  1
  Mo  Mo219  1  0.69808005  0.70908625  0.50208939  1
  Mo  Mo220  1  0.87984685  0.49839123  0.89816786  1
  Mo  Mo221  1  0.50267792  0.49793501  0.50225824  1
  Mo  Mo222  1  0.60997397  -0.00645070  0.20301654  1
  Mo  Mo223  1  0.70357805  0.10514381  0.89222214  1
  Mo  Mo224  1  0.79863586  0.20393997  0.79900448  1
  Mo  Mo225  1  0.70694852  0.90122248  0.10367259  1
  Mo  Mo226  1  0.90192653  0.49333008  0.09830876  1
  Mo  Mo227  1  0.80085710  0.59917411  0.79963252  1
  Mo  Mo228  1  0.89550204  0.30417909  0.29530471  1
  Mo  Mo229  1  0.60343084  0.80289250  0.79580537  1
  Mo  Mo230  1  0.59727897  0.59428756  0.40525254  1
  Mo  Mo231  1  0.11654662  0.50337804  0.89492697  1
  Mo  Mo232  1  0.60097099  0.79778840  0.20636972  1
  Mo  Mo233  1  0.90216877  0.09008668  0.29571790  1
  Mo  Mo234  1  0.50158748  0.30397352  0.30340952  1
  Mo  Mo235  1  0.40196870  0.79877046  0.40063667  1
  Mo  Mo236  1  0.29686037  0.10268843  0.51166154  1
  Mo  Mo237  1  0.90215010  0.50232274  0.69727418  1
  Mo  Mo238  1  0.40214852  0.19824016  0.20872624  1
  Mo  Mo239  1  0.20151420  -0.00214812  0.59548690  1
  Mo  Mo240  1  0.09613964  0.09738933  0.49790016  1
  Mo  Mo241  1  0.49546856  0.49816337  0.10653281  1
  Mo  Mo242  1  0.80206002  -0.00528814  -0.00603417  1
  Mo  Mo243  1  0.20042466  0.39798645  0.60142986  1
  Mo  Mo244  1  0.20759317  0.20156315  0.59573886  1
  Mo  Mo245  1  0.79682434  0.59151565  -0.00614138  1
  Mo  Mo246  1  0.29365592  0.90777147  0.29120114  1
  Mo  Mo247  1  0.70049029  0.90169166  0.50459997  1
  Mo  Mo248  1  0.60532196  0.79728805  0.40660370  1
  Mo  Mo249  1  0.29735650  0.50709066  0.69957601  1
