# generated using pymatgen
data_HfZrTaTiMo
_symmetry_space_group_name_H-M   'P 1'
_cell_length_a   16.88851163
_cell_length_b   16.88329639
_cell_length_c   16.88201906
_cell_angle_alpha   90.03026028
_cell_angle_beta   89.98363734
_cell_angle_gamma   89.97529143
_symmetry_Int_Tables_number   1
_chemical_formula_structural   HfZrTaTiMo
_chemical_formula_sum   'Hf50 Zr50 Ta50 Ti50 Mo50'
_cell_volume   4813.63204487
_cell_formula_units_Z   50
loop_
 _symmetry_equiv_pos_site_id
 _symmetry_equiv_pos_as_xyz
  1  'x, y, z'
loop_
 _atom_site_type_symbol
 _atom_site_label
 _atom_site_symmetry_multiplicity
 _atom_site_fract_x
 _atom_site_fract_y
 _atom_site_fract_z
 _atom_site_occupancy
  Hf  Hf0  1  0.50133716  0.50889232  0.49596677  1
  Hf  Hf1  1  0.00166309  -0.01097181  0.60745137  1
  Hf  Hf2  1  0.29504643  0.50015768  0.49325807  1
  Hf  Hf3  1  0.60446574  0.20405311  0.20117107  1
  Hf  Hf4  1  0.50246781  0.50096909  0.89823405  1
  Hf  Hf5  1  0.10050761  0.09345761  0.09355620  1
  Hf  Hf6  1  0.40458072  0.78961296  -0.00296253  1
  Hf  Hf7  1  0.91782118  0.09918926  0.30937363  1
  Hf  Hf8  1  0.19767770  0.00525990  0.21167722  1
  Hf  Hf9  1  0.60601255  -0.00855297  -0.00476395  1
  Hf  Hf10  1  0.70401097  0.50325879  0.49842547  1
  Hf  Hf11  1  0.70688965  0.69797859  0.09031651  1
  Hf  Hf12  1  0.60998272  -0.00611256  0.20084625  1
  Hf  Hf13  1  0.70722845  0.88737976  0.08576492  1
  Hf  Hf14  1  0.18761416  0.19613146  0.80640027  1
  Hf  Hf15  1  0.18911805  0.39771370  0.59644656  1
  Hf  Hf16  1  0.38912044  0.60352306  0.38387886  1
  Hf  Hf17  1  0.69912968  0.91228508  0.52025691  1
  Hf  Hf18  1  0.48671679  0.08601687  0.89981782  1
  Hf  Hf19  1  0.29504554  0.69050562  0.09596909  1
  Hf  Hf20  1  0.60498192  0.19604554  0.80168205  1
  Hf  Hf21  1  0.90995546  0.89861894  0.90853815  1
  Hf  Hf22  1  0.59818089  0.79707816  0.80156029  1
  Hf  Hf23  1  0.19393519  0.59905202  0.59686145  1
  Hf  Hf24  1  0.81016415  0.80765129  0.61257985  1
  Hf  Hf25  1  0.38514253  -0.00159882  0.40368457  1
  Hf  Hf26  1  0.29628061  0.09819292  0.09289528  1
  Hf  Hf27  1  0.89541989  0.30129293  0.91087689  1
  Hf  Hf28  1  0.40446824  0.39514037  0.39759597  1
  Hf  Hf29  1  0.60317398  -0.01065151  0.80123208  1
  Hf  Hf30  1  0.39672531  0.20480157  0.40013725  1
  Hf  Hf31  1  0.50129256  0.30937399  0.90151001  1
  Hf  Hf32  1  0.27969436  0.10962642  0.50518116  1
  Hf  Hf33  1  0.81893447  0.40505510  0.19587265  1
  Hf  Hf34  1  0.49336710  0.09616557  0.10006145  1
  Hf  Hf35  1  0.49877816  0.50229957  0.09732699  1
  Hf  Hf36  1  0.29782229  0.90583551  0.08932531  1
  Hf  Hf37  1  0.39370191  0.19705684  0.79935648  1
  Hf  Hf38  1  0.20106476  0.59398524  0.21059031  1
  Hf  Hf39  1  0.70572083  0.29722549  0.69611409  1
  Hf  Hf40  1  -0.00315134  0.80598318  0.79576385  1
  Hf  Hf41  1  0.50305231  0.30145523  0.70275117  1
  Hf  Hf42  1  0.72129438  0.50623547  0.31048471  1
  Hf  Hf43  1  0.28842328  0.29138194  0.69306929  1
  Hf  Hf44  1  -0.00822515  0.39900426  0.60226337  1
  Hf  Hf45  1  0.60783167  0.20415841  0.39805406  1
  Hf  Hf46  1  0.79620512  0.80758438  0.40106328  1
  Hf  Hf47  1  0.59321887  0.61541877  0.61581595  1
  Hf  Hf48  1  0.39843123  0.40577120  0.20948121  1
  Hf  Hf49  1  0.88933675  0.50333186  0.48808455  1
  Zr  Zr50  1  0.70218110  0.50803294  0.70333987  1
  Zr  Zr51  1  0.60868283  0.40200497  0.20102979  1
  Zr  Zr52  1  0.00565946  0.20029028  0.00034717  1
  Zr  Zr53  1  0.49812229  0.10025569  0.29885402  1
  Zr  Zr54  1  0.08908078  0.90039032  0.08503133  1
  Zr  Zr55  1  0.90763859  0.29988137  0.30472735  1
  Zr  Zr56  1  0.39500885  0.39806319  0.59375821  1
  Zr  Zr57  1  0.71064980  0.30339385  0.90493974  1
  Zr  Zr58  1  0.11253564  0.10578602  0.68447080  1
  Zr  Zr59  1  0.39689316  0.20378419  0.00002939  1
  Zr  Zr60  1  0.90529225  0.90072494  0.30568973  1
  Zr  Zr61  1  0.50005074  0.70605940  0.50044008  1
  Zr  Zr62  1  0.20223635  0.59683365  0.80057434  1
  Zr  Zr63  1  0.08994628  0.50159737  0.91122299  1
  Zr  Zr64  1  0.40047844  0.79571724  0.79860042  1
  Zr  Zr65  1  0.89746665  0.69352856  0.30500792  1
  Zr  Zr66  1  0.70270529  0.70182743  0.50638826  1
  Zr  Zr67  1  0.39694573  0.20322697  0.59140897  1
  Zr  Zr68  1  0.29042736  0.70799595  0.49149470  1
  Zr  Zr69  1  0.71974515  0.09252257  0.89915591  1
  Zr  Zr70  1  0.19436820  0.40460229  0.79447403  1
  Zr  Zr71  1  0.60408089  0.80454717  0.38834217  1
  Zr  Zr72  1  0.50372177  0.90055444  0.50697488  1
  Zr  Zr73  1  0.70951588  0.08879089  0.68914832  1
  Zr  Zr74  1  0.38587907  -0.00213667  0.21329712  1
  Zr  Zr75  1  0.59483719  0.79398921  0.19247469  1
  Zr  Zr76  1  0.29583178  0.30135761  0.10419629  1
  Zr  Zr77  1  0.61718448  -0.00099713  0.39102396  1
  Zr  Zr78  1  0.60197843  0.59942800  0.19510095  1
  Zr  Zr79  1  0.60092601  0.19540313  -0.00040910  1
  Zr  Zr80  1  0.19774920  0.79704798  0.20052792  1
  Zr  Zr81  1  0.01944498  0.00101311  0.80177557  1
  Zr  Zr82  1  0.49717523  0.50432507  0.70903062  1
  Zr  Zr83  1  0.19739381  0.80022767  -0.01046579  1
  Zr  Zr84  1  0.28750535  0.30005146  0.30493362  1
  Zr  Zr85  1  0.89735240  0.49669973  0.91318856  1
  Zr  Zr86  1  0.09052958  0.10045044  0.48854172  1
  Zr  Zr87  1  0.60218345  0.40119973  0.59829002  1
  Zr  Zr88  1  0.19640123  0.80265722  0.59889074  1
  Zr  Zr89  1  0.51126018  0.09126706  0.50523723  1
  Zr  Zr90  1  0.09376446  0.69694046  0.69892374  1
  Zr  Zr91  1  0.09145556  0.90232965  0.30458094  1
  Zr  Zr92  1  0.71733541  0.29906311  0.09201072  1
  Zr  Zr93  1  0.49847402  0.08904396  0.69474023  1
  Zr  Zr94  1  0.79632588  0.60459571  0.81155971  1
  Zr  Zr95  1  0.29503523  0.30940090  0.90349770  1
  Zr  Zr96  1  0.09087308  0.69720091  0.90535235  1
  Zr  Zr97  1  0.09159609  0.31369200  0.90363144  1
  Zr  Zr98  1  0.49378790  0.89856004  0.09533717  1
  Zr  Zr99  1  0.80299915  -0.00582361  0.20259206  1
  Ta  Ta100  1  0.89784587  0.70052884  0.70417786  1
  Ta  Ta101  1  -0.01245361  0.59531493  0.79858958  1
  Ta  Ta102  1  0.80533421  0.40248131  0.79569571  1
  Ta  Ta103  1  0.81312909  0.20115130  0.79591514  1
  Ta  Ta104  1  0.40071946  0.60014610  -0.00336320  1
  Ta  Ta105  1  0.09826503  0.50463366  0.09940110  1
  Ta  Ta106  1  0.09602188  0.70346400  0.30187136  1
  Ta  Ta107  1  0.39538064  0.78902004  0.20504655  1
  Ta  Ta108  1  0.60365227  0.39713027  0.39389876  1
  Ta  Ta109  1  0.90116213  0.70006435  0.50644357  1
  Ta  Ta110  1  0.29967312  0.91039485  0.89305343  1
  Ta  Ta111  1  0.00321500  0.79404412  0.41176929  1
  Ta  Ta112  1  0.09492758  0.29750270  0.49151227  1
  Ta  Ta113  1  0.09342931  0.69011047  0.09618225  1
  Ta  Ta114  1  0.71302137  0.10023440  0.09618762  1
  Ta  Ta115  1  0.29525267  0.50091560  0.09914557  1
  Ta  Ta116  1  0.09242605  0.50068852  0.49596995  1
  Ta  Ta117  1  0.90691287  0.09689776  0.89852165  1
  Ta  Ta118  1  0.39378361  0.80194815  0.39646326  1
  Ta  Ta119  1  0.18885174  0.19712459  0.20597854  1
  Ta  Ta120  1  0.19026676  0.60230278  0.39539831  1
  Ta  Ta121  1  0.08731288  0.50104203  0.69817871  1
  Ta  Ta122  1  0.89851447  0.29763120  0.49660450  1
  Ta  Ta123  1  0.81171881  0.19705319  0.19799640  1
  Ta  Ta124  1  0.71365683  0.30196372  0.30263676  1
  Ta  Ta125  1  0.90410653  0.09649676  0.09481683  1
  Ta  Ta126  1  0.70839243  0.69700115  0.29575705  1
  Ta  Ta127  1  0.29236232  0.08794346  0.89902982  1
  Ta  Ta128  1  -0.00020537  0.59680152  0.20278296  1
  Ta  Ta129  1  0.80120615  0.19454866  0.40322096  1
  Ta  Ta130  1  0.39388490  0.61073167  0.60834893  1
  Ta  Ta131  1  0.39559745  0.80254134  0.60208021  1
  Ta  Ta132  1  0.00132512  0.60181490  0.40127422  1
  Ta  Ta133  1  0.60349763  0.60232683  -0.00595556  1
  Ta  Ta134  1  0.39739963  0.60408778  0.80191355  1
  Ta  Ta135  1  0.71226673  0.30407955  0.49718118  1
  Ta  Ta136  1  0.10339290  0.89859593  0.49353295  1
  Ta  Ta137  1  0.89909888  0.09631823  0.50433344  1
  Ta  Ta138  1  0.49320651  0.89595846  0.29906660  1
  Ta  Ta139  1  0.61336486  0.40678630  0.80583919  1
  Ta  Ta140  1  0.18729119  0.40153044  0.20373589  1
  Ta  Ta141  1  -0.00830695  0.79291008  0.18861709  1
  Ta  Ta142  1  0.90254437  0.09821980  0.69905189  1
  Ta  Ta143  1  -0.00117755  0.20420109  0.79338772  1
  Ta  Ta144  1  0.90419461  0.90394066  0.50109765  1
  Ta  Ta145  1  0.49998102  0.30572289  0.10188757  1
  Ta  Ta146  1  -0.00400332  0.20893883  0.60370652  1
  Ta  Ta147  1  0.80654817  0.79869450  0.19495833  1
  Ta  Ta148  1  0.50532638  0.50376038  0.30266446  1
  Ta  Ta149  1  0.29982633  0.90538231  0.70336082  1
  Ti  Ti150  1  0.49054008  0.90109005  0.90124819  1
  Ti  Ti151  1  -0.00274605  -0.00209188  0.19291282  1
  Ti  Ti152  1  0.19308116  0.40435727  0.39532269  1
  Ti  Ti153  1  0.29708474  0.70459724  0.70342988  1
  Ti  Ti154  1  0.81520530  -0.01356158  0.79149288  1
  Ti  Ti155  1  0.79869536  0.00368677  0.40496450  1
  Ti  Ti156  1  0.19185181  0.81287297  0.79876424  1
  Ti  Ti157  1  0.60964141  0.40701893  -0.00000553  1
  Ti  Ti158  1  0.29440597  0.69504136  0.89901608  1
  Ti  Ti159  1  0.49900501  0.69913457  0.29660609  1
  Ti  Ti160  1  0.60412659  0.60557676  0.39437410  1
  Ti  Ti161  1  0.82284433  0.78667058  0.00026510  1
  Ti  Ti162  1  0.29664234  0.50432911  0.91032944  1
  Ti  Ti163  1  0.50750763  0.69293057  0.89869306  1
  Ti  Ti164  1  0.00559729  0.20239293  0.19497200  1
  Ti  Ti165  1  0.39758401  0.60097004  0.20134567  1
  Ti  Ti166  1  0.28951214  0.88587334  0.31161014  1
  Ti  Ti167  1  0.09384471  0.29204705  0.30802422  1
  Ti  Ti168  1  0.71542489  0.88470921  0.89962197  1
  Ti  Ti169  1  0.09210400  0.49970928  0.30335758  1
  Ti  Ti170  1  0.39230758  0.40472824  0.79990068  1
  Ti  Ti171  1  0.81168656  -0.00513565  0.00422019  1
  Ti  Ti172  1  -0.00256870  0.40479970  0.39778019  1
  Ti  Ti173  1  0.49815182  0.90049764  0.69368824  1
  Ti  Ti174  1  0.00195629  0.80191142  0.60119858  1
  Ti  Ti175  1  0.61097244  0.19523867  0.59203751  1
  Ti  Ti176  1  0.80628957  0.19765739  0.59640549  1
  Ti  Ti177  1  0.19271647  0.20281182  -0.00054440  1
  Ti  Ti178  1  0.29988592  0.50147618  0.69725781  1
  Ti  Ti179  1  0.39819456  0.20563974  0.20834226  1
  Ti  Ti180  1  0.71194864  0.10567454  0.29583089  1
  Ti  Ti181  1  0.70191074  0.70510591  0.90632970  1
  Ti  Ti182  1  0.70272418  0.70794049  0.70903298  1
  Ti  Ti183  1  0.39678358  0.40488082  0.00434786  1
  Ti  Ti184  1  0.51259118  0.30025856  0.49896899  1
  Ti  Ti185  1  -0.00691780  0.59840232  0.59931363  1
  Ti  Ti186  1  0.80555104  0.60349172  0.60760590  1
  Ti  Ti187  1  -0.01307980  0.39753276  0.78500620  1
  Ti  Ti188  1  0.81046644  0.60095403  0.19432654  1
  Ti  Ti189  1  0.90557114  0.51231534  0.09605875  1
  Ti  Ti190  1  0.20109245  -0.01268816  0.59782207  1
  Ti  Ti191  1  0.80937255  0.40080102  0.60697966  1
  Ti  Ti192  1  0.29560292  0.09239357  0.70067904  1
  Ti  Ti193  1  0.71554508  0.50547518  0.08543928  1
  Ti  Ti194  1  0.19926989  0.00478467  0.39407064  1
  Ti  Ti195  1  0.38691786  -0.00678113  0.59546763  1
  Ti  Ti196  1  0.19444311  0.40234633  0.01240221  1
  Ti  Ti197  1  0.70398240  0.89732174  0.70310966  1
  Ti  Ti198  1  -0.00613117  0.39259504  0.02816997  1
  Ti  Ti199  1  0.00500138  0.40054380  0.19929408  1
  Mo  Mo200  1  0.89748021  0.50577356  0.69820395  1
  Mo  Mo201  1  0.71128115  0.10545137  0.50038899  1
  Mo  Mo202  1  0.19312112  0.00053754  -0.01587232  1
  Mo  Mo203  1  0.10121786  0.30445698  0.10985579  1
  Mo  Mo204  1  0.70589936  0.89158168  0.28753597  1
  Mo  Mo205  1  0.39681148  -0.00468338  0.79376935  1
  Mo  Mo206  1  0.89508221  0.29638137  0.69826544  1
  Mo  Mo207  1  0.59561740  0.79469407  -0.01235188  1
  Mo  Mo208  1  0.18946008  0.20272225  0.39427230  1
  Mo  Mo209  1  0.51030515  0.30566304  0.29685536  1
  Mo  Mo210  1  0.81139485  0.18639971  0.00036456  1
  Mo  Mo211  1  -0.00108022  -0.00420890  0.40956018  1
  Mo  Mo212  1  0.69949880  0.50040547  0.90699565  1
  Mo  Mo213  1  0.49173641  0.70403152  0.70432238  1
  Mo  Mo214  1  0.90737706  0.29249456  0.10625558  1
  Mo  Mo215  1  0.28982388  0.11021618  0.30595799  1
  Mo  Mo216  1  0.59761012  0.80489176  0.62107370  1
  Mo  Mo217  1  0.80619227  0.40845308  0.00889596  1
  Mo  Mo218  1  0.80266875  0.60906143  0.40536907  1
  Mo  Mo219  1  -0.00438746  0.60252397  0.00732912  1
  Mo  Mo220  1  0.80073838  0.60428251  0.00138367  1
  Mo  Mo221  1  0.29575963  0.70184886  0.29732264  1
  Mo  Mo222  1  0.09016750  0.69619036  0.49835961  1
  Mo  Mo223  1  0.10224774  0.09934069  0.90116719  1
  Mo  Mo224  1  0.20302494  0.59382155  0.00326877  1
  Mo  Mo225  1  0.90340119  0.69516497  0.09892307  1
  Mo  Mo226  1  0.20427310  0.00063283  0.79301505  1
  Mo  Mo227  1  -0.00495796  0.20028937  0.40674474  1
  Mo  Mo228  1  0.09493535  0.10164345  0.29611388  1
  Mo  Mo229  1  0.90080681  0.70012912  0.90136010  1
  Mo  Mo230  1  0.80009822  0.80013940  0.80461349  1
  Mo  Mo231  1  0.10626389  0.90254308  0.89508536  1
  Mo  Mo232  1  0.19373151  0.79815145  0.39955675  1
  Mo  Mo233  1  0.08931036  0.30313375  0.69922281  1
  Mo  Mo234  1  0.19108153  0.21184890  0.59290349  1
  Mo  Mo235  1  0.91003535  0.50180229  0.29819518  1
  Mo  Mo236  1  0.90368879  0.89989479  0.70225013  1
  Mo  Mo237  1  0.49435150  0.69194776  0.09410469  1
  Mo  Mo238  1  0.60076106  0.60712542  0.80852124  1
  Mo  Mo239  1  0.80178035  0.39330480  0.40072164  1
  Mo  Mo240  1  0.81003408  -0.00094126  0.60431829  1
  Mo  Mo241  1  0.90221593  0.89740254  0.09681836  1
  Mo  Mo242  1  -0.00268320  0.79346534  -0.00012227  1
  Mo  Mo243  1  0.29529499  0.90408046  0.49940886  1
  Mo  Mo244  1  -0.00030708  0.00250905  -0.00394544  1
  Mo  Mo245  1  0.39472184  -0.00505265  -0.00504661  1
  Mo  Mo246  1  0.10844027  0.89634190  0.69532325  1
  Mo  Mo247  1  0.60450480  -0.00261639  0.61006686  1
  Mo  Mo248  1  0.29281301  0.49923265  0.29801272  1
  Mo  Mo249  1  0.27865288  0.30132728  0.49522395  1
