# generated using pymatgen
data_HfZrTaTiMo
_symmetry_space_group_name_H-M   'P 1'
_cell_length_a   16.88431095
_cell_length_b   16.89806960
_cell_length_c   16.88397173
_cell_angle_alpha   90.04698042
_cell_angle_beta   90.02201226
_cell_angle_gamma   89.99220545
_symmetry_Int_Tables_number   1
_chemical_formula_structural   HfZrTaTiMo
_chemical_formula_sum   'Hf50 Zr50 Ta50 Ti50 Mo50'
_cell_volume   4817.20213755
_cell_formula_units_Z   50
loop_
 _symmetry_equiv_pos_site_id
 _symmetry_equiv_pos_as_xyz
  1  'x, y, z'
loop_
 _atom_site_type_symbol
 _atom_site_label
 _atom_site_symmetry_multiplicity
 _atom_site_fract_x
 _atom_site_fract_y
 _atom_site_fract_z
 _atom_site_occupancy
  Hf  Hf0  1  0.09434069  0.10815948  0.69234974  1
  Hf  Hf1  1  0.19586290  0.81046483  0.59018082  1
  Hf  Hf2  1  0.80640624  0.79953920  0.40336439  1
  Hf  Hf3  1  0.30208841  0.30365324  0.49697151  1
  Hf  Hf4  1  0.30273009  0.70364902  0.69308384  1
  Hf  Hf5  1  0.40658092  0.00549923  0.39817712  1
  Hf  Hf6  1  0.38851830  0.58376675  0.79499345  1
  Hf  Hf7  1  0.49460587  0.89494987  0.10858451  1
  Hf  Hf8  1  0.52390676  0.49969611  0.71885697  1
  Hf  Hf9  1  0.80597257  0.20957601  0.39926575  1
  Hf  Hf10  1  0.51460601  0.29672037  0.71130393  1
  Hf  Hf11  1  0.70607123  0.50466853  0.30722058  1
  Hf  Hf12  1  0.30468607  0.90564185  0.89820197  1
  Hf  Hf13  1  0.09328457  0.48774401  0.48897837  1
  Hf  Hf14  1  -0.00258545  0.00287297  0.00556069  1
  Hf  Hf15  1  0.40124203  0.19838859  0.59847497  1
  Hf  Hf16  1  0.69383163  0.91260692  0.90235416  1
  Hf  Hf17  1  0.40627260  0.39790580  0.81188963  1
  Hf  Hf18  1  0.40954869  0.39326237  0.00509393  1
  Hf  Hf19  1  0.20422961  0.00199439  0.00810041  1
  Hf  Hf20  1  0.59499484  0.79855718  0.58550799  1
  Hf  Hf21  1  0.40023996  0.79994942  0.00128860  1
  Hf  Hf22  1  0.79542031  0.00419627  0.40253619  1
  Hf  Hf23  1  0.40049235  0.40748136  0.61196547  1
  Hf  Hf24  1  0.59610492  0.00506566  0.40505430  1
  Hf  Hf25  1  0.20024635  0.40410577  0.60830308  1
  Hf  Hf26  1  0.19436485  0.79869729  0.39849040  1
  Hf  Hf27  1  0.89515875  0.10699025  0.90051644  1
  Hf  Hf28  1  0.58813808  0.59897779  0.41404406  1
  Hf  Hf29  1  0.69808725  0.11039684  0.90818209  1
  Hf  Hf30  1  0.49464735  0.70459607  0.30436695  1
  Hf  Hf31  1  0.31041538  0.88923628  0.29374597  1
  Hf  Hf32  1  0.59897356  0.40712108  0.19164811  1
  Hf  Hf33  1  0.10538295  0.11001861  0.89407566  1
  Hf  Hf34  1  0.51091277  0.11012037  0.69393650  1
  Hf  Hf35  1  0.79107425  0.59858109  -0.00377910  1
  Hf  Hf36  1  0.29679426  0.69831486  0.89874969  1
  Hf  Hf37  1  0.50159789  0.30144011  0.50338852  1
  Hf  Hf38  1  0.90315907  0.70176160  0.10524667  1
  Hf  Hf39  1  0.40790768  0.59004604  0.59319061  1
  Hf  Hf40  1  0.09134838  0.90278449  0.29691524  1
  Hf  Hf41  1  0.69499634  0.11403767  0.29116937  1
  Hf  Hf42  1  0.08189011  0.89938035  0.69653437  1
  Hf  Hf43  1  0.90418515  0.89640881  0.89355860  1
  Hf  Hf44  1  0.19008979  0.58944874  0.79182465  1
  Hf  Hf45  1  0.70177866  0.30235595  0.69581926  1
  Hf  Hf46  1  0.09180243  0.70368576  0.69679965  1
  Hf  Hf47  1  0.19533791  0.60184398  0.20384711  1
  Hf  Hf48  1  0.10250733  0.10534004  0.11358180  1
  Hf  Hf49  1  0.19935141  0.19965377  0.39414397  1
  Zr  Zr50  1  0.71414032  0.69046658  0.49794989  1
  Zr  Zr51  1  -0.00144647  0.20760561  0.00135920  1
  Zr  Zr52  1  0.60304373  0.78348808  -0.00320226  1
  Zr  Zr53  1  0.50734790  0.11097782  0.90347503  1
  Zr  Zr54  1  0.19811860  0.79940247  0.00753005  1
  Zr  Zr55  1  0.19045396  0.59771202  0.39247497  1
  Zr  Zr56  1  0.00022420  0.60429237  -0.00244426  1
  Zr  Zr57  1  0.80184544  0.21220316  0.80225336  1
  Zr  Zr58  1  0.79719364  0.79613270  0.80316899  1
  Zr  Zr59  1  0.79666686  0.78775645  -0.00287697  1
  Zr  Zr60  1  0.89754394  0.69361333  0.30194999  1
  Zr  Zr61  1  0.09270056  0.89972016  0.89338755  1
  Zr  Zr62  1  0.89924866  0.10844883  0.69267740  1
  Zr  Zr63  1  0.60269751  0.00424245  0.79074624  1
  Zr  Zr64  1  0.91226926  0.10867661  0.50246655  1
  Zr  Zr65  1  0.20039002  0.00205110  0.40139767  1
  Zr  Zr66  1  0.88285072  0.11840160  0.10568661  1
  Zr  Zr67  1  0.27968174  0.49140708  0.90953683  1
  Zr  Zr68  1  0.90404937  0.09983802  0.30240681  1
  Zr  Zr69  1  0.79295149  -0.00341547  0.20195922  1
  Zr  Zr70  1  0.90114160  0.69729159  0.69735360  1
  Zr  Zr71  1  0.59983735  0.80317833  0.79898769  1
  Zr  Zr72  1  0.39693129  0.00864468  0.01193898  1
  Zr  Zr73  1  0.80707684  0.80557735  0.59667737  1
  Zr  Zr74  1  0.59456640  0.00426387  0.20086194  1
  Zr  Zr75  1  -0.00253577  0.22014169  0.21157990  1
  Zr  Zr76  1  0.20203981  0.58829829  0.59867770  1
  Zr  Zr77  1  0.50212282  0.69540466  0.69915287  1
  Zr  Zr78  1  0.01262536  0.60350264  0.20418766  1
  Zr  Zr79  1  0.59755324  0.40345791  0.40649817  1
  Zr  Zr80  1  0.30755100  0.70291995  0.49179361  1
  Zr  Zr81  1  -0.00789381  0.58601299  0.59586798  1
  Zr  Zr82  1  0.40072315  0.39126621  0.19850435  1
  Zr  Zr83  1  0.09203625  0.89439210  0.10934622  1
  Zr  Zr84  1  0.40198284  0.59064813  0.19882018  1
  Zr  Zr85  1  0.40165023  0.00392321  0.79131750  1
  Zr  Zr86  1  0.69965762  0.68660434  0.69735102  1
  Zr  Zr87  1  0.40720837  0.58847203  0.00114373  1
  Zr  Zr88  1  0.20387393  0.80518066  0.79162902  1
  Zr  Zr89  1  0.09294878  0.29715406  0.50440095  1
  Zr  Zr90  1  0.69017039  0.89653844  0.10057125  1
  Zr  Zr91  1  0.39522761  0.20528465  0.19726779  1
  Zr  Zr92  1  0.28690106  0.49246030  0.09955644  1
  Zr  Zr93  1  0.50291865  0.68512603  0.89039779  1
  Zr  Zr94  1  0.79960130  -0.00019204  0.00661185  1
  Zr  Zr95  1  0.28889686  0.29611518  0.89932766  1
  Zr  Zr96  1  0.69658847  0.30013361  0.29905529  1
  Zr  Zr97  1  0.69594877  0.69493451  0.30411382  1
  Zr  Zr98  1  0.90546447  0.48993319  0.09810024  1
  Zr  Zr99  1  0.20316398  0.00471500  0.78732668  1
  Ta  Ta100  1  0.30894005  0.90447767  0.49884441  1
  Ta  Ta101  1  0.20297857  0.20305925  0.00960506  1
  Ta  Ta102  1  0.09971962  0.30608166  0.10218997  1
  Ta  Ta103  1  0.90141891  0.30420392  0.50886665  1
  Ta  Ta104  1  0.29511949  0.29309808  0.70700298  1
  Ta  Ta105  1  0.60559296  0.58879338  0.00580565  1
  Ta  Ta106  1  0.40525443  0.81033071  0.79306032  1
  Ta  Ta107  1  0.60090654  0.00574536  0.58952679  1
  Ta  Ta108  1  0.79824132  0.00157707  0.78875982  1
  Ta  Ta109  1  0.09859123  0.09789248  0.29917785  1
  Ta  Ta110  1  0.90210028  0.89720460  0.29946592  1
  Ta  Ta111  1  0.20067887  0.19678216  0.59771371  1
  Ta  Ta112  1  0.30628954  0.70131369  0.29938180  1
  Ta  Ta113  1  0.19957492  0.38552538  0.20752739  1
  Ta  Ta114  1  0.50194463  0.69568569  0.10673331  1
  Ta  Ta115  1  0.69845363  0.90201044  0.49752049  1
  Ta  Ta116  1  0.40867503  0.80768493  0.59250308  1
  Ta  Ta117  1  0.60670499  0.40758008  0.59854544  1
  Ta  Ta118  1  0.70767959  0.30208652  0.50935400  1
  Ta  Ta119  1  0.50155648  0.11224558  0.29704085  1
  Ta  Ta120  1  0.90120226  0.49642690  0.30023761  1
  Ta  Ta121  1  0.49507470  0.49658124  0.30496822  1
  Ta  Ta122  1  0.79387269  0.79508127  0.20121628  1
  Ta  Ta123  1  0.09395352  0.70018393  0.89311039  1
  Ta  Ta124  1  0.69208482  0.88962552  0.30704980  1
  Ta  Ta125  1  0.60251047  0.58835606  0.59391638  1
  Ta  Ta126  1  0.39709139  0.20610838  0.00393395  1
  Ta  Ta127  1  0.80163794  0.40379128  0.79950707  1
  Ta  Ta128  1  0.09322262  0.49034311  0.90689771  1
  Ta  Ta129  1  -0.00355614  0.39890832  0.79782918  1
  Ta  Ta130  1  0.00022251  0.79540549  0.40210685  1
  Ta  Ta131  1  0.79273203  0.59340128  0.19131439  1
  Ta  Ta132  1  0.69973900  0.90598733  0.68911401  1
  Ta  Ta133  1  0.50141649  0.88994038  0.30379131  1
  Ta  Ta134  1  0.80460840  0.59012118  0.80131245  1
  Ta  Ta135  1  0.71552538  0.49852894  0.50262876  1
  Ta  Ta136  1  0.90569199  0.90909592  0.49432389  1
  Ta  Ta137  1  0.30353139  0.70479234  0.10846305  1
  Ta  Ta138  1  0.09896469  0.48676532  0.09767432  1
  Ta  Ta139  1  0.30189588  0.09910744  0.50265679  1
  Ta  Ta140  1  0.39834563  0.20018434  0.39680774  1
  Ta  Ta141  1  0.90254055  0.88844150  0.10833276  1
  Ta  Ta142  1  0.80310046  0.39870514  0.20234945  1
  Ta  Ta143  1  -0.00388785  0.59121942  0.80108408  1
  Ta  Ta144  1  -0.00052937  0.21415642  0.79959267  1
  Ta  Ta145  1  0.90003274  0.49280579  0.90151651  1
  Ta  Ta146  1  0.70279007  0.29747231  0.09675987  1
  Ta  Ta147  1  0.30192020  0.49107850  0.30649750  1
  Ta  Ta148  1  0.10090779  0.30510308  0.90069261  1
  Ta  Ta149  1  0.79616996  0.00371243  0.59692651  1
  Ti  Ti150  1  0.70073979  0.11356825  0.50986551  1
  Ti  Ti151  1  0.50389469  0.91020676  0.90756176  1
  Ti  Ti152  1  0.30776405  0.90592495  0.68523569  1
  Ti  Ti153  1  0.09036102  0.91058687  0.49395119  1
  Ti  Ti154  1  -0.00209052  0.40341341  0.61102039  1
  Ti  Ti155  1  0.20007519  0.39053727  0.38943006  1
  Ti  Ti156  1  0.89934917  0.31033385  0.90993195  1
  Ti  Ti157  1  0.40282319  0.59311209  0.40383807  1
  Ti  Ti158  1  -0.00328577  0.59844858  0.40008654  1
  Ti  Ti159  1  0.68749123  0.29972674  0.90232713  1
  Ti  Ti160  1  0.29471568  0.10691745  0.10902418  1
  Ti  Ti161  1  0.19752627  0.00542282  0.59204353  1
  Ti  Ti162  1  0.10128107  0.29603158  0.70299722  1
  Ti  Ti163  1  0.41115691  0.00317363  0.58926945  1
  Ti  Ti164  1  0.19188083  0.40176517  0.79272810  1
  Ti  Ti165  1  0.50376258  0.90489019  0.68936227  1
  Ti  Ti166  1  0.78926479  0.40235470  -0.00071779  1
  Ti  Ti167  1  0.51422443  0.29091690  0.09540227  1
  Ti  Ti168  1  0.90063955  0.29973658  0.69222654  1
  Ti  Ti169  1  0.00058759  0.00398147  0.59189064  1
  Ti  Ti170  1  0.00495159  0.20437211  0.39842377  1
  Ti  Ti171  1  0.60238479  0.59305690  0.19141552  1
  Ti  Ti172  1  -0.00705517  0.79874052  0.58388651  1
  Ti  Ti173  1  0.29649612  0.10820605  0.89669275  1
  Ti  Ti174  1  0.69451129  0.49463030  0.89201529  1
  Ti  Ti175  1  -0.00878033  0.00151317  0.19881105  1
  Ti  Ti176  1  0.20826235  -0.00438341  0.19937854  1
  Ti  Ti177  1  0.00022297  0.79172459  -0.00323783  1
  Ti  Ti178  1  0.69131629  0.12019671  0.09641915  1
  Ti  Ti179  1  0.69961635  0.11183550  0.69290991  1
  Ti  Ti180  1  0.59535345  0.19789895  0.40994055  1
  Ti  Ti181  1  -0.00707978  0.38813464  0.38767451  1
  Ti  Ti182  1  0.80964860  0.41130328  0.60573374  1
  Ti  Ti183  1  0.90203985  0.90323894  0.69738931  1
  Ti  Ti184  1  0.29823574  0.10272170  0.29457929  1
  Ti  Ti185  1  0.19564699  0.79104500  0.20066362  1
  Ti  Ti186  1  0.50074692  0.29785393  0.30447641  1
  Ti  Ti187  1  0.89495030  0.30768974  0.09989218  1
  Ti  Ti188  1  0.30447178  0.48919802  0.48717543  1
  Ti  Ti189  1  0.09392296  0.69552741  0.49832134  1
  Ti  Ti190  1  0.60212933  0.79093649  0.20018750  1
  Ti  Ti191  1  0.39956974  0.00371324  0.20105975  1
  Ti  Ti192  1  -0.00724435  0.00928992  0.79702674  1
  Ti  Ti193  1  0.59697745  0.40481801  -0.00159173  1
  Ti  Ti194  1  0.40134716  0.20365368  0.80515627  1
  Ti  Ti195  1  0.50890808  0.10773742  0.09977273  1
  Ti  Ti196  1  0.29874942  0.10678895  0.69703362  1
  Ti  Ti197  1  0.80960963  0.40018188  0.40243094  1
  Ti  Ti198  1  0.09464519  0.48301014  0.29477483  1
  Ti  Ti199  1  0.18781790  0.60963163  0.00887345  1
  Mo  Mo200  1  0.90361080  0.48882208  0.49211046  1
  Mo  Mo201  1  0.50676446  0.29702609  0.90576315  1
  Mo  Mo202  1  0.09344247  0.49189807  0.70773153  1
  Mo  Mo203  1  0.59516366  0.01251975  0.00817696  1
  Mo  Mo204  1  0.70952229  0.49598266  0.69681581  1
  Mo  Mo205  1  0.89919371  0.49258162  0.70568926  1
  Mo  Mo206  1  0.89684634  0.30706837  0.30507649  1
  Mo  Mo207  1  0.40008173  0.39786022  0.39544199  1
  Mo  Mo208  1  0.90442305  0.69269945  0.89500356  1
  Mo  Mo209  1  0.40184816  0.79416099  0.19966035  1
  Mo  Mo210  1  0.50866884  0.49902441  0.10079929  1
  Mo  Mo211  1  0.80406850  0.58388159  0.60072906  1
  Mo  Mo212  1  0.61747969  0.59471198  0.80745743  1
  Mo  Mo213  1  0.70168680  0.68400615  0.89663296  1
  Mo  Mo214  1  0.51630752  0.49240700  0.90415784  1
  Mo  Mo215  1  0.29989757  0.90027451  0.11393524  1
  Mo  Mo216  1  0.80274414  0.20573546  0.59595710  1
  Mo  Mo217  1  0.19072448  0.39046915  0.00661001  1
  Mo  Mo218  1  0.19881589  0.19945439  0.20346775  1
  Mo  Mo219  1  0.09972534  0.30036060  0.30249576  1
  Mo  Mo220  1  0.00206200  -0.00184727  0.39803980  1
  Mo  Mo221  1  0.70337477  0.49154547  0.09820957  1
  Mo  Mo222  1  0.60670951  0.20471493  0.80160172  1
  Mo  Mo223  1  0.09897893  0.70756213  0.30357940  1
  Mo  Mo224  1  0.81688968  0.58932204  0.40547409  1
  Mo  Mo225  1  -0.00197337  0.39643409  -0.00360168  1
  Mo  Mo226  1  0.61174418  0.39801721  0.80874271  1
  Mo  Mo227  1  0.49688778  0.69969916  0.49833388  1
  Mo  Mo228  1  0.79686353  0.21396094  0.19791468  1
  Mo  Mo229  1  0.10406643  0.09949908  0.50007543  1
  Mo  Mo230  1  0.49807819  0.49558967  0.50171821  1
  Mo  Mo231  1  0.29584527  0.48715962  0.70611078  1
  Mo  Mo232  1  -0.00464546  0.79840679  0.20769003  1
  Mo  Mo233  1  0.40351844  0.80327106  0.40297270  1
  Mo  Mo234  1  0.00064528  0.40122962  0.20115079  1
  Mo  Mo235  1  0.50125614  0.90351225  0.49746016  1
  Mo  Mo236  1  0.59807837  0.20874279  0.00044582  1
  Mo  Mo237  1  0.59478013  0.20770080  0.19567593  1
  Mo  Mo238  1  0.29828525  0.29932495  0.30379193  1
  Mo  Mo239  1  0.60642251  0.20285787  0.59399639  1
  Mo  Mo240  1  0.90895396  0.69499405  0.49690796  1
  Mo  Mo241  1  0.10370167  0.70283307  0.09966143  1
  Mo  Mo242  1  0.59757338  0.80216254  0.40265152  1
  Mo  Mo243  1  0.69496190  0.69044051  0.10746553  1
  Mo  Mo244  1  0.79552514  0.21819543  0.00060165  1
  Mo  Mo245  1  -0.00611102  0.79168473  0.80140264  1
  Mo  Mo246  1  0.19708923  0.20369435  0.79346914  1
  Mo  Mo247  1  0.00361670  0.21153519  0.60407932  1
  Mo  Mo248  1  0.29082360  0.29458435  0.10123838  1
  Mo  Mo249  1  0.49966435  0.10634660  0.49544967  1
