# generated using pymatgen
data_HfZrTaTiMo
_symmetry_space_group_name_H-M   'P 1'
_cell_length_a   16.88687419
_cell_length_b   16.88296534
_cell_length_c   16.89198023
_cell_angle_alpha   89.99951051
_cell_angle_beta   89.99007485
_cell_angle_gamma   89.94942603
_symmetry_Int_Tables_number   1
_chemical_formula_structural   HfZrTaTiMo
_chemical_formula_sum   'Hf50 Zr50 Ta50 Ti50 Mo50'
_cell_volume   4815.91025878
_cell_formula_units_Z   50
loop_
 _symmetry_equiv_pos_site_id
 _symmetry_equiv_pos_as_xyz
  1  'x, y, z'
loop_
 _atom_site_type_symbol
 _atom_site_label
 _atom_site_symmetry_multiplicity
 _atom_site_fract_x
 _atom_site_fract_y
 _atom_site_fract_z
 _atom_site_occupancy
  Hf  Hf0  1  0.90450186  0.29472141  0.29296029  1
  Hf  Hf1  1  0.30162040  0.30128353  0.70560570  1
  Hf  Hf2  1  0.50145508  0.70190394  0.69874222  1
  Hf  Hf3  1  0.89917160  0.29081414  0.10628085  1
  Hf  Hf4  1  0.39195018  0.19049345  0.21034432  1
  Hf  Hf5  1  0.31158208  0.90137245  0.30396384  1
  Hf  Hf6  1  0.20689807  0.19735998  0.37912371  1
  Hf  Hf7  1  0.09758447  0.90777710  0.90414241  1
  Hf  Hf8  1  0.40665917  0.40507970  0.00063515  1
  Hf  Hf9  1  0.70628256  0.90922783  0.29068797  1
  Hf  Hf10  1  0.69961591  0.29486281  0.10552931  1
  Hf  Hf11  1  0.30958022  0.89382881  0.10770721  1
  Hf  Hf12  1  0.09618422  0.30095264  0.48984251  1
  Hf  Hf13  1  0.39604797  0.39992232  0.20865040  1
  Hf  Hf14  1  -0.00470960  0.80654082  0.00735825  1
  Hf  Hf15  1  0.30297907  0.29817007  0.90089354  1
  Hf  Hf16  1  0.30000408  0.51007330  0.10787665  1
  Hf  Hf17  1  0.20207819  0.60551911  0.80557209  1
  Hf  Hf18  1  0.19685023  0.40516108  0.59778767  1
  Hf  Hf19  1  0.39277501  0.40033853  0.40328565  1
  Hf  Hf20  1  0.50309419  0.90086398  0.09815837  1
  Hf  Hf21  1  0.89819542  0.69490547  0.10321502  1
  Hf  Hf22  1  0.29700853  0.29902537  0.09969205  1
  Hf  Hf23  1  0.30280101  0.49761419  0.89662180  1
  Hf  Hf24  1  0.00298541  0.39929957  0.60583866  1
  Hf  Hf25  1  0.39963241  0.18080825  0.00475974  1
  Hf  Hf26  1  0.59353455  0.19114715  0.20495126  1
  Hf  Hf27  1  0.89772194  0.91127813  0.90140851  1
  Hf  Hf28  1  0.09150463  0.69690505  0.90719247  1
  Hf  Hf29  1  0.60362788  0.80232118  0.19939838  1
  Hf  Hf30  1  0.00322140  0.79912229  0.20306723  1
  Hf  Hf31  1  0.59632759  0.60799131  0.20953285  1
  Hf  Hf32  1  0.59852346  0.39890794  -0.00137189  1
  Hf  Hf33  1  0.10033178  0.09989307  0.70106764  1
  Hf  Hf34  1  0.79742799  0.80998005  0.60069039  1
  Hf  Hf35  1  0.71656316  0.48552512  0.69719120  1
  Hf  Hf36  1  0.09755823  0.70321667  0.69793348  1
  Hf  Hf37  1  0.59844446  0.59929636  0.59947792  1
  Hf  Hf38  1  0.19037464  0.79561262  0.20315121  1
  Hf  Hf39  1  -0.00319216  0.39569949  -0.00463836  1
  Hf  Hf40  1  0.50035301  0.29339207  0.10064682  1
  Hf  Hf41  1  0.89109656  0.09553628  0.27426544  1
  Hf  Hf42  1  0.09692837  0.70114482  0.50132393  1
  Hf  Hf43  1  0.00049968  0.59316820  0.39062671  1
  Hf  Hf44  1  0.69659596  0.90675437  0.89621303  1
  Hf  Hf45  1  0.70033542  0.49637743  0.30259854  1
  Hf  Hf46  1  0.20461120  0.79389562  0.39623364  1
  Hf  Hf47  1  0.50266647  0.90112230  0.70235220  1
  Hf  Hf48  1  -0.00260026  0.80578542  0.79711646  1
  Hf  Hf49  1  0.89503508  0.30325601  0.71032362  1
  Zr  Zr50  1  0.79995040  0.00716405  0.59892129  1
  Zr  Zr51  1  0.90059227  0.69939199  0.50629356  1
  Zr  Zr52  1  0.49506353  0.69444050  0.09767423  1
  Zr  Zr53  1  0.30303517  0.10337907  0.49926213  1
  Zr  Zr54  1  0.20412758  0.59178963  0.40135017  1
  Zr  Zr55  1  0.50349961  0.08865282  0.70234358  1
  Zr  Zr56  1  0.30063653  0.10359221  0.69994888  1
  Zr  Zr57  1  0.20454987  0.59024912  0.59048634  1
  Zr  Zr58  1  0.30396430  0.29139130  0.50281493  1
  Zr  Zr59  1  0.68773399  0.50833517  0.89092858  1
  Zr  Zr60  1  0.68581346  0.09813964  0.50225553  1
  Zr  Zr61  1  0.70552010  0.70050756  0.09896396  1
  Zr  Zr62  1  0.70139987  0.69713154  0.50168608  1
  Zr  Zr63  1  0.51319038  0.68959929  0.89821798  1
  Zr  Zr64  1  0.20672405  0.80646369  0.59469365  1
  Zr  Zr65  1  -0.00187183  0.58757694  0.60275775  1
  Zr  Zr66  1  0.50056800  0.91093003  0.48990750  1
  Zr  Zr67  1  0.30567882  0.69815498  0.69165630  1
  Zr  Zr68  1  0.20899187  0.00424640  0.00693850  1
  Zr  Zr69  1  0.58830732  0.39279030  0.60303397  1
  Zr  Zr70  1  0.80647910  0.80721292  0.39972064  1
  Zr  Zr71  1  0.79653891  0.19686894  -0.00711801  1
  Zr  Zr72  1  0.49586100  0.50411706  0.71744174  1
  Zr  Zr73  1  0.20535382  0.79644279  0.00126804  1
  Zr  Zr74  1  0.20404812  0.01036392  0.20028265  1
  Zr  Zr75  1  0.10234139  0.90876266  0.49818757  1
  Zr  Zr76  1  0.49746614  0.50414535  0.30335236  1
  Zr  Zr77  1  0.80358134  0.19289441  0.40339262  1
  Zr  Zr78  1  0.20314574  0.40519743  0.39413991  1
  Zr  Zr79  1  -0.00063218  0.19188067  0.39740568  1
  Zr  Zr80  1  0.50457614  0.11140164  0.49090636  1
  Zr  Zr81  1  0.70405719  0.49436493  0.49943728  1
  Zr  Zr82  1  0.00067821  0.79992515  0.39257171  1
  Zr  Zr83  1  0.80911940  0.59426244  0.39332235  1
  Zr  Zr84  1  0.30546386  0.90563695  0.69892466  1
  Zr  Zr85  1  0.90234775  0.10580341  0.89369106  1
  Zr  Zr86  1  0.31021427  0.69380509  0.29109600  1
  Zr  Zr87  1  0.69987822  0.50578004  0.10242491  1
  Zr  Zr88  1  -0.00398821  0.19720802  0.59869326  1
  Zr  Zr89  1  0.60149139  0.21073377  0.62261647  1
  Zr  Zr90  1  0.80766252  0.60334615  0.79595094  1
  Zr  Zr91  1  0.59587036  0.79326933  0.38949872  1
  Zr  Zr92  1  0.19091486  0.40053576  -0.00132498  1
  Zr  Zr93  1  0.60458340  0.37794724  0.79615468  1
  Zr  Zr94  1  0.09442807  0.09928754  0.89907683  1
  Zr  Zr95  1  0.69934854  0.30156078  0.49851482  1
  Zr  Zr96  1  0.80632538  0.60077436  -0.00978813  1
  Zr  Zr97  1  0.80175440  0.39465271  -0.00977590  1
  Zr  Zr98  1  0.39060717  0.79890270  0.81319422  1
  Zr  Zr99  1  -0.01140646  0.00436166  0.40710971  1
  Ta  Ta100  1  0.80220854  0.00181308  0.40401943  1
  Ta  Ta101  1  0.19235189  0.20704595  0.80582694  1
  Ta  Ta102  1  0.70067020  0.70300258  0.70091406  1
  Ta  Ta103  1  0.49894409  0.29175655  0.90160429  1
  Ta  Ta104  1  0.79776098  0.20087774  0.60715650  1
  Ta  Ta105  1  0.20210969  0.80381985  0.80832494  1
  Ta  Ta106  1  0.40518398  0.19470057  0.80679352  1
  Ta  Ta107  1  -0.00805286  0.81686640  0.60166649  1
  Ta  Ta108  1  0.40081257  0.00038116  0.59197000  1
  Ta  Ta109  1  0.19382071  0.19678474  0.00469413  1
  Ta  Ta110  1  -0.00449333  0.59565192  0.79913927  1
  Ta  Ta111  1  0.60326907  0.00462155  0.00353104  1
  Ta  Ta112  1  0.60650216  0.19310244  0.80710795  1
  Ta  Ta113  1  0.60450557  0.80404637  -0.00174158  1
  Ta  Ta114  1  0.20364580  0.00222842  0.59626953  1
  Ta  Ta115  1  0.09220828  0.50365009  0.10249251  1
  Ta  Ta116  1  0.30417302  0.49289902  0.70610125  1
  Ta  Ta117  1  0.49879735  0.29149239  0.31131686  1
  Ta  Ta118  1  0.09342985  0.49653611  0.29224062  1
  Ta  Ta119  1  0.40192312  -0.00074205  -0.00066740  1
  Ta  Ta120  1  0.09683267  0.29971154  0.10352599  1
  Ta  Ta121  1  0.89626979  0.90681452  0.28846325  1
  Ta  Ta122  1  0.19764367  0.39774366  0.20435403  1
  Ta  Ta123  1  0.90323835  0.50451317  0.10753782  1
  Ta  Ta124  1  0.19856991  0.19839538  0.19642883  1
  Ta  Ta125  1  0.50478489  0.90302411  0.89978103  1
  Ta  Ta126  1  0.89888807  0.70629026  0.69982352  1
  Ta  Ta127  1  0.79670139  0.80892266  -0.00010578  1
  Ta  Ta128  1  0.19081911  0.39541604  0.80321072  1
  Ta  Ta129  1  0.89218708  0.90734423  0.70445891  1
  Ta  Ta130  1  0.80035341  0.40006933  0.20404140  1
  Ta  Ta131  1  0.40509801  0.39885130  0.60187188  1
  Ta  Ta132  1  0.89653365  0.10567996  0.70738768  1
  Ta  Ta133  1  0.09164213  0.68528483  0.10136903  1
  Ta  Ta134  1  0.40676596  0.01177660  0.19478591  1
  Ta  Ta135  1  0.10185341  0.49777296  0.71224693  1
  Ta  Ta136  1  0.79840726  0.80219643  0.80090640  1
  Ta  Ta137  1  0.68884479  0.90948637  0.49689659  1
  Ta  Ta138  1  0.89091988  0.90853311  0.10879223  1
  Ta  Ta139  1  0.69264808  0.90719755  0.70069367  1
  Ta  Ta140  1  0.80959719  0.39597215  0.39374858  1
  Ta  Ta141  1  0.19902684  0.60097366  0.00301844  1
  Ta  Ta142  1  0.39950488  0.80107504  -0.00518547  1
  Ta  Ta143  1  0.70355017  0.09791563  0.10766076  1
  Ta  Ta144  1  -0.00176473  0.00046481  0.78948001  1
  Ta  Ta145  1  0.79534243  0.00341057  0.00552808  1
  Ta  Ta146  1  0.00414025  0.39409239  0.80623245  1
  Ta  Ta147  1  0.59657559  0.39560358  0.20516466  1
  Ta  Ta148  1  0.60047083  0.80301853  0.59738020  1
  Ta  Ta149  1  0.39557694  0.59878676  0.40567684  1
  Ti  Ti150  1  0.69816188  0.09686389  0.30021699  1
  Ti  Ti151  1  0.20341973  0.00568918  0.39685736  1
  Ti  Ti152  1  0.30341735  0.69656733  0.10335565  1
  Ti  Ti153  1  0.29509234  0.09924123  0.89738216  1
  Ti  Ti154  1  -0.00215643  0.40342043  0.19974688  1
  Ti  Ti155  1  0.09437572  0.09292642  0.29336593  1
  Ti  Ti156  1  0.60346643  0.19117672  -0.00464447  1
  Ti  Ti157  1  0.39273882  0.60586430  0.80612288  1
  Ti  Ti158  1  0.78459476  0.20734730  0.80440551  1
  Ti  Ti159  1  0.39542384  0.60399396  -0.00446526  1
  Ti  Ti160  1  0.50101129  0.49787631  0.49685729  1
  Ti  Ti161  1  0.20295374  -0.00436123  0.80025868  1
  Ti  Ti162  1  0.30844920  0.90506423  0.48915422  1
  Ti  Ti163  1  0.09409692  0.91002854  0.10598635  1
  Ti  Ti164  1  0.41391170  0.20982166  0.60396241  1
  Ti  Ti165  1  0.49932566  0.90804516  0.30239084  1
  Ti  Ti166  1  0.40088615  0.80203799  0.58483228  1
  Ti  Ti167  1  0.89625313  0.69506725  0.28452986  1
  Ti  Ti168  1  0.09417002  0.50608483  0.90298516  1
  Ti  Ti169  1  0.39974538  0.59305206  0.59181601  1
  Ti  Ti170  1  0.39639803  -0.00098775  0.81257725  1
  Ti  Ti171  1  0.40195567  0.01998165  0.38627033  1
  Ti  Ti172  1  0.79020481  0.01149442  0.79911462  1
  Ti  Ti173  1  0.00200970  0.20386140  -0.00229500  1
  Ti  Ti174  1  0.41432236  0.79509127  0.20856919  1
  Ti  Ti175  1  0.90318139  0.70441587  0.90094608  1
  Ti  Ti176  1  0.09646202  0.91150843  0.29886486  1
  Ti  Ti177  1  0.69868071  0.29600845  0.30064802  1
  Ti  Ti178  1  0.59584926  0.60658437  0.40008205  1
  Ti  Ti179  1  0.19244771  0.59888864  0.20503200  1
  Ti  Ti180  1  0.60634009  0.79938655  0.79838990  1
  Ti  Ti181  1  0.59608674  0.00423112  0.19775360  1
  Ti  Ti182  1  0.81023845  0.59229250  0.60479857  1
  Ti  Ti183  1  0.50802357  0.09141185  0.89929093  1
  Ti  Ti184  1  -0.00671635  0.01347631  0.01853468  1
  Ti  Ti185  1  0.69777958  0.70062715  0.89845821  1
  Ti  Ti186  1  0.90342117  0.49547114  0.89280484  1
  Ti  Ti187  1  -0.00632969  0.00138832  0.60063338  1
  Ti  Ti188  1  0.10173401  0.90535598  0.69872112  1
  Ti  Ti189  1  0.49288738  0.70242412  0.49498838  1
  Ti  Ti190  1  0.59583078  0.39163608  0.39953146  1
  Ti  Ti191  1  0.90142308  0.48624423  0.49749355  1
  Ti  Ti192  1  0.71784197  0.70064279  0.29084469  1
  Ti  Ti193  1  0.10526822  0.09995485  0.50219519  1
  Ti  Ti194  1  0.00970268  0.18660203  0.18729789  1
  Ti  Ti195  1  0.50227134  0.50449291  0.89589122  1
  Ti  Ti196  1  0.89912855  0.30338196  0.49987001  1
  Ti  Ti197  1  0.09383331  0.30186825  0.29253152  1
  Ti  Ti198  1  0.50214469  0.50853516  0.10061566  1
  Ti  Ti199  1  0.19216780  0.20521789  0.60515168  1
  Mo  Mo200  1  0.40087889  0.39534209  0.80562419  1
  Mo  Mo201  1  0.89679325  0.10228891  0.51292610  1
  Mo  Mo202  1  0.29809407  0.29821831  0.29533717  1
  Mo  Mo203  1  0.50425082  0.09618158  0.30096261  1
  Mo  Mo204  1  0.69600178  0.09816126  0.90285968  1
  Mo  Mo205  1  0.29967462  0.09986943  0.09834878  1
  Mo  Mo206  1  0.10087102  0.30005838  0.70748392  1
  Mo  Mo207  1  0.70220185  0.10054897  0.70880660  1
  Mo  Mo208  1  0.50665764  0.09461282  0.09713130  1
  Mo  Mo209  1  0.00493032  0.20236608  0.79928525  1
  Mo  Mo210  1  0.59861147  -0.00501766  0.60776721  1
  Mo  Mo211  1  0.59768218  0.60035941  -0.00218053  1
  Mo  Mo212  1  0.09685551  0.29466228  0.90429763  1
  Mo  Mo213  1  0.29722387  0.69712816  0.91048932  1
  Mo  Mo214  1  0.79354904  0.00323484  0.19349795  1
  Mo  Mo215  1  0.31462278  0.49823268  0.51106263  1
  Mo  Mo216  1  0.60155843  0.00083647  0.80631905  1
  Mo  Mo217  1  0.60820245  0.60610920  0.79232493  1
  Mo  Mo218  1  0.00035728  0.59709515  0.20114629  1
  Mo  Mo219  1  0.69422005  0.29345383  0.90122127  1
  Mo  Mo220  1  0.80403846  0.80501640  0.19673896  1
  Mo  Mo221  1  0.90523608  0.49531078  0.70780415  1
  Mo  Mo222  1  0.30039220  0.09716454  0.29889212  1
  Mo  Mo223  1  0.40184790  0.79438955  0.40109065  1
  Mo  Mo224  1  0.80342519  0.59358853  0.20367995  1
  Mo  Mo225  1  0.80678191  0.39271125  0.80901209  1
  Mo  Mo226  1  0.89872707  0.10193921  0.09568396  1
  Mo  Mo227  1  0.00275248  -0.00149083  0.19552225  1
  Mo  Mo228  1  0.60272050  0.20224661  0.38949686  1
  Mo  Mo229  1  0.49992667  0.30068082  0.49165634  1
  Mo  Mo230  1  0.09784769  0.10640435  0.09692068  1
  Mo  Mo231  1  0.39996892  0.59752470  0.19976269  1
  Mo  Mo232  1  0.29434165  0.50131128  0.29418373  1
  Mo  Mo233  1  0.08545479  0.49043134  0.48901137  1
  Mo  Mo234  1  0.60258466  0.00420898  0.38355083  1
  Mo  Mo235  1  0.89545308  0.90817227  0.50218486  1
  Mo  Mo236  1  0.78844663  0.20144770  0.20059010  1
  Mo  Mo237  1  0.71555795  0.29743130  0.70250263  1
  Mo  Mo238  1  0.10103930  0.69070789  0.29321591  1
  Mo  Mo239  1  0.49454698  0.69996018  0.30619814  1
  Mo  Mo240  1  0.30434527  0.90418440  0.90187922  1
  Mo  Mo241  1  0.31390051  0.70055415  0.49717424  1
  Mo  Mo242  1  0.69882264  0.90462885  0.09592310  1
  Mo  Mo243  1  0.90136157  0.48921438  0.29254174  1
  Mo  Mo244  1  0.48130831  0.29505342  0.71517502  1
  Mo  Mo245  1  0.40261586  0.20381203  0.39687103  1
  Mo  Mo246  1  -0.00069550  0.59225590  -0.00418854  1
  Mo  Mo247  1  0.81287828  0.39524800  0.59180711  1
  Mo  Mo248  1  -0.00205804  0.40002014  0.39482228  1
  Mo  Mo249  1  0.90257049  0.29734129  0.89439646  1
