# generated using pymatgen
data_HfZrTaTiMo
_symmetry_space_group_name_H-M   'P 1'
_cell_length_a   16.89455085
_cell_length_b   16.88821730
_cell_length_c   16.89343773
_cell_angle_alpha   89.99774199
_cell_angle_beta   89.97420475
_cell_angle_gamma   90.03587596
_symmetry_Int_Tables_number   1
_chemical_formula_structural   HfZrTaTiMo
_chemical_formula_sum   'Hf50 Zr50 Ta50 Ti50 Mo50'
_cell_volume   4820.01472187
_cell_formula_units_Z   50
loop_
 _symmetry_equiv_pos_site_id
 _symmetry_equiv_pos_as_xyz
  1  'x, y, z'
loop_
 _atom_site_type_symbol
 _atom_site_label
 _atom_site_symmetry_multiplicity
 _atom_site_fract_x
 _atom_site_fract_y
 _atom_site_fract_z
 _atom_site_occupancy
  Hf  Hf0  1  0.19688084  0.39126330  0.18701472  1
  Hf  Hf1  1  0.00935021  0.00250785  -0.00004511  1
  Hf  Hf2  1  0.50121873  0.30879703  0.69889390  1
  Hf  Hf3  1  0.10157634  0.50373833  0.89929047  1
  Hf  Hf4  1  0.40579461  -0.01579192  0.79488048  1
  Hf  Hf5  1  0.91349156  0.09876043  0.30401108  1
  Hf  Hf6  1  -0.00219868  0.58605143  0.40239498  1
  Hf  Hf7  1  0.90151052  0.89987938  0.09740699  1
  Hf  Hf8  1  0.09923313  0.11411209  0.89939797  1
  Hf  Hf9  1  0.39520603  0.59708282  0.79575636  1
  Hf  Hf10  1  0.91077112  0.69570485  0.89953947  1
  Hf  Hf11  1  0.90011431  0.69625653  0.29832350  1
  Hf  Hf12  1  0.29843882  0.90688318  0.50516563  1
  Hf  Hf13  1  0.40885575  0.80025556  0.60822711  1
  Hf  Hf14  1  0.89439787  0.30200599  0.69416212  1
  Hf  Hf15  1  0.10128264  0.09577523  0.49974103  1
  Hf  Hf16  1  0.91739394  0.10871587  0.09936243  1
  Hf  Hf17  1  0.70682966  0.90065084  0.09516101  1
  Hf  Hf18  1  0.09364429  0.90399847  0.69619202  1
  Hf  Hf19  1  0.10040626  0.69576188  0.29535065  1
  Hf  Hf20  1  0.19812219  0.20035662  0.18880043  1
  Hf  Hf21  1  0.89019929  0.48881740  0.29128459  1
  Hf  Hf22  1  0.20054485  -0.00000650  0.00514347  1
  Hf  Hf23  1  0.51007535  0.30202311  0.51275704  1
  Hf  Hf24  1  0.50936280  0.69512574  0.89682774  1
  Hf  Hf25  1  0.49649225  0.29496798  0.29438389  1
  Hf  Hf26  1  0.62463564  0.01094117  -0.01200376  1
  Hf  Hf27  1  0.78834533  0.18403944  -0.00313277  1
  Hf  Hf28  1  0.19510480  0.79729524  0.60235291  1
  Hf  Hf29  1  0.80459781  0.40257873  0.80066930  1
  Hf  Hf30  1  0.49355088  0.50488495  0.31190429  1
  Hf  Hf31  1  0.68455801  0.50327733  0.89900166  1
  Hf  Hf32  1  0.89719752  0.70005833  0.69806539  1
  Hf  Hf33  1  0.60760757  0.19903951  0.39510882  1
  Hf  Hf34  1  0.51017020  0.50828920  0.50758627  1
  Hf  Hf35  1  0.69755005  0.30777445  0.09859833  1
  Hf  Hf36  1  0.30389185  0.69532769  0.49871499  1
  Hf  Hf37  1  0.20129299  0.79449380  0.79578553  1
  Hf  Hf38  1  0.30206555  0.50229231  0.29937124  1
  Hf  Hf39  1  0.70672337  0.31134274  0.29408129  1
  Hf  Hf40  1  0.89706292  0.90102353  0.90454557  1
  Hf  Hf41  1  0.40033143  0.59892151  0.18232982  1
  Hf  Hf42  1  0.39463457  -0.00953470  0.00621404  1
  Hf  Hf43  1  0.80506311  0.40613335  -0.00678978  1
  Hf  Hf44  1  0.00739993  0.39738378  0.19338834  1
  Hf  Hf45  1  0.19951273  -0.00280059  0.80235791  1
  Hf  Hf46  1  0.09780855  0.10641860  0.70276859  1
  Hf  Hf47  1  0.80245385  0.59754127  -0.00406395  1
  Hf  Hf48  1  0.89957237  0.90464820  0.69824597  1
  Hf  Hf49  1  0.89190894  0.69391694  0.50653248  1
  Zr  Zr50  1  -0.00386018  0.39684126  0.40858474  1
  Zr  Zr51  1  0.28996885  0.49704103  0.08387492  1
  Zr  Zr52  1  0.79846421  -0.00038690  0.20106278  1
  Zr  Zr53  1  0.50206497  0.69581597  0.30909016  1
  Zr  Zr54  1  0.39845794  0.00196242  0.40288392  1
  Zr  Zr55  1  0.30603631  0.29587687  0.29141908  1
  Zr  Zr56  1  0.38827210  0.79438081  0.00398861  1
  Zr  Zr57  1  0.58398872  0.40540923  0.18889658  1
  Zr  Zr58  1  0.19921167  0.80671503  0.39585643  1
  Zr  Zr59  1  0.39770132  0.59592711  -0.00703148  1
  Zr  Zr60  1  0.30023898  0.69195458  0.30359335  1
  Zr  Zr61  1  0.78673243  0.00075780  0.80869161  1
  Zr  Zr62  1  0.49444527  0.10424693  0.90126406  1
  Zr  Zr63  1  0.79706906  0.80777170  0.40293524  1
  Zr  Zr64  1  0.69868767  0.50096382  0.30443053  1
  Zr  Zr65  1  0.51358186  0.70677056  0.09312023  1
  Zr  Zr66  1  0.10195611  0.69473516  0.09387666  1
  Zr  Zr67  1  0.89708540  0.29709670  0.10126818  1
  Zr  Zr68  1  0.89874932  0.29680357  0.29529565  1
  Zr  Zr69  1  0.09607420  0.69613422  0.50251753  1
  Zr  Zr70  1  0.79888594  0.59785040  0.18893089  1
  Zr  Zr71  1  0.10745301  0.09537381  0.30620627  1
  Zr  Zr72  1  0.78445985  0.18404096  0.20419329  1
  Zr  Zr73  1  0.59824471  0.59717266  0.19049953  1
  Zr  Zr74  1  0.69691338  0.10225033  0.51168640  1
  Zr  Zr75  1  0.38710650  0.21172250  0.60111639  1
  Zr  Zr76  1  0.30119976  0.11009166  0.70853796  1
  Zr  Zr77  1  0.30499432  0.09936928  0.29604997  1
  Zr  Zr78  1  0.49516322  0.10774384  0.70011764  1
  Zr  Zr79  1  0.40214766  0.39355828  0.40808476  1
  Zr  Zr80  1  0.38908609  0.80746475  0.19707688  1
  Zr  Zr81  1  0.50680016  0.89311330  0.90061130  1
  Zr  Zr82  1  0.19596665  0.39896232  0.39952964  1
  Zr  Zr83  1  0.50077701  0.09940799  0.50633978  1
  Zr  Zr84  1  0.59642941  0.20315740  -0.00064784  1
  Zr  Zr85  1  0.80960106  0.59181952  0.79684420  1
  Zr  Zr86  1  0.79099927  -0.00515806  0.39621005  1
  Zr  Zr87  1  -0.00078703  0.58515466  0.61351891  1
  Zr  Zr88  1  0.69106369  0.68405868  0.50545531  1
  Zr  Zr89  1  0.30225839  0.10893376  0.89980732  1
  Zr  Zr90  1  -0.00497378  0.80919849  0.40183353  1
  Zr  Zr91  1  0.30570429  0.50270583  0.50591735  1
  Zr  Zr92  1  0.51214013  0.90684739  0.10493875  1
  Zr  Zr93  1  0.90456882  0.08665736  0.50757121  1
  Zr  Zr94  1  0.39850851  0.38214163  -0.01708449  1
  Zr  Zr95  1  0.50498709  0.91091763  0.29923515  1
  Zr  Zr96  1  0.69702040  0.49789156  0.68752686  1
  Zr  Zr97  1  0.90750930  0.70556645  0.09886853  1
  Zr  Zr98  1  0.00231413  0.20734347  0.59927580  1
  Zr  Zr99  1  0.60195315  0.80519420  0.40660755  1
  Ta  Ta100  1  0.69914565  0.69823391  0.69716788  1
  Ta  Ta101  1  0.69914594  0.30363869  0.89591915  1
  Ta  Ta102  1  0.20321064  0.20660157  0.00239285  1
  Ta  Ta103  1  0.00135863  0.20449705  0.40599540  1
  Ta  Ta104  1  0.40041307  0.79272803  0.79512571  1
  Ta  Ta105  1  0.69620325  0.69743227  0.89420951  1
  Ta  Ta106  1  0.20023171  0.59427773  0.61193880  1
  Ta  Ta107  1  0.10150913  0.89196382  0.89916704  1
  Ta  Ta108  1  0.70401311  0.30052860  0.51250316  1
  Ta  Ta109  1  0.79420527  0.79864741  0.79946596  1
  Ta  Ta110  1  0.49702603  0.09776672  0.10783800  1
  Ta  Ta111  1  0.09857324  0.29135240  0.30205165  1
  Ta  Ta112  1  0.60394926  0.20118938  0.80002503  1
  Ta  Ta113  1  0.40804732  0.60692810  0.60811177  1
  Ta  Ta114  1  0.20243909  0.00566630  0.60436577  1
  Ta  Ta115  1  0.09856107  0.30143284  0.89130741  1
  Ta  Ta116  1  0.29577708  0.89067028  0.89829504  1
  Ta  Ta117  1  0.40489421  0.80304122  0.40735433  1
  Ta  Ta118  1  -0.00149500  0.00155379  0.80393796  1
  Ta  Ta119  1  0.59644491  -0.00591169  0.61570466  1
  Ta  Ta120  1  0.50316420  0.49375074  0.89277844  1
  Ta  Ta121  1  0.70075015  0.69583184  0.30232552  1
  Ta  Ta122  1  0.00021063  0.80109208  0.80041128  1
  Ta  Ta123  1  0.80059876  0.19963020  0.40544824  1
  Ta  Ta124  1  0.69966479  0.29728468  0.69342879  1
  Ta  Ta125  1  0.01548401  -0.00092781  0.19554256  1
  Ta  Ta126  1  0.90338565  0.29405532  0.89918933  1
  Ta  Ta127  1  0.20395706  0.20454094  0.41174027  1
  Ta  Ta128  1  0.50113006  0.90708965  0.50962698  1
  Ta  Ta129  1  0.89586404  0.10017872  0.70143367  1
  Ta  Ta130  1  0.19982883  0.21121740  0.60397030  1
  Ta  Ta131  1  0.00021543  0.39818735  -0.00831877  1
  Ta  Ta132  1  0.60473557  0.39791965  0.40584804  1
  Ta  Ta133  1  0.49731446  0.49355726  0.69654112  1
  Ta  Ta134  1  0.79210145  0.80554079  0.59932984  1
  Ta  Ta135  1  -0.00310585  0.40930742  0.79499377  1
  Ta  Ta136  1  0.09912151  0.50393186  0.08696321  1
  Ta  Ta137  1  0.09966557  0.69484631  0.89876707  1
  Ta  Ta138  1  0.10119538  0.49237889  0.51230369  1
  Ta  Ta139  1  0.19863955  0.40312610  0.61297468  1
  Ta  Ta140  1  0.79591984  0.80251372  0.20730882  1
  Ta  Ta141  1  0.70016724  0.49621226  0.50498517  1
  Ta  Ta142  1  0.09265977  0.91526940  0.50253162  1
  Ta  Ta143  1  0.31078273  0.10545051  0.10089393  1
  Ta  Ta144  1  0.39994536  0.23219663  0.81901677  1
  Ta  Ta145  1  0.90067406  0.10223523  0.89807112  1
  Ta  Ta146  1  0.19921377  0.59580677  0.79236790  1
  Ta  Ta147  1  0.60506996  -0.00008431  0.79691967  1
  Ta  Ta148  1  0.49863747  0.10210908  0.29337974  1
  Ta  Ta149  1  0.70167870  0.70449507  0.09322302  1
  Ti  Ti150  1  0.61320971  0.80166862  -0.00844457  1
  Ti  Ti151  1  0.00506991  0.80748531  0.20342315  1
  Ti  Ti152  1  0.79665535  0.20069172  0.79986038  1
  Ti  Ti153  1  0.20320608  0.79762218  0.00328089  1
  Ti  Ti154  1  0.59876414  0.39523941  0.79932015  1
  Ti  Ti155  1  0.79546403  0.79812510  -0.00792665  1
  Ti  Ti156  1  0.30172174  0.90155652  0.69625377  1
  Ti  Ti157  1  0.10130531  0.30791565  0.70631653  1
  Ti  Ti158  1  0.19327114  0.59315281  0.40523367  1
  Ti  Ti159  1  -0.00470684  0.20535757  0.79821428  1
  Ti  Ti160  1  0.61402856  0.80259278  0.20755591  1
  Ti  Ti161  1  0.00812543  0.80140500  -0.00308754  1
  Ti  Ti162  1  0.59404103  0.60210521  0.78648573  1
  Ti  Ti163  1  0.10492557  0.91067285  0.30500642  1
  Ti  Ti164  1  0.68805195  0.90769867  0.50689788  1
  Ti  Ti165  1  0.91098942  0.50031177  0.09220182  1
  Ti  Ti166  1  0.20230290  0.59854518  0.19044996  1
  Ti  Ti167  1  0.29613477  0.91030158  0.29920054  1
  Ti  Ti168  1  0.10469173  0.49848344  0.29441167  1
  Ti  Ti169  1  0.68954996  0.49816435  0.08827659  1
  Ti  Ti170  1  0.60059942  0.19375450  0.19788462  1
  Ti  Ti171  1  0.79477021  -0.00646489  0.60354444  1
  Ti  Ti172  1  0.29999279  0.69606230  0.69814518  1
  Ti  Ti173  1  0.10372996  0.89542202  0.10045244  1
  Ti  Ti174  1  0.19382871  0.38627042  -0.00189982  1
  Ti  Ti175  1  0.08262211  0.28241567  0.08930494  1
  Ti  Ti176  1  0.00344885  0.59235852  0.19718853  1
  Ti  Ti177  1  0.29729175  0.31789570  0.71440300  1
  Ti  Ti178  1  0.20340081  -0.00201030  0.18923427  1
  Ti  Ti179  1  0.80057997  0.59162226  0.40462836  1
  Ti  Ti180  1  0.29087638  0.48725709  0.88730765  1
  Ti  Ti181  1  0.79835833  0.39611607  0.41273575  1
  Ti  Ti182  1  0.89248622  0.29817024  0.50814716  1
  Ti  Ti183  1  0.09151079  0.69532029  0.70710732  1
  Ti  Ti184  1  0.29624135  0.09804263  0.50599043  1
  Ti  Ti185  1  0.48978655  0.29041797  0.09626265  1
  Ti  Ti186  1  0.60030351  0.80188962  0.79183578  1
  Ti  Ti187  1  0.39691378  0.20103954  0.40677301  1
  Ti  Ti188  1  0.70176944  0.10847444  0.69607252  1
  Ti  Ti189  1  0.10240774  0.30480312  0.50529748  1
  Ti  Ti190  1  0.61429491  0.00913513  0.20995676  1
  Ti  Ti191  1  -0.00626399  0.80515725  0.59643790  1
  Ti  Ti192  1  0.88933925  0.49139885  0.52024505  1
  Ti  Ti193  1  0.20591175  0.80387796  0.19414760  1
  Ti  Ti194  1  0.28993965  0.69476356  0.90074701  1
  Ti  Ti195  1  0.90796948  0.90586117  0.29729835  1
  Ti  Ti196  1  0.59464268  0.79646823  0.60644653  1
  Ti  Ti197  1  0.39840062  0.40219692  0.18327340  1
  Ti  Ti198  1  0.69672336  0.89420001  0.70079526  1
  Ti  Ti199  1  0.29509223  0.30906256  0.50811572  1
  Mo  Mo200  1  0.39653234  0.00435453  0.19851604  1
  Mo  Mo201  1  0.80111967  0.40911513  0.18198554  1
  Mo  Mo202  1  0.39714418  0.40594492  0.79947738  1
  Mo  Mo203  1  0.39210041  0.40779362  0.60755888  1
  Mo  Mo204  1  0.60436506  0.59653526  0.40363566  1
  Mo  Mo205  1  0.28816090  0.90141693  0.10245347  1
  Mo  Mo206  1  0.59585120  0.60216329  0.60744795  1
  Mo  Mo207  1  0.30232881  0.50057681  0.69971121  1
  Mo  Mo208  1  0.01191374  0.19713323  0.20808188  1
  Mo  Mo209  1  0.90266703  0.49390255  0.69937126  1
  Mo  Mo210  1  0.39846121  0.20179930  0.00201878  1
  Mo  Mo211  1  0.10658202  0.10182371  0.09877345  1
  Mo  Mo212  1  0.60280991  0.59992964  -0.00641367  1
  Mo  Mo213  1  0.79987907  0.59839697  0.60041575  1
  Mo  Mo214  1  0.59300657  0.39988992  -0.00406031  1
  Mo  Mo215  1  0.80606942  0.00467243  -0.00157276  1
  Mo  Mo216  1  0.80151839  0.39727065  0.59923128  1
  Mo  Mo217  1  0.20133546  0.60212088  -0.01269941  1
  Mo  Mo218  1  0.00222855  -0.00585139  0.39594201  1
  Mo  Mo219  1  0.50762455  0.89513484  0.70226685  1
  Mo  Mo220  1  0.69125668  0.09891342  0.30852393  1
  Mo  Mo221  1  0.20111139  0.00261706  0.40801843  1
  Mo  Mo222  1  0.30496005  0.29576982  0.09162793  1
  Mo  Mo223  1  0.00292411  0.39761010  0.60295281  1
  Mo  Mo224  1  0.10341289  0.49515975  0.70532914  1
  Mo  Mo225  1  0.60445975  0.39996857  0.60066801  1
  Mo  Mo226  1  0.40616410  0.19932610  0.19265396  1
  Mo  Mo227  1  0.68911977  0.09585275  0.10588479  1
  Mo  Mo228  1  0.51608699  0.30496286  0.89455037  1
  Mo  Mo229  1  0.89956110  0.89885080  0.51272069  1
  Mo  Mo230  1  0.49830099  0.70333768  0.50497387  1
  Mo  Mo231  1  0.40770534  0.61095715  0.41335724  1
  Mo  Mo232  1  0.69724824  0.89735166  0.29813365  1
  Mo  Mo233  1  0.70230142  0.88653062  0.89512903  1
  Mo  Mo234  1  0.00171601  0.59349839  -0.00105853  1
  Mo  Mo235  1  0.70168898  0.11149065  0.88457706  1
  Mo  Mo236  1  0.80075235  0.19740511  0.60289498  1
  Mo  Mo237  1  0.50511960  0.69786103  0.70299723  1
  Mo  Mo238  1  0.19529085  0.40303555  0.79778419  1
  Mo  Mo239  1  0.19989182  0.21372269  0.79790834  1
  Mo  Mo240  1  0.49883117  0.49388409  0.07997131  1
  Mo  Mo241  1  0.27989467  0.30384209  0.89621201  1
  Mo  Mo242  1  -0.00079766  0.00254987  0.60793809  1
  Mo  Mo243  1  0.60651861  0.19915870  0.61008533  1
  Mo  Mo244  1  0.00170857  0.20310622  -0.01185528  1
  Mo  Mo245  1  0.00640522  0.60266605  0.80021967  1
  Mo  Mo246  1  0.59757132  0.00239770  0.40273073  1
  Mo  Mo247  1  0.39927807  -0.00307669  0.60524676  1
  Mo  Mo248  1  0.28629128  0.70229673  0.09862142  1
  Mo  Mo249  1  0.91197762  0.49742333  0.89984470  1
