# generated using pymatgen
data_HfZrTaTiMo
_symmetry_space_group_name_H-M   'P 1'
_cell_length_a   16.89468866
_cell_length_b   16.88849665
_cell_length_c   16.88833908
_cell_angle_alpha   89.92569135
_cell_angle_beta   89.99668159
_cell_angle_gamma   89.95972383
_symmetry_Int_Tables_number   1
_chemical_formula_structural   HfZrTaTiMo
_chemical_formula_sum   'Hf50 Zr50 Ta50 Ti50 Mo50'
_cell_volume   4818.67517426
_cell_formula_units_Z   50
loop_
 _symmetry_equiv_pos_site_id
 _symmetry_equiv_pos_as_xyz
  1  'x, y, z'
loop_
 _atom_site_type_symbol
 _atom_site_label
 _atom_site_symmetry_multiplicity
 _atom_site_fract_x
 _atom_site_fract_y
 _atom_site_fract_z
 _atom_site_occupancy
  Hf  Hf0  1  0.69293917  0.90604810  0.29515192  1
  Hf  Hf1  1  0.38984844  0.40452673  0.80371609  1
  Hf  Hf2  1  0.59027869  0.20347892  0.40180113  1
  Hf  Hf3  1  0.30644091  0.28451618  0.10860567  1
  Hf  Hf4  1  0.80391008  0.00348898  0.79706098  1
  Hf  Hf5  1  -0.00333466  0.79399097  -0.00536423  1
  Hf  Hf6  1  0.79482230  0.60002855  0.39591643  1
  Hf  Hf7  1  0.80702370  0.00006023  0.19786368  1
  Hf  Hf8  1  0.30315700  0.10801492  0.29317154  1
  Hf  Hf9  1  0.40941071  0.79758957  0.00105968  1
  Hf  Hf10  1  0.49516219  0.50990230  0.10132700  1
  Hf  Hf11  1  0.80648694  -0.00099885  0.60567285  1
  Hf  Hf12  1  -0.00086310  0.39179900  0.19478592  1
  Hf  Hf13  1  0.79446024  0.19474870  0.60856559  1
  Hf  Hf14  1  0.00898533  -0.00178483  0.40117246  1
  Hf  Hf15  1  0.78736410  0.60295484  0.20496179  1
  Hf  Hf16  1  0.89549071  0.69579136  0.09606416  1
  Hf  Hf17  1  0.10264457  0.50139052  0.70152571  1
  Hf  Hf18  1  0.49981714  0.49483385  0.70256914  1
  Hf  Hf19  1  0.50195412  0.91660096  0.68739191  1
  Hf  Hf20  1  0.19820644  0.39266055  0.39982809  1
  Hf  Hf21  1  0.60551321  0.60149387  0.20194391  1
  Hf  Hf22  1  0.48077319  0.31027996  0.29527992  1
  Hf  Hf23  1  0.89901208  0.50867238  0.08657449  1
  Hf  Hf24  1  0.60398430  0.20299328  0.80132207  1
  Hf  Hf25  1  0.19609476  0.59676952  0.40760643  1
  Hf  Hf26  1  0.10511073  0.29692756  0.70474865  1
  Hf  Hf27  1  0.90276033  0.10362908  0.49697845  1
  Hf  Hf28  1  0.49926902  0.10273266  0.90568501  1
  Hf  Hf29  1  0.10990797  0.89990056  0.08997797  1
  Hf  Hf30  1  0.89510191  0.49559328  0.50186751  1
  Hf  Hf31  1  0.89535513  0.30229318  0.49645252  1
  Hf  Hf32  1  0.80449013  0.40349717  0.20013860  1
  Hf  Hf33  1  0.30197881  0.90064902  0.50027484  1
  Hf  Hf34  1  0.48847635  0.70999356  0.29164070  1
  Hf  Hf35  1  0.88617425  0.68139027  0.90294652  1
  Hf  Hf36  1  0.58533217  0.41813495  0.39801278  1
  Hf  Hf37  1  0.10843983  0.89317923  0.89994609  1
  Hf  Hf38  1  0.40069051  -0.00645489  -0.00440505  1
  Hf  Hf39  1  0.70117247  0.30868196  0.50004458  1
  Hf  Hf40  1  0.70822455  0.50501015  0.89630387  1
  Hf  Hf41  1  0.60838120  0.59888887  0.39047849  1
  Hf  Hf42  1  0.10166100  0.69912864  0.69910570  1
  Hf  Hf43  1  0.69381267  0.09803578  0.10173355  1
  Hf  Hf44  1  0.59922467  0.20383922  0.60326377  1
  Hf  Hf45  1  0.10409371  0.89372171  0.69793213  1
  Hf  Hf46  1  0.49656570  0.90262548  0.49279926  1
  Hf  Hf47  1  0.00693621  0.39055228  0.00248751  1
  Hf  Hf48  1  0.39895667  0.40224133  0.00232658  1
  Hf  Hf49  1  0.29521741  0.89618810  0.69879552  1
  Zr  Zr50  1  0.10242799  0.89619860  0.29798497  1
  Zr  Zr51  1  0.39578842  0.59802795  0.60981690  1
  Zr  Zr52  1  0.89610779  0.49977069  0.90026055  1
  Zr  Zr53  1  0.60413719  0.80440650  0.59911273  1
  Zr  Zr54  1  0.69504413  0.69980005  0.89819170  1
  Zr  Zr55  1  0.69576980  0.10465459  0.29486670  1
  Zr  Zr56  1  0.60599605  0.79294119  0.19133418  1
  Zr  Zr57  1  0.50440776  0.69847619  0.70585167  1
  Zr  Zr58  1  0.39818964  -0.00187858  0.80696530  1
  Zr  Zr59  1  0.49147967  0.29932850  0.70043596  1
  Zr  Zr60  1  0.30803689  0.69922825  0.30576138  1
  Zr  Zr61  1  0.19868213  0.01263558  0.80523453  1
  Zr  Zr62  1  0.60247785  0.40114303  0.00353964  1
  Zr  Zr63  1  0.91007201  0.11221844  0.30237448  1
  Zr  Zr64  1  0.30279622  0.28958829  0.50848920  1
  Zr  Zr65  1  0.30878765  0.48990523  0.29833330  1
  Zr  Zr66  1  -0.00122860  0.59590112  0.20695158  1
  Zr  Zr67  1  0.80155526  0.59716778  0.60745124  1
  Zr  Zr68  1  0.30729812  0.89265431  0.29972772  1
  Zr  Zr69  1  0.00615473  0.20381845  0.00355189  1
  Zr  Zr70  1  0.30108951  0.10177992  0.08947246  1
  Zr  Zr71  1  0.80016380  -0.00101718  0.39977808  1
  Zr  Zr72  1  0.80660298  0.80640437  0.79375007  1
  Zr  Zr73  1  0.49012380  0.09724755  0.51241754  1
  Zr  Zr74  1  0.70013087  0.30660960  0.30283735  1
  Zr  Zr75  1  0.70379187  0.29447378  0.10627086  1
  Zr  Zr76  1  0.20419503  0.79358116  0.19463372  1
  Zr  Zr77  1  0.40811250  0.80327432  0.80732533  1
  Zr  Zr78  1  0.00500236  0.01146699  -0.00277305  1
  Zr  Zr79  1  0.31107177  0.48517162  0.50789081  1
  Zr  Zr80  1  0.09989155  0.69312171  0.09000839  1
  Zr  Zr81  1  0.42127787  0.57735945  0.39938401  1
  Zr  Zr82  1  0.57931865  0.20543895  0.19603562  1
  Zr  Zr83  1  0.89657970  0.30405675  0.70797909  1
  Zr  Zr84  1  0.20745075  0.59144204  0.19700466  1
  Zr  Zr85  1  0.30750070  0.10325923  0.68701131  1
  Zr  Zr86  1  -0.00302744  0.00753740  0.79207056  1
  Zr  Zr87  1  0.78611229  0.19335686  0.79881127  1
  Zr  Zr88  1  0.80709544  0.00794728  -0.00429983  1
  Zr  Zr89  1  0.00694826  0.00917788  0.19274753  1
  Zr  Zr90  1  0.70283106  0.69812709  0.70542846  1
  Zr  Zr91  1  0.70714367  0.71006974  0.50204445  1
  Zr  Zr92  1  0.20049910  0.39309946  0.00312952  1
  Zr  Zr93  1  0.30459614  0.28233836  0.90791285  1
  Zr  Zr94  1  -0.00749235  0.79394914  0.79804476  1
  Zr  Zr95  1  0.00195984  0.18928077  0.61092475  1
  Zr  Zr96  1  0.49731159  0.70425316  0.49576692  1
  Zr  Zr97  1  0.00268176  0.40207877  0.60369360  1
  Zr  Zr98  1  0.00513406  0.39769452  0.39781692  1
  Zr  Zr99  1  0.89009482  0.30340387  0.89735027  1
  Ta  Ta100  1  0.19471625  0.19428266  0.39748773  1
  Ta  Ta101  1  0.29883625  0.50810305  0.90264411  1
  Ta  Ta102  1  0.20544690  0.59788697  0.79752047  1
  Ta  Ta103  1  0.49795752  0.90176532  0.29582446  1
  Ta  Ta104  1  0.40056972  -0.00152048  0.19583937  1
  Ta  Ta105  1  0.10190047  0.50015725  0.09397303  1
  Ta  Ta106  1  0.19588121  0.39445754  0.19598708  1
  Ta  Ta107  1  0.00164467  0.79631914  0.40298481  1
  Ta  Ta108  1  0.90052778  0.70385699  0.30588807  1
  Ta  Ta109  1  0.69738345  0.10097576  0.49763048  1
  Ta  Ta110  1  0.19590584  0.19534743  0.80502332  1
  Ta  Ta111  1  0.00167787  -0.00228848  0.60178935  1
  Ta  Ta112  1  0.39986003  0.60423620  -0.00237606  1
  Ta  Ta113  1  0.90113519  0.70532878  0.50214022  1
  Ta  Ta114  1  0.69674484  0.90688968  0.09535921  1
  Ta  Ta115  1  0.79253061  0.80231498  0.00465370  1
  Ta  Ta116  1  0.90146103  0.89205700  0.50019024  1
  Ta  Ta117  1  0.29751869  0.29804893  0.69901233  1
  Ta  Ta118  1  0.20035920  0.79266310  0.59443458  1
  Ta  Ta119  1  0.00917760  0.39975199  0.80831848  1
  Ta  Ta120  1  0.10341519  0.50649469  0.90177396  1
  Ta  Ta121  1  0.50671720  0.90515899  0.10326497  1
  Ta  Ta122  1  0.80137895  0.20717408  0.39515196  1
  Ta  Ta123  1  0.19806214  0.00391190  0.39797791  1
  Ta  Ta124  1  -0.00151389  0.59769857  0.79738035  1
  Ta  Ta125  1  0.09952512  0.29183149  0.29964227  1
  Ta  Ta126  1  0.69537350  0.90434649  0.90465749  1
  Ta  Ta127  1  0.79925059  0.79958929  0.19943140  1
  Ta  Ta128  1  0.19424660  0.79580438  0.40828216  1
  Ta  Ta129  1  0.49893330  0.30045975  0.90189369  1
  Ta  Ta130  1  0.50138545  0.50750938  0.89872229  1
  Ta  Ta131  1  0.19036153  0.00268653  0.59239757  1
  Ta  Ta132  1  0.20119026  0.39922963  0.80737033  1
  Ta  Ta133  1  0.29847676  0.09809381  0.49715355  1
  Ta  Ta134  1  0.89746430  0.49677846  0.30821663  1
  Ta  Ta135  1  0.69782484  0.90317975  0.70014874  1
  Ta  Ta136  1  0.29540582  0.70161555  0.90038851  1
  Ta  Ta137  1  0.30505592  0.70297315  0.49708569  1
  Ta  Ta138  1  0.90021942  0.89438085  0.10008686  1
  Ta  Ta139  1  0.90384756  0.89283938  0.29950138  1
  Ta  Ta140  1  0.20081639  0.00619655  0.19622356  1
  Ta  Ta141  1  0.48675282  0.31294649  0.50511883  1
  Ta  Ta142  1  0.39745153  0.00380463  0.39443060  1
  Ta  Ta143  1  0.20570037  0.60193145  0.60127858  1
  Ta  Ta144  1  -0.00261284  0.79659621  0.20048458  1
  Ta  Ta145  1  0.00426690  0.20642022  0.19332052  1
  Ta  Ta146  1  0.28593835  0.89162643  0.90832111  1
  Ta  Ta147  1  0.00012652  0.60193397  0.40549569  1
  Ta  Ta148  1  0.59778477  0.20692370  -0.00025541  1
  Ta  Ta149  1  0.09727768  0.69849557  0.30542949  1
  Ti  Ti150  1  0.09940176  0.29121177  0.49987318  1
  Ti  Ti151  1  0.59566915  0.81171919  0.80618751  1
  Ti  Ti152  1  0.90733983  0.11507938  0.89026008  1
  Ti  Ti153  1  0.10044679  0.50225170  0.50820102  1
  Ti  Ti154  1  0.09913352  0.89396570  0.50316553  1
  Ti  Ti155  1  0.19403746  0.19184964  0.60062894  1
  Ti  Ti156  1  0.59815242  0.80095996  -0.00004714  1
  Ti  Ti157  1  0.60512706  0.39816754  0.80781711  1
  Ti  Ti158  1  0.79358346  0.20474743  -0.00430696  1
  Ti  Ti159  1  0.60234871  0.60709077  0.00982866  1
  Ti  Ti160  1  0.79247904  0.39660348  0.00445408  1
  Ti  Ti161  1  0.59664935  -0.00397926  0.80867770  1
  Ti  Ti162  1  0.09612101  0.69835334  0.50501293  1
  Ti  Ti163  1  0.39940821  0.19970345  0.39982315  1
  Ti  Ti164  1  -0.00510408  0.60216213  0.60430679  1
  Ti  Ti165  1  0.70104901  0.90539616  0.50221452  1
  Ti  Ti166  1  0.20817811  0.59930021  0.00087606  1
  Ti  Ti167  1  0.59954784  0.41067556  0.19935155  1
  Ti  Ti168  1  0.39782589  0.79777037  0.60133363  1
  Ti  Ti169  1  -0.00686698  0.79930899  0.60132952  1
  Ti  Ti170  1  0.89287839  0.11630223  0.10160215  1
  Ti  Ti171  1  0.60323832  0.59182996  0.79519489  1
  Ti  Ti172  1  0.89784881  0.89972678  0.90559714  1
  Ti  Ti173  1  0.88937286  0.49334333  0.71057993  1
  Ti  Ti174  1  0.70490899  0.32046223  0.70158935  1
  Ti  Ti175  1  0.49812174  0.09811593  0.09859547  1
  Ti  Ti176  1  0.80011053  0.80266373  0.39576645  1
  Ti  Ti177  1  0.09969667  0.49790018  0.29879793  1
  Ti  Ti178  1  0.39440029  0.40610892  0.18903494  1
  Ti  Ti179  1  0.59609577  0.00523749  0.39913959  1
  Ti  Ti180  1  0.70566504  0.49055121  0.50381173  1
  Ti  Ti181  1  0.60011431  0.40585059  0.60138197  1
  Ti  Ti182  1  0.29900038  0.29524079  0.29663030  1
  Ti  Ti183  1  0.29589134  0.70540657  0.70524103  1
  Ti  Ti184  1  0.39670736  0.19378782  0.80271276  1
  Ti  Ti185  1  0.18599850  0.18923935  -0.00481205  1
  Ti  Ti186  1  0.60431873  0.79984453  0.39381754  1
  Ti  Ti187  1  0.49429215  0.09456950  0.29467499  1
  Ti  Ti188  1  0.39415385  0.59978161  0.80324029  1
  Ti  Ti189  1  0.29823814  0.89720611  0.09567294  1
  Ti  Ti190  1  0.18706226  0.19524240  0.19828728  1
  Ti  Ti191  1  0.11021728  0.69613039  0.89719309  1
  Ti  Ti192  1  0.60219077  0.59042541  0.59449776  1
  Ti  Ti193  1  0.69053579  0.09541168  0.90889479  1
  Ti  Ti194  1  0.10020830  0.10311150  0.49555277  1
  Ti  Ti195  1  0.68107804  0.08327269  0.69431400  1
  Ti  Ti196  1  0.20381676  0.40178121  0.60702330  1
  Ti  Ti197  1  0.49756338  0.09564664  0.69556322  1
  Ti  Ti198  1  0.31225135  0.69710562  0.10138662  1
  Ti  Ti199  1  0.50517683  0.69206035  0.89939610  1
  Mo  Mo200  1  0.20480820  0.00284311  -0.00120810  1
  Mo  Mo201  1  0.81486505  0.20686400  0.20152199  1
  Mo  Mo202  1  0.39969093  0.20045984  0.60155133  1
  Mo  Mo203  1  0.10730233  0.10395572  0.29786570  1
  Mo  Mo204  1  0.69488530  0.30154721  0.90199515  1
  Mo  Mo205  1  0.01082643  0.20058841  0.80733770  1
  Mo  Mo206  1  0.79411326  0.40268650  0.60413623  1
  Mo  Mo207  1  0.20254239  0.78948631  0.79860317  1
  Mo  Mo208  1  0.10069613  0.10395428  0.89879248  1
  Mo  Mo209  1  0.10967626  0.29599103  0.10572479  1
  Mo  Mo210  1  0.69399918  0.49498274  0.70228546  1
  Mo  Mo211  1  0.77682603  0.60197436  0.01456859  1
  Mo  Mo212  1  0.40186980  0.60329983  0.18926765  1
  Mo  Mo213  1  0.80432219  0.59727910  0.78938268  1
  Mo  Mo214  1  0.60018077  0.00268521  0.00232167  1
  Mo  Mo215  1  0.29349137  0.49796892  0.70748857  1
  Mo  Mo216  1  0.70597240  0.71514611  0.30452698  1
  Mo  Mo217  1  0.89235819  0.29462021  0.09894153  1
  Mo  Mo218  1  0.69879698  0.50072134  0.09786644  1
  Mo  Mo219  1  0.40005621  0.19377337  0.19943121  1
  Mo  Mo220  1  0.40440891  0.80675295  0.18740834  1
  Mo  Mo221  1  0.40047056  0.80823375  0.40127803  1
  Mo  Mo222  1  0.39672017  0.39671084  0.61110078  1
  Mo  Mo223  1  0.38965484  -0.00081138  0.59459932  1
  Mo  Mo224  1  0.29826641  0.50561153  0.09568886  1
  Mo  Mo225  1  0.60955520  0.00015650  0.59122318  1
  Mo  Mo226  1  0.51573844  0.90140841  0.90769883  1
  Mo  Mo227  1  0.90412507  0.30002337  0.29947690  1
  Mo  Mo228  1  0.90645048  0.69500021  0.69410511  1
  Mo  Mo229  1  0.29845844  0.10086956  0.90421525  1
  Mo  Mo230  1  0.59103406  0.00025244  0.19855551  1
  Mo  Mo231  1  0.69914086  0.70742963  0.09553364  1
  Mo  Mo232  1  0.00814451  0.20340356  0.40067165  1
  Mo  Mo233  1  0.79043863  0.40327275  0.79917181  1
  Mo  Mo234  1  0.79759890  0.40347537  0.39637860  1
  Mo  Mo235  1  0.80616702  0.80825339  0.59842035  1
  Mo  Mo236  1  0.01491222  0.59843125  -0.01043640  1
  Mo  Mo237  1  0.49876420  0.49848488  0.28059706  1
  Mo  Mo238  1  0.90588809  0.09903917  0.70163547  1
  Mo  Mo239  1  0.10458654  0.10019758  0.69612702  1
  Mo  Mo240  1  0.90117532  0.89820099  0.68755031  1
  Mo  Mo241  1  0.49563138  0.30450459  0.10014249  1
  Mo  Mo242  1  0.41832211  0.20174574  0.00621389  1
  Mo  Mo243  1  0.70170374  0.49421970  0.29887002  1
  Mo  Mo244  1  0.39772823  0.39137509  0.39960944  1
  Mo  Mo245  1  0.49954016  0.70207121  0.09324286  1
  Mo  Mo246  1  0.10375163  0.29902577  0.89539768  1
  Mo  Mo247  1  0.20844585  0.78953778  -0.00112148  1
  Mo  Mo248  1  0.50649875  0.49428711  0.51829116  1
  Mo  Mo249  1  0.10727253  0.10084876  0.10007294  1
