# generated using pymatgen
data_HfZrTaTiMo
_symmetry_space_group_name_H-M   'P 1'
_cell_length_a   16.88715321
_cell_length_b   16.88872633
_cell_length_c   16.89051294
_cell_angle_alpha   90.06245879
_cell_angle_beta   89.95669461
_cell_angle_gamma   90.03537581
_symmetry_Int_Tables_number   1
_chemical_formula_structural   HfZrTaTiMo
_chemical_formula_sum   'Hf50 Zr50 Ta50 Ti50 Mo50'
_cell_volume   4817.21151523
_cell_formula_units_Z   50
loop_
 _symmetry_equiv_pos_site_id
 _symmetry_equiv_pos_as_xyz
  1  'x, y, z'
loop_
 _atom_site_type_symbol
 _atom_site_label
 _atom_site_symmetry_multiplicity
 _atom_site_fract_x
 _atom_site_fract_y
 _atom_site_fract_z
 _atom_site_occupancy
  Hf  Hf0  1  0.20382905  0.40111433  0.60989074  1
  Hf  Hf1  1  0.61254933  0.78964875  -0.01976905  1
  Hf  Hf2  1  0.78723039  0.39445922  0.00049124  1
  Hf  Hf3  1  0.39365867  -0.00256120  0.39193640  1
  Hf  Hf4  1  0.69526041  0.09220720  0.30712257  1
  Hf  Hf5  1  0.49796328  0.88290483  0.47881603  1
  Hf  Hf6  1  0.79518642  0.59688170  0.20545471  1
  Hf  Hf7  1  0.79689027  0.20876638  -0.00177601  1
  Hf  Hf8  1  -0.00614920  -0.00870700  0.20373254  1
  Hf  Hf9  1  0.28849143  0.29806071  0.89840170  1
  Hf  Hf10  1  0.39984748  0.59791333  0.40719498  1
  Hf  Hf11  1  0.00134254  0.79033910  0.39992527  1
  Hf  Hf12  1  0.90543643  0.69543273  0.89920588  1
  Hf  Hf13  1  0.01123689  0.21305413  0.00134359  1
  Hf  Hf14  1  0.39927612  0.20347042  0.40166817  1
  Hf  Hf15  1  0.79681484  0.20597927  0.39951297  1
  Hf  Hf16  1  0.29465688  0.10602002  0.29428555  1
  Hf  Hf17  1  0.11069489  0.09961140  0.89416814  1
  Hf  Hf18  1  0.89278467  0.49549005  0.30767039  1
  Hf  Hf19  1  0.59334302  -0.01712148  0.20023097  1
  Hf  Hf20  1  0.39945154  0.40828058  0.39756486  1
  Hf  Hf21  1  0.80325216  0.20176945  0.59670405  1
  Hf  Hf22  1  0.29914880  0.30523674  0.50357065  1
  Hf  Hf23  1  0.50942678  0.10164928  0.30066317  1
  Hf  Hf24  1  0.60270811  -0.00609599  -0.00486364  1
  Hf  Hf25  1  0.48890538  0.30692868  0.69192869  1
  Hf  Hf26  1  0.60071223  0.20105692  0.59200651  1
  Hf  Hf27  1  0.39433595  0.40646934  -0.00358383  1
  Hf  Hf28  1  0.89972730  0.69781272  0.09974434  1
  Hf  Hf29  1  0.00245934  0.80277039  -0.00266153  1
  Hf  Hf30  1  0.89800324  0.09604193  0.49640210  1
  Hf  Hf31  1  0.59889939  0.80005171  0.20409842  1
  Hf  Hf32  1  0.90357297  0.11021990  0.11032015  1
  Hf  Hf33  1  0.10917084  0.10611157  0.10462301  1
  Hf  Hf34  1  0.59740273  0.60343300  0.59684770  1
  Hf  Hf35  1  0.00759820  0.40200107  0.80219958  1
  Hf  Hf36  1  0.39828144  0.20595832  0.20017230  1
  Hf  Hf37  1  0.49705533  0.71268811  0.31973874  1
  Hf  Hf38  1  0.29391975  0.70034584  0.70014259  1
  Hf  Hf39  1  0.00373203  0.39923493  0.60552117  1
  Hf  Hf40  1  0.69803192  0.69466465  0.09637835  1
  Hf  Hf41  1  0.00601461  0.20429871  0.39961717  1
  Hf  Hf42  1  0.61135692  0.21628021  -0.00335676  1
  Hf  Hf43  1  0.39201355  -0.00054995  0.59092165  1
  Hf  Hf44  1  0.19618649  0.19784003  0.40746522  1
  Hf  Hf45  1  0.89647564  0.49665387  0.10076233  1
  Hf  Hf46  1  0.21478832  -0.00715467  0.19604890  1
  Hf  Hf47  1  0.00139044  0.60116473  0.60541225  1
  Hf  Hf48  1  0.10986854  0.89170893  0.30584177  1
  Hf  Hf49  1  0.29094712  0.68765835  0.89339870  1
  Zr  Zr50  1  0.00409366  -0.00169982  0.00576187  1
  Zr  Zr51  1  0.39729250  0.80051949  0.20413609  1
  Zr  Zr52  1  0.89748463  0.50027643  0.49607421  1
  Zr  Zr53  1  0.90638887  0.10098284  0.89298155  1
  Zr  Zr54  1  0.29514466  0.89974385  0.89453696  1
  Zr  Zr55  1  0.29509650  0.69667206  0.50111217  1
  Zr  Zr56  1  0.01985151  0.39666486  0.20346625  1
  Zr  Zr57  1  0.28833519  0.88698009  0.49693356  1
  Zr  Zr58  1  0.48866048  0.69843599  0.89874033  1
  Zr  Zr59  1  0.49014379  0.88454757  0.07941776  1
  Zr  Zr60  1  0.11673274  0.51160314  0.90170011  1
  Zr  Zr61  1  0.49199192  0.69562458  0.70245240  1
  Zr  Zr62  1  0.79511940  0.40597377  0.80232987  1
  Zr  Zr63  1  0.49887233  0.89487596  0.70294124  1
  Zr  Zr64  1  0.80301745  0.79382754  0.79643670  1
  Zr  Zr65  1  0.69839934  0.09679520  0.10416551  1
  Zr  Zr66  1  0.60132711  0.59881046  0.81059159  1
  Zr  Zr67  1  0.49383579  0.09914781  0.69768577  1
  Zr  Zr68  1  0.00581167  0.59779908  0.21009047  1
  Zr  Zr69  1  0.10501730  0.89399954  0.10209316  1
  Zr  Zr70  1  0.38607743  0.00748190  0.00791039  1
  Zr  Zr71  1  0.69672732  0.30773346  0.69561108  1
  Zr  Zr72  1  0.10691643  0.69206091  0.09769838  1
  Zr  Zr73  1  0.70346647  0.09546286  0.70003935  1
  Zr  Zr74  1  0.50089098  0.68922735  0.09296065  1
  Zr  Zr75  1  0.89498954  0.30932992  0.29901091  1
  Zr  Zr76  1  0.50434527  0.10462973  0.10333283  1
  Zr  Zr77  1  0.78939844  0.20912153  0.20072783  1
  Zr  Zr78  1  0.90168822  0.30003729  0.69996770  1
  Zr  Zr79  1  0.60272567  -0.01099424  0.59434576  1
  Zr  Zr80  1  0.39047194  0.20018137  0.00141221  1
  Zr  Zr81  1  0.88976566  0.69193883  0.50128125  1
  Zr  Zr82  1  0.50941490  0.10019674  0.48846000  1
  Zr  Zr83  1  0.70991080  0.90001652  0.88966444  1
  Zr  Zr84  1  0.70394822  0.69912560  0.30969327  1
  Zr  Zr85  1  0.68456865  0.50450138  0.10052095  1
  Zr  Zr86  1  0.10151446  0.89754868  0.70277930  1
  Zr  Zr87  1  0.69462091  0.31679123  0.49199831  1
  Zr  Zr88  1  0.49745069  0.09868057  0.89727034  1
  Zr  Zr89  1  0.28974626  0.49830142  0.29489864  1
  Zr  Zr90  1  0.49943036  0.31373409  0.10396491  1
  Zr  Zr91  1  0.91789531  0.90231810  0.87961410  1
  Zr  Zr92  1  0.00994331  0.40041250  0.00191990  1
  Zr  Zr93  1  0.80313260  -0.00808027  0.59841321  1
  Zr  Zr94  1  0.60207709  0.20588497  0.80222782  1
  Zr  Zr95  1  0.00163139  -0.00058104  0.40023663  1
  Zr  Zr96  1  0.11140479  0.49949698  0.49935994  1
  Zr  Zr97  1  0.10691871  0.10420158  0.70096398  1
  Zr  Zr98  1  0.69821324  0.70164186  0.70135766  1
  Zr  Zr99  1  0.81247698  -0.01032084  0.01065114  1
  Ta  Ta100  1  0.29229172  0.30868501  0.10688187  1
  Ta  Ta101  1  0.29386617  0.10125099  0.69974829  1
  Ta  Ta102  1  0.80201236  0.20473313  0.80497917  1
  Ta  Ta103  1  0.20706490  0.79116415  0.19902383  1
  Ta  Ta104  1  0.00477261  0.00192182  0.59590949  1
  Ta  Ta105  1  0.10598747  0.50606872  0.70491815  1
  Ta  Ta106  1  0.00962467  0.20106404  0.59526071  1
  Ta  Ta107  1  0.39210496  0.80128346  0.79697337  1
  Ta  Ta108  1  0.39450178  0.58599509  -0.00528104  1
  Ta  Ta109  1  0.19847422  0.00749430  0.59029613  1
  Ta  Ta110  1  0.30260131  0.69148069  0.09398533  1
  Ta  Ta111  1  0.49964716  0.49876818  0.50603521  1
  Ta  Ta112  1  0.29068874  0.89753262  0.69738401  1
  Ta  Ta113  1  0.70133769  0.89690999  0.30901931  1
  Ta  Ta114  1  0.91209186  0.89646249  0.69524993  1
  Ta  Ta115  1  0.20021031  0.79430798  -0.00511148  1
  Ta  Ta116  1  0.29472965  0.30908728  0.29712116  1
  Ta  Ta117  1  0.50047119  0.30979195  0.50014534  1
  Ta  Ta118  1  0.89646411  0.30784912  0.10547920  1
  Ta  Ta119  1  0.79622232  0.80148372  0.59728762  1
  Ta  Ta120  1  0.40153085  0.79333766  0.59587372  1
  Ta  Ta121  1  0.39227978  0.40351314  0.79929667  1
  Ta  Ta122  1  0.39832374  -0.00674637  0.20061461  1
  Ta  Ta123  1  0.39329675  0.20334690  0.79706930  1
  Ta  Ta124  1  0.60256228  0.79484464  0.58932980  1
  Ta  Ta125  1  0.60049604  -0.00425662  0.80207861  1
  Ta  Ta126  1  0.90210280  0.30439241  0.90085530  1
  Ta  Ta127  1  0.59322713  0.40711803  0.80347466  1
  Ta  Ta128  1  0.59712949  0.60204330  0.40985998  1
  Ta  Ta129  1  0.69742659  0.49636417  0.31521269  1
  Ta  Ta130  1  0.01028554  0.59982407  0.39698796  1
  Ta  Ta131  1  0.69805791  0.09304440  0.48493335  1
  Ta  Ta132  1  0.80316576  0.41339485  0.60276741  1
  Ta  Ta133  1  -0.00089597  0.59953688  0.79603410  1
  Ta  Ta134  1  0.49396369  0.30651464  0.89406835  1
  Ta  Ta135  1  0.19758093  0.00708912  0.40498972  1
  Ta  Ta136  1  0.80433012  -0.01181455  0.20539042  1
  Ta  Ta137  1  0.10179586  0.10110911  0.29533678  1
  Ta  Ta138  1  0.40236338  0.59514591  0.20338475  1
  Ta  Ta139  1  0.70465005  0.50820088  0.49944022  1
  Ta  Ta140  1  0.01000217  0.21182605  0.79963259  1
  Ta  Ta141  1  0.70708580  0.09670984  0.89577758  1
  Ta  Ta142  1  0.10238473  0.89310276  0.50352196  1
  Ta  Ta143  1  0.80535317  0.59424093  0.79694751  1
  Ta  Ta144  1  0.01652112  0.39859118  0.39659370  1
  Ta  Ta145  1  0.10739084  0.90081644  0.88629200  1
  Ta  Ta146  1  0.49092801  0.50239051  0.70188998  1
  Ta  Ta147  1  0.90106783  0.50290014  0.90265496  1
  Ta  Ta148  1  0.12010004  0.50344363  0.10706036  1
  Ta  Ta149  1  0.59226619  0.40955994  0.21363376  1
  Ti  Ti150  1  0.10581392  0.70410994  0.70535796  1
  Ti  Ti151  1  0.89750039  0.09979884  0.30053117  1
  Ti  Ti152  1  0.20562982  0.00209215  0.00396380  1
  Ti  Ti153  1  0.59834631  0.41041604  0.60305418  1
  Ti  Ti154  1  0.10699233  0.30102910  0.50572622  1
  Ti  Ti155  1  0.89994285  0.70041981  0.69655756  1
  Ti  Ti156  1  0.60392839  0.21658603  0.20423190  1
  Ti  Ti157  1  0.38996565  0.41446029  0.60199423  1
  Ti  Ti158  1  0.69623100  0.50474490  0.90446311  1
  Ti  Ti159  1  0.90250159  0.89636425  0.50040089  1
  Ti  Ti160  1  0.19781861  0.59590923  0.39804677  1
  Ti  Ti161  1  0.10990007  0.70493581  0.50374463  1
  Ti  Ti162  1  0.89130353  0.89476359  0.30939788  1
  Ti  Ti163  1  0.70132237  0.90046663  0.48812049  1
  Ti  Ti164  1  0.19847397  0.39712674  0.00376536  1
  Ti  Ti165  1  0.00056748  0.79619317  0.59902607  1
  Ti  Ti166  1  0.29336919  0.28901801  0.69972088  1
  Ti  Ti167  1  0.89530443  0.69565505  0.30675016  1
  Ti  Ti168  1  0.30141830  0.88319040  0.09083815  1
  Ti  Ti169  1  0.39217418  0.19428008  0.59436363  1
  Ti  Ti170  1  0.29751544  0.88677867  0.30881174  1
  Ti  Ti171  1  0.79818819  0.79767029  0.40909959  1
  Ti  Ti172  1  0.19379705  0.21415436  0.20018015  1
  Ti  Ti173  1  -0.00377412  0.79769797  0.20613447  1
  Ti  Ti174  1  0.80643784  0.00150826  0.79013185  1
  Ti  Ti175  1  0.69384331  0.31550564  0.30604377  1
  Ti  Ti176  1  0.49356758  0.89292405  0.89352593  1
  Ti  Ti177  1  0.90102642  0.30932773  0.49724742  1
  Ti  Ti178  1  0.29546767  0.69726832  0.30150728  1
  Ti  Ti179  1  0.00587703  0.59617712  -0.00004163  1
  Ti  Ti180  1  0.91059857  0.10026442  0.70169822  1
  Ti  Ti181  1  0.69657767  0.89353406  0.70298770  1
  Ti  Ti182  1  0.28833090  0.10382385  0.89013496  1
  Ti  Ti183  1  0.29714347  0.50091441  0.10472152  1
  Ti  Ti184  1  0.29882749  0.51147720  0.71018525  1
  Ti  Ti185  1  0.20274127  0.59636247  0.60262172  1
  Ti  Ti186  1  0.50295064  0.30830514  0.30708617  1
  Ti  Ti187  1  0.39405174  0.00098340  0.79707123  1
  Ti  Ti188  1  0.70069582  0.50589157  0.69575197  1
  Ti  Ti189  1  0.10387251  0.70208277  0.89012903  1
  Ti  Ti190  1  0.49707728  0.50196328  0.10273061  1
  Ti  Ti191  1  0.58959562  0.59688884  0.21622676  1
  Ti  Ti192  1  0.11261247  0.69597492  0.29859040  1
  Ti  Ti193  1  0.19867312  0.39685332  0.79652324  1
  Ti  Ti194  1  0.00865553  0.21083125  0.20498100  1
  Ti  Ti195  1  0.59542593  0.40444574  -0.00948035  1
  Ti  Ti196  1  0.79465452  0.60006046  -0.00797306  1
  Ti  Ti197  1  0.70671369  0.89128433  0.10136706  1
  Ti  Ti198  1  0.80469478  0.80176654  0.20187101  1
  Ti  Ti199  1  0.80435910  0.79883373  -0.00192615  1
  Mo  Mo200  1  0.20070416  0.20148212  0.60038262  1
  Mo  Mo201  1  0.00448072  0.78641692  0.79223781  1
  Mo  Mo202  1  0.19258370  0.78962394  0.39517276  1
  Mo  Mo203  1  0.49872028  0.69808966  0.50496034  1
  Mo  Mo204  1  0.19609211  0.79746212  0.79944049  1
  Mo  Mo205  1  0.20297431  0.40061374  0.19836507  1
  Mo  Mo206  1  0.90484581  0.50600819  0.70433727  1
  Mo  Mo207  1  0.59424987  0.59238792  -0.00469739  1
  Mo  Mo208  1  0.49922980  0.90014940  0.30262661  1
  Mo  Mo209  1  0.38807250  0.78991270  -0.00854197  1
  Mo  Mo210  1  0.79603722  0.59932018  0.40159040  1
  Mo  Mo211  1  0.00262430  0.00916439  0.78751611  1
  Mo  Mo212  1  0.70085949  0.70179159  0.50310785  1
  Mo  Mo213  1  0.10963485  0.29859922  0.30290239  1
  Mo  Mo214  1  0.59890673  0.21608058  0.39529575  1
  Mo  Mo215  1  0.29209982  0.11212027  0.10499391  1
  Mo  Mo216  1  0.69428486  0.30488446  0.89354540  1
  Mo  Mo217  1  0.39694864  0.59228271  0.60095798  1
  Mo  Mo218  1  0.79778759  0.59840185  0.60827537  1
  Mo  Mo219  1  0.69322328  0.31445559  0.11310191  1
  Mo  Mo220  1  0.38565394  0.79394544  0.39929312  1
  Mo  Mo221  1  0.80303514  -0.00799081  0.39667096  1
  Mo  Mo222  1  0.78350872  0.40271496  0.20004998  1
  Mo  Mo223  1  0.70982316  0.69166089  0.90149249  1
  Mo  Mo224  1  0.40102719  0.40476527  0.19997698  1
  Mo  Mo225  1  0.10653806  0.29991085  0.89814067  1
  Mo  Mo226  1  0.79695430  0.40274509  0.40449504  1
  Mo  Mo227  1  0.59322821  0.80519163  0.79807401  1
  Mo  Mo228  1  0.30138222  0.50109830  0.50667719  1
  Mo  Mo229  1  0.20973780  0.60326878  0.20013408  1
  Mo  Mo230  1  0.39361330  0.58888692  0.80106666  1
  Mo  Mo231  1  0.20653486  0.59727448  0.00311892  1
  Mo  Mo232  1  0.61450563  0.79580929  0.40719036  1
  Mo  Mo233  1  0.50089893  0.50774108  0.30328621  1
  Mo  Mo234  1  0.19865734  0.39367049  0.39921134  1
  Mo  Mo235  1  0.10967956  0.30265842  0.10186364  1
  Mo  Mo236  1  0.20570739  0.00160443  0.79366991  1
  Mo  Mo237  1  0.19571082  0.60003161  0.79327076  1
  Mo  Mo238  1  0.09751245  0.09762619  0.50127961  1
  Mo  Mo239  1  0.20220627  0.20110550  0.00524165  1
  Mo  Mo240  1  0.19293742  0.79804491  0.60103892  1
  Mo  Mo241  1  0.59284032  0.41024631  0.40264840  1
  Mo  Mo242  1  0.60272695  -0.01351305  0.39363629  1
  Mo  Mo243  1  0.29776268  0.49468917  0.89482810  1
  Mo  Mo244  1  0.29605918  0.10394879  0.50357688  1
  Mo  Mo245  1  0.20255702  0.20539666  0.79695907  1
  Mo  Mo246  1  0.10510535  0.30015004  0.70018580  1
  Mo  Mo247  1  0.49539826  0.49673063  0.89813097  1
  Mo  Mo248  1  0.89807004  0.88397258  0.11454389  1
  Mo  Mo249  1  0.10606686  0.50218007  0.30529932  1
