# generated using pymatgen
data_HfZrTaTiMo
_symmetry_space_group_name_H-M   'P 1'
_cell_length_a   16.87270044
_cell_length_b   16.88408706
_cell_length_c   16.88842593
_cell_angle_alpha   89.99636628
_cell_angle_beta   90.00059869
_cell_angle_gamma   89.94169428
_symmetry_Int_Tables_number   1
_chemical_formula_structural   HfZrTaTiMo
_chemical_formula_sum   'Hf50 Zr50 Ta50 Ti50 Mo50'
_cell_volume   4811.17469576
_cell_formula_units_Z   50
loop_
 _symmetry_equiv_pos_site_id
 _symmetry_equiv_pos_as_xyz
  1  'x, y, z'
loop_
 _atom_site_type_symbol
 _atom_site_label
 _atom_site_symmetry_multiplicity
 _atom_site_fract_x
 _atom_site_fract_y
 _atom_site_fract_z
 _atom_site_occupancy
  Hf  Hf0  1  0.30429737  0.30093857  0.09429234  1
  Hf  Hf1  1  0.80139454  0.60074181  0.79864627  1
  Hf  Hf2  1  0.60728717  0.19879996  0.39918016  1
  Hf  Hf3  1  0.19866632  0.78971783  0.61098808  1
  Hf  Hf4  1  0.41031192  0.20507930  0.19528685  1
  Hf  Hf5  1  0.40529535  -0.00610231  -0.00832010  1
  Hf  Hf6  1  0.31262196  0.09439050  0.29257095  1
  Hf  Hf7  1  0.30026651  0.10162312  0.70222483  1
  Hf  Hf8  1  0.19355705  0.20924211  0.80133947  1
  Hf  Hf9  1  0.80392529  0.40435657  0.40166373  1
  Hf  Hf10  1  0.59967712  0.59689126  0.19139301  1
  Hf  Hf11  1  0.70474370  0.29655816  0.30088387  1
  Hf  Hf12  1  0.30655201  0.50231482  0.89969756  1
  Hf  Hf13  1  0.49366361  0.68882962  0.29708573  1
  Hf  Hf14  1  0.50448942  0.50571156  0.70105095  1
  Hf  Hf15  1  0.59362407  -0.00162859  -0.00260534  1
  Hf  Hf16  1  0.60538620  -0.00207645  0.40476331  1
  Hf  Hf17  1  0.30614651  0.29892835  0.49694051  1
  Hf  Hf18  1  0.49107587  0.69543156  0.90009756  1
  Hf  Hf19  1  0.30510031  0.89401204  0.09106090  1
  Hf  Hf20  1  0.40341096  0.00069806  0.80983500  1
  Hf  Hf21  1  0.08818588  0.09837900  0.29664259  1
  Hf  Hf22  1  0.10099627  0.49215256  0.71171886  1
  Hf  Hf23  1  0.40555324  0.19991046  0.80646662  1
  Hf  Hf24  1  0.69682684  0.50726925  0.50649716  1
  Hf  Hf25  1  0.61320723  0.39164013  0.60176001  1
  Hf  Hf26  1  -0.00953945  0.58899064  0.39827745  1
  Hf  Hf27  1  0.19553750  0.39820435  0.40143918  1
  Hf  Hf28  1  0.39996512  0.40416369  0.60057449  1
  Hf  Hf29  1  0.89458230  0.49641888  0.09255783  1
  Hf  Hf30  1  -0.00247447  0.20888962  0.61095706  1
  Hf  Hf31  1  0.20200870  0.40087548  0.19730274  1
  Hf  Hf32  1  0.09919406  0.89565831  0.49639781  1
  Hf  Hf33  1  0.09730566  0.10623234  0.90380882  1
  Hf  Hf34  1  0.49788652  0.49868822  0.90348388  1
  Hf  Hf35  1  0.30024299  0.69396525  0.29549137  1
  Hf  Hf36  1  0.59998124  0.80163945  0.59722752  1
  Hf  Hf37  1  0.88806909  0.11233205  0.50327083  1
  Hf  Hf38  1  0.50578505  0.90794589  0.28868557  1
  Hf  Hf39  1  0.89142652  0.11201347  0.30231503  1
  Hf  Hf40  1  0.29995198  0.89591808  0.70421790  1
  Hf  Hf41  1  0.91117450  0.71082531  0.89097265  1
  Hf  Hf42  1  0.20005138  -0.00089055  0.19483450  1
  Hf  Hf43  1  0.29608577  0.89388088  0.49118098  1
  Hf  Hf44  1  0.09610225  0.89807024  0.70611030  1
  Hf  Hf45  1  -0.01221736  0.80488171  0.40310094  1
  Hf  Hf46  1  0.80049367  0.61191034  0.00461455  1
  Hf  Hf47  1  0.89926836  0.88895711  0.70133136  1
  Hf  Hf48  1  0.50108863  0.90179582  0.70025532  1
  Hf  Hf49  1  0.20206489  0.00513461  0.59586228  1
  Zr  Zr50  1  0.51281999  0.28311092  0.70055099  1
  Zr  Zr51  1  0.79026931  0.00196789  0.61210840  1
  Zr  Zr52  1  0.79969430  0.59653366  0.39806706  1
  Zr  Zr53  1  0.40672496  0.79243623  0.59707025  1
  Zr  Zr54  1  0.19905005  -0.00591411  -0.00670572  1
  Zr  Zr55  1  0.19697699  0.40570460  -0.00157605  1
  Zr  Zr56  1  0.89574350  0.90599541  0.89760584  1
  Zr  Zr57  1  -0.00890135  0.60143474  0.19702396  1
  Zr  Zr58  1  0.10154235  0.69882727  0.49132341  1
  Zr  Zr59  1  0.68704100  0.70583997  0.90049002  1
  Zr  Zr60  1  0.79783701  -0.00104032  0.19597053  1
  Zr  Zr61  1  -0.00335895  0.60435351  0.60868545  1
  Zr  Zr62  1  0.50595620  0.30228656  0.49776934  1
  Zr  Zr63  1  0.30580188  0.50222211  0.28943948  1
  Zr  Zr64  1  0.69740291  0.90768753  0.89727223  1
  Zr  Zr65  1  0.60072512  0.59132228  0.00384036  1
  Zr  Zr66  1  0.29705158  0.69756970  0.49147302  1
  Zr  Zr67  1  0.20607196  0.60620092  0.00440280  1
  Zr  Zr68  1  0.20411238  0.79856673  0.19175889  1
  Zr  Zr69  1  0.59291964  0.39511848  0.18741949  1
  Zr  Zr70  1  0.89994135  0.48871670  0.89479468  1
  Zr  Zr71  1  -0.01240539  0.01167443  0.80069192  1
  Zr  Zr72  1  0.41482026  0.80362017  0.40177439  1
  Zr  Zr73  1  0.19981420  0.59609156  0.60477303  1
  Zr  Zr74  1  0.51478748  0.10377614  0.51277656  1
  Zr  Zr75  1  0.10668602  0.69884803  0.30133838  1
  Zr  Zr76  1  0.09484287  0.10185483  0.70541965  1
  Zr  Zr77  1  0.19010931  0.20558626  0.59118981  1
  Zr  Zr78  1  0.80040512  0.80212890  0.01055774  1
  Zr  Zr79  1  0.79901595  0.39954162  0.19865793  1
  Zr  Zr80  1  0.00075690  0.40170160  0.20332709  1
  Zr  Zr81  1  0.29663259  0.30530696  0.70424119  1
  Zr  Zr82  1  0.60979912  0.38965662  0.80817823  1
  Zr  Zr83  1  -0.00971221  -0.00566324  0.19559271  1
  Zr  Zr84  1  0.00769991  0.39776356  -0.00050180  1
  Zr  Zr85  1  0.79865584  -0.00459349  0.40522186  1
  Zr  Zr86  1  0.20345236  0.00419382  0.39617244  1
  Zr  Zr87  1  -0.01439253  -0.00022965  0.59484796  1
  Zr  Zr88  1  0.79845915  0.79610926  0.19107931  1
  Zr  Zr89  1  0.40460688  -0.00009147  0.59392926  1
  Zr  Zr90  1  0.01230586  0.60296063  -0.00612451  1
  Zr  Zr91  1  0.60085961  0.79472601  0.19224471  1
  Zr  Zr92  1  0.89358871  0.70503129  0.29976027  1
  Zr  Zr93  1  0.20066415  0.20143806  0.20143505  1
  Zr  Zr94  1  0.60389580  0.79813875  0.40399345  1
  Zr  Zr95  1  0.00495247  0.21000382  0.41017460  1
  Zr  Zr96  1  0.49481500  0.30805454  0.30379191  1
  Zr  Zr97  1  0.78857047  0.79714204  0.78902771  1
  Zr  Zr98  1  0.30046615  0.50155769  0.71234041  1
  Zr  Zr99  1  0.20211040  0.19849963  0.40127991  1
  Ta  Ta100  1  0.09469019  0.49516979  0.50107926  1
  Ta  Ta101  1  0.79872720  0.20841569  0.80331993  1
  Ta  Ta102  1  0.51281885  0.10888566  0.89884786  1
  Ta  Ta103  1  0.68739136  0.69215540  0.69497919  1
  Ta  Ta104  1  0.40198149  0.59081938  0.40716861  1
  Ta  Ta105  1  0.30925659  0.69248234  0.71647725  1
  Ta  Ta106  1  0.69534115  0.50170647  0.29504831  1
  Ta  Ta107  1  0.48690696  0.69486581  0.09173210  1
  Ta  Ta108  1  0.89624239  0.29712175  0.09497167  1
  Ta  Ta109  1  0.09681153  0.89953466  0.09600750  1
  Ta  Ta110  1  0.09696132  0.10457526  0.09304815  1
  Ta  Ta111  1  0.60241371  0.38506572  0.00058136  1
  Ta  Ta112  1  0.40285702  0.79856006  0.19080484  1
  Ta  Ta113  1  0.20356626  0.79661410  0.81147302  1
  Ta  Ta114  1  0.49969873  0.69124098  0.70629187  1
  Ta  Ta115  1  0.30252632  0.10462049  0.09041773  1
  Ta  Ta116  1  0.09382478  0.30187454  0.29918919  1
  Ta  Ta117  1  0.79677939  0.20664124  -0.00436015  1
  Ta  Ta118  1  0.40896275  0.00187670  0.40280065  1
  Ta  Ta119  1  0.69722153  0.10289568  0.09249148  1
  Ta  Ta120  1  0.69025591  0.90851782  0.09981827  1
  Ta  Ta121  1  0.39820728  0.80111736  0.81073470  1
  Ta  Ta122  1  0.60097370  0.00570994  0.79347109  1
  Ta  Ta123  1  0.00481271  0.80263754  0.00361799  1
  Ta  Ta124  1  -0.00581931  0.20273677  -0.00424180  1
  Ta  Ta125  1  0.40128626  0.19377047  0.59936178  1
  Ta  Ta126  1  0.69971087  0.10629846  0.90011508  1
  Ta  Ta127  1  0.89477833  0.30464636  0.50353428  1
  Ta  Ta128  1  0.50558440  0.50183286  0.49977626  1
  Ta  Ta129  1  0.40342344  0.18787040  0.40168995  1
  Ta  Ta130  1  0.20055102  0.79339474  -0.00820619  1
  Ta  Ta131  1  0.70491842  0.49951039  0.70378988  1
  Ta  Ta132  1  0.20497651  -0.00514696  0.80954658  1
  Ta  Ta133  1  0.80166957  0.39982217  0.60573892  1
  Ta  Ta134  1  0.90119451  0.49246681  0.70484683  1
  Ta  Ta135  1  -0.00605458  0.00167655  0.00236668  1
  Ta  Ta136  1  0.19365744  0.39863262  0.59670147  1
  Ta  Ta137  1  0.89901533  0.29618100  0.30161761  1
  Ta  Ta138  1  0.88855060  0.70511856  0.50486152  1
  Ta  Ta139  1  0.70315587  0.49117728  0.09173294  1
  Ta  Ta140  1  0.89671195  0.10695170  0.09301143  1
  Ta  Ta141  1  0.09601144  0.89539117  0.29844492  1
  Ta  Ta142  1  0.50447173  0.10014320  0.09770503  1
  Ta  Ta143  1  0.40756405  0.39076088  0.80929005  1
  Ta  Ta144  1  0.60272947  0.20106209  0.19111789  1
  Ta  Ta145  1  0.89933428  0.30593736  0.70987524  1
  Ta  Ta146  1  0.80263180  0.60130660  0.60856405  1
  Ta  Ta147  1  0.40887474  0.20205057  -0.00281655  1
  Ta  Ta148  1  0.49653419  0.49940356  0.29712399  1
  Ta  Ta149  1  0.79117803  0.60372367  0.19073872  1
  Ti  Ti150  1  0.10199788  0.70234255  0.10387038  1
  Ti  Ti151  1  0.60626205  0.59384056  0.80355039  1
  Ti  Ti152  1  0.29999949  0.30306489  0.90569150  1
  Ti  Ti153  1  0.10308089  0.50351532  0.29769539  1
  Ti  Ti154  1  0.19409866  0.60866904  0.81446987  1
  Ti  Ti155  1  0.70028729  0.89852105  0.29593672  1
  Ti  Ti156  1  0.70849421  0.89323167  0.50408886  1
  Ti  Ti157  1  0.30387440  0.89746335  0.29875728  1
  Ti  Ti158  1  0.79223120  0.01314721  0.78870283  1
  Ti  Ti159  1  0.89269036  0.10975740  0.89921613  1
  Ti  Ti160  1  0.39687972  0.59603803  0.59636067  1
  Ti  Ti161  1  0.58313919  0.80833728  0.00418799  1
  Ti  Ti162  1  0.00278512  0.60058524  0.80193834  1
  Ti  Ti163  1  0.50995856  0.68145612  0.50784639  1
  Ti  Ti164  1  0.79562274  0.20280776  0.18941218  1
  Ti  Ti165  1  0.10044114  0.29877684  0.90027174  1
  Ti  Ti166  1  0.89087301  0.89585998  0.30216229  1
  Ti  Ti167  1  0.68813762  0.12010780  0.70439912  1
  Ti  Ti168  1  0.70439881  0.11293121  0.50709169  1
  Ti  Ti169  1  0.50803761  0.09524291  0.29074351  1
  Ti  Ti170  1  0.41230429  0.39719041  0.00810825  1
  Ti  Ti171  1  -0.00556864  0.79234734  0.60152467  1
  Ti  Ti172  1  0.79155880  0.21490917  0.60880318  1
  Ti  Ti173  1  0.71081116  0.48811175  0.90492720  1
  Ti  Ti174  1  0.59373172  0.80620504  0.79837249  1
  Ti  Ti175  1  0.29472256  0.11097930  0.90756078  1
  Ti  Ti176  1  0.39694831  0.41059041  0.40471655  1
  Ti  Ti177  1  -0.00548800  0.40412222  0.39696612  1
  Ti  Ti178  1  -0.01234149  -0.00665456  0.40227022  1
  Ti  Ti179  1  0.70184711  0.69551077  0.50289643  1
  Ti  Ti180  1  0.00652498  0.38720960  0.80465607  1
  Ti  Ti181  1  0.40693656  -0.00288670  0.18778761  1
  Ti  Ti182  1  0.90147518  0.49687839  0.51227106  1
  Ti  Ti183  1  0.79551209  0.79405841  0.60356449  1
  Ti  Ti184  1  0.60653886  0.40389284  0.39959232  1
  Ti  Ti185  1  0.80161868  0.00556590  0.00299398  1
  Ti  Ti186  1  0.60974612  -0.00057343  0.60795068  1
  Ti  Ti187  1  0.10163571  0.28968277  0.09584682  1
  Ti  Ti188  1  0.10924182  0.50994278  0.10936098  1
  Ti  Ti189  1  -0.00439077  0.20417768  0.19281971  1
  Ti  Ti190  1  0.09309849  0.89555979  0.89695507  1
  Ti  Ti191  1  0.30778742  0.30303188  0.29998412  1
  Ti  Ti192  1  0.09070102  0.09314224  0.49785368  1
  Ti  Ti193  1  0.59941285  0.59590364  0.39700019  1
  Ti  Ti194  1  0.20586151  0.58392884  0.40522760  1
  Ti  Ti195  1  0.00257383  0.39477408  0.60236251  1
  Ti  Ti196  1  -0.00735589  0.80360011  0.18982542  1
  Ti  Ti197  1  0.70061844  0.10153008  0.29250004  1
  Ti  Ti198  1  0.70046494  0.69822699  0.30255142  1
  Ti  Ti199  1  0.09253376  0.70630381  0.71797711  1
  Mo  Mo200  1  0.20213218  0.59854723  0.19399858  1
  Mo  Mo201  1  0.20043545  0.20231623  -0.00138231  1
  Mo  Mo202  1  0.39739274  0.59648539  0.00492375  1
  Mo  Mo203  1  0.49496031  0.49403994  0.09918789  1
  Mo  Mo204  1  0.79411911  0.39067753  -0.00381097  1
  Mo  Mo205  1  0.31325633  0.50138742  0.09893294  1
  Mo  Mo206  1  0.61344192  0.20071311  0.60016958  1
  Mo  Mo207  1  0.29935276  0.49708955  0.50078534  1
  Mo  Mo208  1  -0.00866617  0.20992935  0.80750496  1
  Mo  Mo209  1  0.08951983  0.31696299  0.49963082  1
  Mo  Mo210  1  0.89063290  0.88771298  0.50604845  1
  Mo  Mo211  1  0.49717124  0.89830418  0.09727312  1
  Mo  Mo212  1  0.50814632  0.09862277  0.70500699  1
  Mo  Mo213  1  0.90142428  0.69577509  0.69774982  1
  Mo  Mo214  1  0.30147750  0.69975229  0.90243850  1
  Mo  Mo215  1  0.80094182  0.39952515  0.79942517  1
  Mo  Mo216  1  0.10516787  0.49942777  0.88697649  1
  Mo  Mo217  1  0.89215357  0.49656406  0.29356735  1
  Mo  Mo218  1  0.40426916  0.60080491  0.80333065  1
  Mo  Mo219  1  0.88485571  0.11563890  0.70550531  1
  Mo  Mo220  1  0.30067870  0.89187924  0.89996351  1
  Mo  Mo221  1  0.79774094  0.20696181  0.40400072  1
  Mo  Mo222  1  0.51198754  0.91121172  0.49993316  1
  Mo  Mo223  1  0.50155316  0.29558790  0.09335846  1
  Mo  Mo224  1  0.39560594  0.79521723  -0.00211366  1
  Mo  Mo225  1  0.91309184  0.70406843  0.09756780  1
  Mo  Mo226  1  0.40118991  0.59721355  0.19111784  1
  Mo  Mo227  1  0.50262180  0.29779802  0.90557097  1
  Mo  Mo228  1  0.79252226  0.80073345  0.40618058  1
  Mo  Mo229  1  0.00705647  0.80090783  0.80297301  1
  Mo  Mo230  1  0.90075579  0.29721962  0.90025990  1
  Mo  Mo231  1  0.31066815  0.10154781  0.49672821  1
  Mo  Mo232  1  0.70925723  0.30116024  0.49928180  1
  Mo  Mo233  1  0.70148273  0.29368682  0.09536461  1
  Mo  Mo234  1  0.60254083  0.59975198  0.60180643  1
  Mo  Mo235  1  0.70393969  0.29661842  0.90252228  1
  Mo  Mo236  1  0.09383906  0.30873476  0.70239859  1
  Mo  Mo237  1  0.30758564  0.69701548  0.09731899  1
  Mo  Mo238  1  0.50109839  0.89486818  0.89566836  1
  Mo  Mo239  1  0.68576489  0.70133871  0.09569067  1
  Mo  Mo240  1  0.60298009  0.19913553  0.00032618  1
  Mo  Mo241  1  0.69483102  0.89575117  0.69940362  1
  Mo  Mo242  1  0.60325384  0.00771864  0.19693856  1
  Mo  Mo243  1  0.71032461  0.30251312  0.70541780  1
  Mo  Mo244  1  0.19507551  0.80724032  0.38597599  1
  Mo  Mo245  1  0.40072424  0.40328936  0.19215699  1
  Mo  Mo246  1  0.10147746  0.70349846  0.89807277  1
  Mo  Mo247  1  0.60753970  0.19819900  0.80656340  1
  Mo  Mo248  1  0.19797734  0.39686399  0.80882809  1
  Mo  Mo249  1  0.90244729  0.90513136  0.09413660  1
