# generated using pymatgen
data_HfZrTaTiMo
_symmetry_space_group_name_H-M   'P 1'
_cell_length_a   16.88234106
_cell_length_b   16.89830111
_cell_length_c   16.89263983
_cell_angle_alpha   90.00061117
_cell_angle_beta   90.00546268
_cell_angle_gamma   90.02896527
_symmetry_Int_Tables_number   1
_chemical_formula_structural   HfZrTaTiMo
_chemical_formula_sum   'Hf50 Zr50 Ta50 Ti50 Mo50'
_cell_volume   4819.18034771
_cell_formula_units_Z   50
loop_
 _symmetry_equiv_pos_site_id
 _symmetry_equiv_pos_as_xyz
  1  'x, y, z'
loop_
 _atom_site_type_symbol
 _atom_site_label
 _atom_site_symmetry_multiplicity
 _atom_site_fract_x
 _atom_site_fract_y
 _atom_site_fract_z
 _atom_site_occupancy
  Hf  Hf0  1  0.91206056  0.70138747  0.10685428  1
  Hf  Hf1  1  0.89837348  0.30315518  0.10724636  1
  Hf  Hf2  1  0.50993272  0.50943434  0.09766921  1
  Hf  Hf3  1  0.39275801  0.79642618  0.60006073  1
  Hf  Hf4  1  0.61161166  0.20470951  0.20524705  1
  Hf  Hf5  1  0.88964237  0.29814129  0.49518820  1
  Hf  Hf6  1  -0.00348570  0.40546909  0.39919955  1
  Hf  Hf7  1  0.81030218  0.80742623  0.60755906  1
  Hf  Hf8  1  0.90504211  0.10523415  0.70235182  1
  Hf  Hf9  1  0.29705636  0.09012347  0.49623737  1
  Hf  Hf10  1  0.90126773  0.70418876  0.90782141  1
  Hf  Hf11  1  0.69500025  0.69575833  0.30480982  1
  Hf  Hf12  1  0.50196968  0.69969370  0.09477419  1
  Hf  Hf13  1  0.70445450  0.29698615  0.49713102  1
  Hf  Hf14  1  0.70391235  0.90492105  0.49829378  1
  Hf  Hf15  1  0.59546573  0.40520383  0.60222850  1
  Hf  Hf16  1  0.39828919  0.59922955  0.40856447  1
  Hf  Hf17  1  0.60715122  0.39265577  0.20027119  1
  Hf  Hf18  1  0.59502438  0.59483072  0.59759338  1
  Hf  Hf19  1  0.00640019  0.40606729  0.60011634  1
  Hf  Hf20  1  0.19424323  0.20665047  0.20816111  1
  Hf  Hf21  1  0.59191742  0.61582276  -0.03175546  1
  Hf  Hf22  1  0.60176097  0.79879388  0.60597151  1
  Hf  Hf23  1  0.79607093  0.20526309  0.00799191  1
  Hf  Hf24  1  0.80202755  -0.00602391  0.80253752  1
  Hf  Hf25  1  0.20151794  0.60703615  0.00069814  1
  Hf  Hf26  1  0.49832638  0.29775084  0.70027643  1
  Hf  Hf27  1  0.00074199  0.20642923  0.39301280  1
  Hf  Hf28  1  0.89425636  0.49654607  0.10143575  1
  Hf  Hf29  1  0.19701336  -0.01001003  0.79829126  1
  Hf  Hf30  1  0.90220380  0.90061268  0.10452782  1
  Hf  Hf31  1  0.30268797  0.50388813  0.09972812  1
  Hf  Hf32  1  0.30049899  0.30317929  0.10132977  1
  Hf  Hf33  1  0.49931512  0.29907008  0.49838069  1
  Hf  Hf34  1  0.80877738  0.40408591  0.79840678  1
  Hf  Hf35  1  0.30500451  0.09602690  0.69748418  1
  Hf  Hf36  1  0.60010147  -0.00766515  0.00204433  1
  Hf  Hf37  1  0.90802530  0.91223060  0.30004631  1
  Hf  Hf38  1  0.39938925  0.19993542  0.59550586  1
  Hf  Hf39  1  0.90809382  0.29772242  0.90166076  1
  Hf  Hf40  1  0.51061333  0.51099417  0.30312566  1
  Hf  Hf41  1  0.70378983  0.10007715  0.10339337  1
  Hf  Hf42  1  0.00158389  0.58873998  0.79792067  1
  Hf  Hf43  1  0.49510415  0.09885964  0.30313837  1
  Hf  Hf44  1  0.20123730  0.20322904  0.59631339  1
  Hf  Hf45  1  0.60043242  -0.00666187  0.20415655  1
  Hf  Hf46  1  0.89504963  0.10649598  0.29445086  1
  Hf  Hf47  1  0.60600628  0.40416383  0.40349552  1
  Hf  Hf48  1  0.29752662  0.09581453  0.30135667  1
  Hf  Hf49  1  -0.00954122  0.80651445  0.78399303  1
  Zr  Zr50  1  0.19252681  0.40650837  -0.00456120  1
  Zr  Zr51  1  0.20224757  0.79934735  0.78215222  1
  Zr  Zr52  1  0.00057408  -0.01153485  0.79729674  1
  Zr  Zr53  1  0.70574373  0.50495692  0.69574694  1
  Zr  Zr54  1  0.29826744  0.10125906  0.10452029  1
  Zr  Zr55  1  0.50470174  0.69905127  0.49452326  1
  Zr  Zr56  1  0.49740721  0.29638747  0.89610386  1
  Zr  Zr57  1  0.29551328  0.70191976  0.29801448  1
  Zr  Zr58  1  0.49569336  0.29915822  0.30629029  1
  Zr  Zr59  1  0.70350181  0.30471923  0.89953517  1
  Zr  Zr60  1  0.39422255  -0.00851028  0.80303076  1
  Zr  Zr61  1  0.10623369  0.30021588  0.71239984  1
  Zr  Zr62  1  0.70670196  0.69761927  0.49697462  1
  Zr  Zr63  1  -0.00160080  -0.00511083  0.00138661  1
  Zr  Zr64  1  0.09285552  0.49900015  0.11430400  1
  Zr  Zr65  1  0.70459615  0.50000270  0.09785383  1
  Zr  Zr66  1  0.69598283  0.68969067  0.09852478  1
  Zr  Zr67  1  0.49369497  0.10620197  0.89633470  1
  Zr  Zr68  1  0.09017334  0.11022876  0.89805521  1
  Zr  Zr69  1  0.10198081  0.70801202  0.89659465  1
  Zr  Zr70  1  0.00772737  0.59426445  -0.00332686  1
  Zr  Zr71  1  0.10172878  0.09690251  0.48937766  1
  Zr  Zr72  1  0.00426398  0.80865381  0.40395095  1
  Zr  Zr73  1  0.39307713  -0.00941676  0.00485286  1
  Zr  Zr74  1  0.09184192  0.68917660  0.68445143  1
  Zr  Zr75  1  0.59728557  -0.00539161  0.80307421  1
  Zr  Zr76  1  0.49405748  0.10624476  0.10415553  1
  Zr  Zr77  1  0.20141415  0.59334762  0.40419347  1
  Zr  Zr78  1  0.60488437  0.77708825  0.81122733  1
  Zr  Zr79  1  0.30203670  0.30410337  0.89208529  1
  Zr  Zr80  1  0.09812432  0.69688036  0.29704446  1
  Zr  Zr81  1  0.29755547  0.30981431  0.49414254  1
  Zr  Zr82  1  0.08601056  0.10587994  0.10428588  1
  Zr  Zr83  1  0.78885818  0.80001175  0.00606681  1
  Zr  Zr84  1  0.21105143  0.19168043  0.80539060  1
  Zr  Zr85  1  0.00336037  0.20250916  0.59217852  1
  Zr  Zr86  1  0.39859391  0.60208734  0.20024154  1
  Zr  Zr87  1  0.29858139  0.88016023  0.90149606  1
  Zr  Zr88  1  0.40710857  0.41090230  -0.00506740  1
  Zr  Zr89  1  0.60265030  0.00089970  0.60182629  1
  Zr  Zr90  1  0.90615260  0.69421580  0.50603028  1
  Zr  Zr91  1  0.90532519  0.70544890  0.29656744  1
  Zr  Zr92  1  0.89834796  0.10782029  0.90443824  1
  Zr  Zr93  1  0.90342712  0.29922233  0.70140752  1
  Zr  Zr94  1  0.10305865  0.90822339  0.50157303  1
  Zr  Zr95  1  0.20737120  0.79905713  0.59773996  1
  Zr  Zr96  1  0.80689040  0.60620238  0.80245894  1
  Zr  Zr97  1  0.71074255  0.50429738  0.90809942  1
  Zr  Zr98  1  0.18930273  -0.01894632  0.19452847  1
  Zr  Zr99  1  0.39368205  0.80253793  0.19432121  1
  Ta  Ta100  1  0.09777110  0.69271549  0.50054302  1
  Ta  Ta101  1  0.29758763  0.89608768  0.30266602  1
  Ta  Ta102  1  0.50106686  0.09787729  0.49766706  1
  Ta  Ta103  1  0.61103156  0.19229892  0.39742996  1
  Ta  Ta104  1  0.40726759  0.41167372  0.79344604  1
  Ta  Ta105  1  0.80708642  0.59195955  0.39676623  1
  Ta  Ta106  1  0.60345295  0.80538045  0.19726631  1
  Ta  Ta107  1  0.60089803  0.39601040  -0.00017450  1
  Ta  Ta108  1  0.49606704  0.89041360  0.70517775  1
  Ta  Ta109  1  0.49223876  0.69601269  0.70394586  1
  Ta  Ta110  1  0.69885566  0.10026900  0.90198585  1
  Ta  Ta111  1  0.20188008  0.39847217  0.20787794  1
  Ta  Ta112  1  0.79011258  0.19509931  0.60451522  1
  Ta  Ta113  1  0.79039088  0.80657474  0.20209098  1
  Ta  Ta114  1  0.79088192  0.20054158  0.79392152  1
  Ta  Ta115  1  0.60679010  0.20057711  0.79373028  1
  Ta  Ta116  1  0.08832271  0.30144536  0.10197833  1
  Ta  Ta117  1  0.60293499  0.20530916  0.00334049  1
  Ta  Ta118  1  0.39859149  -0.01188741  0.20319281  1
  Ta  Ta119  1  0.20424440  0.79943252  0.40460060  1
  Ta  Ta120  1  0.30711793  0.30965421  0.70071182  1
  Ta  Ta121  1  0.30165973  0.50685368  0.89058068  1
  Ta  Ta122  1  0.39985310  0.40100082  0.20485553  1
  Ta  Ta123  1  0.30225944  0.49935666  0.69934427  1
  Ta  Ta124  1  0.59566182  0.40886081  0.79938978  1
  Ta  Ta125  1  -0.00326716  0.58773975  0.40114024  1
  Ta  Ta126  1  0.59938104  0.00158426  0.39805797  1
  Ta  Ta127  1  0.49835600  0.89323145  0.30507353  1
  Ta  Ta128  1  0.10057234  0.09541388  0.69512794  1
  Ta  Ta129  1  0.80563321  0.59873396  0.20652281  1
  Ta  Ta130  1  0.49726279  0.87641206  0.90424916  1
  Ta  Ta131  1  0.40138134  -0.00751751  0.39992990  1
  Ta  Ta132  1  0.19749919  0.20060302  0.00129727  1
  Ta  Ta133  1  0.09522608  0.29998833  0.90241224  1
  Ta  Ta134  1  0.89096888  0.09926605  0.49341444  1
  Ta  Ta135  1  0.50936942  0.70363788  0.30223780  1
  Ta  Ta136  1  0.19812119  0.79797234  0.02201824  1
  Ta  Ta137  1  -0.00473991  -0.00089510  0.59940188  1
  Ta  Ta138  1  0.70311795  0.50328474  0.29734608  1
  Ta  Ta139  1  0.69980662  0.89239426  0.90250652  1
  Ta  Ta140  1  0.49867055  0.10178819  0.69897581  1
  Ta  Ta141  1  0.79368417  -0.00177718  0.19990202  1
  Ta  Ta142  1  0.02503988  0.81776023  0.19468923  1
  Ta  Ta143  1  0.00824649  0.41251843  0.80368286  1
  Ta  Ta144  1  0.70333610  0.89409576  0.70913135  1
  Ta  Ta145  1  0.49989610  0.90173856  0.49882728  1
  Ta  Ta146  1  0.20104707  -0.00104254  -0.00397517  1
  Ta  Ta147  1  0.30181413  0.49395898  0.50853000  1
  Ta  Ta148  1  0.39394824  0.80121706  0.40651598  1
  Ta  Ta149  1  0.49721618  0.29852794  0.09929240  1
  Ti  Ti150  1  0.80106176  0.40516271  0.38828102  1
  Ti  Ti151  1  0.80492253  0.80336683  0.39778210  1
  Ti  Ti152  1  0.09723810  0.50355807  0.29638729  1
  Ti  Ti153  1  0.90178622  0.69076866  0.68915675  1
  Ti  Ti154  1  0.39038135  0.19708516  -0.00502749  1
  Ti  Ti155  1  0.19394261  0.58904711  0.79572772  1
  Ti  Ti156  1  0.89131626  0.50001269  0.50574710  1
  Ti  Ti157  1  0.19874192  0.40635553  0.60709370  1
  Ti  Ti158  1  0.10359901  0.50358267  0.50535918  1
  Ti  Ti159  1  0.20699352  0.59816933  0.59819187  1
  Ti  Ti160  1  0.10641423  0.30844185  0.49335786  1
  Ti  Ti161  1  0.29869265  0.49728821  0.29798563  1
  Ti  Ti162  1  0.09755202  0.88790772  0.90905497  1
  Ti  Ti163  1  0.39917821  0.40838072  0.39929746  1
  Ti  Ti164  1  0.59472687  0.59645610  0.79469506  1
  Ti  Ti165  1  0.39331341  0.20910148  0.20838863  1
  Ti  Ti166  1  0.90085123  0.50661001  0.68589999  1
  Ti  Ti167  1  0.59886025  0.80721219  0.39975066  1
  Ti  Ti168  1  0.30403920  0.69409178  0.89430647  1
  Ti  Ti169  1  0.60599765  0.19665441  0.60151590  1
  Ti  Ti170  1  0.40366485  -0.00733351  0.59995060  1
  Ti  Ti171  1  0.19697899  -0.00758452  0.39061093  1
  Ti  Ti172  1  0.19900735  0.20827148  0.39062968  1
  Ti  Ti173  1  0.80180000  0.00255530  0.60622917  1
  Ti  Ti174  1  0.70958851  0.69789588  0.69939862  1
  Ti  Ti175  1  0.19799388  0.60581786  0.19330417  1
  Ti  Ti176  1  -0.00143292  0.81425282  0.60128865  1
  Ti  Ti177  1  0.41086623  0.59461724  0.80463006  1
  Ti  Ti178  1  0.89520542  0.88985695  0.90518155  1
  Ti  Ti179  1  0.79139773  0.00864477  0.39201268  1
  Ti  Ti180  1  0.08415423  0.08748822  0.29595593  1
  Ti  Ti181  1  0.69837713  0.09712633  0.70376103  1
  Ti  Ti182  1  0.70928408  0.50460699  0.49752683  1
  Ti  Ti183  1  0.50132720  0.89020580  0.09616847  1
  Ti  Ti184  1  0.00018186  0.40625666  -0.00762933  1
  Ti  Ti185  1  0.19936824  0.40280711  0.39090713  1
  Ti  Ti186  1  0.40268398  0.59170844  0.59874312  1
  Ti  Ti187  1  -0.00883333  0.40232007  0.21452141  1
  Ti  Ti188  1  0.38924643  0.78739984  0.00607073  1
  Ti  Ti189  1  0.90207770  0.10703406  0.11162674  1
  Ti  Ti190  1  0.09563442  0.30625537  0.29530485  1
  Ti  Ti191  1  0.30684090  0.68486143  0.70451892  1
  Ti  Ti192  1  0.79557072  0.39559392  0.60426314  1
  Ti  Ti193  1  0.88499861  0.29617581  0.29444746  1
  Ti  Ti194  1  0.39385436  0.19933623  0.39997502  1
  Ti  Ti195  1  0.29903580  0.90740246  0.50022753  1
  Ti  Ti196  1  0.70323833  0.10067773  0.49780483  1
  Ti  Ti197  1  0.89692360  0.91595247  0.49459338  1
  Ti  Ti198  1  0.70030521  0.89937505  0.30376911  1
  Ti  Ti199  1  0.79659762  -0.00271056  0.00362564  1
  Mo  Mo200  1  0.90393459  0.49414159  0.90846338  1
  Mo  Mo201  1  -0.00470321  0.00903588  0.40278458  1
  Mo  Mo202  1  0.89708705  0.49781716  0.29855125  1
  Mo  Mo203  1  0.69997812  0.30302189  0.10011744  1
  Mo  Mo204  1  0.09683888  0.90505222  0.68882349  1
  Mo  Mo205  1  0.00596911  0.80220694  0.00388110  1
  Mo  Mo206  1  0.29685420  0.69164029  0.50465439  1
  Mo  Mo207  1  0.29728337  0.69755488  0.09813655  1
  Mo  Mo208  1  0.10153056  0.70170093  0.10814640  1
  Mo  Mo209  1  0.11146044  0.49834293  0.69756550  1
  Mo  Mo210  1  -0.00133833  0.20855883  0.20566918  1
  Mo  Mo211  1  0.39719288  0.78994724  0.79092130  1
  Mo  Mo212  1  0.71590129  0.70071314  0.89711458  1
  Mo  Mo213  1  0.49158799  0.49584231  0.50086973  1
  Mo  Mo214  1  0.80281671  0.40026794  0.00152824  1
  Mo  Mo215  1  0.50169597  0.50169645  0.89414298  1
  Mo  Mo216  1  0.47542291  0.70170095  0.89509466  1
  Mo  Mo217  1  0.60760631  0.59328533  0.40371323  1
  Mo  Mo218  1  0.19835596  0.79857922  0.19989895  1
  Mo  Mo219  1  -0.00467808  0.00154019  0.20237417  1
  Mo  Mo220  1  0.60438163  0.60672514  0.20866032  1
  Mo  Mo221  1  0.80839738  0.60142640  0.00469301  1
  Mo  Mo222  1  0.30503202  0.90702177  0.69158704  1
  Mo  Mo223  1  0.19932488  -0.00155533  0.60553471  1
  Mo  Mo224  1  0.80103210  0.80064719  0.79808514  1
  Mo  Mo225  1  0.70147450  0.09663771  0.30189927  1
  Mo  Mo226  1  0.79776769  0.20151676  0.20265922  1
  Mo  Mo227  1  0.59529312  0.80155908  -0.00073400  1
  Mo  Mo228  1  0.79641730  0.39810389  0.20780079  1
  Mo  Mo229  1  0.00462404  0.20517910  0.79976015  1
  Mo  Mo230  1  0.39582341  0.60518762  -0.01065453  1
  Mo  Mo231  1  0.09920510  0.90185272  0.08890092  1
  Mo  Mo232  1  0.39916999  0.40614439  0.60151174  1
  Mo  Mo233  1  0.69575936  0.29822993  0.69794458  1
  Mo  Mo234  1  0.80430422  0.59973455  0.59538594  1
  Mo  Mo235  1  0.29845378  0.30764095  0.30275445  1
  Mo  Mo236  1  0.00149211  0.58625215  0.59316871  1
  Mo  Mo237  1  0.79466322  0.19656980  0.40042918  1
  Mo  Mo238  1  0.40414985  0.20089747  0.79118752  1
  Mo  Mo239  1  0.89520332  0.90870358  0.69117169  1
  Mo  Mo240  1  0.29725258  0.89593226  0.10063638  1
  Mo  Mo241  1  0.00021478  0.20935150  0.00712465  1
  Mo  Mo242  1  0.71164909  0.29967408  0.30316289  1
  Mo  Mo243  1  0.10731825  0.49589378  0.89356321  1
  Mo  Mo244  1  0.29442735  0.10006635  0.90614053  1
  Mo  Mo245  1  0.49668688  0.50481281  0.70057058  1
  Mo  Mo246  1  -0.00193978  0.59349002  0.20899564  1
  Mo  Mo247  1  0.10406530  0.90102429  0.30887545  1
  Mo  Mo248  1  0.69912290  0.90267004  0.10296645  1
  Mo  Mo249  1  0.20574280  0.40760377  0.79804955  1
