# generated using pymatgen
data_HfZrTaTiMo
_symmetry_space_group_name_H-M   'P 1'
_cell_length_a   16.88909501
_cell_length_b   16.88360978
_cell_length_c   16.88919071
_cell_angle_alpha   89.96256570
_cell_angle_beta   90.04753975
_cell_angle_gamma   90.01403879
_symmetry_Int_Tables_number   1
_chemical_formula_structural   HfZrTaTiMo
_chemical_formula_sum   'Hf50 Zr50 Ta50 Ti50 Mo50'
_cell_volume   4815.93114946
_cell_formula_units_Z   50
loop_
 _symmetry_equiv_pos_site_id
 _symmetry_equiv_pos_as_xyz
  1  'x, y, z'
loop_
 _atom_site_type_symbol
 _atom_site_label
 _atom_site_symmetry_multiplicity
 _atom_site_fract_x
 _atom_site_fract_y
 _atom_site_fract_z
 _atom_site_occupancy
  Hf  Hf0  1  -0.00468144  0.40646793  0.19130407  1
  Hf  Hf1  1  0.19926498  -0.00080446  0.79473426  1
  Hf  Hf2  1  0.59720632  -0.00230382  0.79211940  1
  Hf  Hf3  1  0.31629307  0.70087538  0.29889795  1
  Hf  Hf4  1  0.50244032  0.89274755  0.29217427  1
  Hf  Hf5  1  0.09900030  0.69953371  0.50819207  1
  Hf  Hf6  1  0.30638415  0.49529636  0.09634758  1
  Hf  Hf7  1  0.80201333  -0.00471712  0.39822878  1
  Hf  Hf8  1  0.01175260  0.78812804  0.20716864  1
  Hf  Hf9  1  0.29659659  0.69938753  0.69340935  1
  Hf  Hf10  1  0.88414385  0.70258782  0.29643842  1
  Hf  Hf11  1  0.09820687  0.89588712  0.50423288  1
  Hf  Hf12  1  0.40591831  0.00159775  0.59306210  1
  Hf  Hf13  1  0.80239504  0.80403804  0.80567170  1
  Hf  Hf14  1  0.11230551  0.30958484  0.89953417  1
  Hf  Hf15  1  -0.00741801  0.60534051  0.39656161  1
  Hf  Hf16  1  0.90785339  0.91637938  0.89969202  1
  Hf  Hf17  1  0.30320533  0.30344713  0.90862625  1
  Hf  Hf18  1  0.59512789  0.20038988  0.19587466  1
  Hf  Hf19  1  0.69237364  0.09334575  0.29553476  1
  Hf  Hf20  1  0.40932704  0.80180410  0.79462892  1
  Hf  Hf21  1  -0.01375101  0.58881594  0.60523439  1
  Hf  Hf22  1  0.60259915  0.21399936  0.79542625  1
  Hf  Hf23  1  0.30196561  0.70391522  0.90557562  1
  Hf  Hf24  1  0.90045651  0.10153279  0.50129443  1
  Hf  Hf25  1  0.40043373  -0.00068213  0.79470110  1
  Hf  Hf26  1  0.89429334  0.10721962  0.89650493  1
  Hf  Hf27  1  0.19653410  0.79033585  0.39380700  1
  Hf  Hf28  1  0.40833957  0.59744816  0.19860341  1
  Hf  Hf29  1  0.31043698  0.09789374  0.30034294  1
  Hf  Hf30  1  0.09239782  0.91478833  0.90305614  1
  Hf  Hf31  1  0.30220583  0.88944572  0.49642144  1
  Hf  Hf32  1  0.69430854  0.89323405  0.29610678  1
  Hf  Hf33  1  0.69530993  0.49925137  0.69713846  1
  Hf  Hf34  1  0.10394854  0.50116065  0.71061315  1
  Hf  Hf35  1  0.59630605  0.40166545  0.58613257  1
  Hf  Hf36  1  0.79558065  -0.00199625  0.19500652  1
  Hf  Hf37  1  0.79590533  0.79547541  0.00276281  1
  Hf  Hf38  1  0.79051950  0.21489981  0.59866491  1
  Hf  Hf39  1  0.41321668  0.19770657  0.40336386  1
  Hf  Hf40  1  0.69472143  0.49867056  0.30133313  1
  Hf  Hf41  1  0.89947083  0.30015888  0.29890108  1
  Hf  Hf42  1  0.49920714  0.71586291  0.11440397  1
  Hf  Hf43  1  0.19107787  0.80422706  0.80428265  1
  Hf  Hf44  1  0.40462373  0.59861590  0.80737399  1
  Hf  Hf45  1  0.09426703  0.29685036  0.30720994  1
  Hf  Hf46  1  0.19804851  0.00290784  0.39722056  1
  Hf  Hf47  1  0.19574378  0.00203760  0.60108594  1
  Hf  Hf48  1  0.50716632  0.50284657  0.30600307  1
  Hf  Hf49  1  0.21118688  0.39880655  0.39734475  1
  Zr  Zr50  1  0.20411273  0.39772784  0.20361193  1
  Zr  Zr51  1  0.30187464  0.11519395  0.69171595  1
  Zr  Zr52  1  0.10686707  0.69114929  0.08724591  1
  Zr  Zr53  1  0.10169684  0.69326728  0.70367808  1
  Zr  Zr54  1  0.79505933  0.40585719  0.40258515  1
  Zr  Zr55  1  0.50505115  0.10455836  0.91334586  1
  Zr  Zr56  1  0.60539140  0.80780612  0.01083610  1
  Zr  Zr57  1  0.59873644  0.80879632  0.79353420  1
  Zr  Zr58  1  0.70362433  0.10722981  0.70007349  1
  Zr  Zr59  1  0.29268594  0.88890032  0.68814489  1
  Zr  Zr60  1  0.89866732  0.69099336  0.10178903  1
  Zr  Zr61  1  0.50071589  0.50055358  0.69699212  1
  Zr  Zr62  1  0.40607441  0.60122220  0.59104875  1
  Zr  Zr63  1  0.69709291  0.69385233  0.89933571  1
  Zr  Zr64  1  0.49436622  0.90825431  0.91370183  1
  Zr  Zr65  1  0.09808178  0.50459453  0.08987354  1
  Zr  Zr66  1  -0.00231337  0.78688726  -0.01249745  1
  Zr  Zr67  1  0.89592414  0.69641082  0.70114671  1
  Zr  Zr68  1  0.00123607  0.20752124  0.79909763  1
  Zr  Zr69  1  0.00688033  0.19636850  0.19516764  1
  Zr  Zr70  1  0.51169293  0.69711753  0.49017516  1
  Zr  Zr71  1  0.09605566  0.10791457  0.49507633  1
  Zr  Zr72  1  0.20403417  0.00251611  0.19614685  1
  Zr  Zr73  1  0.59834377  0.80423691  0.60258137  1
  Zr  Zr74  1  0.09501135  0.29978693  0.49126035  1
  Zr  Zr75  1  0.10309507  0.10128020  0.90581561  1
  Zr  Zr76  1  0.90409358  0.89452103  0.10456040  1
  Zr  Zr77  1  0.00439214  0.00808791  0.20105068  1
  Zr  Zr78  1  0.31430108  0.90161238  0.29852057  1
  Zr  Zr79  1  0.68639804  0.70231827  0.30549299  1
  Zr  Zr80  1  0.69785089  0.69056941  0.69315085  1
  Zr  Zr81  1  0.70264942  0.09532323  0.50047830  1
  Zr  Zr82  1  0.89800183  0.90117874  0.50615400  1
  Zr  Zr83  1  -0.01440065  0.40819653  0.79975042  1
  Zr  Zr84  1  0.09049666  0.49357023  0.49457431  1
  Zr  Zr85  1  0.60023374  0.20396081  0.39841136  1
  Zr  Zr86  1  0.88689619  0.30134605  0.09135659  1
  Zr  Zr87  1  0.90709128  0.30037439  0.48775977  1
  Zr  Zr88  1  0.29772382  0.10729269  0.91061227  1
  Zr  Zr89  1  0.40648834  0.20682450  0.80117042  1
  Zr  Zr90  1  0.20826760  0.59817926  0.40154827  1
  Zr  Zr91  1  0.79518032  0.00043607  0.00449724  1
  Zr  Zr92  1  0.60037399  0.59943254  0.01205199  1
  Zr  Zr93  1  0.00374090  0.20668277  0.00265226  1
  Zr  Zr94  1  0.00179229  0.20827136  0.61144624  1
  Zr  Zr95  1  0.19745397  0.60260822  0.20878334  1
  Zr  Zr96  1  0.59736631  -0.00613870  0.60236318  1
  Zr  Zr97  1  0.80773219  0.58834608  0.80658230  1
  Zr  Zr98  1  0.10119716  0.90308279  0.09153581  1
  Zr  Zr99  1  0.19973813  0.39997756  0.59864487  1
  Ta  Ta100  1  0.50042085  0.49117960  0.90907545  1
  Ta  Ta101  1  -0.00000116  -0.00133509  0.39083810  1
  Ta  Ta102  1  0.89802814  0.89299311  0.29831974  1
  Ta  Ta103  1  0.78978056  0.20259263  0.19999970  1
  Ta  Ta104  1  0.20608691  0.19950779  0.20028108  1
  Ta  Ta105  1  0.50552151  0.30650102  0.29807753  1
  Ta  Ta106  1  0.59241914  0.20888297  0.59221750  1
  Ta  Ta107  1  -0.00579204  0.40322639  -0.00317824  1
  Ta  Ta108  1  0.88141975  0.29965009  0.90198622  1
  Ta  Ta109  1  0.41098061  0.39653751  0.40529532  1
  Ta  Ta110  1  0.49967773  0.10974138  0.69060103  1
  Ta  Ta111  1  0.09858664  0.89783761  0.30095269  1
  Ta  Ta112  1  0.88284723  0.29928555  0.70829684  1
  Ta  Ta113  1  0.59763968  0.39413154  0.80230912  1
  Ta  Ta114  1  0.40483582  0.39538292  0.20214411  1
  Ta  Ta115  1  0.69975574  0.89434576  0.49891833  1
  Ta  Ta116  1  0.89424886  0.70443310  0.50416600  1
  Ta  Ta117  1  0.89699341  0.10388498  0.30053139  1
  Ta  Ta118  1  -0.00311322  0.79802556  0.39870068  1
  Ta  Ta119  1  0.79116816  0.40379220  0.19202217  1
  Ta  Ta120  1  0.78865391  0.59371970  0.19120819  1
  Ta  Ta121  1  0.69828914  0.91143462  0.90246858  1
  Ta  Ta122  1  -0.00034533  0.80168240  0.60836090  1
  Ta  Ta123  1  0.78408554  0.39322255  0.79961711  1
  Ta  Ta124  1  0.79516906  0.00122061  0.79701898  1
  Ta  Ta125  1  -0.00141625  0.79901617  0.79942077  1
  Ta  Ta126  1  0.69408260  0.48954374  0.90667413  1
  Ta  Ta127  1  0.10411031  0.50109072  0.89782246  1
  Ta  Ta128  1  0.40531395  0.20022110  0.19860362  1
  Ta  Ta129  1  0.30507339  0.10590659  0.49915410  1
  Ta  Ta130  1  0.69246870  0.10576889  0.09432257  1
  Ta  Ta131  1  0.69703322  0.10639677  0.90497998  1
  Ta  Ta132  1  0.20945890  0.59566097  0.59388849  1
  Ta  Ta133  1  0.20300072  0.79802617  0.19983697  1
  Ta  Ta134  1  0.50157000  0.30675309  0.91413184  1
  Ta  Ta135  1  0.31539312  0.49571090  0.50045101  1
  Ta  Ta136  1  0.40571927  0.59919960  0.00210955  1
  Ta  Ta137  1  0.49836808  0.08434171  0.29462920  1
  Ta  Ta138  1  0.90175747  0.90712190  0.70177317  1
  Ta  Ta139  1  0.30477880  0.30828493  0.69731265  1
  Ta  Ta140  1  0.89291634  0.50407532  0.29542393  1
  Ta  Ta141  1  0.79496610  0.58778279  0.00820710  1
  Ta  Ta142  1  0.89338291  0.09880919  0.70036936  1
  Ta  Ta143  1  0.40549425  0.39919671  0.80259511  1
  Ta  Ta144  1  0.31106619  0.29605399  0.30196959  1
  Ta  Ta145  1  0.49919310  0.30234279  0.09720803  1
  Ta  Ta146  1  0.09755340  0.68190875  0.89334635  1
  Ta  Ta147  1  0.31062476  0.29589752  0.50561892  1
  Ta  Ta148  1  0.30453105  0.49378906  0.70045477  1
  Ta  Ta149  1  -0.01567224  0.40229792  0.60663698  1
  Ti  Ti150  1  0.60208123  0.60273660  0.19477806  1
  Ti  Ti151  1  0.79517770  0.79619699  0.40731291  1
  Ti  Ti152  1  0.60560851  0.39483222  0.19713434  1
  Ti  Ti153  1  0.09127963  0.49720907  0.30325172  1
  Ti  Ti154  1  0.59238658  -0.00261168  0.40616691  1
  Ti  Ti155  1  0.30606918  0.49149607  0.90202033  1
  Ti  Ti156  1  -0.01444596  0.59062713  -0.01173855  1
  Ti  Ti157  1  0.50169173  0.48945232  0.09958187  1
  Ti  Ti158  1  0.49840399  0.89697683  0.48997110  1
  Ti  Ti159  1  0.50795930  0.69170327  0.69652144  1
  Ti  Ti160  1  0.60436873  0.39761032  0.00539562  1
  Ti  Ti161  1  0.20525298  0.19858241  0.39583200  1
  Ti  Ti162  1  0.40104680  0.80418605  0.00652663  1
  Ti  Ti163  1  0.30469408  0.29998724  0.09998912  1
  Ti  Ti164  1  -0.00243102  0.59731431  0.20295473  1
  Ti  Ti165  1  0.19752965  0.20634303  0.60095712  1
  Ti  Ti166  1  0.10942319  0.30256215  0.09595805  1
  Ti  Ti167  1  0.89294699  0.10571056  0.09625203  1
  Ti  Ti168  1  0.40916502  0.78900542  0.39987422  1
  Ti  Ti169  1  0.88816789  0.48906627  0.90869540  1
  Ti  Ti170  1  0.79625646  0.59921714  0.41021829  1
  Ti  Ti171  1  0.30375207  0.70318554  0.09937148  1
  Ti  Ti172  1  0.20236300  0.80193297  -0.00016460  1
  Ti  Ti173  1  0.21120795  0.59603918  -0.00637475  1
  Ti  Ti174  1  0.20228349  0.40329735  0.00154794  1
  Ti  Ti175  1  0.31569525  0.49779646  0.30546710  1
  Ti  Ti176  1  0.20150728  0.20654718  0.79292946  1
  Ti  Ti177  1  0.09492292  0.10009724  0.70539087  1
  Ti  Ti178  1  0.70080827  0.29504727  0.91004050  1
  Ti  Ti179  1  0.40732813  0.79533012  0.59677955  1
  Ti  Ti180  1  0.30981671  0.10045341  0.10071653  1
  Ti  Ti181  1  0.79183940  0.20330230  0.39200851  1
  Ti  Ti182  1  0.50065908  0.70101202  0.90781952  1
  Ti  Ti183  1  0.60888770  0.59021859  0.41676834  1
  Ti  Ti184  1  0.40542884  0.19889252  0.01199665  1
  Ti  Ti185  1  0.59470901  0.59302924  0.80901132  1
  Ti  Ti186  1  0.21429843  -0.00179918  0.00449823  1
  Ti  Ti187  1  0.30325367  0.90097933  0.90678586  1
  Ti  Ti188  1  0.49198157  0.30389418  0.68775571  1
  Ti  Ti189  1  0.10612988  0.31245505  0.70715251  1
  Ti  Ti190  1  0.31396582  0.89719707  0.10407476  1
  Ti  Ti191  1  0.79728588  0.58977594  0.58704981  1
  Ti  Ti192  1  0.69459852  0.30716521  0.49011379  1
  Ti  Ti193  1  0.11245083  0.10255793  0.09005007  1
  Ti  Ti194  1  0.69825195  0.29701302  0.09214142  1
  Ti  Ti195  1  0.21214514  0.59287074  0.80440749  1
  Ti  Ti196  1  0.79976235  0.40409281  0.59731041  1
  Ti  Ti197  1  0.00221236  -0.00087518  0.60866783  1
  Ti  Ti198  1  0.79596752  0.80468883  0.60373917  1
  Ti  Ti199  1  0.59631805  0.00091914  0.01524782  1
  Mo  Mo200  1  0.90354475  0.68780187  0.89913035  1
  Mo  Mo201  1  0.50154177  0.09866164  0.49685729  1
  Mo  Mo202  1  0.40843244  0.00333364  0.40762320  1
  Mo  Mo203  1  0.88581159  0.49039553  0.69613899  1
  Mo  Mo204  1  0.48777010  0.90366997  0.69404004  1
  Mo  Mo205  1  0.89423985  0.49983948  0.09864741  1
  Mo  Mo206  1  -0.00430539  0.01719451  0.01038380  1
  Mo  Mo207  1  0.40508797  0.20463185  0.59514183  1
  Mo  Mo208  1  0.20762607  0.20722062  0.01969941  1
  Mo  Mo209  1  0.49781098  0.10129513  0.10294799  1
  Mo  Mo210  1  0.79168704  0.79550691  0.19607577  1
  Mo  Mo211  1  0.49426280  0.90781039  0.10676209  1
  Mo  Mo212  1  0.50304499  0.49845068  0.49264583  1
  Mo  Mo213  1  0.70019496  0.50226097  0.50109350  1
  Mo  Mo214  1  0.50567146  0.69761555  0.30234302  1
  Mo  Mo215  1  0.69944290  0.30297118  0.29153308  1
  Mo  Mo216  1  0.40627912  0.00377730  0.19089169  1
  Mo  Mo217  1  0.49926691  0.30161639  0.49630362  1
  Mo  Mo218  1  0.71572642  0.90289219  0.69847916  1
  Mo  Mo219  1  0.70891326  0.70089339  0.49977291  1
  Mo  Mo220  1  0.69303411  0.90191022  0.10450641  1
  Mo  Mo221  1  -0.00843653  0.41570396  0.38924868  1
  Mo  Mo222  1  0.80087621  -0.00540717  0.60392037  1
  Mo  Mo223  1  0.59883795  0.20617074  0.00200513  1
  Mo  Mo224  1  0.60691176  0.59749809  0.59097683  1
  Mo  Mo225  1  0.59944979  0.80211836  0.20142658  1
  Mo  Mo226  1  0.60048733  0.39794781  0.39882643  1
  Mo  Mo227  1  0.69440340  0.30713197  0.69345717  1
  Mo  Mo228  1  0.69334172  0.49411553  0.10232409  1
  Mo  Mo229  1  -0.00634436  0.59431683  0.81093887  1
  Mo  Mo230  1  0.40438328  0.40116940  0.00519900  1
  Mo  Mo231  1  0.09955447  0.70005677  0.30197417  1
  Mo  Mo232  1  -0.00108486  0.18324466  0.38836255  1
  Mo  Mo233  1  0.39266254  0.00002807  0.00970294  1
  Mo  Mo234  1  0.59764325  -0.00187492  0.18754565  1
  Mo  Mo235  1  0.40126656  0.39771619  0.59913608  1
  Mo  Mo236  1  0.09023312  0.89942203  0.70041548  1
  Mo  Mo237  1  0.70067812  0.70121673  0.11029361  1
  Mo  Mo238  1  0.78955673  0.19918395  0.00191337  1
  Mo  Mo239  1  0.79222294  0.20272761  0.80296042  1
  Mo  Mo240  1  0.21343529  0.40480304  0.80228607  1
  Mo  Mo241  1  0.10415779  0.10183413  0.30011930  1
  Mo  Mo242  1  0.39744896  0.80073128  0.19820424  1
  Mo  Mo243  1  0.30542217  0.69740361  0.49832183  1
  Mo  Mo244  1  0.40707278  0.59330898  0.39752550  1
  Mo  Mo245  1  -0.00212313  0.00436622  0.78640869  1
  Mo  Mo246  1  0.60077975  0.80582335  0.40405649  1
  Mo  Mo247  1  0.89356439  0.50339227  0.49864279  1
  Mo  Mo248  1  0.79163558  0.39987180  -0.00261890  1
  Mo  Mo249  1  0.19494314  0.79167724  0.59530259  1
