# generated using pymatgen
data_HfZrTaTiMo
_symmetry_space_group_name_H-M   'P 1'
_cell_length_a   16.88885624
_cell_length_b   16.88744264
_cell_length_c   16.88841971
_cell_angle_alpha   90.03659730
_cell_angle_beta   90.01956995
_cell_angle_gamma   89.99774957
_symmetry_Int_Tables_number   1
_chemical_formula_structural   HfZrTaTiMo
_chemical_formula_sum   'Hf50 Zr50 Ta50 Ti50 Mo50'
_cell_volume   4816.73801110
_cell_formula_units_Z   50
loop_
 _symmetry_equiv_pos_site_id
 _symmetry_equiv_pos_as_xyz
  1  'x, y, z'
loop_
 _atom_site_type_symbol
 _atom_site_label
 _atom_site_symmetry_multiplicity
 _atom_site_fract_x
 _atom_site_fract_y
 _atom_site_fract_z
 _atom_site_occupancy
  Hf  Hf0  1  0.69851562  0.69924810  0.49369717  1
  Hf  Hf1  1  0.49979322  0.30830936  0.70545168  1
  Hf  Hf2  1  0.80548815  0.39490380  0.18847958  1
  Hf  Hf3  1  0.31112885  0.07972561  0.70224835  1
  Hf  Hf4  1  0.70153950  0.30023645  0.49449752  1
  Hf  Hf5  1  0.39319980  0.78925053  0.20491782  1
  Hf  Hf6  1  0.60103926  0.40910970  0.59859634  1
  Hf  Hf7  1  0.38907494  0.20628879  0.81208369  1
  Hf  Hf8  1  0.59407660  0.59237629  0.19767619  1
  Hf  Hf9  1  0.40306112  0.59651587  0.40514184  1
  Hf  Hf10  1  0.89437192  0.89839357  0.90362901  1
  Hf  Hf11  1  0.00542693  0.60566037  0.80177944  1
  Hf  Hf12  1  0.40085625  0.41050766  0.58597329  1
  Hf  Hf13  1  0.40387937  0.39066924  0.19927737  1
  Hf  Hf14  1  0.70300900  0.70714417  0.69443675  1
  Hf  Hf15  1  0.00937882  0.80781794  0.00377101  1
  Hf  Hf16  1  0.69825427  0.30016741  0.29866735  1
  Hf  Hf17  1  0.00495773  0.58822840  0.19643562  1
  Hf  Hf18  1  0.00467788  0.81576574  0.20098216  1
  Hf  Hf19  1  0.89722955  0.09101093  0.49234537  1
  Hf  Hf20  1  0.49604394  0.09949370  0.29994463  1
  Hf  Hf21  1  0.29948529  0.50027082  0.09832185  1
  Hf  Hf22  1  0.59233864  0.81293646  0.80093933  1
  Hf  Hf23  1  0.20197891  0.19664581  0.60128438  1
  Hf  Hf24  1  0.19476260  0.61750876  0.79953687  1
  Hf  Hf25  1  0.49839625  0.09712961  0.49847215  1
  Hf  Hf26  1  0.49161619  0.09662367  0.89759290  1
  Hf  Hf27  1  0.69066753  0.48403715  0.08660700  1
  Hf  Hf28  1  0.10584979  0.49947187  0.90345439  1
  Hf  Hf29  1  0.50513723  0.68801474  0.90373592  1
  Hf  Hf30  1  0.09727022  0.29496601  0.90602448  1
  Hf  Hf31  1  0.08752104  0.29349476  0.10716382  1
  Hf  Hf32  1  0.91325389  0.90722151  0.50085760  1
  Hf  Hf33  1  0.60639270  0.00918319  0.19884580  1
  Hf  Hf34  1  0.90400622  0.70429877  0.50125635  1
  Hf  Hf35  1  0.80302085  0.59274368  0.20012069  1
  Hf  Hf36  1  0.60140665  -0.00233655  0.60126352  1
  Hf  Hf37  1  0.69976727  0.30879328  0.70588492  1
  Hf  Hf38  1  0.89767327  0.71100442  0.89569324  1
  Hf  Hf39  1  0.49940168  0.70576870  0.49768947  1
  Hf  Hf40  1  0.90469100  0.50069860  0.69666914  1
  Hf  Hf41  1  0.39720300  0.19948671  0.19224352  1
  Hf  Hf42  1  0.79999045  0.59670830  0.79444863  1
  Hf  Hf43  1  0.39976478  0.20687410  0.59729597  1
  Hf  Hf44  1  0.20448663  0.60500271  0.19987995  1
  Hf  Hf45  1  0.30753776  0.90425733  0.50329571  1
  Hf  Hf46  1  0.00230420  0.60149398  0.40182110  1
  Hf  Hf47  1  0.20299820  0.19024300  0.80636991  1
  Hf  Hf48  1  0.49829728  0.09822115  0.70075334  1
  Hf  Hf49  1  0.11282287  0.49795912  0.31762068  1
  Zr  Zr50  1  0.19457645  0.39795488  0.19598975  1
  Zr  Zr51  1  0.10792961  0.70565244  0.10248126  1
  Zr  Zr52  1  0.59579840  0.19743782  0.00722499  1
  Zr  Zr53  1  0.30076425  0.09595728  0.49904621  1
  Zr  Zr54  1  -0.00027993  0.39440645  0.40264551  1
  Zr  Zr55  1  0.09115620  0.08837374  0.50019485  1
  Zr  Zr56  1  0.39418384  0.80599921  0.80417755  1
  Zr  Zr57  1  0.20030312  0.19282672  0.19756501  1
  Zr  Zr58  1  -0.00669357  0.20284196  0.59681686  1
  Zr  Zr59  1  0.81137607  0.39293363  0.39604311  1
  Zr  Zr60  1  0.18769923  -0.01539702  0.60887142  1
  Zr  Zr61  1  0.90367920  0.70981352  0.69587074  1
  Zr  Zr62  1  0.60533730  0.19763053  0.19396677  1
  Zr  Zr63  1  0.60363243  0.80364996  0.20439512  1
  Zr  Zr64  1  0.69255640  0.32070192  0.91365206  1
  Zr  Zr65  1  0.80641562  0.80336483  0.38856557  1
  Zr  Zr66  1  -0.00854040  0.19462193  0.80621109  1
  Zr  Zr67  1  0.59033549  0.81220278  0.00312182  1
  Zr  Zr68  1  0.20115162  0.80389013  0.39641923  1
  Zr  Zr69  1  0.19880549  0.79778805  0.59793858  1
  Zr  Zr70  1  -0.00254879  0.19670456  0.39043173  1
  Zr  Zr71  1  0.59938259  0.81084356  0.39587377  1
  Zr  Zr72  1  0.29255714  0.90171616  0.10872952  1
  Zr  Zr73  1  0.70939354  0.89995648  0.70483292  1
  Zr  Zr74  1  0.91192371  0.88933843  0.69637727  1
  Zr  Zr75  1  -0.01233096  0.19919614  0.00287515  1
  Zr  Zr76  1  0.00532851  0.60033025  0.00277976  1
  Zr  Zr77  1  0.39370028  0.38654333  -0.00055613  1
  Zr  Zr78  1  0.69143943  0.49963230  0.90312829  1
  Zr  Zr79  1  0.71100115  0.91212141  0.49219526  1
  Zr  Zr80  1  0.79893065  0.20576761  0.01046046  1
  Zr  Zr81  1  0.60185855  0.58926124  0.78537704  1
  Zr  Zr82  1  0.39750922  0.80128532  0.00176911  1
  Zr  Zr83  1  0.30021805  0.50461559  0.89961636  1
  Zr  Zr84  1  0.70087480  0.70432172  0.90335991  1
  Zr  Zr85  1  0.39522624  0.00360084  0.00350135  1
  Zr  Zr86  1  0.80527238  0.00669135  0.79848823  1
  Zr  Zr87  1  0.30245131  0.49469666  0.30599575  1
  Zr  Zr88  1  0.29754404  0.50480672  0.70259804  1
  Zr  Zr89  1  0.80602473  0.20412929  0.80951672  1
  Zr  Zr90  1  0.70674349  0.10298741  0.49227288  1
  Zr  Zr91  1  0.69897540  0.69879677  0.09735352  1
  Zr  Zr92  1  0.81477077  0.59216122  0.00842455  1
  Zr  Zr93  1  0.00960410  -0.00452649  0.80528960  1
  Zr  Zr94  1  0.59735704  0.00494512  0.00996012  1
  Zr  Zr95  1  0.09713645  0.29895507  0.70237242  1
  Zr  Zr96  1  0.49426244  0.70062018  0.69537836  1
  Zr  Zr97  1  0.59997828  0.20464942  0.80772423  1
  Zr  Zr98  1  0.19683425  0.40251965  0.59771223  1
  Zr  Zr99  1  0.59614561  0.58923812  0.59181589  1
  Ta  Ta100  1  0.59334007  0.39348344  0.19647052  1
  Ta  Ta101  1  0.89800479  0.30844908  0.70184170  1
  Ta  Ta102  1  0.59344643  0.81191368  0.59796323  1
  Ta  Ta103  1  0.49066282  0.90515414  0.29968207  1
  Ta  Ta104  1  0.09615912  0.09240162  0.10112260  1
  Ta  Ta105  1  0.80164803  0.20541549  0.60202946  1
  Ta  Ta106  1  0.19926473  -0.00751401  0.80445336  1
  Ta  Ta107  1  0.80301793  0.00890074  0.20022530  1
  Ta  Ta108  1  0.80359770  0.59469165  0.39544786  1
  Ta  Ta109  1  0.80289544  0.40183015  0.59631034  1
  Ta  Ta110  1  0.69976393  0.10662659  0.69966204  1
  Ta  Ta111  1  0.28352213  0.50204023  0.48640413  1
  Ta  Ta112  1  0.79763620  0.59250053  0.59408198  1
  Ta  Ta113  1  0.00734431  -0.00545244  0.37445127  1
  Ta  Ta114  1  0.69605617  0.49564986  0.30041053  1
  Ta  Ta115  1  0.49956283  0.49444408  0.90428070  1
  Ta  Ta116  1  0.49925757  0.30279667  0.49102599  1
  Ta  Ta117  1  0.59625489  0.20175016  0.39476605  1
  Ta  Ta118  1  0.49397719  0.90565154  0.11645169  1
  Ta  Ta119  1  0.90236647  0.69997038  0.29583585  1
  Ta  Ta120  1  0.39966357  0.20482475  0.39427358  1
  Ta  Ta121  1  0.00995136  0.59846941  0.59481572  1
  Ta  Ta122  1  0.19292312  -0.00285668  0.39119932  1
  Ta  Ta123  1  0.29764197  0.29859903  0.30569149  1
  Ta  Ta124  1  0.10085495  0.50162137  0.70068008  1
  Ta  Ta125  1  0.19923899  0.38888318  0.00363530  1
  Ta  Ta126  1  0.40055382  0.60298233  0.01007862  1
  Ta  Ta127  1  0.29673814  0.09663595  0.30131190  1
  Ta  Ta128  1  0.20161519  0.39326167  0.80548867  1
  Ta  Ta129  1  0.10317473  0.09445852  0.91372083  1
  Ta  Ta130  1  0.90241830  0.50184598  0.50031637  1
  Ta  Ta131  1  0.70600656  0.90472854  0.90716668  1
  Ta  Ta132  1  0.71219765  0.90691977  0.10015710  1
  Ta  Ta133  1  0.80355931  0.19611327  0.19743205  1
  Ta  Ta134  1  0.00000560  0.40220473  0.59526741  1
  Ta  Ta135  1  -0.00380504  0.40394173  0.01026062  1
  Ta  Ta136  1  0.19665430  0.19455427  0.39503794  1
  Ta  Ta137  1  0.70229564  0.69128611  0.30103628  1
  Ta  Ta138  1  0.38110171  0.19620918  0.00445553  1
  Ta  Ta139  1  0.49978293  0.49490082  0.29974137  1
  Ta  Ta140  1  0.20069153  0.80440099  -0.00825006  1
  Ta  Ta141  1  0.50173760  0.69630889  0.30201702  1
  Ta  Ta142  1  0.39267487  0.59814958  0.59117424  1
  Ta  Ta143  1  0.10438461  0.29960924  0.49431472  1
  Ta  Ta144  1  0.60181181  0.20447304  0.59660049  1
  Ta  Ta145  1  0.70407986  0.09138028  0.90502724  1
  Ta  Ta146  1  0.30087775  0.70164118  0.69402047  1
  Ta  Ta147  1  -0.00007310  0.40219788  0.80364162  1
  Ta  Ta148  1  0.00677412  0.80647797  0.39209350  1
  Ta  Ta149  1  0.29809452  0.30386075  0.48873507  1
  Ti  Ti150  1  0.30133988  0.90588572  0.29840291  1
  Ti  Ti151  1  0.60528042  0.00460581  0.39108306  1
  Ti  Ti152  1  0.00497287  -0.01298032  0.01205846  1
  Ti  Ti153  1  0.90307885  0.09839232  0.69395880  1
  Ti  Ti154  1  0.40145559  0.60159649  0.19809432  1
  Ti  Ti155  1  0.20245618  0.60765113  0.00359914  1
  Ti  Ti156  1  0.30082376  0.91003075  0.89664892  1
  Ti  Ti157  1  0.48360680  0.91279394  0.70136611  1
  Ti  Ti158  1  0.80334993  0.40530737  0.80118643  1
  Ti  Ti159  1  0.50094075  0.29812011  0.09458691  1
  Ti  Ti160  1  0.49473193  0.90559478  0.49558883  1
  Ti  Ti161  1  0.91484427  0.29471066  0.27644451  1
  Ti  Ti162  1  0.79662924  0.80376358  0.59106055  1
  Ti  Ti163  1  0.02530320  0.80161700  0.81255809  1
  Ti  Ti164  1  0.39462427  0.39294312  0.81069513  1
  Ti  Ti165  1  0.29892404  0.69294008  0.31012501  1
  Ti  Ti166  1  0.59986336  -0.00160536  0.80324595  1
  Ti  Ti167  1  0.39294572  0.00910290  0.19724560  1
  Ti  Ti168  1  0.20190584  0.80034293  0.20360397  1
  Ti  Ti169  1  0.10191746  0.70128963  0.49541173  1
  Ti  Ti170  1  0.39727007  0.79887166  0.39682676  1
  Ti  Ti171  1  0.59892941  0.59174237  0.39616115  1
  Ti  Ti172  1  0.39656353  0.60343856  0.80081350  1
  Ti  Ti173  1  0.48871969  0.49590230  0.70821244  1
  Ti  Ti174  1  0.10035821  0.70112468  0.30162707  1
  Ti  Ti175  1  0.90689543  0.09143337  0.10698567  1
  Ti  Ti176  1  0.89819743  0.08562978  0.91572229  1
  Ti  Ti177  1  0.20040996  0.00006240  0.00226259  1
  Ti  Ti178  1  0.80440423  0.80531462  0.01152103  1
  Ti  Ti179  1  0.18694573  -0.00120212  0.20544218  1
  Ti  Ti180  1  0.58995759  0.40044670  0.39558407  1
  Ti  Ti181  1  0.80243439  0.80373602  0.19933359  1
  Ti  Ti182  1  0.49985581  0.69893307  0.10236088  1
  Ti  Ti183  1  0.20030419  0.80658479  0.80046277  1
  Ti  Ti184  1  0.09442698  0.09310727  0.70086849  1
  Ti  Ti185  1  0.70440151  0.49678059  0.48788639  1
  Ti  Ti186  1  0.39835875  0.80316216  0.60133570  1
  Ti  Ti187  1  0.70841909  0.90971742  0.29641060  1
  Ti  Ti188  1  0.09562682  0.70845262  0.69203108  1
  Ti  Ti189  1  0.39615416  0.00080649  0.39554534  1
  Ti  Ti190  1  0.19842199  0.60378730  0.59212216  1
  Ti  Ti191  1  0.80287645  0.00555622  0.60590713  1
  Ti  Ti192  1  0.90496416  0.49592871  0.29819650  1
  Ti  Ti193  1  0.80781450  0.19849770  0.38821806  1
  Ti  Ti194  1  0.29963397  0.30556156  0.69928635  1
  Ti  Ti195  1  0.09796995  0.29688058  0.29712421  1
  Ti  Ti196  1  0.89816394  0.90870518  0.29112057  1
  Ti  Ti197  1  0.90286773  0.70571081  0.10783502  1
  Ti  Ti198  1  0.90160543  0.49435420  0.90222008  1
  Ti  Ti199  1  0.29997041  0.70058673  0.90360993  1
  Mo  Mo200  1  -0.00168472  0.18953077  0.19995405  1
  Mo  Mo201  1  0.80365190  0.00252162  0.00712363  1
  Mo  Mo202  1  0.10049583  0.50235758  0.50534212  1
  Mo  Mo203  1  0.01564425  0.79913497  0.58655291  1
  Mo  Mo204  1  0.30062487  0.89305974  0.70456363  1
  Mo  Mo205  1  0.49497861  0.49806986  0.10177632  1
  Mo  Mo206  1  0.49769394  0.49637786  0.49012634  1
  Mo  Mo207  1  0.40672889  -0.00955917  0.59641709  1
  Mo  Mo208  1  0.19716839  0.38539237  0.39999955  1
  Mo  Mo209  1  0.39999568  0.39743930  0.39828711  1
  Mo  Mo210  1  0.89415792  0.90249717  0.10322853  1
  Mo  Mo211  1  0.09348895  0.89842886  0.48948624  1
  Mo  Mo212  1  0.19811512  0.19068969  0.00291161  1
  Mo  Mo213  1  0.30530398  0.69934838  0.50355072  1
  Mo  Mo214  1  0.90298939  0.09997668  0.29268698  1
  Mo  Mo215  1  0.20163594  0.61479015  0.40614231  1
  Mo  Mo216  1  0.39590891  -0.00291492  0.80497434  1
  Mo  Mo217  1  0.11037609  0.90366605  0.90567600  1
  Mo  Mo218  1  0.90877168  0.49486444  0.10540177  1
  Mo  Mo219  1  0.90182188  0.30062522  0.10420196  1
  Mo  Mo220  1  0.81990128  0.39810006  0.00120942  1
  Mo  Mo221  1  0.10975433  0.70579732  0.90171012  1
  Mo  Mo222  1  0.49221115  0.30181937  0.90388544  1
  Mo  Mo223  1  -0.00066592  -0.00063467  0.19360238  1
  Mo  Mo224  1  0.10635969  0.89952071  0.29260345  1
  Mo  Mo225  1  0.69842778  0.30062447  0.10343558  1
  Mo  Mo226  1  0.48275589  0.09883863  0.10214990  1
  Mo  Mo227  1  0.58107897  0.59189729  0.00987963  1
  Mo  Mo228  1  0.89766985  0.29940866  0.50937826  1
  Mo  Mo229  1  0.10893973  0.90530582  0.09972816  1
  Mo  Mo230  1  0.71533508  0.09903322  0.10030698  1
  Mo  Mo231  1  0.50281680  0.91169216  0.89259503  1
  Mo  Mo232  1  0.29094604  0.29375663  0.09898431  1
  Mo  Mo233  1  0.28750939  0.09673588  0.10276338  1
  Mo  Mo234  1  0.81081614  0.00486305  0.38073809  1
  Mo  Mo235  1  0.70781183  0.10395800  0.30153306  1
  Mo  Mo236  1  0.10121915  0.09563394  0.29369642  1
  Mo  Mo237  1  0.89971039  0.31912456  0.89991999  1
  Mo  Mo238  1  0.00138706  0.40185556  0.20280012  1
  Mo  Mo239  1  0.58633522  0.40339364  0.80037867  1
  Mo  Mo240  1  0.30037684  0.69816620  0.09771469  1
  Mo  Mo241  1  0.50035977  0.30049356  0.30338009  1
  Mo  Mo242  1  0.29018228  0.09640203  0.90460255  1
  Mo  Mo243  1  0.78904305  0.79996697  0.81175377  1
  Mo  Mo244  1  0.57804538  0.39616283  0.00361829  1
  Mo  Mo245  1  0.71103556  0.49446637  0.69467251  1
  Mo  Mo246  1  0.29023063  0.29596117  0.90248651  1
  Mo  Mo247  1  0.10204748  0.89043237  0.70932191  1
  Mo  Mo248  1  -0.00076547  -0.00386103  0.61234441  1
  Mo  Mo249  1  0.10513985  0.49618344  0.09432117  1
