# generated using pymatgen
data_HfZrTaTiMo
_symmetry_space_group_name_H-M   'P 1'
_cell_length_a   16.89276991
_cell_length_b   16.88169322
_cell_length_c   16.88105757
_cell_angle_alpha   89.99349557
_cell_angle_beta   89.97939285
_cell_angle_gamma   90.00799389
_symmetry_Int_Tables_number   1
_chemical_formula_structural   HfZrTaTiMo
_chemical_formula_sum   'Hf50 Zr50 Ta50 Ti50 Mo50'
_cell_volume   4814.11528711
_cell_formula_units_Z   50
loop_
 _symmetry_equiv_pos_site_id
 _symmetry_equiv_pos_as_xyz
  1  'x, y, z'
loop_
 _atom_site_type_symbol
 _atom_site_label
 _atom_site_symmetry_multiplicity
 _atom_site_fract_x
 _atom_site_fract_y
 _atom_site_fract_z
 _atom_site_occupancy
  Hf  Hf0  1  0.29798093  0.70631247  0.70085011  1
  Hf  Hf1  1  0.89736659  0.69957585  0.10588230  1
  Hf  Hf2  1  0.60795981  0.18724007  0.79367161  1
  Hf  Hf3  1  -0.00753012  0.80272273  0.80638926  1
  Hf  Hf4  1  0.10078687  0.89921692  0.70364951  1
  Hf  Hf5  1  0.09387711  0.29876187  0.50238434  1
  Hf  Hf6  1  0.70302765  0.70432967  0.10638169  1
  Hf  Hf7  1  0.59676296  0.59939386  0.00098085  1
  Hf  Hf8  1  0.40993995  -0.01036498  0.40378883  1
  Hf  Hf9  1  0.10036088  0.89743176  0.29585741  1
  Hf  Hf10  1  0.59979242  0.59563797  0.39822345  1
  Hf  Hf11  1  0.01183225  0.19768741  -0.00588540  1
  Hf  Hf12  1  0.40974266  -0.00827482  0.20153840  1
  Hf  Hf13  1  0.89418747  0.50049315  0.09712362  1
  Hf  Hf14  1  0.90486340  0.51301928  0.29515070  1
  Hf  Hf15  1  0.39706807  0.80381759  0.20083463  1
  Hf  Hf16  1  0.00863087  0.41294866  0.18943739  1
  Hf  Hf17  1  0.29442193  0.49865483  0.29449393  1
  Hf  Hf18  1  0.59936593  0.81198845  0.00127885  1
  Hf  Hf19  1  0.10093818  0.50504852  0.30426610  1
  Hf  Hf20  1  0.69983640  0.09766504  0.50340053  1
  Hf  Hf21  1  0.50015435  0.30319751  0.69595001  1
  Hf  Hf22  1  0.40863516  0.19547191  0.59341266  1
  Hf  Hf23  1  0.59750107  0.59998749  0.79870342  1
  Hf  Hf24  1  -0.00050322  0.80582133  0.41379621  1
  Hf  Hf25  1  0.48901022  0.49620415  0.69365989  1
  Hf  Hf26  1  0.69946631  0.70623679  0.49817182  1
  Hf  Hf27  1  0.20072771  0.19553339  0.40900395  1
  Hf  Hf28  1  0.10123020  0.70100505  0.70010585  1
  Hf  Hf29  1  0.08904785  0.09993755  0.29605088  1
  Hf  Hf30  1  0.59738528  0.60150860  0.20243008  1
  Hf  Hf31  1  0.89784647  0.69958460  0.90490429  1
  Hf  Hf32  1  0.20054472  0.80231915  0.59055198  1
  Hf  Hf33  1  0.30409187  0.08976733  0.09486016  1
  Hf  Hf34  1  0.39386244  0.80628286  0.39892576  1
  Hf  Hf35  1  0.89315355  0.09583855  0.50339478  1
  Hf  Hf36  1  0.70487268  0.30131623  0.50494235  1
  Hf  Hf37  1  0.60261303  0.39970886  0.79817707  1
  Hf  Hf38  1  0.90369925  0.09924989  0.09789373  1
  Hf  Hf39  1  0.00134428  -0.00228332  0.41342428  1
  Hf  Hf40  1  0.09581491  0.89694843  0.09667367  1
  Hf  Hf41  1  0.30018257  0.30253120  0.29479219  1
  Hf  Hf42  1  0.50602429  0.29877204  0.89921862  1
  Hf  Hf43  1  0.79882235  -0.00101709  0.79893787  1
  Hf  Hf44  1  0.39680376  0.59934841  0.80593012  1
  Hf  Hf45  1  0.19300995  0.19458358  0.60296783  1
  Hf  Hf46  1  0.30104303  0.29841469  0.70225881  1
  Hf  Hf47  1  0.19058700  0.60777480  0.18529157  1
  Hf  Hf48  1  0.10166531  0.49784200  0.70800431  1
  Hf  Hf49  1  0.60660051  0.19081805  0.19430958  1
  Zr  Zr50  1  0.41868234  -0.00269320  0.79872798  1
  Zr  Zr51  1  0.19264966  0.19156876  0.79853220  1
  Zr  Zr52  1  0.50080581  0.30005308  0.10558839  1
  Zr  Zr53  1  0.30030896  0.09081152  0.30260035  1
  Zr  Zr54  1  0.09014372  0.69719816  0.30080818  1
  Zr  Zr55  1  0.09914046  0.50608309  0.50447633  1
  Zr  Zr56  1  0.79492633  0.81186311  0.61359067  1
  Zr  Zr57  1  0.69842859  0.29859769  0.30309515  1
  Zr  Zr58  1  0.91354212  0.29267527  0.28920452  1
  Zr  Zr59  1  0.20122646  0.60322541  0.81338807  1
  Zr  Zr60  1  0.10263085  0.30191645  0.29862759  1
  Zr  Zr61  1  0.48998541  0.50093396  0.10265256  1
  Zr  Zr62  1  0.30387828  0.89389887  0.09040864  1
  Zr  Zr63  1  0.59391327  0.60204381  0.59215709  1
  Zr  Zr64  1  0.41004584  0.18769788  0.00047447  1
  Zr  Zr65  1  0.50529347  0.70537298  0.29960132  1
  Zr  Zr66  1  0.29892670  0.30214318  0.10719899  1
  Zr  Zr67  1  0.89720948  0.49641792  0.70268653  1
  Zr  Zr68  1  0.69774469  0.70696025  0.89735977  1
  Zr  Zr69  1  0.30801383  0.09217272  0.50291392  1
  Zr  Zr70  1  0.70927996  0.30573172  0.09261001  1
  Zr  Zr71  1  -0.00562341  0.60394996  0.60448211  1
  Zr  Zr72  1  0.89526822  0.10034700  0.89984995  1
  Zr  Zr73  1  0.18871052  0.39924243  0.00063866  1
  Zr  Zr74  1  0.19590274  0.18236849  0.19134753  1
  Zr  Zr75  1  0.40338791  0.81075724  0.59344854  1
  Zr  Zr76  1  0.71062060  0.49277695  0.90488166  1
  Zr  Zr77  1  0.89300568  0.70816785  0.50772179  1
  Zr  Zr78  1  0.49688426  0.70648044  0.70125078  1
  Zr  Zr79  1  0.70687074  0.49629284  0.67855502  1
  Zr  Zr80  1  0.20067582  0.78886564  0.00043315  1
  Zr  Zr81  1  0.59882495  0.40795197  0.20390151  1
  Zr  Zr82  1  0.29904882  0.08717132  0.89867350  1
  Zr  Zr83  1  0.60625506  -0.00061060  0.18716788  1
  Zr  Zr84  1  0.90095771  0.30269143  0.90407487  1
  Zr  Zr85  1  0.40916586  0.19086197  0.79844340  1
  Zr  Zr86  1  0.80433153  0.20138630  0.39748448  1
  Zr  Zr87  1  0.71737573  0.50535685  0.29631253  1
  Zr  Zr88  1  0.39961083  0.59994040  0.40166023  1
  Zr  Zr89  1  0.70661347  0.90930459  0.49566363  1
  Zr  Zr90  1  -0.01557947  0.39028326  0.60046117  1
  Zr  Zr91  1  0.20568451  0.39895477  0.60054410  1
  Zr  Zr92  1  0.89670125  0.90602759  0.29914126  1
  Zr  Zr93  1  0.80239732  0.38280868  0.79060233  1
  Zr  Zr94  1  0.80102175  0.60720248  0.79442612  1
  Zr  Zr95  1  0.59325642  0.40709016  0.40326922  1
  Zr  Zr96  1  0.51004810  0.09956799  0.30733200  1
  Zr  Zr97  1  0.09635514  0.29634050  0.10321343  1
  Zr  Zr98  1  0.39667707  0.39969953  -0.00318851  1
  Zr  Zr99  1  0.18448362  0.00424034  0.59729989  1
  Ta  Ta100  1  0.89805280  0.90074282  0.09897617  1
  Ta  Ta101  1  -0.00165888  0.00428526  0.79538822  1
  Ta  Ta102  1  0.29516701  0.49916093  0.90564116  1
  Ta  Ta103  1  0.09929451  0.09047494  0.89495584  1
  Ta  Ta104  1  0.39697349  0.39661242  0.40594484  1
  Ta  Ta105  1  0.90582161  0.90288966  0.69789278  1
  Ta  Ta106  1  0.19220685  -0.00198788  -0.00163834  1
  Ta  Ta107  1  0.80052756  0.60186378  0.00215521  1
  Ta  Ta108  1  0.09120546  0.49237367  0.90170456  1
  Ta  Ta109  1  0.81617119  0.39950844  0.40682605  1
  Ta  Ta110  1  -0.00752710  0.40174963  0.40704641  1
  Ta  Ta111  1  0.38965646  0.60629234  0.59185209  1
  Ta  Ta112  1  0.49377632  0.70971350  0.09605520  1
  Ta  Ta113  1  0.49561614  0.49969059  0.90141124  1
  Ta  Ta114  1  0.52543346  0.89063888  0.30135949  1
  Ta  Ta115  1  0.39126180  0.40320495  0.80356200  1
  Ta  Ta116  1  0.42529579  -0.00904468  0.00147299  1
  Ta  Ta117  1  0.79474214  0.00201681  0.19683518  1
  Ta  Ta118  1  0.49414177  0.30230276  0.30019686  1
  Ta  Ta119  1  0.09144432  0.30257468  0.70792016  1
  Ta  Ta120  1  0.80168661  0.60576855  0.40121607  1
  Ta  Ta121  1  0.59641457  0.19240136  0.60057685  1
  Ta  Ta122  1  0.60068563  0.81254577  0.79372531  1
  Ta  Ta123  1  0.60407578  0.18620317  0.00130471  1
  Ta  Ta124  1  0.90567691  0.49477418  0.90515088  1
  Ta  Ta125  1  0.39317896  0.60656910  0.19700733  1
  Ta  Ta126  1  0.80177464  0.81068114  -0.00496023  1
  Ta  Ta127  1  0.29411187  0.50002978  0.10226125  1
  Ta  Ta128  1  0.30111850  0.90688487  0.70445629  1
  Ta  Ta129  1  0.40765593  0.19102589  0.20273509  1
  Ta  Ta130  1  -0.00064639  0.59991727  0.80791122  1
  Ta  Ta131  1  0.79860194  0.19043516  0.19556023  1
  Ta  Ta132  1  0.29147020  0.70242119  0.29905496  1
  Ta  Ta133  1  0.00683725  0.59825573  0.00489291  1
  Ta  Ta134  1  -0.00240609  0.19647253  0.79320471  1
  Ta  Ta135  1  0.79386475  -0.00809442  -0.00073500  1
  Ta  Ta136  1  0.59600952  0.81511339  0.59954020  1
  Ta  Ta137  1  0.30376277  0.08581384  0.69771762  1
  Ta  Ta138  1  0.90098623  0.09715875  0.29508647  1
  Ta  Ta139  1  0.39115271  0.60750183  0.00211510  1
  Ta  Ta140  1  0.40525911  0.20675229  0.40644763  1
  Ta  Ta141  1  0.20120386  0.80357721  0.40446887  1
  Ta  Ta142  1  0.20448668  0.40028852  0.40710957  1
  Ta  Ta143  1  0.09998144  0.90229965  0.89695089  1
  Ta  Ta144  1  0.29579474  0.29699791  0.89871247  1
  Ta  Ta145  1  0.20418922  0.60953033  0.41074334  1
  Ta  Ta146  1  0.19204533  -0.00847221  0.40586433  1
  Ta  Ta147  1  -0.00190088  0.79849032  0.19569224  1
  Ta  Ta148  1  0.90067531  0.29856874  0.09517763  1
  Ta  Ta149  1  0.60311405  0.40231993  -0.00197670  1
  Ti  Ti150  1  0.80180087  0.00527467  0.61278622  1
  Ti  Ti151  1  0.71372539  0.49993011  0.50245898  1
  Ti  Ti152  1  0.20319015  0.80383638  0.80819794  1
  Ti  Ti153  1  0.80149843  0.80971731  0.39666371  1
  Ti  Ti154  1  0.29656525  0.50387613  0.69923221  1
  Ti  Ti155  1  0.70253475  0.29535470  0.90428528  1
  Ti  Ti156  1  0.80829003  0.20160964  0.61073333  1
  Ti  Ti157  1  0.79793623  0.19129689  0.78775799  1
  Ti  Ti158  1  0.09976560  0.69989269  0.50699394  1
  Ti  Ti159  1  0.80643180  0.39406886  0.20195879  1
  Ti  Ti160  1  0.30220760  0.90135479  0.89970905  1
  Ti  Ti161  1  0.89487913  0.69924899  0.29599054  1
  Ti  Ti162  1  0.70969176  0.50200121  0.10188872  1
  Ti  Ti163  1  0.29931029  0.90810306  0.50470267  1
  Ti  Ti164  1  0.79640334  0.80842040  0.20425363  1
  Ti  Ti165  1  0.69987855  0.29630725  0.68896973  1
  Ti  Ti166  1  0.51632324  0.90576120  0.89700381  1
  Ti  Ti167  1  0.79266870  0.19170879  0.00114301  1
  Ti  Ti168  1  0.59508266  0.39631530  0.59026324  1
  Ti  Ti169  1  -0.00357599  0.80104873  -0.00085266  1
  Ti  Ti170  1  -0.00277611  0.19819259  0.40937849  1
  Ti  Ti171  1  0.20054644  -0.00701091  0.19721890  1
  Ti  Ti172  1  0.69382871  0.08699224  0.90163901  1
  Ti  Ti173  1  0.68656576  0.91759165  0.70074427  1
  Ti  Ti174  1  0.89886264  0.70706475  0.69932868  1
  Ti  Ti175  1  0.20072535  0.79449753  0.19620918  1
  Ti  Ti176  1  -0.00281088  -0.00663928  -0.00853413  1
  Ti  Ti177  1  -0.00093317  -0.00028038  0.60028009  1
  Ti  Ti178  1  0.19912224  0.39576384  0.80714794  1
  Ti  Ti179  1  0.58901256  0.20307960  0.41378773  1
  Ti  Ti180  1  0.69649844  0.70366709  0.69469810  1
  Ti  Ti181  1  0.70610822  0.09081836  0.30863286  1
  Ti  Ti182  1  0.19710570  0.60342355  0.00286693  1
  Ti  Ti183  1  -0.00170912  0.18994136  0.60841151  1
  Ti  Ti184  1  0.00024071  -0.00034489  0.19194423  1
  Ti  Ti185  1  0.70266445  0.89890114  0.10044432  1
  Ti  Ti186  1  0.50366218  0.71086611  0.49557897  1
  Ti  Ti187  1  0.79535397  0.81329025  0.80281497  1
  Ti  Ti188  1  -0.00672812  0.60285988  0.40903195  1
  Ti  Ti189  1  0.60165388  -0.00444749  0.40396361  1
  Ti  Ti190  1  0.49682382  0.70725484  0.90283602  1
  Ti  Ti191  1  0.39290402  0.39501507  0.58900345  1
  Ti  Ti192  1  0.40750147  0.81094111  0.80348311  1
  Ti  Ti193  1  0.19513052  0.19359217  -0.00512065  1
  Ti  Ti194  1  0.69971162  0.71333425  0.30162934  1
  Ti  Ti195  1  0.31082038  0.71010453  0.90525832  1
  Ti  Ti196  1  0.88688578  0.50478949  0.50796482  1
  Ti  Ti197  1  0.49012731  0.49757987  0.50271927  1
  Ti  Ti198  1  0.09493544  0.70040423  0.90309424  1
  Ti  Ti199  1  0.29594005  0.50460275  0.50308528  1
  Mo  Mo200  1  0.90070865  0.28696911  0.70138957  1
  Mo  Mo201  1  0.60497878  0.80327556  0.40343171  1
  Mo  Mo202  1  0.50635447  0.09305068  0.69172015  1
  Mo  Mo203  1  0.59386414  0.00380662  0.60185758  1
  Mo  Mo204  1  -0.00019181  0.80667858  0.60550037  1
  Mo  Mo205  1  0.79951461  0.40060883  0.00197456  1
  Mo  Mo206  1  0.50310433  0.90382008  0.69717923  1
  Mo  Mo207  1  0.90175186  0.29155587  0.50286535  1
  Mo  Mo208  1  0.30433334  0.69713925  0.09941474  1
  Mo  Mo209  1  0.28342490  0.89596882  0.30186907  1
  Mo  Mo210  1  0.40815798  0.80165962  -0.01097429  1
  Mo  Mo211  1  -0.00596274  0.19109516  0.19007592  1
  Mo  Mo212  1  -0.00175450  0.60824908  0.19474455  1
  Mo  Mo213  1  0.40792960  -0.00192585  0.60261989  1
  Mo  Mo214  1  0.29855206  0.70267371  0.49697227  1
  Mo  Mo215  1  0.70206117  0.90160019  0.89438574  1
  Mo  Mo216  1  0.80141095  0.00291464  0.39170832  1
  Mo  Mo217  1  0.79657072  0.61194125  0.59653199  1
  Mo  Mo218  1  0.39697409  0.40544200  0.20885539  1
  Mo  Mo219  1  0.50127876  0.30197333  0.49897193  1
  Mo  Mo220  1  0.70351438  0.89984437  0.29988714  1
  Mo  Mo221  1  0.19852494  0.41180659  0.20085274  1
  Mo  Mo222  1  0.09854038  0.50614165  0.09282647  1
  Mo  Mo223  1  0.30255329  0.30139146  0.49883109  1
  Mo  Mo224  1  0.70249830  0.10076303  0.69325656  1
  Mo  Mo225  1  0.50783175  0.09698712  0.49958242  1
  Mo  Mo226  1  0.89923189  0.09654761  0.69732389  1
  Mo  Mo227  1  0.89811423  0.90556999  0.51179326  1
  Mo  Mo228  1  0.19964397  -0.00697953  0.80100267  1
  Mo  Mo229  1  0.50373775  0.09514821  0.09800757  1
  Mo  Mo230  1  0.79781866  0.61165162  0.20481838  1
  Mo  Mo231  1  0.60660547  -0.00194928  -0.00385385  1
  Mo  Mo232  1  0.90172682  0.90046829  0.90188922  1
  Mo  Mo233  1  0.20895492  0.60455194  0.59668350  1
  Mo  Mo234  1  0.10087702  0.29743129  0.89282144  1
  Mo  Mo235  1  0.09141965  0.09851182  0.70169111  1
  Mo  Mo236  1  0.51010694  0.90314004  0.49741414  1
  Mo  Mo237  1  0.60528413  0.00158933  0.79808244  1
  Mo  Mo238  1  0.00417242  0.39504015  0.80402092  1
  Mo  Mo239  1  0.09677026  0.89673849  0.50374914  1
  Mo  Mo240  1  0.09910632  0.08696317  0.09139850  1
  Mo  Mo241  1  0.51716936  0.09205993  0.90252465  1
  Mo  Mo242  1  0.80151814  0.38663117  0.59290946  1
  Mo  Mo243  1  0.60447085  0.80193436  0.19652077  1
  Mo  Mo244  1  0.48231480  0.49680189  0.29963204  1
  Mo  Mo245  1  0.08920914  0.10175274  0.50061554  1
  Mo  Mo246  1  0.09104253  0.70336464  0.09613529  1
  Mo  Mo247  1  -0.00322750  0.40112361  -0.00242101  1
  Mo  Mo248  1  0.50589432  0.89501657  0.10135999  1
  Mo  Mo249  1  0.70850954  0.09699213  0.09106240  1
