# generated using pymatgen
data_HfZrTaTiMo
_symmetry_space_group_name_H-M   'P 1'
_cell_length_a   16.87800150
_cell_length_b   16.89289061
_cell_length_c   16.88761645
_cell_angle_alpha   89.91579333
_cell_angle_beta   90.03324227
_cell_angle_gamma   90.03234220
_symmetry_Int_Tables_number   1
_chemical_formula_structural   HfZrTaTiMo
_chemical_formula_sum   'Hf50 Zr50 Ta50 Ti50 Mo50'
_cell_volume   4814.96058614
_cell_formula_units_Z   50
loop_
 _symmetry_equiv_pos_site_id
 _symmetry_equiv_pos_as_xyz
  1  'x, y, z'
loop_
 _atom_site_type_symbol
 _atom_site_label
 _atom_site_symmetry_multiplicity
 _atom_site_fract_x
 _atom_site_fract_y
 _atom_site_fract_z
 _atom_site_occupancy
  Hf  Hf0  1  0.00346443  0.40661215  0.01017622  1
  Hf  Hf1  1  0.40612461  0.39743187  0.20703692  1
  Hf  Hf2  1  0.80481126  0.60285229  0.79422818  1
  Hf  Hf3  1  0.49683968  0.50046233  0.69125646  1
  Hf  Hf4  1  0.69741069  0.49192417  0.90546356  1
  Hf  Hf5  1  0.79998641  0.40458344  0.79878764  1
  Hf  Hf6  1  0.70241762  0.71328212  0.88698248  1
  Hf  Hf7  1  0.58827790  0.00193180  0.59335425  1
  Hf  Hf8  1  0.39754429  0.60436094  0.39925211  1
  Hf  Hf9  1  0.09961103  0.50279078  0.30420108  1
  Hf  Hf10  1  0.90256305  0.30705472  0.30248551  1
  Hf  Hf11  1  0.80023033  -0.00065366  0.00473812  1
  Hf  Hf12  1  0.69589682  0.51056705  0.68776672  1
  Hf  Hf13  1  0.29561469  0.90104264  0.89600888  1
  Hf  Hf14  1  0.10820279  0.51176032  0.69679893  1
  Hf  Hf15  1  0.19975492  0.60603747  0.01991028  1
  Hf  Hf16  1  0.50337481  0.90533562  0.31104729  1
  Hf  Hf17  1  0.29704924  0.29529142  0.10511643  1
  Hf  Hf18  1  0.58822129  0.00596442  0.79428422  1
  Hf  Hf19  1  0.10382422  0.10807249  0.29921285  1
  Hf  Hf20  1  0.00473875  -0.00950231  0.39558762  1
  Hf  Hf21  1  0.79609211  0.19514094  0.00402134  1
  Hf  Hf22  1  0.49057578  0.90120181  0.09971333  1
  Hf  Hf23  1  0.59735887  0.39461614  0.20281873  1
  Hf  Hf24  1  0.80209884  -0.00611927  0.80417874  1
  Hf  Hf25  1  0.40529823  0.19586805  0.80330101  1
  Hf  Hf26  1  0.29885499  0.69305392  0.68937157  1
  Hf  Hf27  1  0.09613760  0.51352467  0.89876048  1
  Hf  Hf28  1  -0.00169421  -0.00164117  0.00639278  1
  Hf  Hf29  1  0.09272087  0.30220246  0.90558194  1
  Hf  Hf30  1  0.19332167  0.80312845  0.78533612  1
  Hf  Hf31  1  0.50707340  0.50909175  0.30506715  1
  Hf  Hf32  1  0.40520792  0.18992033  -0.00500287  1
  Hf  Hf33  1  0.90779711  0.09854501  0.89815277  1
  Hf  Hf34  1  0.30769789  0.30429925  0.50046456  1
  Hf  Hf35  1  0.09811271  0.30221952  0.69890637  1
  Hf  Hf36  1  0.29225490  0.50317310  0.30216317  1
  Hf  Hf37  1  0.89562257  0.29865751  0.70076336  1
  Hf  Hf38  1  0.49209653  0.89710497  0.89502179  1
  Hf  Hf39  1  0.19710624  0.40490122  0.01114008  1
  Hf  Hf40  1  0.29596519  0.09561192  0.69674463  1
  Hf  Hf41  1  0.29180512  0.89301901  0.09996372  1
  Hf  Hf42  1  0.19867449  0.79393641  0.40960082  1
  Hf  Hf43  1  0.90246637  0.09854379  0.50038325  1
  Hf  Hf44  1  0.49596650  0.30009888  0.69460946  1
  Hf  Hf45  1  0.19860065  -0.00011173  0.20441152  1
  Hf  Hf46  1  0.79534993  0.20168104  0.41045115  1
  Hf  Hf47  1  0.29637040  0.10496343  0.10835698  1
  Hf  Hf48  1  0.70875351  0.29993849  0.29481695  1
  Hf  Hf49  1  0.59913206  0.18879181  -0.00001370  1
  Zr  Zr50  1  0.30233433  0.30034087  0.90458316  1
  Zr  Zr51  1  0.60156284  0.80054730  0.19900930  1
  Zr  Zr52  1  0.49951230  0.30121898  0.09373561  1
  Zr  Zr53  1  0.69170494  0.90036785  0.49330164  1
  Zr  Zr54  1  0.90766774  0.70174568  0.89979384  1
  Zr  Zr55  1  0.29322291  0.50768753  0.89327105  1
  Zr  Zr56  1  0.69989039  0.70168494  0.30606314  1
  Zr  Zr57  1  0.10111312  0.90663809  0.89648993  1
  Zr  Zr58  1  0.29168246  0.70539033  0.89387837  1
  Zr  Zr59  1  0.71009868  0.48978210  0.10055276  1
  Zr  Zr60  1  0.89552878  0.30401144  0.10620189  1
  Zr  Zr61  1  0.60265538  0.60444708  0.19547712  1
  Zr  Zr62  1  -0.00240822  0.80217090  0.78801335  1
  Zr  Zr63  1  0.80491490  0.60274344  0.00086169  1
  Zr  Zr64  1  0.31175165  0.89558536  0.30842882  1
  Zr  Zr65  1  0.59775503  0.60267746  -0.00427876  1
  Zr  Zr66  1  0.60595517  0.38986975  0.40686236  1
  Zr  Zr67  1  -0.00024714  0.19907386  0.80114139  1
  Zr  Zr68  1  0.39178308  0.00327784  0.58266899  1
  Zr  Zr69  1  0.49377617  0.29332495  0.50593580  1
  Zr  Zr70  1  0.91471354  0.70227114  0.10535776  1
  Zr  Zr71  1  0.79380011  0.20135112  0.80021314  1
  Zr  Zr72  1  0.00969712  -0.01342537  0.60169029  1
  Zr  Zr73  1  0.70890501  0.50175880  0.30662736  1
  Zr  Zr74  1  0.59904412  0.19439281  0.19469189  1
  Zr  Zr75  1  0.60108259  0.00496836  -0.00019839  1
  Zr  Zr76  1  0.80481585  -0.00290738  0.39707258  1
  Zr  Zr77  1  0.60192960  0.00643037  0.19077933  1
  Zr  Zr78  1  0.70417202  0.09140082  0.29968830  1
  Zr  Zr79  1  -0.00151478  0.40753958  0.59823613  1
  Zr  Zr80  1  0.10227826  0.88720464  0.29528191  1
  Zr  Zr81  1  0.89660684  0.50500489  0.49733580  1
  Zr  Zr82  1  0.50097820  0.50500323  0.50507491  1
  Zr  Zr83  1  0.69898629  0.89615746  0.69987060  1
  Zr  Zr84  1  0.20768864  0.40151408  0.60090058  1
  Zr  Zr85  1  0.81018272  0.81640042  -0.00745883  1
  Zr  Zr86  1  0.59120161  0.60168347  0.80190464  1
  Zr  Zr87  1  0.09828797  0.69397947  0.29511634  1
  Zr  Zr88  1  0.29732404  0.29194574  0.29803711  1
  Zr  Zr89  1  0.40107115  0.60079895  -0.00477754  1
  Zr  Zr90  1  0.21542287  -0.00307325  0.41912920  1
  Zr  Zr91  1  0.20195007  0.20089108  0.80039744  1
  Zr  Zr92  1  0.78919799  0.39055815  0.58993866  1
  Zr  Zr93  1  0.60260189  0.80317215  0.00154065  1
  Zr  Zr94  1  0.39991412  0.78873690  0.20275131  1
  Zr  Zr95  1  0.89813019  0.89299887  0.50306169  1
  Zr  Zr96  1  0.20589098  0.40157955  0.79407804  1
  Zr  Zr97  1  0.09805563  0.70027681  0.90681069  1
  Zr  Zr98  1  0.10589251  0.10165326  0.50371640  1
  Zr  Zr99  1  -0.00067016  0.20029508  0.59897269  1
  Ta  Ta100  1  0.79252396  0.19532876  0.59682787  1
  Ta  Ta101  1  0.48673840  0.89336141  0.49021821  1
  Ta  Ta102  1  0.20570361  0.20364991  0.59895782  1
  Ta  Ta103  1  0.80563176  0.60872649  0.40171082  1
  Ta  Ta104  1  0.71338132  0.70610728  0.10392757  1
  Ta  Ta105  1  0.19127187  0.19083517  0.00200686  1
  Ta  Ta106  1  0.39309375  0.79455820  0.00112303  1
  Ta  Ta107  1  0.19439706  0.80560848  0.59313500  1
  Ta  Ta108  1  0.30150704  0.50093888  0.11199854  1
  Ta  Ta109  1  0.10634140  0.50775769  0.49320012  1
  Ta  Ta110  1  0.49551203  0.70148032  0.50340169  1
  Ta  Ta111  1  0.19599085  0.00396290  0.00352136  1
  Ta  Ta112  1  0.59867268  0.39709894  0.79875390  1
  Ta  Ta113  1  0.39733322  0.00360035  -0.00205362  1
  Ta  Ta114  1  0.49646807  0.69796046  0.09629430  1
  Ta  Ta115  1  0.29380945  0.08960468  0.89666528  1
  Ta  Ta116  1  0.89766755  0.09014700  0.69768850  1
  Ta  Ta117  1  0.09841152  0.30728601  0.49037248  1
  Ta  Ta118  1  0.29953488  0.69549178  0.50307544  1
  Ta  Ta119  1  0.40090888  0.40835811  -0.00217645  1
  Ta  Ta120  1  0.10544848  0.08714741  0.70397524  1
  Ta  Ta121  1  0.30152230  0.50452780  0.50312732  1
  Ta  Ta122  1  0.29698026  0.90380258  0.69237352  1
  Ta  Ta123  1  0.10238104  0.29114997  0.11067245  1
  Ta  Ta124  1  0.59595407  0.19845251  0.80417966  1
  Ta  Ta125  1  0.39925697  0.59729764  0.79465853  1
  Ta  Ta126  1  -0.00917775  0.41142614  0.79979099  1
  Ta  Ta127  1  0.70437882  0.89872943  0.30182653  1
  Ta  Ta128  1  0.69700113  0.10132571  0.69726328  1
  Ta  Ta129  1  0.00757374  0.40152024  0.20494479  1
  Ta  Ta130  1  0.89684123  0.30796365  0.90771185  1
  Ta  Ta131  1  0.49931551  0.49938375  0.09567201  1
  Ta  Ta132  1  0.80467764  0.79427284  0.40061089  1
  Ta  Ta133  1  0.60457943  0.39434822  0.59916183  1
  Ta  Ta134  1  0.59952744  0.19134911  0.40469031  1
  Ta  Ta135  1  0.81036531  0.60235807  0.20682792  1
  Ta  Ta136  1  0.58984261  0.80216720  0.59945112  1
  Ta  Ta137  1  0.90694540  0.50303690  0.11005077  1
  Ta  Ta138  1  0.69614284  0.30550393  0.90697571  1
  Ta  Ta139  1  0.10163144  0.89014321  0.10250447  1
  Ta  Ta140  1  -0.00195117  0.60453207  0.40342912  1
  Ta  Ta141  1  -0.00260007  -0.00410440  0.20371496  1
  Ta  Ta142  1  0.89577209  0.89636702  0.69778099  1
  Ta  Ta143  1  0.49218587  0.69858539  0.68849367  1
  Ta  Ta144  1  0.00880884  0.79514222  0.59747794  1
  Ta  Ta145  1  0.79540523  0.79363034  0.59802870  1
  Ta  Ta146  1  -0.00513112  0.60031409  0.78792804  1
  Ta  Ta147  1  0.28887813  0.69441214  0.29739161  1
  Ta  Ta148  1  0.90456572  0.10271800  0.29512318  1
  Ta  Ta149  1  0.20153904  0.20435780  0.40291309  1
  Ti  Ti150  1  0.80951616  0.80309471  0.21153204  1
  Ti  Ti151  1  0.59784589  0.79628753  0.40486436  1
  Ti  Ti152  1  0.69159015  0.29422649  0.70079662  1
  Ti  Ti153  1  0.90625652  0.30348872  0.49483543  1
  Ti  Ti154  1  0.40204330  0.00888579  0.20231774  1
  Ti  Ti155  1  0.00444575  0.20693408  0.39648722  1
  Ti  Ti156  1  0.10562759  0.69210868  0.69147511  1
  Ti  Ti157  1  0.50547051  0.31067581  0.90142718  1
  Ti  Ti158  1  0.41349315  0.19559308  0.20904168  1
  Ti  Ti159  1  0.39876975  0.60254501  0.19771906  1
  Ti  Ti160  1  0.69657249  0.89464029  0.88823269  1
  Ti  Ti161  1  0.39919114  0.40432633  0.79743916  1
  Ti  Ti162  1  0.40026479  0.80173728  0.78594955  1
  Ti  Ti163  1  0.09987569  0.70547918  0.11039528  1
  Ti  Ti164  1  0.30181935  0.10275913  0.30509651  1
  Ti  Ti165  1  0.19231490  0.39823897  0.20133694  1
  Ti  Ti166  1  0.69785778  0.09947509  0.89406452  1
  Ti  Ti167  1  0.71248697  0.90123695  0.11383635  1
  Ti  Ti168  1  0.40609013  0.39773501  0.39429169  1
  Ti  Ti169  1  0.90894999  0.70168213  0.29892441  1
  Ti  Ti170  1  0.89738637  0.69896698  0.50470176  1
  Ti  Ti171  1  0.00254044  0.20246619  0.20370259  1
  Ti  Ti172  1  0.70590240  0.30907720  0.09442335  1
  Ti  Ti173  1  0.00106132  0.80997415  0.00043608  1
  Ti  Ti174  1  0.09797846  0.10137125  0.10752829  1
  Ti  Ti175  1  0.50072667  0.09336133  0.31149008  1
  Ti  Ti176  1  0.40298628  0.18887959  0.40498790  1
  Ti  Ti177  1  0.49617682  0.10917752  0.68887917  1
  Ti  Ti178  1  0.50124343  0.70030327  0.30795440  1
  Ti  Ti179  1  0.79795583  0.40032876  0.40701091  1
  Ti  Ti180  1  0.49375508  0.70830429  0.89368796  1
  Ti  Ti181  1  0.10082645  0.09288222  0.89435285  1
  Ti  Ti182  1  0.90508860  0.50375183  0.90918737  1
  Ti  Ti183  1  0.90060287  0.09659044  0.11203772  1
  Ti  Ti184  1  -0.00050673  0.79517405  0.40714671  1
  Ti  Ti185  1  0.69554025  0.51804938  0.50136163  1
  Ti  Ti186  1  0.00113583  0.19663944  0.00711520  1
  Ti  Ti187  1  0.58662891  0.80219257  0.78534295  1
  Ti  Ti188  1  0.89563224  0.50914406  0.68716655  1
  Ti  Ti189  1  0.40301415  0.00061933  0.79325194  1
  Ti  Ti190  1  0.60624541  0.19480097  0.59183086  1
  Ti  Ti191  1  0.69336910  0.69545422  0.50396910  1
  Ti  Ti192  1  0.89458678  0.70190602  0.68977404  1
  Ti  Ti193  1  0.19743592  0.39654678  0.39829590  1
  Ti  Ti194  1  0.79300834  0.00348899  0.59885947  1
  Ti  Ti195  1  0.69567672  0.70121528  0.69296470  1
  Ti  Ti196  1  0.79744983  0.19272275  0.19527231  1
  Ti  Ti197  1  0.90565175  0.89711056  0.11589781  1
  Ti  Ti198  1  0.00219376  0.60801236  0.59399262  1
  Ti  Ti199  1  0.90336978  0.49865907  0.30160567  1
  Mo  Mo200  1  0.39427773  0.19901609  0.60383433  1
  Mo  Mo201  1  0.59433469  0.00036145  0.40236144  1
  Mo  Mo202  1  0.39619530  0.40345690  0.60638388  1
  Mo  Mo203  1  0.59523889  0.39698893  -0.00335125  1
  Mo  Mo204  1  0.49970654  0.10017446  0.49581747  1
  Mo  Mo205  1  0.19479979  0.19713152  0.20434867  1
  Mo  Mo206  1  0.20064471  0.79068646  0.19666835  1
  Mo  Mo207  1  0.49689017  0.48861207  0.89411316  1
  Mo  Mo208  1  -0.00085929  0.80210541  0.20076359  1
  Mo  Mo209  1  0.20028938  0.60340869  0.59139722  1
  Mo  Mo210  1  0.00208582  0.40458643  0.40026700  1
  Mo  Mo211  1  0.10174087  0.89065081  0.49950998  1
  Mo  Mo212  1  0.09815991  0.30219063  0.30270331  1
  Mo  Mo213  1  0.10462356  0.90042708  0.69407528  1
  Mo  Mo214  1  0.80679374  0.39801679  -0.00156222  1
  Mo  Mo215  1  0.19787539  0.80081580  0.00808584  1
  Mo  Mo216  1  0.31100632  0.29885861  0.69512146  1
  Mo  Mo217  1  0.09999439  0.50259912  0.11378856  1
  Mo  Mo218  1  0.09533406  0.69459857  0.50204748  1
  Mo  Mo219  1  0.30200760  0.11769967  0.49941739  1
  Mo  Mo220  1  0.59960026  0.61202705  0.59874009  1
  Mo  Mo221  1  0.19648417  0.60602597  0.78858083  1
  Mo  Mo222  1  0.49524871  0.09257581  0.89378505  1
  Mo  Mo223  1  0.80204961  0.80060388  0.78793235  1
  Mo  Mo224  1  0.30084537  0.69710571  0.10683791  1
  Mo  Mo225  1  0.30746231  0.50397302  0.69569629  1
  Mo  Mo226  1  0.20018259  0.59833236  0.19877692  1
  Mo  Mo227  1  0.81145729  -0.00632756  0.20105877  1
  Mo  Mo228  1  0.39624292  0.80157720  0.59660499  1
  Mo  Mo229  1  0.71858066  0.09650803  0.10030114  1
  Mo  Mo230  1  0.39701816  0.60027274  0.59686264  1
  Mo  Mo231  1  0.90781583  0.90394572  0.89048408  1
  Mo  Mo232  1  0.49920160  0.28567097  0.30694218  1
  Mo  Mo233  1  0.69658650  0.09847410  0.50579014  1
  Mo  Mo234  1  0.19946804  -0.00131977  0.79888589  1
  Mo  Mo235  1  0.40211210  0.01242534  0.40024988  1
  Mo  Mo236  1  0.20052518  0.59889126  0.40487014  1
  Mo  Mo237  1  0.69597212  0.29209831  0.50049242  1
  Mo  Mo238  1  0.80870217  0.40559595  0.20186887  1
  Mo  Mo239  1  0.79734683  0.61423318  0.59514817  1
  Mo  Mo240  1  0.00585905  0.59521246  0.01293563  1
  Mo  Mo241  1  0.48329593  0.09623401  0.10143521  1
  Mo  Mo242  1  -0.00098225  0.59648523  0.20651704  1
  Mo  Mo243  1  -0.00235646  -0.00205554  0.79535825  1
  Mo  Mo244  1  0.30504176  0.88412524  0.50259917  1
  Mo  Mo245  1  0.90250818  0.89026657  0.30006046  1
  Mo  Mo246  1  0.20207964  -0.00483376  0.60213013  1
  Mo  Mo247  1  0.48930556  0.89298350  0.69477856  1
  Mo  Mo248  1  0.60260815  0.61101771  0.40796178  1
  Mo  Mo249  1  0.39922501  0.78773429  0.40182847  1
