# generated using pymatgen
data_HfZrTaTiMo
_symmetry_space_group_name_H-M   'P 1'
_cell_length_a   16.88951057
_cell_length_b   16.88475590
_cell_length_c   16.88955011
_cell_angle_alpha   90.00109762
_cell_angle_beta   89.99662975
_cell_angle_gamma   89.98122586
_symmetry_Int_Tables_number   1
_chemical_formula_structural   HfZrTaTiMo
_chemical_formula_sum   'Hf50 Zr50 Ta50 Ti50 Mo50'
_cell_volume   4816.48163157
_cell_formula_units_Z   50
loop_
 _symmetry_equiv_pos_site_id
 _symmetry_equiv_pos_as_xyz
  1  'x, y, z'
loop_
 _atom_site_type_symbol
 _atom_site_label
 _atom_site_symmetry_multiplicity
 _atom_site_fract_x
 _atom_site_fract_y
 _atom_site_fract_z
 _atom_site_occupancy
  Hf  Hf0  1  0.20810941  0.80567040  0.80669105  1
  Hf  Hf1  1  0.10383157  0.89093381  0.49935522  1
  Hf  Hf2  1  0.39011330  0.39853965  0.19913481  1
  Hf  Hf3  1  0.38860006  0.60132974  0.40251585  1
  Hf  Hf4  1  0.20329227  0.20661841  0.20021134  1
  Hf  Hf5  1  0.39645468  0.21031157  -0.00735224  1
  Hf  Hf6  1  0.39518179  0.20965407  0.20117304  1
  Hf  Hf7  1  -0.00337397  0.79329513  0.20107335  1
  Hf  Hf8  1  0.39915947  0.79719561  0.80295762  1
  Hf  Hf9  1  -0.00661755  0.00540943  0.59130038  1
  Hf  Hf10  1  0.80337712  0.00000146  0.20580171  1
  Hf  Hf11  1  0.90206560  0.30245433  0.30521321  1
  Hf  Hf12  1  0.20257792  0.20223170  0.40365145  1
  Hf  Hf13  1  0.89304617  0.69246872  0.09588467  1
  Hf  Hf14  1  0.90130445  0.50549484  0.69880196  1
  Hf  Hf15  1  0.10009213  0.89579218  0.30717791  1
  Hf  Hf16  1  0.59513034  0.60375016  0.00118055  1
  Hf  Hf17  1  0.70477741  0.10043691  0.09976959  1
  Hf  Hf18  1  0.90139325  0.90037206  0.69078686  1
  Hf  Hf19  1  0.70303672  0.49781221  0.69625991  1
  Hf  Hf20  1  0.40369107  0.40453680  0.79459475  1
  Hf  Hf21  1  0.81228637  0.19678757  0.20843070  1
  Hf  Hf22  1  0.49942856  0.10492700  0.31762038  1
  Hf  Hf23  1  0.20292152  0.60411582  0.59084818  1
  Hf  Hf24  1  0.81194200  -0.00386003  0.00840366  1
  Hf  Hf25  1  0.69997356  0.89976982  0.89978776  1
  Hf  Hf26  1  0.81046662  0.21085797  -0.00008785  1
  Hf  Hf27  1  0.69988312  0.49797298  0.89669896  1
  Hf  Hf28  1  0.49907321  0.10125279  0.09884772  1
  Hf  Hf29  1  0.49518442  0.89138308  0.10514604  1
  Hf  Hf30  1  0.70233241  0.69122095  0.49620286  1
  Hf  Hf31  1  0.79833473  0.80253612  0.79622996  1
  Hf  Hf32  1  0.90293910  0.50445048  0.89960505  1
  Hf  Hf33  1  0.20163588  -0.00348185  -0.01265616  1
  Hf  Hf34  1  0.20073988  0.00273570  0.40352391  1
  Hf  Hf35  1  0.40003052  0.78903542  -0.01069986  1
  Hf  Hf36  1  0.09376869  0.10487527  0.09461924  1
  Hf  Hf37  1  0.09367047  0.30374078  0.30215226  1
  Hf  Hf38  1  0.80551951  0.00652090  0.79443412  1
  Hf  Hf39  1  0.68656455  0.29571380  0.71183061  1
  Hf  Hf40  1  0.49997918  0.50438943  0.30519604  1
  Hf  Hf41  1  0.29684974  0.10099906  0.70144744  1
  Hf  Hf42  1  0.80481939  0.41543814  0.20626575  1
  Hf  Hf43  1  0.39538692  -0.00801552  -0.01364051  1
  Hf  Hf44  1  0.90279164  0.69533765  0.90493552  1
  Hf  Hf45  1  0.60533958  0.00018345  0.20997561  1
  Hf  Hf46  1  0.30527955  0.68440967  0.10200464  1
  Hf  Hf47  1  0.19776584  0.00454845  0.20569483  1
  Hf  Hf48  1  -0.00929901  -0.00098388  0.20325168  1
  Hf  Hf49  1  0.69956989  0.89416299  0.30891430  1
  Zr  Zr50  1  0.30005292  0.90431490  0.69120283  1
  Zr  Zr51  1  0.52194700  0.30515437  0.87388878  1
  Zr  Zr52  1  0.19099545  0.59103606  0.20489361  1
  Zr  Zr53  1  -0.00400654  0.59907813  0.21640212  1
  Zr  Zr54  1  0.70742305  0.70088607  0.90677422  1
  Zr  Zr55  1  0.29655497  0.88824379  0.30227912  1
  Zr  Zr56  1  0.70706525  0.30683578  0.10217211  1
  Zr  Zr57  1  0.10230934  0.29431139  0.70086971  1
  Zr  Zr58  1  0.89085603  0.89403208  0.31687038  1
  Zr  Zr59  1  0.19863888  0.41431043  0.79957956  1
  Zr  Zr60  1  0.60207864  0.19960481  0.20603770  1
  Zr  Zr61  1  0.60164111  0.21163024  -0.00120905  1
  Zr  Zr62  1  0.60012416  -0.00553144  -0.00031761  1
  Zr  Zr63  1  0.49485570  0.90692624  0.50933114  1
  Zr  Zr64  1  0.50038189  0.69523387  0.49919803  1
  Zr  Zr65  1  0.89950231  0.69390511  0.69434646  1
  Zr  Zr66  1  0.50225875  0.10160864  0.88813236  1
  Zr  Zr67  1  0.00251277  0.80019135  0.80043536  1
  Zr  Zr68  1  0.38828789  0.79309559  0.40490800  1
  Zr  Zr69  1  0.00282421  0.00656275  0.79504572  1
  Zr  Zr70  1  0.29888696  0.10142137  0.09310872  1
  Zr  Zr71  1  -0.00538753  0.78485247  0.40228122  1
  Zr  Zr72  1  0.39776142  0.00438009  0.20877377  1
  Zr  Zr73  1  0.10801580  0.70699518  0.69548892  1
  Zr  Zr74  1  0.90067841  0.50485847  0.09611920  1
  Zr  Zr75  1  0.89310450  0.49948394  0.50381060  1
  Zr  Zr76  1  0.00386391  0.39920012  0.60144795  1
  Zr  Zr77  1  0.39824073  0.39791607  -0.01236420  1
  Zr  Zr78  1  0.09822727  0.89958903  0.09824063  1
  Zr  Zr79  1  0.40266852  0.60117010  0.79911595  1
  Zr  Zr80  1  0.70275317  0.30425580  0.31567184  1
  Zr  Zr81  1  0.09664232  0.30192399  0.89635079  1
  Zr  Zr82  1  0.11341482  0.32071347  0.10257221  1
  Zr  Zr83  1  0.29604841  0.29487185  0.69990447  1
  Zr  Zr84  1  0.70140813  0.10783746  0.89222176  1
  Zr  Zr85  1  0.80538723  0.37814730  0.60213307  1
  Zr  Zr86  1  0.89284090  0.69908306  0.50453610  1
  Zr  Zr87  1  0.28428120  0.48737687  0.09351578  1
  Zr  Zr88  1  0.30766805  0.09798015  0.50782179  1
  Zr  Zr89  1  0.59486055  0.59716014  0.60616518  1
  Zr  Zr90  1  0.60085240  0.40874359  0.19065264  1
  Zr  Zr91  1  0.49959471  0.89315334  0.30343817  1
  Zr  Zr92  1  0.30103208  0.88880193  0.10426226  1
  Zr  Zr93  1  0.81444139  0.59496738  0.38199213  1
  Zr  Zr94  1  0.91773519  0.10565184  0.90905315  1
  Zr  Zr95  1  0.09733342  0.30210085  0.49717102  1
  Zr  Zr96  1  0.69440465  0.69732067  0.30358129  1
  Zr  Zr97  1  0.60443689  0.80198317  0.60576294  1
  Zr  Zr98  1  0.50550328  0.30410385  0.30961716  1
  Zr  Zr99  1  0.60389514  0.60050387  0.18696117  1
  Ta  Ta100  1  0.90752053  0.30692219  0.89820673  1
  Ta  Ta101  1  0.29450223  0.10459403  0.88509713  1
  Ta  Ta102  1  0.59830983  0.41272698  -0.00014073  1
  Ta  Ta103  1  0.80348112  0.39963409  -0.00137101  1
  Ta  Ta104  1  0.20064591  0.79498691  -0.00303686  1
  Ta  Ta105  1  0.70135203  0.28640281  0.50069595  1
  Ta  Ta106  1  0.39744739  0.21102890  0.41128448  1
  Ta  Ta107  1  0.41022936  0.20520872  0.60120284  1
  Ta  Ta108  1  0.69552813  0.50075751  0.31076008  1
  Ta  Ta109  1  0.29474857  0.49773483  0.30644985  1
  Ta  Ta110  1  0.59494665  0.79165767  0.00354984  1
  Ta  Ta111  1  0.70116790  0.89134105  0.10381409  1
  Ta  Ta112  1  0.08779488  0.10656023  0.30276564  1
  Ta  Ta113  1  0.39968877  -0.00251837  0.79690567  1
  Ta  Ta114  1  0.59831500  0.79721158  0.79628476  1
  Ta  Ta115  1  0.20374948  0.20867377  -0.00506738  1
  Ta  Ta116  1  -0.01640965  0.20063352  0.59960835  1
  Ta  Ta117  1  0.19656259  0.00052875  0.59514925  1
  Ta  Ta118  1  0.59639738  0.19437901  0.60272750  1
  Ta  Ta119  1  0.69997042  0.49531504  0.49752798  1
  Ta  Ta120  1  0.39682068  0.39608595  0.40992075  1
  Ta  Ta121  1  0.70720908  0.90158319  0.49807778  1
  Ta  Ta122  1  0.60652745  0.00543898  0.41176695  1
  Ta  Ta123  1  0.01306737  0.60120415  0.59021047  1
  Ta  Ta124  1  0.79714498  0.59989214  0.79919112  1
  Ta  Ta125  1  0.48302884  0.50768387  0.09799903  1
  Ta  Ta126  1  0.20002706  0.78449287  0.20390930  1
  Ta  Ta127  1  0.59906701  0.78976184  0.19124699  1
  Ta  Ta128  1  0.49285686  0.69573939  0.29158010  1
  Ta  Ta129  1  -0.01226557  0.19462617  0.40434990  1
  Ta  Ta130  1  0.90790047  0.90052117  0.90678788  1
  Ta  Ta131  1  0.10374914  0.10260787  0.69454323  1
  Ta  Ta132  1  0.09911624  0.90190344  0.89870345  1
  Ta  Ta133  1  0.00282300  0.80038231  0.00263240  1
  Ta  Ta134  1  0.59930331  -0.00151192  0.78530505  1
  Ta  Ta135  1  0.91162587  0.10647890  0.10272323  1
  Ta  Ta136  1  0.10614103  0.90393222  0.69493656  1
  Ta  Ta137  1  0.10292560  0.69717931  0.90214457  1
  Ta  Ta138  1  0.40260969  0.39680014  0.59861823  1
  Ta  Ta139  1  0.50473218  0.89676478  0.89059178  1
  Ta  Ta140  1  0.10249649  0.69644017  0.09478032  1
  Ta  Ta141  1  0.49675051  0.90334535  0.69707332  1
  Ta  Ta142  1  0.80600550  0.39551699  0.80117101  1
  Ta  Ta143  1  0.79939556  0.79235530  0.19984134  1
  Ta  Ta144  1  0.81163217  0.20485221  0.79129722  1
  Ta  Ta145  1  0.09475713  0.10437415  0.50038569  1
  Ta  Ta146  1  0.59477582  0.39248400  0.59986184  1
  Ta  Ta147  1  0.30159669  0.49759261  0.50207982  1
  Ta  Ta148  1  0.49952299  0.49619521  0.50112184  1
  Ta  Ta149  1  0.59409732  0.60579615  0.80135302  1
  Ti  Ti150  1  0.80100488  0.00691119  0.40973230  1
  Ti  Ti151  1  0.70233275  0.30555971  0.89317027  1
  Ti  Ti152  1  -0.01092322  0.00648472  0.40604940  1
  Ti  Ti153  1  0.10431169  0.10463674  0.89596173  1
  Ti  Ti154  1  0.00072453  0.40675422  0.19680375  1
  Ti  Ti155  1  0.59977400  0.40027449  0.41267052  1
  Ti  Ti156  1  -0.01213500  0.40529852  0.40445646  1
  Ti  Ti157  1  0.10547634  0.50797406  0.69867221  1
  Ti  Ti158  1  0.11288231  0.69597036  0.31443715  1
  Ti  Ti159  1  0.29697786  0.69955436  0.69548134  1
  Ti  Ti160  1  0.00098536  0.40573727  0.79666498  1
  Ti  Ti161  1  0.49428441  0.70483053  0.69698056  1
  Ti  Ti162  1  0.70540224  0.10500704  0.69173367  1
  Ti  Ti163  1  0.50066841  0.10053054  0.50360309  1
  Ti  Ti164  1  0.00391619  0.59780098  0.39997356  1
  Ti  Ti165  1  0.20486765  0.40316198  0.59658511  1
  Ti  Ti166  1  0.39649279  0.59888040  0.59859102  1
  Ti  Ti167  1  0.29186040  0.29576721  0.88779313  1
  Ti  Ti168  1  0.00680105  0.40817394  0.00092089  1
  Ti  Ti169  1  0.79726114  0.80506127  0.59493893  1
  Ti  Ti170  1  0.10178259  0.48962598  0.30927313  1
  Ti  Ti171  1  0.80341543  0.80533557  0.00803956  1
  Ti  Ti172  1  0.60242783  0.00668886  0.60022123  1
  Ti  Ti173  1  0.70478413  0.10986015  0.32354317  1
  Ti  Ti174  1  0.00082480  0.21977333  0.01335172  1
  Ti  Ti175  1  0.79998930  0.00587070  0.59506380  1
  Ti  Ti176  1  0.70549635  0.69496837  0.69659674  1
  Ti  Ti177  1  0.01331655  0.59750183  0.80073788  1
  Ti  Ti178  1  0.29363417  0.50694639  0.89884139  1
  Ti  Ti179  1  0.49908535  0.30767879  0.09782156  1
  Ti  Ti180  1  0.30349597  0.10513201  0.30768281  1
  Ti  Ti181  1  0.29924740  0.50546784  0.69595027  1
  Ti  Ti182  1  0.38787088  0.79644153  0.59433665  1
  Ti  Ti183  1  0.28840765  0.68564324  0.89958465  1
  Ti  Ti184  1  0.01130151  0.59683024  0.00144244  1
  Ti  Ti185  1  0.88434796  0.11062450  0.50125549  1
  Ti  Ti186  1  0.70016915  0.90526319  0.69445554  1
  Ti  Ti187  1  0.19974205  0.20041773  0.59313734  1
  Ti  Ti188  1  0.50595852  0.29687152  0.50207813  1
  Ti  Ti189  1  0.00258831  0.79820828  0.59345083  1
  Ti  Ti190  1  0.20725028  0.40034705  0.40779724  1
  Ti  Ti191  1  0.29579195  0.30818673  0.30644514  1
  Ti  Ti192  1  0.50338586  0.49432086  0.69921227  1
  Ti  Ti193  1  -0.00485213  0.19874009  0.78926940  1
  Ti  Ti194  1  0.39594331  -0.00356427  0.40798372  1
  Ti  Ti195  1  0.10592814  0.50217629  0.49096951  1
  Ti  Ti196  1  0.18664176  0.58887236  -0.00539640  1
  Ti  Ti197  1  0.40876041  0.60021467  -0.01305052  1
  Ti  Ti198  1  0.41038216  0.19982603  0.78782350  1
  Ti  Ti199  1  0.59666134  0.79945232  0.40409855  1
  Mo  Mo200  1  0.79688859  0.19561770  0.60317911  1
  Mo  Mo201  1  0.00359397  -0.00580383  0.00026513  1
  Mo  Mo202  1  0.29612436  0.69070091  0.29753891  1
  Mo  Mo203  1  0.90846126  0.49298207  0.30295895  1
  Mo  Mo204  1  0.59785898  0.19590793  0.41746784  1
  Mo  Mo205  1  0.79397187  0.59908707  0.19655946  1
  Mo  Mo206  1  -0.00035871  0.20085205  0.20273272  1
  Mo  Mo207  1  0.50651335  0.70333817  0.89588240  1
  Mo  Mo208  1  0.19754035  0.40112710  0.21895158  1
  Mo  Mo209  1  0.89409880  0.29542850  0.49463192  1
  Mo  Mo210  1  0.89476613  0.69811059  0.29416965  1
  Mo  Mo211  1  0.20227601  0.60395596  0.79742096  1
  Mo  Mo212  1  0.70853762  0.50602274  0.09099436  1
  Mo  Mo213  1  0.19715998  0.59227654  0.40265402  1
  Mo  Mo214  1  0.49024433  0.69642808  0.10006371  1
  Mo  Mo215  1  0.90484121  0.29855609  0.70919775  1
  Mo  Mo216  1  0.80026577  0.19886245  0.40733592  1
  Mo  Mo217  1  0.50352318  0.50456042  0.89962282  1
  Mo  Mo218  1  0.89076071  0.90227488  0.50389503  1
  Mo  Mo219  1  0.40391202  0.00618024  0.60396978  1
  Mo  Mo220  1  0.20096051  0.78463200  0.40375011  1
  Mo  Mo221  1  0.60096548  0.41765491  0.79524525  1
  Mo  Mo222  1  0.39467410  0.59339869  0.20537970  1
  Mo  Mo223  1  0.79475317  0.39851658  0.40414665  1
  Mo  Mo224  1  0.40004712  0.78026666  0.19985562  1
  Mo  Mo225  1  0.90918471  0.30706588  0.09974640  1
  Mo  Mo226  1  0.89689457  0.89487822  0.09855552  1
  Mo  Mo227  1  0.79288583  0.59732411  0.60455132  1
  Mo  Mo228  1  0.30254165  0.30435939  0.50570403  1
  Mo  Mo229  1  0.10144317  0.69738477  0.49612215  1
  Mo  Mo230  1  0.70597093  0.70356500  0.09951475  1
  Mo  Mo231  1  0.09613337  0.50137016  0.09322742  1
  Mo  Mo232  1  0.89778030  0.10472571  0.69206566  1
  Mo  Mo233  1  0.29934175  0.90386758  0.89473383  1
  Mo  Mo234  1  0.20777163  0.80200908  0.59342651  1
  Mo  Mo235  1  0.79466988  0.59516784  -0.00220382  1
  Mo  Mo236  1  0.29546970  0.89748962  0.50408849  1
  Mo  Mo237  1  0.59464374  0.59158923  0.40174016  1
  Mo  Mo238  1  0.79431550  0.79901353  0.40283634  1
  Mo  Mo239  1  0.49790597  0.09605023  0.69267464  1
  Mo  Mo240  1  0.60697673  0.18231437  0.78791835  1
  Mo  Mo241  1  0.50152072  0.29914704  0.69255573  1
  Mo  Mo242  1  0.90144187  0.09870746  0.30886693  1
  Mo  Mo243  1  0.19204664  0.19226486  0.80299386  1
  Mo  Mo244  1  0.29406153  0.69782906  0.50313498  1
  Mo  Mo245  1  0.19558767  0.00185608  0.79619232  1
  Mo  Mo246  1  0.69981618  0.09626406  0.50746140  1
  Mo  Mo247  1  0.20121431  0.40276722  -0.01869392  1
  Mo  Mo248  1  0.09522401  0.50541954  0.89773696  1
  Mo  Mo249  1  0.29732498  0.30093478  0.09191136  1
