# generated using pymatgen
data_HfZrTaTiMo
_symmetry_space_group_name_H-M   'P 1'
_cell_length_a   16.88472202
_cell_length_b   16.88700490
_cell_length_c   16.87337723
_cell_angle_alpha   89.94975433
_cell_angle_beta   90.03329225
_cell_angle_gamma   90.02363882
_symmetry_Int_Tables_number   1
_chemical_formula_structural   HfZrTaTiMo
_chemical_formula_sum   'Hf50 Zr50 Ta50 Ti50 Mo50'
_cell_volume   4811.14319650
_cell_formula_units_Z   50
loop_
 _symmetry_equiv_pos_site_id
 _symmetry_equiv_pos_as_xyz
  1  'x, y, z'
loop_
 _atom_site_type_symbol
 _atom_site_label
 _atom_site_symmetry_multiplicity
 _atom_site_fract_x
 _atom_site_fract_y
 _atom_site_fract_z
 _atom_site_occupancy
  Hf  Hf0  1  0.68453958  0.50412781  0.29946651  1
  Hf  Hf1  1  0.09904907  0.69268969  0.49836626  1
  Hf  Hf2  1  0.39930431  0.40260150  0.60356844  1
  Hf  Hf3  1  0.09229326  0.50534729  0.10448807  1
  Hf  Hf4  1  0.40620631  0.40385167  0.79711328  1
  Hf  Hf5  1  0.59444374  0.39115654  0.18597249  1
  Hf  Hf6  1  0.49116720  0.90091995  0.08964315  1
  Hf  Hf7  1  0.51426069  0.28326277  0.69764473  1
  Hf  Hf8  1  0.59424094  0.78282891  0.00163837  1
  Hf  Hf9  1  0.29450709  0.29473034  0.49442459  1
  Hf  Hf10  1  0.80082254  0.79413224  0.60695710  1
  Hf  Hf11  1  -0.01843787  0.60018735  0.78803741  1
  Hf  Hf12  1  0.09374023  0.68781973  0.90759770  1
  Hf  Hf13  1  0.79623199  0.20166872  0.80850952  1
  Hf  Hf14  1  0.10069745  0.69997203  0.69249538  1
  Hf  Hf15  1  0.38805346  -0.00531487  -0.02625881  1
  Hf  Hf16  1  0.20353866  -0.00379605  0.80697869  1
  Hf  Hf17  1  0.19477789  0.19479178  0.59740929  1
  Hf  Hf18  1  0.30011544  0.50006133  0.90835672  1
  Hf  Hf19  1  0.68219404  0.10842766  0.70063838  1
  Hf  Hf20  1  -0.01342090  0.19804430  0.80212198  1
  Hf  Hf21  1  0.79916624  0.60861428  0.20024301  1
  Hf  Hf22  1  0.00058365  0.20021230  0.59656249  1
  Hf  Hf23  1  0.08942557  0.49857921  0.91303910  1
  Hf  Hf24  1  0.60161702  0.80425971  0.19897666  1
  Hf  Hf25  1  0.19912926  0.00004542  0.60259353  1
  Hf  Hf26  1  0.40154433  0.19981707  0.40591339  1
  Hf  Hf27  1  0.80877965  -0.00649423  0.20292795  1
  Hf  Hf28  1  0.80662620  0.40399825  0.19661843  1
  Hf  Hf29  1  0.19592218  0.80909920  -0.00042732  1
  Hf  Hf30  1  0.90126684  0.90785928  0.70260058  1
  Hf  Hf31  1  0.00077586  0.80753047  0.80553080  1
  Hf  Hf32  1  0.67662123  0.69150446  0.87868984  1
  Hf  Hf33  1  0.40407590  0.81340372  0.81489709  1
  Hf  Hf34  1  0.30624023  0.49943600  0.29693472  1
  Hf  Hf35  1  0.89990012  0.90390926  0.49395872  1
  Hf  Hf36  1  0.30731224  0.30015781  0.09912386  1
  Hf  Hf37  1  0.09504308  0.10219034  0.09567155  1
  Hf  Hf38  1  0.59652402  -0.00432127  0.20091886  1
  Hf  Hf39  1  0.79757812  0.41244621  0.40095126  1
  Hf  Hf40  1  0.49542987  0.10275061  0.08832531  1
  Hf  Hf41  1  0.08884191  0.09784065  0.90252154  1
  Hf  Hf42  1  0.50173951  0.70783445  0.31243458  1
  Hf  Hf43  1  0.39470966  0.19005535  0.80142586  1
  Hf  Hf44  1  0.30226981  0.70205335  0.90648232  1
  Hf  Hf45  1  0.50569584  0.29263847  0.89943316  1
  Hf  Hf46  1  0.20272014  0.58916080  0.79734027  1
  Hf  Hf47  1  0.78895321  0.60793390  -0.00291353  1
  Hf  Hf48  1  0.70479917  0.49030951  0.69581906  1
  Hf  Hf49  1  0.91304373  0.50594325  0.50525587  1
  Zr  Zr50  1  0.50659467  0.49425495  0.49368146  1
  Zr  Zr51  1  0.29936294  0.29716077  0.69770437  1
  Zr  Zr52  1  0.90631367  0.70109228  0.30133454  1
  Zr  Zr53  1  0.30089449  0.70787452  0.69725709  1
  Zr  Zr54  1  0.19788480  0.80147547  0.19707620  1
  Zr  Zr55  1  0.69836507  0.30162757  0.29710284  1
  Zr  Zr56  1  0.40731482  -0.00004838  0.40053701  1
  Zr  Zr57  1  0.90847549  0.50478552  0.09878769  1
  Zr  Zr58  1  0.49842914  0.50231928  0.29242734  1
  Zr  Zr59  1  0.69421189  0.30905489  0.50935823  1
  Zr  Zr60  1  0.40518935  0.59030863  0.79751131  1
  Zr  Zr61  1  0.70607214  0.10335061  0.29051833  1
  Zr  Zr62  1  0.29581250  0.89945802  0.31211288  1
  Zr  Zr63  1  0.61419709  0.20820415  0.00247925  1
  Zr  Zr64  1  0.79785472  0.60073679  0.40439214  1
  Zr  Zr65  1  0.29687991  0.89360222  0.50551067  1
  Zr  Zr66  1  0.79797052  0.00048495  0.80161803  1
  Zr  Zr67  1  -0.00431359  0.79784514  0.60063839  1
  Zr  Zr68  1  0.81118470  0.19757595  -0.00000517  1
  Zr  Zr69  1  -0.00124850  0.80620475  0.00360029  1
  Zr  Zr70  1  0.80177480  0.19527547  0.40091950  1
  Zr  Zr71  1  0.70037827  0.91129230  0.08053457  1
  Zr  Zr72  1  0.21179732  0.58866299  0.59582321  1
  Zr  Zr73  1  0.59945031  0.19949135  0.40478603  1
  Zr  Zr74  1  0.50082000  0.10740310  0.29344211  1
  Zr  Zr75  1  0.50164997  0.89119286  0.49612390  1
  Zr  Zr76  1  0.30575984  0.10094545  0.09696857  1
  Zr  Zr77  1  0.51525920  0.70019281  0.71966424  1
  Zr  Zr78  1  0.10528467  0.29820172  0.30316660  1
  Zr  Zr79  1  0.41037605  0.40255309  -0.00513522  1
  Zr  Zr80  1  0.50608876  0.09858094  0.89041881  1
  Zr  Zr81  1  0.09454923  0.30006530  0.90382904  1
  Zr  Zr82  1  0.80771102  0.60717134  0.60819128  1
  Zr  Zr83  1  -0.01235283  0.40282820  0.79880335  1
  Zr  Zr84  1  0.79992749  0.59120000  0.79942668  1
  Zr  Zr85  1  0.69677687  0.07912151  0.91374769  1
  Zr  Zr86  1  -0.00333884  0.21137405  0.18660388  1
  Zr  Zr87  1  0.20156435  0.19614003  0.80228205  1
  Zr  Zr88  1  0.10075905  0.90153763  0.30538525  1
  Zr  Zr89  1  0.19603995  0.39992259  0.20065291  1
  Zr  Zr90  1  0.00360928  0.19878575  0.39855178  1
  Zr  Zr91  1  0.39986163  0.80322170  0.20540047  1
  Zr  Zr92  1  0.69098357  0.50677306  0.09520806  1
  Zr  Zr93  1  0.70331559  0.90044869  0.49395292  1
  Zr  Zr94  1  0.60742056  0.79452576  0.60676803  1
  Zr  Zr95  1  0.89678043  0.30294418  0.49759461  1
  Zr  Zr96  1  0.19434704  0.81007606  0.80309323  1
  Zr  Zr97  1  0.28821747  0.10311108  0.30569616  1
  Zr  Zr98  1  0.30890979  0.50515987  0.10552381  1
  Zr  Zr99  1  0.09132590  0.50025578  0.69011573  1
  Ta  Ta100  1  0.79512003  0.00472737  0.60189542  1
  Ta  Ta101  1  0.30401595  0.70260337  0.50046007  1
  Ta  Ta102  1  0.20016753  0.39462276  0.00073413  1
  Ta  Ta103  1  0.49825766  0.69956410  0.50151558  1
  Ta  Ta104  1  0.10134421  0.90141844  0.49684505  1
  Ta  Ta105  1  0.19680757  0.40623315  0.40576266  1
  Ta  Ta106  1  0.90326363  0.30825486  0.29530278  1
  Ta  Ta107  1  -0.00593870  0.00255475  0.39240116  1
  Ta  Ta108  1  0.60615039  0.59883388  0.60111142  1
  Ta  Ta109  1  0.69694025  0.70675609  0.30422602  1
  Ta  Ta110  1  0.39845283  0.39701756  0.39858131  1
  Ta  Ta111  1  0.89843959  0.09309007  0.50202036  1
  Ta  Ta112  1  0.60146559  -0.00460602  0.39468292  1
  Ta  Ta113  1  0.09740694  0.69502802  0.30013372  1
  Ta  Ta114  1  0.89961501  0.09859628  0.69715441  1
  Ta  Ta115  1  0.50089849  0.50692765  0.10007137  1
  Ta  Ta116  1  0.20411052  0.20262467  -0.00307864  1
  Ta  Ta117  1  0.39708454  0.60093695  0.40558114  1
  Ta  Ta118  1  0.09419813  0.69384150  0.10683174  1
  Ta  Ta119  1  0.89591642  0.70377307  0.90117033  1
  Ta  Ta120  1  0.49680625  0.30593419  0.29873214  1
  Ta  Ta121  1  0.08898768  0.09324082  0.70161253  1
  Ta  Ta122  1  0.88991790  0.30299524  0.69383562  1
  Ta  Ta123  1  -0.00427478  -0.00279617  0.20274265  1
  Ta  Ta124  1  0.39779428  -0.00465902  0.20378972  1
  Ta  Ta125  1  0.20221831  0.59553996  0.39813751  1
  Ta  Ta126  1  0.60434903  0.40042925  0.80420096  1
  Ta  Ta127  1  0.41492087  0.61321083  0.00172806  1
  Ta  Ta128  1  0.19753232  -0.00243863  -0.00340810  1
  Ta  Ta129  1  0.19817662  0.20061065  0.19554640  1
  Ta  Ta130  1  0.70161090  0.30050413  0.70177761  1
  Ta  Ta131  1  0.30274491  0.70288238  0.09750187  1
  Ta  Ta132  1  0.01062843  0.40516254  0.40117537  1
  Ta  Ta133  1  -0.00463588  0.80575837  0.19941175  1
  Ta  Ta134  1  0.89206627  0.90318670  0.90292052  1
  Ta  Ta135  1  0.60254205  0.60373043  0.40857002  1
  Ta  Ta136  1  0.19843254  0.00033579  0.19337053  1
  Ta  Ta137  1  0.10111671  0.09374598  0.49138659  1
  Ta  Ta138  1  0.79243179  0.79635850  -0.00656697  1
  Ta  Ta139  1  0.09685499  0.29977020  0.69964061  1
  Ta  Ta140  1  0.20425938  0.40064032  0.79910151  1
  Ta  Ta141  1  0.79739898  0.19477062  0.60182495  1
  Ta  Ta142  1  0.00531098  0.39433144  0.59382357  1
  Ta  Ta143  1  0.49870917  0.90592781  0.70189806  1
  Ta  Ta144  1  0.40754412  0.59618020  0.60322503  1
  Ta  Ta145  1  0.40376283  0.18766123  0.59875947  1
  Ta  Ta146  1  0.51118996  0.09720457  0.51106534  1
  Ta  Ta147  1  0.40448244  0.79654892  0.60512963  1
  Ta  Ta148  1  0.79698131  0.39853017  -0.00421258  1
  Ta  Ta149  1  0.19538154  0.39832042  0.59551699  1
  Ti  Ti150  1  0.52080651  0.51481237  0.90529004  1
  Ti  Ti151  1  0.40334206  0.61321606  0.19860653  1
  Ti  Ti152  1  0.80273054  0.00148809  0.39378986  1
  Ti  Ti153  1  0.79979304  0.80086716  0.19448278  1
  Ti  Ti154  1  -0.00039015  0.80328658  0.39686014  1
  Ti  Ti155  1  0.91101043  0.69533165  0.49554084  1
  Ti  Ti156  1  0.60100806  0.20306818  0.19145204  1
  Ti  Ti157  1  0.79308632  0.79668869  0.79954150  1
  Ti  Ti158  1  0.29974606  0.69913579  0.30775436  1
  Ti  Ti159  1  0.59744580  -0.00670322  0.79831389  1
  Ti  Ti160  1  0.29508186  0.09564270  0.49633703  1
  Ti  Ti161  1  0.40461083  0.00238082  0.60412342  1
  Ti  Ti162  1  0.39769769  0.20295594  0.20353164  1
  Ti  Ti163  1  0.30539265  0.08996301  0.70085121  1
  Ti  Ti164  1  0.49070412  0.29341592  0.09621014  1
  Ti  Ti165  1  0.60144289  -0.00284626  0.60144165  1
  Ti  Ti166  1  0.09699523  0.90448510  0.69400242  1
  Ti  Ti167  1  0.90132481  0.10617812  0.29399337  1
  Ti  Ti168  1  0.09414945  0.50939927  0.29943812  1
  Ti  Ti169  1  0.69652250  0.89913483  0.70551974  1
  Ti  Ti170  1  0.69740924  0.70305530  0.49503716  1
  Ti  Ti171  1  0.09384150  0.90825501  0.10195504  1
  Ti  Ti172  1  0.70261941  0.89342106  0.30628601  1
  Ti  Ti173  1  0.50314790  0.29956392  0.50164811  1
  Ti  Ti174  1  0.51551172  0.90080721  0.90256729  1
  Ti  Ti175  1  0.60823118  0.39927958  -0.00440390  1
  Ti  Ti176  1  0.90346382  0.70109106  0.09683558  1
  Ti  Ti177  1  0.69834909  0.09586319  0.50240488  1
  Ti  Ti178  1  0.30258174  0.90005087  0.09500253  1
  Ti  Ti179  1  0.90067778  0.09882869  0.09719150  1
  Ti  Ti180  1  0.10322497  0.09774396  0.29930350  1
  Ti  Ti181  1  -0.00021272  0.00249270  0.59544092  1
  Ti  Ti182  1  0.71433320  0.29633662  0.10261603  1
  Ti  Ti183  1  0.30609203  0.90055644  0.69913362  1
  Ti  Ti184  1  0.89666877  0.89919809  0.09641255  1
  Ti  Ti185  1  0.20244536  0.59987125  0.00908791  1
  Ti  Ti186  1  0.59743097  0.62009227  0.18718523  1
  Ti  Ti187  1  0.80424611  0.79861665  0.39676673  1
  Ti  Ti188  1  0.59781993  0.40402507  0.60268208  1
  Ti  Ti189  1  0.91695955  0.50350433  0.29792228  1
  Ti  Ti190  1  -0.00103459  0.37612837  0.02531580  1
  Ti  Ti191  1  0.20190745  0.60677197  0.20392940  1
  Ti  Ti192  1  0.30464071  0.49744913  0.49572207  1
  Ti  Ti193  1  0.90398877  0.50135357  0.91653867  1
  Ti  Ti194  1  0.79977868  0.39982256  0.81042423  1
  Ti  Ti195  1  0.90135162  0.30359426  0.90973604  1
  Ti  Ti196  1  0.70655852  0.09662649  0.10053203  1
  Ti  Ti197  1  0.30024642  0.30073899  0.30142478  1
  Ti  Ti198  1  0.19884928  0.79173421  0.40444877  1
  Ti  Ti199  1  -0.00928383  -0.00074416  -0.00253318  1
  Mo  Mo200  1  0.59108171  0.00016653  0.00134470  1
  Mo  Mo201  1  0.89868812  0.89709544  0.29931466  1
  Mo  Mo202  1  0.00128278  0.60845120  0.20190488  1
  Mo  Mo203  1  0.80215139  0.39855907  0.59967491  1
  Mo  Mo204  1  0.50004762  0.69877765  0.90157506  1
  Mo  Mo205  1  0.90294895  0.09182118  0.90182403  1
  Mo  Mo206  1  0.39741044  0.79944298  -0.00167053  1
  Mo  Mo207  1  -0.00151578  -0.00084237  0.79900728  1
  Mo  Mo208  1  0.09085685  0.91029034  0.90842915  1
  Mo  Mo209  1  0.89573259  0.47902895  0.69062512  1
  Mo  Mo210  1  0.29317877  0.10076289  0.89974029  1
  Mo  Mo211  1  0.89721147  0.71441658  0.71219281  1
  Mo  Mo212  1  0.10393221  0.30152607  0.50089009  1
  Mo  Mo213  1  0.49404600  0.70116904  0.10594436  1
  Mo  Mo214  1  0.30195164  0.49215934  0.69523510  1
  Mo  Mo215  1  0.00929193  0.59729952  0.39732667  1
  Mo  Mo216  1  0.50874124  0.49562746  0.69424011  1
  Mo  Mo217  1  0.69883023  0.89167412  0.89691240  1
  Mo  Mo218  1  -0.00350316  0.20035674  -0.00058356  1
  Mo  Mo219  1  -0.00862800  0.61043047  0.00165686  1
  Mo  Mo220  1  0.70337440  0.30929894  0.89655654  1
  Mo  Mo221  1  0.28975225  0.89838392  0.90057928  1
  Mo  Mo222  1  0.59973784  0.57728404  0.79103475  1
  Mo  Mo223  1  0.70056317  0.69678857  0.70078867  1
  Mo  Mo224  1  0.89208201  0.30315483  0.10260754  1
  Mo  Mo225  1  0.39926754  -0.00368646  0.79141848  1
  Mo  Mo226  1  0.40535269  0.39129854  0.20216112  1
  Mo  Mo227  1  0.20237255  0.80751230  0.59826544  1
  Mo  Mo228  1  0.80661204  0.19984822  0.19426225  1
  Mo  Mo229  1  0.60158275  0.19889415  0.59777089  1
  Mo  Mo230  1  0.10272991  0.49900514  0.49438657  1
  Mo  Mo231  1  0.50343736  0.90190911  0.30158169  1
  Mo  Mo232  1  0.59619229  0.60238043  0.00515562  1
  Mo  Mo233  1  -0.00318312  0.60084058  0.59852301  1
  Mo  Mo234  1  0.60735867  0.20499278  0.80109250  1
  Mo  Mo235  1  0.81400001  -0.00488168  0.00424227  1
  Mo  Mo236  1  0.69578478  0.49546821  0.90067899  1
  Mo  Mo237  1  0.29996895  0.30184374  0.90272944  1
  Mo  Mo238  1  -0.00059497  0.40463093  0.20852253  1
  Mo  Mo239  1  0.38932205  0.20214831  -0.01171236  1
  Mo  Mo240  1  0.59449290  0.40179929  0.39969710  1
  Mo  Mo241  1  0.60238320  0.81931070  0.80218415  1
  Mo  Mo242  1  0.39816168  0.78990619  0.40722444  1
  Mo  Mo243  1  0.60629558  0.79792996  0.39901716  1
  Mo  Mo244  1  0.70693908  0.70748782  0.10918261  1
  Mo  Mo245  1  0.10903736  0.29832458  0.09860706  1
  Mo  Mo246  1  0.49840730  0.08980739  0.69483194  1
  Mo  Mo247  1  0.19973959  0.19788144  0.39913991  1
  Mo  Mo248  1  0.69458023  0.50302026  0.50325010  1
  Mo  Mo249  1  0.19005682  0.00265747  0.40310087  1
