# generated using pymatgen
data_HfZrTaTiMo
_symmetry_space_group_name_H-M   'P 1'
_cell_length_a   16.87603857
_cell_length_b   16.88472023
_cell_length_c   16.89032412
_cell_angle_alpha   89.96026207
_cell_angle_beta   89.99170209
_cell_angle_gamma   89.96652403
_symmetry_Int_Tables_number   1
_chemical_formula_structural   HfZrTaTiMo
_chemical_formula_sum   'Hf50 Zr50 Ta50 Ti50 Mo50'
_cell_volume   4812.84836669
_cell_formula_units_Z   50
loop_
 _symmetry_equiv_pos_site_id
 _symmetry_equiv_pos_as_xyz
  1  'x, y, z'
loop_
 _atom_site_type_symbol
 _atom_site_label
 _atom_site_symmetry_multiplicity
 _atom_site_fract_x
 _atom_site_fract_y
 _atom_site_fract_z
 _atom_site_occupancy
  Hf  Hf0  1  0.40139146  0.39430177  0.40051647  1
  Hf  Hf1  1  0.18641345  0.18822947  0.59756867  1
  Hf  Hf2  1  0.90260938  0.29961946  0.89113953  1
  Hf  Hf3  1  -0.00270937  0.19684287  0.40315157  1
  Hf  Hf4  1  0.30232118  0.49124705  0.09895757  1
  Hf  Hf5  1  0.09593626  0.89857818  0.50472816  1
  Hf  Hf6  1  0.39612121  0.80782379  0.00211077  1
  Hf  Hf7  1  0.89385481  0.70167238  0.90786188  1
  Hf  Hf8  1  0.00026478  0.01399488  0.60253832  1
  Hf  Hf9  1  0.90414555  0.89545491  0.49970419  1
  Hf  Hf10  1  0.19337216  0.19511107  0.39168775  1
  Hf  Hf11  1  0.30163588  0.90241490  0.69790489  1
  Hf  Hf12  1  0.80898197  0.00643083  0.60527664  1
  Hf  Hf13  1  0.79378911  0.59492114  0.61072581  1
  Hf  Hf14  1  0.40482140  0.18933757  0.79494703  1
  Hf  Hf15  1  0.09914957  0.69114399  0.50963914  1
  Hf  Hf16  1  0.50438075  0.90895276  0.11276256  1
  Hf  Hf17  1  -0.00378721  0.59649023  0.80106037  1
  Hf  Hf18  1  -0.00315383  0.19588174  0.59771781  1
  Hf  Hf19  1  0.39592378  0.19836893  -0.00462074  1
  Hf  Hf20  1  0.09103856  0.91078711  0.09971429  1
  Hf  Hf21  1  0.69936686  0.68945468  0.10182380  1
  Hf  Hf22  1  0.51012366  0.90162484  0.49139101  1
  Hf  Hf23  1  0.19709801  0.39755632  0.19980058  1
  Hf  Hf24  1  0.90285868  0.29595673  0.10241829  1
  Hf  Hf25  1  0.20423594  0.80862185  -0.00455761  1
  Hf  Hf26  1  0.70143283  0.29530863  0.50359292  1
  Hf  Hf27  1  0.19581714  0.39375573  0.60026730  1
  Hf  Hf28  1  0.41116975  0.20148610  0.59823790  1
  Hf  Hf29  1  0.10634526  0.48988419  0.32372977  1
  Hf  Hf30  1  0.60192910  0.79329242  0.80243586  1
  Hf  Hf31  1  0.89085058  0.69171765  0.09653407  1
  Hf  Hf32  1  0.90193727  0.49809143  0.50054047  1
  Hf  Hf33  1  0.60123387  0.40410706  0.60863529  1
  Hf  Hf34  1  0.30571727  0.69447684  0.09726808  1
  Hf  Hf35  1  0.79799999  0.00196961  0.20250716  1
  Hf  Hf36  1  0.09562954  0.89835284  0.69668164  1
  Hf  Hf37  1  0.09612790  0.50205461  0.50495936  1
  Hf  Hf38  1  0.39030840  0.00226256  0.00318321  1
  Hf  Hf39  1  -0.00236117  0.40716715  0.20002036  1
  Hf  Hf40  1  0.50259236  0.50359396  0.09296286  1
  Hf  Hf41  1  0.29851501  0.29831392  0.49932176  1
  Hf  Hf42  1  0.40033760  0.20147357  0.20584235  1
  Hf  Hf43  1  0.20538717  0.79295696  0.40252182  1
  Hf  Hf44  1  0.10264781  0.29133779  0.10237326  1
  Hf  Hf45  1  0.79928425  0.40182153  -0.00144884  1
  Hf  Hf46  1  0.40678003  0.79824754  0.59893392  1
  Hf  Hf47  1  0.51265508  0.69443489  0.29874916  1
  Hf  Hf48  1  0.29769954  0.69112661  0.30275100  1
  Hf  Hf49  1  0.70707385  0.90019297  0.70808823  1
  Zr  Zr50  1  -0.00351260  0.60871252  0.38771082  1
  Zr  Zr51  1  0.60369964  0.80423974  0.00539052  1
  Zr  Zr52  1  0.50081487  0.90717472  0.89424543  1
  Zr  Zr53  1  0.00031377  0.59609036  0.19833318  1
  Zr  Zr54  1  0.50800743  0.09890754  0.49317171  1
  Zr  Zr55  1  0.70343322  0.50523259  0.09667612  1
  Zr  Zr56  1  0.69699127  0.90423406  0.30630163  1
  Zr  Zr57  1  -0.00747955  0.00496705  0.21895517  1
  Zr  Zr58  1  0.20845001  0.79433045  0.59854779  1
  Zr  Zr59  1  0.69423694  0.91703920  0.89859143  1
  Zr  Zr60  1  0.19584523  0.80482283  0.20450826  1
  Zr  Zr61  1  0.90415784  0.70614679  0.51205141  1
  Zr  Zr62  1  0.49862098  0.30294319  0.09521233  1
  Zr  Zr63  1  0.78787439  0.40885581  0.79664948  1
  Zr  Zr64  1  0.30006576  0.29898216  0.88544770  1
  Zr  Zr65  1  0.39797312  0.59809118  0.60263537  1
  Zr  Zr66  1  0.29764517  0.48761973  0.69843496  1
  Zr  Zr67  1  0.40372887  0.58859839  0.80416333  1
  Zr  Zr68  1  0.19751712  0.00948280  0.79090047  1
  Zr  Zr69  1  0.08980411  0.90659966  0.89771970  1
  Zr  Zr70  1  0.89123447  0.29964665  0.69714942  1
  Zr  Zr71  1  0.20678052  0.00456024  -0.00053682  1
  Zr  Zr72  1  0.49706575  0.69516332  0.90412107  1
  Zr  Zr73  1  0.09944095  0.10368359  0.10172067  1
  Zr  Zr74  1  0.20050301  0.59095546  -0.00546793  1
  Zr  Zr75  1  0.89004845  0.90008297  0.88906586  1
  Zr  Zr76  1  0.78680349  0.59959292  0.80769250  1
  Zr  Zr77  1  0.79695821  0.19888601  -0.01046951  1
  Zr  Zr78  1  0.69901527  0.10456105  0.49617042  1
  Zr  Zr79  1  0.19558450  0.00526852  0.40084171  1
  Zr  Zr80  1  0.62523349  0.78380461  0.40559139  1
  Zr  Zr81  1  0.59956911  0.39735003  0.20057064  1
  Zr  Zr82  1  0.50447410  0.50057047  0.49649094  1
  Zr  Zr83  1  0.68906533  0.51764485  0.29449964  1
  Zr  Zr84  1  0.18948261  0.59550394  0.20197497  1
  Zr  Zr85  1  0.78938032  0.63144888  0.39571018  1
  Zr  Zr86  1  0.09474571  0.70396958  0.09034141  1
  Zr  Zr87  1  0.69845456  0.50465808  0.49636594  1
  Zr  Zr88  1  0.40077219  0.80051718  0.20557181  1
  Zr  Zr89  1  0.89906460  0.71205482  0.70315824  1
  Zr  Zr90  1  0.09189529  0.90052442  0.30781619  1
  Zr  Zr91  1  0.89923601  0.89909554  0.09268368  1
  Zr  Zr92  1  0.39858797  0.60500824  0.40586807  1
  Zr  Zr93  1  0.30767598  0.09374939  0.49944420  1
  Zr  Zr94  1  0.90737402  0.10225666  0.09519703  1
  Zr  Zr95  1  0.20112742  0.59570697  0.80211367  1
  Zr  Zr96  1  0.50137867  0.09718565  0.10503657  1
  Zr  Zr97  1  0.79760421  0.40150852  0.39155777  1
  Zr  Zr98  1  0.51667261  0.08832617  0.90046778  1
  Zr  Zr99  1  0.50247311  0.30141617  0.70444135  1
  Ta  Ta100  1  0.39722609  0.40170994  -0.01307913  1
  Ta  Ta101  1  0.90053656  0.50042853  0.90597395  1
  Ta  Ta102  1  0.29841440  0.69841121  0.70251562  1
  Ta  Ta103  1  0.69964822  0.29715108  0.10113111  1
  Ta  Ta104  1  0.61133419  0.19340574  0.79927579  1
  Ta  Ta105  1  0.29862660  0.49605465  0.30669179  1
  Ta  Ta106  1  0.19639151  0.39408806  -0.00720496  1
  Ta  Ta107  1  0.00680581  0.20520406  -0.01400699  1
  Ta  Ta108  1  0.20117862  0.01128853  0.21158292  1
  Ta  Ta109  1  0.09529258  0.70120015  0.89646525  1
  Ta  Ta110  1  0.60286402  0.60219486  0.61019708  1
  Ta  Ta111  1  0.79603148  0.20139884  0.20432289  1
  Ta  Ta112  1  0.09564446  0.50063000  0.69586102  1
  Ta  Ta113  1  0.19955075  0.20176242  -0.00979574  1
  Ta  Ta114  1  0.70099688  0.29573435  0.30004629  1
  Ta  Ta115  1  0.09662138  0.49501098  0.89779446  1
  Ta  Ta116  1  0.09223229  0.31078906  0.49075024  1
  Ta  Ta117  1  0.80277238  0.40106311  0.19819158  1
  Ta  Ta118  1  0.51148151  0.69874186  0.50405033  1
  Ta  Ta119  1  0.50335094  0.09062816  0.30449847  1
  Ta  Ta120  1  0.60612588  -0.00346719  0.60493641  1
  Ta  Ta121  1  -0.00687721  0.79352361  0.20725525  1
  Ta  Ta122  1  0.60095101  0.58368976  0.79685500  1
  Ta  Ta123  1  0.50307525  0.90732584  0.30559182  1
  Ta  Ta124  1  0.60455063  0.19703069  0.20422236  1
  Ta  Ta125  1  -0.00344920  0.39624005  0.60230923  1
  Ta  Ta126  1  0.50084568  0.50138438  0.30087889  1
  Ta  Ta127  1  0.89276621  0.30202066  0.49905560  1
  Ta  Ta128  1  0.50713968  0.29931391  0.89599640  1
  Ta  Ta129  1  0.40152877  0.59169888  0.20134397  1
  Ta  Ta130  1  0.50369146  0.29653885  0.30191038  1
  Ta  Ta131  1  0.50171888  0.69043636  0.09985539  1
  Ta  Ta132  1  0.09350710  0.10160693  0.89664581  1
  Ta  Ta133  1  0.60665272  0.20056499  -0.00386096  1
  Ta  Ta134  1  0.00451766  0.39850993  -0.00211024  1
  Ta  Ta135  1  0.30899008  0.90576806  0.49919796  1
  Ta  Ta136  1  0.09855546  0.30035972  0.70268515  1
  Ta  Ta137  1  0.30003028  0.70547945  0.89415281  1
  Ta  Ta138  1  0.28453089  0.50361630  0.49452410  1
  Ta  Ta139  1  0.79761211  0.79828568  0.20540174  1
  Ta  Ta140  1  0.50286003  0.69841895  0.70097623  1
  Ta  Ta141  1  0.69971860  0.29393224  0.69546180  1
  Ta  Ta142  1  0.09659705  0.69611055  0.69630478  1
  Ta  Ta143  1  0.29832355  0.29577796  0.69855946  1
  Ta  Ta144  1  0.79437583  0.00574302  -0.00060019  1
  Ta  Ta145  1  0.29685270  0.29713772  0.09929618  1
  Ta  Ta146  1  0.00262160  0.40087596  0.79873647  1
  Ta  Ta147  1  0.80312960  0.00795102  0.40146398  1
  Ta  Ta148  1  0.41196188  -0.00375165  0.60523827  1
  Ta  Ta149  1  0.69918355  0.10260125  0.10050572  1
  Ti  Ti150  1  0.79923638  0.01721944  0.79422220  1
  Ti  Ti151  1  0.19288820  0.19828914  0.79462017  1
  Ti  Ti152  1  0.51642834  0.09872162  0.69568530  1
  Ti  Ti153  1  0.29780773  0.09895350  0.89006246  1
  Ti  Ti154  1  0.90381912  0.09915760  0.89698906  1
  Ti  Ti155  1  -0.00984763  0.00851887  0.78839917  1
  Ti  Ti156  1  0.19730127  0.79634672  0.80107240  1
  Ti  Ti157  1  0.00436790  0.19655423  0.79395419  1
  Ti  Ti158  1  0.78583655  0.80399410  0.00066816  1
  Ti  Ti159  1  -0.00277657  0.80232508  0.79801225  1
  Ti  Ti160  1  0.88820033  0.11099769  0.30792748  1
  Ti  Ti161  1  0.79419146  0.19051069  0.79803412  1
  Ti  Ti162  1  0.19182593  0.39650749  0.80224375  1
  Ti  Ti163  1  0.29652463  0.29984195  0.29789482  1
  Ti  Ti164  1  0.30052779  0.91222243  0.11833946  1
  Ti  Ti165  1  0.80348676  0.18972283  0.60240874  1
  Ti  Ti166  1  -0.00465046  0.01573254  0.40608005  1
  Ti  Ti167  1  0.60416011  0.80147031  0.60452641  1
  Ti  Ti168  1  -0.00129236  0.80317571  -0.00323141  1
  Ti  Ti169  1  0.41046652  0.40631977  0.80314661  1
  Ti  Ti170  1  0.60860989  0.59663162  -0.01747093  1
  Ti  Ti171  1  0.90061593  0.49553976  0.69647320  1
  Ti  Ti172  1  0.40401245  0.79986354  0.79324841  1
  Ti  Ti173  1  0.89374737  0.89340061  0.31179905  1
  Ti  Ti174  1  0.00217490  0.19805492  0.21416956  1
  Ti  Ti175  1  0.09753561  0.30319064  0.30457343  1
  Ti  Ti176  1  0.60126696  0.40149705  -0.01360742  1
  Ti  Ti177  1  0.40500577  0.39760752  0.59573490  1
  Ti  Ti178  1  0.89057922  0.50680800  0.29626710  1
  Ti  Ti179  1  0.31072977  0.09587566  0.30150461  1
  Ti  Ti180  1  0.60168121  0.20126206  0.39297306  1
  Ti  Ti181  1  0.60942700  0.00737999  0.20623042  1
  Ti  Ti182  1  0.30376329  0.90107036  0.88506404  1
  Ti  Ti183  1  0.79750400  0.80479285  0.60308848  1
  Ti  Ti184  1  0.60734680  0.79997274  0.19841789  1
  Ti  Ti185  1  0.70691618  0.90192712  0.49987530  1
  Ti  Ti186  1  0.29937718  0.09775185  0.69118935  1
  Ti  Ti187  1  0.89768746  0.30137986  0.30366646  1
  Ti  Ti188  1  0.40944664  0.00147428  0.78678500  1
  Ti  Ti189  1  0.29254171  0.10905040  0.11209260  1
  Ti  Ti190  1  0.39546835  0.58919704  -0.01057012  1
  Ti  Ti191  1  0.59610554  0.39241361  0.40043192  1
  Ti  Ti192  1  0.40047442  0.79706061  0.40521507  1
  Ti  Ti193  1  -0.00284016  0.78908139  0.39093165  1
  Ti  Ti194  1  0.00110960  0.58641973  0.00379680  1
  Ti  Ti195  1  0.69392627  0.30057433  0.89294945  1
  Ti  Ti196  1  0.31233472  0.90982642  0.30650560  1
  Ti  Ti197  1  0.40675019  0.20416878  0.39796780  1
  Ti  Ti198  1  0.69976213  0.70400632  0.70496864  1
  Ti  Ti199  1  0.40016129  0.39874624  0.20411091  1
  Mo  Mo200  1  0.89791278  0.10591898  0.71029184  1
  Mo  Mo201  1  0.50365374  0.49107355  0.90128615  1
  Mo  Mo202  1  0.58973605  0.60021301  0.19560702  1
  Mo  Mo203  1  0.80734065  0.59917191  0.19998310  1
  Mo  Mo204  1  0.09619287  0.10430479  0.70592426  1
  Mo  Mo205  1  -0.01140358  0.39422156  0.39944220  1
  Mo  Mo206  1  0.30498957  0.69966375  0.50313478  1
  Mo  Mo207  1  0.69513313  0.49691209  0.90151462  1
  Mo  Mo208  1  0.09975737  0.29841005  0.89125475  1
  Mo  Mo209  1  0.60621522  0.00017983  0.40106370  1
  Mo  Mo210  1  0.60263695  0.00430635  0.78025100  1
  Mo  Mo211  1  0.90138041  0.49650542  0.09597914  1
  Mo  Mo212  1  0.20675912  -0.00040749  0.59746613  1
  Mo  Mo213  1  0.70235978  0.10134396  0.89865806  1
  Mo  Mo214  1  0.59986967  0.39545440  0.80337878  1
  Mo  Mo215  1  0.20516599  0.39196752  0.40015982  1
  Mo  Mo216  1  0.09571278  0.10571042  0.29923201  1
  Mo  Mo217  1  0.79360805  0.79671190  0.80669577  1
  Mo  Mo218  1  0.50132786  0.49930814  0.70230595  1
  Mo  Mo219  1  0.60405253  0.19935386  0.60564631  1
  Mo  Mo220  1  0.80077964  0.20334907  0.39432002  1
  Mo  Mo221  1  0.70158226  0.90644259  0.10520057  1
  Mo  Mo222  1  -0.00907052  0.00977816  -0.01406402  1
  Mo  Mo223  1  0.80168162  0.59356604  -0.00128284  1
  Mo  Mo224  1  0.00053862  0.80501103  0.61138944  1
  Mo  Mo225  1  0.80095790  0.39764016  0.60137800  1
  Mo  Mo226  1  0.80441358  0.80869797  0.40258991  1
  Mo  Mo227  1  0.29655811  0.48844420  0.89906978  1
  Mo  Mo228  1  0.61072030  0.00428862  0.01949562  1
  Mo  Mo229  1  0.20204014  0.60127965  0.40590843  1
  Mo  Mo230  1  0.70099781  0.70691304  0.52806738  1
  Mo  Mo231  1  0.09730944  0.09807272  0.49809395  1
  Mo  Mo232  1  0.09840548  0.70132064  0.30392709  1
  Mo  Mo233  1  0.89534411  0.70742910  0.29178147  1
  Mo  Mo234  1  0.70062993  0.69602149  0.90386529  1
  Mo  Mo235  1  0.70091761  0.70410447  0.28070096  1
  Mo  Mo236  1  0.70101863  0.10249271  0.69844885  1
  Mo  Mo237  1  0.39276610  0.00322604  0.20785570  1
  Mo  Mo238  1  0.89552957  0.10277208  0.49343074  1
  Mo  Mo239  1  0.50553170  0.29816466  0.49287844  1
  Mo  Mo240  1  0.09909947  0.48775205  0.08689987  1
  Mo  Mo241  1  0.89815476  0.90217164  0.70360965  1
  Mo  Mo242  1  0.40510096  -0.00536830  0.39832947  1
  Mo  Mo243  1  0.69520470  0.49475623  0.70004027  1
  Mo  Mo244  1  0.20687370  0.20152258  0.20670816  1
  Mo  Mo245  1  0.19909029  0.59871941  0.60442962  1
  Mo  Mo246  1  0.50547899  0.89818381  0.69635852  1
  Mo  Mo247  1  -0.00245662  0.59304430  0.61152122  1
  Mo  Mo248  1  0.59980503  0.60530515  0.40720887  1
  Mo  Mo249  1  0.69859963  0.10433055  0.29958154  1
