# generated using pymatgen
data_HfZrTaTiMo
_symmetry_space_group_name_H-M   'P 1'
_cell_length_a   16.88779423
_cell_length_b   16.88531148
_cell_length_c   16.88594229
_cell_angle_alpha   89.99743504
_cell_angle_beta   90.00859054
_cell_angle_gamma   90.01389469
_symmetry_Int_Tables_number   1
_chemical_formula_structural   HfZrTaTiMo
_chemical_formula_sum   'Hf50 Zr50 Ta50 Ti50 Mo50'
_cell_volume   4815.12191630
_cell_formula_units_Z   50
loop_
 _symmetry_equiv_pos_site_id
 _symmetry_equiv_pos_as_xyz
  1  'x, y, z'
loop_
 _atom_site_type_symbol
 _atom_site_label
 _atom_site_symmetry_multiplicity
 _atom_site_fract_x
 _atom_site_fract_y
 _atom_site_fract_z
 _atom_site_occupancy
  Hf  Hf0  1  0.90467150  0.49556249  0.49686926  1
  Hf  Hf1  1  0.49732252  0.29324864  0.30004501  1
  Hf  Hf2  1  0.60011057  0.19847257  0.59653360  1
  Hf  Hf3  1  0.59762813  0.80251262  0.79961023  1
  Hf  Hf4  1  0.69810168  0.50521227  0.50585674  1
  Hf  Hf5  1  0.70530036  0.89857207  0.09978525  1
  Hf  Hf6  1  0.89579475  0.30402957  0.70809898  1
  Hf  Hf7  1  0.59389624  -0.01007615  0.00233522  1
  Hf  Hf8  1  0.19214224  0.20351725  0.20085032  1
  Hf  Hf9  1  0.10230403  0.10438521  0.90473996  1
  Hf  Hf10  1  0.09660107  0.69977110  0.90313079  1
  Hf  Hf11  1  0.89501505  0.49534736  0.29597949  1
  Hf  Hf12  1  0.10403792  0.09651296  0.50917963  1
  Hf  Hf13  1  0.19793051  0.59491289  0.41202067  1
  Hf  Hf14  1  0.30273690  0.09306495  0.29511362  1
  Hf  Hf15  1  0.00074894  0.00444334  0.80245632  1
  Hf  Hf16  1  0.20452688  0.20040919  0.40392137  1
  Hf  Hf17  1  0.59427368  0.59633328  0.39762447  1
  Hf  Hf18  1  0.40874241  0.81302983  0.00142364  1
  Hf  Hf19  1  0.40091302  0.01039953  0.59721937  1
  Hf  Hf20  1  0.70011603  0.69902665  0.28774268  1
  Hf  Hf21  1  0.09198743  0.70287493  0.09677732  1
  Hf  Hf22  1  0.00017511  0.59951258  0.79447426  1
  Hf  Hf23  1  0.89121880  0.69752442  0.89748283  1
  Hf  Hf24  1  0.79378879  0.20301947  0.59610517  1
  Hf  Hf25  1  0.59820453  0.38889470  0.19362156  1
  Hf  Hf26  1  0.40700860  0.59678282  0.80547019  1
  Hf  Hf27  1  0.70610770  0.10114757  0.91607398  1
  Hf  Hf28  1  0.80735749  0.00598607  0.60071688  1
  Hf  Hf29  1  0.10058231  0.29299587  0.50856077  1
  Hf  Hf30  1  0.50982408  0.69916963  0.09936917  1
  Hf  Hf31  1  0.40654139  0.00338706  -0.00151327  1
  Hf  Hf32  1  0.69712635  0.70743204  0.50017233  1
  Hf  Hf33  1  0.49663934  0.69348331  0.29432496  1
  Hf  Hf34  1  0.59371667  -0.00637025  0.80084760  1
  Hf  Hf35  1  0.90127719  0.29448113  0.09412448  1
  Hf  Hf36  1  0.09271007  0.29748487  0.90465144  1
  Hf  Hf37  1  0.20973614  0.59784027  0.00500739  1
  Hf  Hf38  1  0.30569877  0.30264977  0.29603048  1
  Hf  Hf39  1  0.30105710  0.70077804  0.30249168  1
  Hf  Hf40  1  -0.00159040  0.80518052  0.20781123  1
  Hf  Hf41  1  0.79559566  0.38902901  0.19845998  1
  Hf  Hf42  1  0.39965584  0.40035705  0.41017982  1
  Hf  Hf43  1  0.60261410  0.39504871  0.39953631  1
  Hf  Hf44  1  0.70070706  0.09709646  0.70238213  1
  Hf  Hf45  1  0.89849027  0.89727503  0.49617795  1
  Hf  Hf46  1  0.10800198  0.90820910  0.69573386  1
  Hf  Hf47  1  0.40672976  0.40125250  0.00125446  1
  Hf  Hf48  1  0.30679532  0.49730080  0.29603660  1
  Hf  Hf49  1  0.69648719  0.69577815  0.10064500  1
  Zr  Zr50  1  0.08638351  0.49034366  0.09595762  1
  Zr  Zr51  1  0.39628652  0.80471669  0.19389278  1
  Zr  Zr52  1  0.90199468  0.09704210  0.48578206  1
  Zr  Zr53  1  0.60487751  0.38874476  0.60279207  1
  Zr  Zr54  1  0.40037200  0.19962815  -0.00399905  1
  Zr  Zr55  1  0.09780603  0.90911155  0.09983567  1
  Zr  Zr56  1  -0.00401308  0.40334813  0.80363012  1
  Zr  Zr57  1  0.79252702  0.38925685  0.59699525  1
  Zr  Zr58  1  0.00495814  0.61054017  0.40431450  1
  Zr  Zr59  1  0.49521902  0.70513746  0.50383480  1
  Zr  Zr60  1  0.60758583  0.00207293  0.20660847  1
  Zr  Zr61  1  0.30447255  0.70692362  0.89638377  1
  Zr  Zr62  1  0.89009295  0.10237493  0.09078473  1
  Zr  Zr63  1  0.88154305  0.90190093  0.30597824  1
  Zr  Zr64  1  0.50016063  0.10109648  0.31181947  1
  Zr  Zr65  1  0.00473746  0.60283953  0.59582346  1
  Zr  Zr66  1  0.00311343  0.80446006  0.80520648  1
  Zr  Zr67  1  0.79480999  0.38568757  0.39846162  1
  Zr  Zr68  1  0.40563879  0.20108457  0.18530066  1
  Zr  Zr69  1  0.30674881  0.70670874  0.50394967  1
  Zr  Zr70  1  0.30290589  0.48847227  0.10848545  1
  Zr  Zr71  1  0.50796797  0.49649700  0.70643986  1
  Zr  Zr72  1  0.19971502  0.60706307  0.19729203  1
  Zr  Zr73  1  -0.00558576  0.60412134  0.20707501  1
  Zr  Zr74  1  0.80741944  0.00514528  0.80600362  1
  Zr  Zr75  1  0.69656432  0.27580321  0.09122175  1
  Zr  Zr76  1  0.09604288  0.49243773  0.30429368  1
  Zr  Zr77  1  0.49794066  0.90737318  0.49881817  1
  Zr  Zr78  1  -0.00067031  0.79189131  0.60039288  1
  Zr  Zr79  1  0.10594733  0.29890150  0.69856325  1
  Zr  Zr80  1  0.59938831  0.81061963  0.38917135  1
  Zr  Zr81  1  0.20398084  0.40107588  0.41774586  1
  Zr  Zr82  1  0.39791665  0.00843823  0.79772522  1
  Zr  Zr83  1  0.20295192  0.80316606  0.00221791  1
  Zr  Zr84  1  0.20376385  0.59691958  0.80146989  1
  Zr  Zr85  1  0.40984555  0.81525598  0.80004994  1
  Zr  Zr86  1  -0.01307818  0.19043609  0.61032330  1
  Zr  Zr87  1  0.50999210  0.30217525  0.89833614  1
  Zr  Zr88  1  0.80021707  0.60229451  0.39822231  1
  Zr  Zr89  1  0.41593444  0.00373525  0.17914146  1
  Zr  Zr90  1  0.00585586  -0.00221720  0.39262307  1
  Zr  Zr91  1  0.21367810  0.19878393  0.79567705  1
  Zr  Zr92  1  0.39419190  0.39353818  0.80108748  1
  Zr  Zr93  1  0.90011252  0.89783690  0.69866474  1
  Zr  Zr94  1  0.69987361  0.49922250  0.89029952  1
  Zr  Zr95  1  0.89457540  0.69759754  0.10162639  1
  Zr  Zr96  1  -0.00605031  0.00353298  0.20054595  1
  Zr  Zr97  1  0.88767694  0.50364078  0.70064054  1
  Zr  Zr98  1  0.39186249  0.39186739  0.59979666  1
  Zr  Zr99  1  0.09201142  0.29765945  0.09155194  1
  Ta  Ta100  1  0.70114141  0.69948912  0.89956937  1
  Ta  Ta101  1  0.60820606  0.20193698  0.79779508  1
  Ta  Ta102  1  0.09891175  0.49539953  0.90260000  1
  Ta  Ta103  1  0.30380726  0.70587787  0.69668014  1
  Ta  Ta104  1  0.29724942  0.90528899  0.69583183  1
  Ta  Ta105  1  0.49507007  0.70481798  0.69610748  1
  Ta  Ta106  1  0.10414547  0.90548922  0.50587070  1
  Ta  Ta107  1  0.39874206  0.59600658  0.60520647  1
  Ta  Ta108  1  0.59742955  0.59291024  -0.00494255  1
  Ta  Ta109  1  0.20015154  0.81025453  0.40073184  1
  Ta  Ta110  1  0.40558106  0.59810112  -0.00084284  1
  Ta  Ta111  1  0.70416265  0.90333394  0.49885432  1
  Ta  Ta112  1  0.50113618  0.50131122  0.50652199  1
  Ta  Ta113  1  0.39447331  0.19741673  0.60174842  1
  Ta  Ta114  1  0.49563952  0.49874044  0.28990483  1
  Ta  Ta115  1  0.70382070  0.89200565  0.90179917  1
  Ta  Ta116  1  0.10801179  0.49546337  0.69575190  1
  Ta  Ta117  1  0.27911242  0.09995482  0.09237827  1
  Ta  Ta118  1  0.20199349  0.59547450  0.59601427  1
  Ta  Ta119  1  -0.00531252  0.20065877  0.21153265  1
  Ta  Ta120  1  0.10182683  0.10106202  0.29986322  1
  Ta  Ta121  1  0.39451274  0.81148163  0.39607477  1
  Ta  Ta122  1  0.69827534  0.09334495  0.49267677  1
  Ta  Ta123  1  0.79346364  0.79855678  0.60265175  1
  Ta  Ta124  1  0.80045488  0.20314793  0.80577094  1
  Ta  Ta125  1  0.79656883  0.39774010  -0.00408667  1
  Ta  Ta126  1  0.29514456  0.30086550  0.09805283  1
  Ta  Ta127  1  0.29060856  0.91108086  0.89590537  1
  Ta  Ta128  1  0.29963547  0.90517858  0.50196998  1
  Ta  Ta129  1  0.59870319  0.80642755  0.60822720  1
  Ta  Ta130  1  0.79589299  0.59335859  -0.00030610  1
  Ta  Ta131  1  0.29767963  0.90936492  0.29712489  1
  Ta  Ta132  1  0.20165874  0.39795540  -0.00542580  1
  Ta  Ta133  1  0.29440718  0.49744454  0.69751999  1
  Ta  Ta134  1  0.89465424  0.49328895  0.09737432  1
  Ta  Ta135  1  0.50084643  0.10601856  0.70122252  1
  Ta  Ta136  1  0.49815145  0.29038558  0.49746034  1
  Ta  Ta137  1  0.50603431  0.10686175  0.89590544  1
  Ta  Ta138  1  0.69554291  0.50394345  0.28748104  1
  Ta  Ta139  1  0.53384932  0.12718751  0.09150368  1
  Ta  Ta140  1  0.09413762  0.10553882  0.09422492  1
  Ta  Ta141  1  0.20458041  0.00207594  0.40303381  1
  Ta  Ta142  1  0.20475752  0.80273836  0.59916605  1
  Ta  Ta143  1  0.79936768  0.79757611  -0.00092374  1
  Ta  Ta144  1  0.10981436  0.09509679  0.69603754  1
  Ta  Ta145  1  0.11493209  0.70071522  0.69873226  1
  Ta  Ta146  1  0.50388051  0.49968888  0.10238385  1
  Ta  Ta147  1  0.59991013  0.60746681  0.60919877  1
  Ta  Ta148  1  0.29094870  0.91297561  0.10257438  1
  Ta  Ta149  1  0.70218918  0.89839087  0.69931432  1
  Ti  Ti150  1  0.39966713  0.59234846  0.40879356  1
  Ti  Ti151  1  0.70557586  0.50426231  0.70495372  1
  Ti  Ti152  1  0.60486092  0.19499620  0.40333787  1
  Ti  Ti153  1  0.88969497  0.89868125  0.90541115  1
  Ti  Ti154  1  -0.01017320  0.19069200  0.80250123  1
  Ti  Ti155  1  0.60533831  0.00087164  0.39776195  1
  Ti  Ti156  1  0.11365067  0.90606396  0.29718746  1
  Ti  Ti157  1  0.30030201  0.49606671  0.90036862  1
  Ti  Ti158  1  0.61355292  0.38951423  0.79445080  1
  Ti  Ti159  1  0.59728500  0.00025092  0.60070143  1
  Ti  Ti160  1  0.71072637  0.10025071  0.10460949  1
  Ti  Ti161  1  -0.00372120  0.38534939  0.21083740  1
  Ti  Ti162  1  0.79778394  0.19831361  0.39646419  1
  Ti  Ti163  1  0.90688517  0.29218482  0.49100178  1
  Ti  Ti164  1  0.19892124  0.80860214  0.80071134  1
  Ti  Ti165  1  -0.00681410  -0.00100020  -0.00965598  1
  Ti  Ti166  1  0.89638090  0.29664364  0.90655297  1
  Ti  Ti167  1  0.48892814  0.91026933  0.30288807  1
  Ti  Ti168  1  0.89179605  0.71027967  0.49235111  1
  Ti  Ti169  1  0.00818057  0.80207958  0.39683564  1
  Ti  Ti170  1  0.39672984  0.19897508  0.79417912  1
  Ti  Ti171  1  0.50862201  0.70212640  0.90469975  1
  Ti  Ti172  1  0.79787752  0.80468119  0.20123940  1
  Ti  Ti173  1  0.89028887  0.70699487  0.30397536  1
  Ti  Ti174  1  0.00321798  0.38484391  0.39597080  1
  Ti  Ti175  1  0.39429893  0.18938987  0.41855060  1
  Ti  Ti176  1  0.89254617  0.49802147  0.89953832  1
  Ti  Ti177  1  0.70360492  0.70153132  0.70833627  1
  Ti  Ti178  1  0.00346275  0.40150186  0.59762965  1
  Ti  Ti179  1  0.88666494  0.10238991  0.29774079  1
  Ti  Ti180  1  0.89047519  0.90638130  0.09720647  1
  Ti  Ti181  1  0.49976728  0.29322992  0.70236436  1
  Ti  Ti182  1  0.29445523  0.09834121  0.90308533  1
  Ti  Ti183  1  0.20379561  0.80131997  0.19782944  1
  Ti  Ti184  1  0.19346112  -0.00176500  -0.00535352  1
  Ti  Ti185  1  0.39721362  0.60293881  0.18734298  1
  Ti  Ti186  1  0.10748527  0.71110205  0.50186726  1
  Ti  Ti187  1  0.70071880  0.28136755  0.29531363  1
  Ti  Ti188  1  0.18887480  0.39163263  0.20352580  1
  Ti  Ti189  1  -0.00409763  0.81218659  -0.00307605  1
  Ti  Ti190  1  0.59775127  0.60445406  0.80001093  1
  Ti  Ti191  1  0.88650288  0.70233534  0.70893661  1
  Ti  Ti192  1  0.79801127  0.60991513  0.60191085  1
  Ti  Ti193  1  -0.00858778  0.59124535  -0.00341821  1
  Ti  Ti194  1  0.60354088  0.39976826  0.00074524  1
  Ti  Ti195  1  0.70011390  0.50332341  0.10259758  1
  Ti  Ti196  1  0.10735039  0.70773022  0.30310667  1
  Ti  Ti197  1  0.29539483  0.29740410  0.90581946  1
  Ti  Ti198  1  0.20381663  0.39784362  0.80107986  1
  Ti  Ti199  1  0.59368674  0.81556005  0.20066664  1
  Mo  Mo200  1  0.30722903  0.70550958  0.09991130  1
  Mo  Mo201  1  0.20286058  0.00244714  0.80122499  1
  Mo  Mo202  1  0.60653406  0.20380495  -0.01811447  1
  Mo  Mo203  1  0.39349728  0.00009555  0.40378368  1
  Mo  Mo204  1  0.00628314  0.00107478  0.60384871  1
  Mo  Mo205  1  0.30544837  0.50567072  0.50774042  1
  Mo  Mo206  1  -0.00364399  0.19525390  -0.00503789  1
  Mo  Mo207  1  0.29970976  0.30042703  0.69933842  1
  Mo  Mo208  1  0.79293632  0.80117022  0.40373732  1
  Mo  Mo209  1  0.79596012  0.60265389  0.79953062  1
  Mo  Mo210  1  0.50374835  0.90348993  0.89988847  1
  Mo  Mo211  1  -0.01057020  0.40617141  -0.00690450  1
  Mo  Mo212  1  0.20689062  0.00139572  0.59973915  1
  Mo  Mo213  1  0.20179914  0.20193359  -0.00010869  1
  Mo  Mo214  1  0.79700632  0.39667336  0.80675442  1
  Mo  Mo215  1  0.80078770  0.19507045  0.20782771  1
  Mo  Mo216  1  0.30151209  0.29055531  0.50625643  1
  Mo  Mo217  1  0.50844163  0.50207527  0.90518592  1
  Mo  Mo218  1  0.79585540  0.59024858  0.19342117  1
  Mo  Mo219  1  0.50366570  0.90455478  0.69311250  1
  Mo  Mo220  1  0.21645123  0.19785816  0.60081957  1
  Mo  Mo221  1  0.59711817  0.58943887  0.19601553  1
  Mo  Mo222  1  0.20176698  0.40060408  0.60420815  1
  Mo  Mo223  1  0.09875008  0.48769530  0.51064871  1
  Mo  Mo224  1  0.09477051  0.29472392  0.30641481  1
  Mo  Mo225  1  0.69482025  0.28719831  0.48609388  1
  Mo  Mo226  1  0.60424248  0.79414525  -0.00678457  1
  Mo  Mo227  1  0.39783014  0.80659840  0.60402937  1
  Mo  Mo228  1  0.80119057  -0.00939048  0.00187733  1
  Mo  Mo229  1  0.70605964  0.09963033  0.30543054  1
  Mo  Mo230  1  0.50499974  0.30266490  0.09730372  1
  Mo  Mo231  1  0.70082462  0.90162438  0.30001539  1
  Mo  Mo232  1  0.79381667  0.79922223  0.80091335  1
  Mo  Mo233  1  0.60665565  0.19465312  0.21450997  1
  Mo  Mo234  1  0.50517367  0.10210309  0.50181793  1
  Mo  Mo235  1  0.29994017  0.09640904  0.50005459  1
  Mo  Mo236  1  0.10087135  0.90583476  0.90047733  1
  Mo  Mo237  1  0.90263605  0.10572636  0.90364516  1
  Mo  Mo238  1  0.70270871  0.29433406  0.71008086  1
  Mo  Mo239  1  0.79646852  0.00276772  0.20078210  1
  Mo  Mo240  1  0.40786239  0.39664285  0.19593014  1
  Mo  Mo241  1  0.00154891  0.20169525  0.39103331  1
  Mo  Mo242  1  0.50840874  0.89346756  0.09837847  1
  Mo  Mo243  1  0.89948878  0.29175805  0.30012081  1
  Mo  Mo244  1  0.80315359  0.20209951  -0.00799150  1
  Mo  Mo245  1  0.70601865  0.30445145  0.89746715  1
  Mo  Mo246  1  0.78783998  0.00227960  0.39761246  1
  Mo  Mo247  1  0.19451604  0.00630185  0.20080310  1
  Mo  Mo248  1  0.89997820  0.10484985  0.70856362  1
  Mo  Mo249  1  0.30094772  0.10136215  0.69488793  1
