# generated using pymatgen
data_HfZrTaTiMo
_symmetry_space_group_name_H-M   'P 1'
_cell_length_a   16.89188089
_cell_length_b   16.89140310
_cell_length_c   16.88057483
_cell_angle_alpha   89.98789058
_cell_angle_beta   89.98495168
_cell_angle_gamma   89.94914228
_symmetry_Int_Tables_number   1
_chemical_formula_structural   HfZrTaTiMo
_chemical_formula_sum   'Hf50 Zr50 Ta50 Ti50 Mo50'
_cell_volume   4816.49121226
_cell_formula_units_Z   50
loop_
 _symmetry_equiv_pos_site_id
 _symmetry_equiv_pos_as_xyz
  1  'x, y, z'
loop_
 _atom_site_type_symbol
 _atom_site_label
 _atom_site_symmetry_multiplicity
 _atom_site_fract_x
 _atom_site_fract_y
 _atom_site_fract_z
 _atom_site_occupancy
  Hf  Hf0  1  0.80162671  0.40064570  0.79493436  1
  Hf  Hf1  1  0.78914046  0.39954061  0.40477623  1
  Hf  Hf2  1  0.79645457  0.20337937  0.39675080  1
  Hf  Hf3  1  0.00778880  -0.00055025  0.40561941  1
  Hf  Hf4  1  0.60493360  0.19420224  0.20280365  1
  Hf  Hf5  1  0.59472971  0.00619727  0.79933223  1
  Hf  Hf6  1  0.88917897  0.50563311  0.50633908  1
  Hf  Hf7  1  0.11728555  0.89921129  0.50926256  1
  Hf  Hf8  1  0.20466227  0.60146981  0.60844472  1
  Hf  Hf9  1  0.60197033  0.60086425  0.79378808  1
  Hf  Hf10  1  0.00579411  0.18875689  -0.00062384  1
  Hf  Hf11  1  0.89407122  0.09343966  0.90576379  1
  Hf  Hf12  1  0.39892406  0.39852705  0.19629865  1
  Hf  Hf13  1  0.90323752  0.10347330  0.50834392  1
  Hf  Hf14  1  0.89176761  0.70734786  0.30123925  1
  Hf  Hf15  1  0.11488938  0.09465868  0.29658341  1
  Hf  Hf16  1  0.10443503  0.29728775  0.29346948  1
  Hf  Hf17  1  0.60256351  0.79727577  0.40077187  1
  Hf  Hf18  1  0.49651247  0.70859080  0.50122942  1
  Hf  Hf19  1  0.50226268  0.50744943  0.28711769  1
  Hf  Hf20  1  0.29386497  0.71028541  0.50373667  1
  Hf  Hf21  1  0.39521754  0.79469285  0.20780930  1
  Hf  Hf22  1  0.60309176  0.60452747  0.39231708  1
  Hf  Hf23  1  0.49463249  0.90390345  0.31326897  1
  Hf  Hf24  1  -0.00337300  0.39621669  0.60391564  1
  Hf  Hf25  1  0.88998884  0.50684036  0.69757983  1
  Hf  Hf26  1  0.39775428  0.61640810  0.38808608  1
  Hf  Hf27  1  0.00474165  0.20146111  0.60911577  1
  Hf  Hf28  1  0.60133370  0.19312792  -0.00861320  1
  Hf  Hf29  1  0.60556388  0.59439159  0.59605696  1
  Hf  Hf30  1  0.11014571  0.30876427  0.70800135  1
  Hf  Hf31  1  0.69678441  0.10220359  0.69047865  1
  Hf  Hf32  1  0.29742033  0.70506252  0.89641528  1
  Hf  Hf33  1  0.39445496  -0.00074628  0.59666267  1
  Hf  Hf34  1  0.30607613  0.49038018  0.70420664  1
  Hf  Hf35  1  0.49858752  0.29453482  0.09963678  1
  Hf  Hf36  1  0.19285941  0.19195183  0.00503276  1
  Hf  Hf37  1  0.28895226  0.09975764  0.10651449  1
  Hf  Hf38  1  0.09953173  0.70303213  0.09862757  1
  Hf  Hf39  1  0.19833258  0.19496975  0.81113541  1
  Hf  Hf40  1  0.59094130  0.80120042  0.00582846  1
  Hf  Hf41  1  0.40027883  0.40842859  -0.00118106  1
  Hf  Hf42  1  0.69790503  0.30562744  0.89626803  1
  Hf  Hf43  1  0.00923938  0.19197367  0.19344325  1
  Hf  Hf44  1  0.81108665  -0.02155888  0.42415585  1
  Hf  Hf45  1  0.38792585  -0.01031999  0.00111716  1
  Hf  Hf46  1  0.00300091  -0.00749856  0.80687418  1
  Hf  Hf47  1  -0.00301158  0.81147364  -0.00733076  1
  Hf  Hf48  1  0.29752913  0.69524412  0.10035337  1
  Hf  Hf49  1  0.39447527  -0.01012616  0.19919964  1
  Zr  Zr50  1  0.70606707  0.08723905  0.29962813  1
  Zr  Zr51  1  0.10366992  0.49704681  0.70460657  1
  Zr  Zr52  1  0.29836661  0.50105837  0.50103124  1
  Zr  Zr53  1  0.71193848  0.70418893  0.49951315  1
  Zr  Zr54  1  0.10328641  0.50558435  0.29951184  1
  Zr  Zr55  1  0.10425191  0.69933829  0.50041736  1
  Zr  Zr56  1  0.80637552  0.40766430  -0.00111885  1
  Zr  Zr57  1  0.89845794  0.69890397  0.50338487  1
  Zr  Zr58  1  0.70873043  0.70157323  0.70168146  1
  Zr  Zr59  1  0.89711973  0.09132060  0.29646131  1
  Zr  Zr60  1  0.90695490  0.30496960  0.09590642  1
  Zr  Zr61  1  0.40397045  0.60792628  0.61062688  1
  Zr  Zr62  1  0.30414854  0.29759908  0.90196884  1
  Zr  Zr63  1  0.89388309  0.49928809  0.29682455  1
  Zr  Zr64  1  0.49168260  0.10055380  0.10257639  1
  Zr  Zr65  1  0.29913042  0.51160546  0.29399160  1
  Zr  Zr66  1  0.30472767  0.30876426  0.70051633  1
  Zr  Zr67  1  0.59803398  0.39782982  0.40443713  1
  Zr  Zr68  1  0.90201229  0.89789180  0.28474988  1
  Zr  Zr69  1  0.90215868  0.30141266  0.29578493  1
  Zr  Zr70  1  0.59629090  -0.01740683  0.19165217  1
  Zr  Zr71  1  0.59197537  0.78606537  0.20290929  1
  Zr  Zr72  1  0.00082671  0.40090310  0.40553362  1
  Zr  Zr73  1  0.90007511  0.69758473  0.69768296  1
  Zr  Zr74  1  0.69478024  0.30524086  0.69467937  1
  Zr  Zr75  1  0.40503219  0.39276126  0.39787085  1
  Zr  Zr76  1  0.90175429  0.70126355  0.09660910  1
  Zr  Zr77  1  0.89520315  0.08702847  0.10380024  1
  Zr  Zr78  1  0.69780682  0.10026640  0.51157331  1
  Zr  Zr79  1  0.58550842  -0.00598758  -0.00505573  1
  Zr  Zr80  1  -0.00217661  0.59934865  0.19744695  1
  Zr  Zr81  1  0.09679443  0.70468076  0.89628628  1
  Zr  Zr82  1  0.10638157  0.71144250  0.70476649  1
  Zr  Zr83  1  0.59192485  0.40311880  -0.00610008  1
  Zr  Zr84  1  0.09199780  0.31406448  0.90944368  1
  Zr  Zr85  1  0.59539386  0.20091364  0.80199687  1
  Zr  Zr86  1  0.70815614  0.89420761  0.30788117  1
  Zr  Zr87  1  0.20749475  0.19418744  0.60123686  1
  Zr  Zr88  1  0.50460969  0.48610269  0.70144720  1
  Zr  Zr89  1  0.68942411  0.68603746  0.08698923  1
  Zr  Zr90  1  0.71025914  0.08304077  0.09063705  1
  Zr  Zr91  1  0.19968740  0.58481168  -0.01331739  1
  Zr  Zr92  1  0.00240514  0.80569966  0.39941714  1
  Zr  Zr93  1  0.80151962  -0.00025071  0.79645419  1
  Zr  Zr94  1  0.40219936  0.80435563  0.00393059  1
  Zr  Zr95  1  0.30830430  0.10022786  0.71525960  1
  Zr  Zr96  1  0.80514184  0.82436743  0.59418630  1
  Zr  Zr97  1  0.69886650  0.90114553  0.89960083  1
  Zr  Zr98  1  0.46939497  0.10580859  0.88717789  1
  Zr  Zr99  1  0.20355242  0.39611193  0.39656075  1
  Ta  Ta100  1  0.59392798  0.80478000  0.60346155  1
  Ta  Ta101  1  0.00082090  0.19762206  0.80132667  1
  Ta  Ta102  1  0.69930982  0.30342525  0.09917581  1
  Ta  Ta103  1  0.28815843  0.90411056  0.89100683  1
  Ta  Ta104  1  0.20183213  0.80521790  0.20308694  1
  Ta  Ta105  1  0.20278755  0.40388033  0.19148931  1
  Ta  Ta106  1  0.79993055  0.80194379  -0.00355571  1
  Ta  Ta107  1  0.49466579  0.09818857  0.30821952  1
  Ta  Ta108  1  0.69333733  0.50198418  0.09708397  1
  Ta  Ta109  1  0.30428907  0.50643901  0.10068335  1
  Ta  Ta110  1  -0.00190386  0.59893796  0.80339588  1
  Ta  Ta111  1  0.50022174  0.29850244  0.69760572  1
  Ta  Ta112  1  0.00770135  0.19869799  0.40599881  1
  Ta  Ta113  1  0.20563395  0.19540758  0.40344964  1
  Ta  Ta114  1  0.00459805  -0.00189553  0.60682687  1
  Ta  Ta115  1  0.10357700  0.30842629  0.10013237  1
  Ta  Ta116  1  0.39852521  0.19860346  0.40332807  1
  Ta  Ta117  1  0.50110497  0.29188424  0.29828626  1
  Ta  Ta118  1  0.39666668  0.79830964  0.79254863  1
  Ta  Ta119  1  0.79154766  0.59988741  0.19671001  1
  Ta  Ta120  1  0.30012129  0.09606101  0.30518667  1
  Ta  Ta121  1  0.49596290  0.90468473  0.50182868  1
  Ta  Ta122  1  0.10635644  0.29797342  0.50375343  1
  Ta  Ta123  1  0.28937029  0.89499489  0.70076285  1
  Ta  Ta124  1  0.20568638  0.41919681  0.82583789  1
  Ta  Ta125  1  0.78679194  0.79485613  0.19023357  1
  Ta  Ta126  1  0.49939338  0.09907500  0.50024411  1
  Ta  Ta127  1  0.10876767  0.09739495  0.50305209  1
  Ta  Ta128  1  0.29440739  0.29834892  0.10218386  1
  Ta  Ta129  1  0.69534813  0.49967465  0.28864333  1
  Ta  Ta130  1  0.89668809  0.29889012  0.50605283  1
  Ta  Ta131  1  0.79515274  0.20621049  0.19417202  1
  Ta  Ta132  1  0.89592533  0.69887192  0.89464603  1
  Ta  Ta133  1  0.69889302  0.50872676  0.89389444  1
  Ta  Ta134  1  0.40179053  0.60456991  0.80293171  1
  Ta  Ta135  1  0.79619110  0.20256891  -0.00381775  1
  Ta  Ta136  1  0.10912253  0.89997571  0.70761781  1
  Ta  Ta137  1  0.40952095  0.60284172  -0.00320858  1
  Ta  Ta138  1  0.20000744  0.81328444  0.00152536  1
  Ta  Ta139  1  0.30083090  0.29727553  0.50206054  1
  Ta  Ta140  1  0.80304230  0.80412598  0.80374434  1
  Ta  Ta141  1  0.10404141  0.09142357  0.70472643  1
  Ta  Ta142  1  0.39647063  0.80728103  0.60533034  1
  Ta  Ta143  1  0.00703905  -0.00719261  0.00067879  1
  Ta  Ta144  1  0.00248629  0.60074222  0.40110778  1
  Ta  Ta145  1  0.20516867  0.80408269  0.39239696  1
  Ta  Ta146  1  0.39441239  0.19888366  0.20750968  1
  Ta  Ta147  1  0.69844617  0.29461778  0.51028948  1
  Ta  Ta148  1  0.68930651  0.90124649  0.70034191  1
  Ta  Ta149  1  0.59645911  0.20207585  0.40350988  1
  Ti  Ti150  1  0.69567506  0.30383980  0.29400622  1
  Ti  Ti151  1  0.41228915  0.39611678  0.81278347  1
  Ti  Ti152  1  0.49682746  0.88969329  0.88490072  1
  Ti  Ti153  1  0.09918617  0.49736016  0.09370786  1
  Ti  Ti154  1  0.20602767  0.59658925  0.80212076  1
  Ti  Ti155  1  0.39255930  0.20023397  -0.00023733  1
  Ti  Ti156  1  0.60304316  0.40230484  0.59072593  1
  Ti  Ti157  1  0.81178009  0.21057983  0.61301913  1
  Ti  Ti158  1  0.70022999  0.69939439  0.89595199  1
  Ti  Ti159  1  0.50612224  0.50595868  0.89584801  1
  Ti  Ti160  1  -0.00623843  0.40222398  0.80316321  1
  Ti  Ti161  1  0.00739454  0.59672751  0.60080576  1
  Ti  Ti162  1  0.59746416  0.00487429  0.40676512  1
  Ti  Ti163  1  0.90561464  0.10265382  0.70478801  1
  Ti  Ti164  1  0.19966968  0.60471386  0.20149304  1
  Ti  Ti165  1  0.49695466  0.10588909  0.69329624  1
  Ti  Ti166  1  0.50641061  0.51760829  0.10163452  1
  Ti  Ti167  1  0.59952731  0.39921365  0.19479148  1
  Ti  Ti168  1  0.40949306  0.39209162  0.58729937  1
  Ti  Ti169  1  0.91073534  0.89373640  0.70751900  1
  Ti  Ti170  1  0.10258160  0.89962677  0.10059859  1
  Ti  Ti171  1  0.40326770  0.20050389  0.59213333  1
  Ti  Ti172  1  0.01107682  -0.00515712  0.19204841  1
  Ti  Ti173  1  0.89901971  0.50644665  0.89662135  1
  Ti  Ti174  1  0.50587153  0.70275358  0.89522670  1
  Ti  Ti175  1  0.10532295  0.90130772  0.29755512  1
  Ti  Ti176  1  0.20250372  -0.01105590  0.19425526  1
  Ti  Ti177  1  0.10121379  0.70418210  0.29758605  1
  Ti  Ti178  1  0.10728985  0.50109954  0.49937157  1
  Ti  Ti179  1  0.80580809  0.20256957  0.80113506  1
  Ti  Ti180  1  0.79621195  0.40356048  0.19269026  1
  Ti  Ti181  1  0.90464310  0.29924881  0.90072911  1
  Ti  Ti182  1  0.68244713  0.90946435  0.51339323  1
  Ti  Ti183  1  0.10984572  0.08140562  0.90156227  1
  Ti  Ti184  1  0.50413130  0.71094919  0.70544067  1
  Ti  Ti185  1  0.20382037  0.40772182  0.00156888  1
  Ti  Ti186  1  -0.00527430  0.58999998  -0.00314157  1
  Ti  Ti187  1  0.80189029  0.59779155  -0.00398006  1
  Ti  Ti188  1  0.50175791  0.89932196  0.69919198  1
  Ti  Ti189  1  0.39433306  -0.01269916  0.79663062  1
  Ti  Ti190  1  0.29623090  0.29222288  0.29497715  1
  Ti  Ti191  1  0.79080657  0.59800211  0.39463850  1
  Ti  Ti192  1  0.89507954  0.89882005  0.10119834  1
  Ti  Ti193  1  0.29454992  0.91015213  0.31255479  1
  Ti  Ti194  1  0.00468908  0.80782497  0.60352503  1
  Ti  Ti195  1  0.81216615  -0.00323090  0.60878828  1
  Ti  Ti196  1  0.00037090  0.40873039  0.18894350  1
  Ti  Ti197  1  0.49734753  0.50387603  0.49618001  1
  Ti  Ti198  1  0.20903477  0.00299898  0.59931612  1
  Ti  Ti199  1  0.39162703  0.80455988  0.39980792  1
  Mo  Mo200  1  0.29038873  0.89730872  0.10146370  1
  Mo  Mo201  1  0.49436690  0.68999559  0.10228775  1
  Mo  Mo202  1  0.70582606  0.69387819  0.29822496  1
  Mo  Mo203  1  0.79477432  -0.01882042  0.18684736  1
  Mo  Mo204  1  0.92011377  0.90258368  0.51355168  1
  Mo  Mo205  1  0.01234861  0.80718499  0.19505432  1
  Mo  Mo206  1  0.30295521  0.10040545  0.49447130  1
  Mo  Mo207  1  0.59586450  0.79957777  0.79758610  1
  Mo  Mo208  1  0.89985213  0.89532591  0.90016207  1
  Mo  Mo209  1  0.10195586  0.08523775  0.10208956  1
  Mo  Mo210  1  -0.00117557  0.41443176  0.00099252  1
  Mo  Mo211  1  0.58625349  -0.00093837  0.60397095  1
  Mo  Mo212  1  0.19374320  0.61195455  0.39718880  1
  Mo  Mo213  1  0.20630992  0.80430138  0.60456284  1
  Mo  Mo214  1  0.70039704  0.49555399  0.49792854  1
  Mo  Mo215  1  0.49533458  0.70369406  0.30209250  1
  Mo  Mo216  1  0.59879851  0.40408395  0.80057574  1
  Mo  Mo217  1  0.31877652  0.50500468  0.89902993  1
  Mo  Mo218  1  0.78500105  0.58388509  0.60154979  1
  Mo  Mo219  1  0.79954816  0.60151260  0.80632290  1
  Mo  Mo220  1  0.79724388  0.39349229  0.59828459  1
  Mo  Mo221  1  0.90420261  0.29657204  0.70726769  1
  Mo  Mo222  1  0.29532000  0.09326413  0.90521761  1
  Mo  Mo223  1  0.19525785  -0.00459281  0.00041390  1
  Mo  Mo224  1  0.20097692  0.80423446  0.80314853  1
  Mo  Mo225  1  0.70440850  0.89022183  0.09422262  1
  Mo  Mo226  1  0.20041476  0.39971046  0.59040859  1
  Mo  Mo227  1  0.81055153  -0.01437597  -0.00361990  1
  Mo  Mo228  1  0.49710786  0.29951812  0.89758560  1
  Mo  Mo229  1  0.80001110  0.80159052  0.40110142  1
  Mo  Mo230  1  0.71405255  0.10356171  0.89694219  1
  Mo  Mo231  1  0.58585346  0.20048083  0.59726830  1
  Mo  Mo232  1  0.30356451  0.70324623  0.70657738  1
  Mo  Mo233  1  0.40306868  0.60605651  0.19235479  1
  Mo  Mo234  1  0.10249900  0.90083183  0.89901805  1
  Mo  Mo235  1  0.49176261  0.89287920  0.10559869  1
  Mo  Mo236  1  0.30207664  0.90156491  0.50013722  1
  Mo  Mo237  1  0.39519630  0.00504845  0.40469453  1
  Mo  Mo238  1  0.70073685  0.49658346  0.69723129  1
  Mo  Mo239  1  0.59498366  0.59961237  -0.01213089  1
  Mo  Mo240  1  0.40077334  0.21145488  0.79363181  1
  Mo  Mo241  1  0.89188762  0.50440978  0.09695453  1
  Mo  Mo242  1  -0.00458431  0.80058378  0.80045419  1
  Mo  Mo243  1  0.19871036  -0.00123444  0.80178473  1
  Mo  Mo244  1  0.28941578  0.70654411  0.29957202  1
  Mo  Mo245  1  0.08231672  0.50265452  0.89943352  1
  Mo  Mo246  1  0.50068144  0.29241495  0.50326158  1
  Mo  Mo247  1  0.59947758  0.59654247  0.19863179  1
  Mo  Mo248  1  0.20299475  0.20728451  0.20187298  1
  Mo  Mo249  1  0.20412903  -0.00074444  0.40228693  1
