# generated using pymatgen
data_HfZrTaTiMo
_symmetry_space_group_name_H-M   'P 1'
_cell_length_a   16.88690145
_cell_length_b   16.89366715
_cell_length_c   16.88933523
_cell_angle_alpha   89.99342164
_cell_angle_beta   90.02155736
_cell_angle_gamma   90.01368643
_symmetry_Int_Tables_number   1
_chemical_formula_structural   HfZrTaTiMo
_chemical_formula_sum   'Hf50 Zr50 Ta50 Ti50 Mo50'
_cell_volume   4818.21762716
_cell_formula_units_Z   50
loop_
 _symmetry_equiv_pos_site_id
 _symmetry_equiv_pos_as_xyz
  1  'x, y, z'
loop_
 _atom_site_type_symbol
 _atom_site_label
 _atom_site_symmetry_multiplicity
 _atom_site_fract_x
 _atom_site_fract_y
 _atom_site_fract_z
 _atom_site_occupancy
  Hf  Hf0  1  0.40128728  0.60246019  0.39811189  1
  Hf  Hf1  1  0.90154670  0.69995394  0.49815735  1
  Hf  Hf2  1  0.79673567  0.59536998  0.60943425  1
  Hf  Hf3  1  0.10186940  0.70270002  0.50835201  1
  Hf  Hf4  1  0.09658002  0.89673857  0.89767832  1
  Hf  Hf5  1  0.40699999  0.60827586  0.60928237  1
  Hf  Hf6  1  0.61226887  0.40039247  0.59748583  1
  Hf  Hf7  1  0.59994249  0.59429258  0.19468975  1
  Hf  Hf8  1  0.09315351  0.09245808  0.69557148  1
  Hf  Hf9  1  0.51291573  0.31014209  0.90005286  1
  Hf  Hf10  1  0.71501756  0.30471365  0.30799871  1
  Hf  Hf11  1  0.09733526  0.69570807  0.29407734  1
  Hf  Hf12  1  0.39484582  0.79544923  0.39555805  1
  Hf  Hf13  1  0.78486427  0.79617708  0.79652354  1
  Hf  Hf14  1  0.50983739  0.50822245  0.71200242  1
  Hf  Hf15  1  0.29350113  0.70352665  0.51468211  1
  Hf  Hf16  1  0.00039983  0.81152993  0.60118662  1
  Hf  Hf17  1  0.40229986  0.40586187  -0.00215603  1
  Hf  Hf18  1  -0.00441995  0.40355841  0.80580847  1
  Hf  Hf19  1  0.09728253  0.49942256  0.09822205  1
  Hf  Hf20  1  0.69796351  0.69761786  0.29708832  1
  Hf  Hf21  1  -0.00483074  0.00447814  -0.00528370  1
  Hf  Hf22  1  0.19421837  0.38861341  0.60024135  1
  Hf  Hf23  1  0.29947914  0.09789085  0.30077822  1
  Hf  Hf24  1  0.00423484  0.19987371  0.40516625  1
  Hf  Hf25  1  0.20802124  -0.00220671  0.80144202  1
  Hf  Hf26  1  0.00293455  0.20038999  0.59238206  1
  Hf  Hf27  1  0.79626009  0.59081241  0.79891958  1
  Hf  Hf28  1  0.69612543  0.90201477  0.90497987  1
  Hf  Hf29  1  0.61262206  0.19733533  0.00632552  1
  Hf  Hf30  1  0.49523526  0.09827169  0.70190938  1
  Hf  Hf31  1  0.49338189  0.10250145  0.50264229  1
  Hf  Hf32  1  0.10511673  0.89256804  0.70329859  1
  Hf  Hf33  1  0.88587862  0.30116038  0.49254519  1
  Hf  Hf34  1  0.70617167  0.49174947  0.30221251  1
  Hf  Hf35  1  0.80487717  0.58431758  0.19307291  1
  Hf  Hf36  1  0.30560237  0.50108190  0.29572557  1
  Hf  Hf37  1  0.50073193  0.90209507  0.90043897  1
  Hf  Hf38  1  0.79617880  0.00412332  0.78824463  1
  Hf  Hf39  1  0.50528950  0.70243084  0.50326908  1
  Hf  Hf40  1  0.30333375  0.90232414  0.29300544  1
  Hf  Hf41  1  0.51050492  0.30661592  0.10186565  1
  Hf  Hf42  1  0.09618701  0.70667172  0.89672015  1
  Hf  Hf43  1  0.19516173  0.39543606  0.80249559  1
  Hf  Hf44  1  0.70997431  0.29763878  0.70848472  1
  Hf  Hf45  1  0.28539709  0.71030119  0.69922743  1
  Hf  Hf46  1  0.09849353  0.10613446  0.89489766  1
  Hf  Hf47  1  0.39608729  0.60732869  0.81170157  1
  Hf  Hf48  1  0.60014800  0.00214433  0.60515250  1
  Hf  Hf49  1  0.09834785  0.69080051  0.10614068  1
  Zr  Zr50  1  0.80589429  0.80313579  0.39928341  1
  Zr  Zr51  1  0.11147864  0.10339821  0.09076986  1
  Zr  Zr52  1  0.59955291  0.20455871  0.39902254  1
  Zr  Zr53  1  0.60437031  0.19234314  0.80247588  1
  Zr  Zr54  1  0.59424106  0.59840772  0.00429707  1
  Zr  Zr55  1  -0.00345675  0.59279618  0.60646639  1
  Zr  Zr56  1  0.19808539  0.39043350  0.19900436  1
  Zr  Zr57  1  0.38957750  0.20713156  0.60319915  1
  Zr  Zr58  1  0.19768790  0.80833325  0.39845970  1
  Zr  Zr59  1  0.59162510  0.00159926  0.39809500  1
  Zr  Zr60  1  0.19540208  0.40235370  0.40346271  1
  Zr  Zr61  1  0.39011835  0.40049474  0.80289557  1
  Zr  Zr62  1  0.50454639  0.30180212  0.70078457  1
  Zr  Zr63  1  0.80105238  0.20626406  0.19266016  1
  Zr  Zr64  1  0.49877913  0.89180296  0.29128662  1
  Zr  Zr65  1  0.59942075  0.79576786  0.61660350  1
  Zr  Zr66  1  0.89714550  0.29383855  0.70416979  1
  Zr  Zr67  1  0.09107808  0.51065681  0.28845997  1
  Zr  Zr68  1  -0.00458678  0.79846148  0.00475297  1
  Zr  Zr69  1  0.50333121  0.49930154  0.49951621  1
  Zr  Zr70  1  0.39303138  0.39897784  0.60181042  1
  Zr  Zr71  1  0.79914229  -0.00051706  0.39857685  1
  Zr  Zr72  1  0.89303260  0.30159450  0.89683185  1
  Zr  Zr73  1  0.69314403  0.89389467  0.29438413  1
  Zr  Zr74  1  0.90006298  0.91325452  0.50981507  1
  Zr  Zr75  1  0.20342365  0.60318200  0.39934487  1
  Zr  Zr76  1  0.00184332  0.20415590  0.19702775  1
  Zr  Zr77  1  0.29968047  0.50613623  0.10306801  1
  Zr  Zr78  1  0.19995839  0.20379348  0.79546109  1
  Zr  Zr79  1  0.41042768  0.19793861  0.20336655  1
  Zr  Zr80  1  0.11136179  0.89866027  0.09785228  1
  Zr  Zr81  1  0.19571054  0.20239575  0.59140835  1
  Zr  Zr82  1  0.80453860  0.80032968  0.19468749  1
  Zr  Zr83  1  0.89692323  0.70346648  0.90036007  1
  Zr  Zr84  1  0.59588419  0.79245613  0.00285761  1
  Zr  Zr85  1  0.69690653  0.49508586  0.90436553  1
  Zr  Zr86  1  0.09571142  0.30089511  0.30304680  1
  Zr  Zr87  1  0.70096772  0.69742488  0.49897299  1
  Zr  Zr88  1  0.28810741  0.51007001  0.69309306  1
  Zr  Zr89  1  0.40694061  0.20899329  0.38329192  1
  Zr  Zr90  1  0.19495363  0.60062769  0.80772431  1
  Zr  Zr91  1  0.91129821  0.69067454  0.29583167  1
  Zr  Zr92  1  0.21180923  0.79322453  0.19803766  1
  Zr  Zr93  1  0.29742619  0.29302130  0.09474084  1
  Zr  Zr94  1  0.70037407  0.10502972  0.29863012  1
  Zr  Zr95  1  0.90721882  0.70759389  0.70667857  1
  Zr  Zr96  1  0.00396862  0.00328089  0.20511381  1
  Zr  Zr97  1  0.79896993  0.00603559  0.19317364  1
  Zr  Zr98  1  0.89369001  0.90278180  0.09244679  1
  Zr  Zr99  1  0.40883050  0.19751240  -0.00510265  1
  Ta  Ta100  1  0.39385216  0.79242961  -0.00694040  1
  Ta  Ta101  1  0.19452186  -0.00129185  0.40383768  1
  Ta  Ta102  1  0.40395196  0.00004132  0.19219387  1
  Ta  Ta103  1  0.09525738  0.49909649  0.70015683  1
  Ta  Ta104  1  0.79419844  0.19290495  0.60133788  1
  Ta  Ta105  1  0.29955328  0.09673216  0.49542294  1
  Ta  Ta106  1  0.79577312  0.80547851  0.60885837  1
  Ta  Ta107  1  0.30709911  0.89765212  0.09405851  1
  Ta  Ta108  1  0.49861686  0.30722656  0.49376814  1
  Ta  Ta109  1  0.59821393  0.00389384  0.18754462  1
  Ta  Ta110  1  0.39452650  0.19854354  0.80365402  1
  Ta  Ta111  1  0.39561948  -0.00550187  0.59900547  1
  Ta  Ta112  1  0.40206541  0.79855115  0.80112160  1
  Ta  Ta113  1  -0.01097840  -0.00366244  0.79339515  1
  Ta  Ta114  1  0.70589758  0.09975069  0.50362740  1
  Ta  Ta115  1  0.60042311  0.59654349  0.39654088  1
  Ta  Ta116  1  -0.00451895  0.58953220  0.80342048  1
  Ta  Ta117  1  0.20351038  0.61185808  -0.00016136  1
  Ta  Ta118  1  0.29287115  0.29409766  0.90535714  1
  Ta  Ta119  1  0.60206592  -0.00091418  0.79744471  1
  Ta  Ta120  1  0.40337633  0.38804237  0.21460540  1
  Ta  Ta121  1  0.69725977  0.90151606  0.50724152  1
  Ta  Ta122  1  0.30234291  0.30206257  0.48166361  1
  Ta  Ta123  1  0.30062023  0.09359387  0.69695057  1
  Ta  Ta124  1  0.70485549  0.69512873  0.09824073  1
  Ta  Ta125  1  -0.00754276  0.59283822  -0.00355496  1
  Ta  Ta126  1  0.89291425  0.90143741  0.89353712  1
  Ta  Ta127  1  0.30157270  0.89847687  0.69772666  1
  Ta  Ta128  1  0.09610380  0.49796768  0.90929499  1
  Ta  Ta129  1  0.30009987  0.09393812  0.09516678  1
  Ta  Ta130  1  -0.01480982  0.39881413  0.20169620  1
  Ta  Ta131  1  0.50419512  0.09318760  0.09403181  1
  Ta  Ta132  1  0.20234192  0.19844507  0.20167139  1
  Ta  Ta133  1  0.00792058  0.81459554  0.39728380  1
  Ta  Ta134  1  -0.00056904  0.39776417  0.59625137  1
  Ta  Ta135  1  0.19817857  -0.00350316  0.59062941  1
  Ta  Ta136  1  0.89934642  0.30631263  0.09273916  1
  Ta  Ta137  1  0.89759148  0.10636553  0.89362309  1
  Ta  Ta138  1  0.49927866  0.69722206  0.29222756  1
  Ta  Ta139  1  0.49617312  0.89704399  0.50404902  1
  Ta  Ta140  1  0.50140682  0.49529394  0.30067983  1
  Ta  Ta141  1  0.70367418  0.09702354  0.89950186  1
  Ta  Ta142  1  0.00461367  0.21222641  -0.00515787  1
  Ta  Ta143  1  0.90025444  0.10974269  0.08940217  1
  Ta  Ta144  1  0.80023346  0.59709311  0.00135384  1
  Ta  Ta145  1  0.30045853  0.10040448  0.90504868  1
  Ta  Ta146  1  0.90006132  0.10847795  0.30969876  1
  Ta  Ta147  1  0.89593839  0.49426147  0.49952470  1
  Ta  Ta148  1  0.89865287  0.09733152  0.50431453  1
  Ta  Ta149  1  0.79741732  0.20186333  -0.00171047  1
  Ti  Ti150  1  0.80030528  0.40515397  0.00068850  1
  Ti  Ti151  1  0.60482312  0.39729154  0.40536895  1
  Ti  Ti152  1  0.60704981  0.40413169  0.19690908  1
  Ti  Ti153  1  0.49665803  0.89990913  0.09413409  1
  Ti  Ti154  1  0.70465158  0.31597708  0.09835777  1
  Ti  Ti155  1  0.40364271  0.80358493  0.60814129  1
  Ti  Ti156  1  0.08784851  0.29638632  0.70664584  1
  Ti  Ti157  1  0.61284543  0.40644828  0.79612362  1
  Ti  Ti158  1  0.59732125  0.79698230  0.18792636  1
  Ti  Ti159  1  0.61036610  0.60192797  0.61411011  1
  Ti  Ti160  1  0.79298103  0.79186121  -0.00089277  1
  Ti  Ti161  1  0.39857324  -0.00264765  -0.00161853  1
  Ti  Ti162  1  0.90733335  0.90832001  0.30273276  1
  Ti  Ti163  1  0.59781309  0.79884916  0.40174570  1
  Ti  Ti164  1  0.49651627  0.89931367  0.70696443  1
  Ti  Ti165  1  0.01224648  0.00154113  0.40727681  1
  Ti  Ti166  1  0.39575487  -0.00143833  0.80190478  1
  Ti  Ti167  1  0.60678482  0.20432688  0.59533835  1
  Ti  Ti168  1  0.79577462  0.01050801  0.00105505  1
  Ti  Ti169  1  0.89931378  0.09988544  0.69592571  1
  Ti  Ti170  1  0.50978348  0.70200537  0.88942660  1
  Ti  Ti171  1  0.21099358  -0.00946236  -0.00879507  1
  Ti  Ti172  1  0.30091068  0.89924513  0.50498481  1
  Ti  Ti173  1  0.29968103  0.50089803  0.50177099  1
  Ti  Ti174  1  0.69762906  0.90253098  0.69939101  1
  Ti  Ti175  1  0.70648894  0.49748014  0.49544607  1
  Ti  Ti176  1  0.50836702  0.50094302  0.89936791  1
  Ti  Ti177  1  0.70604537  0.30429965  0.89858040  1
  Ti  Ti178  1  0.10383444  0.09791078  0.30276915  1
  Ti  Ti179  1  0.10122012  0.70360640  0.70409200  1
  Ti  Ti180  1  0.79833873  0.40453931  0.60423380  1
  Ti  Ti181  1  0.28744206  0.49892248  0.91192299  1
  Ti  Ti182  1  -0.00790453  0.40281543  0.39903835  1
  Ti  Ti183  1  0.49454027  0.49606849  0.10628365  1
  Ti  Ti184  1  0.69429175  0.90334530  0.09238316  1
  Ti  Ti185  1  0.19529504  0.19842463  0.40311999  1
  Ti  Ti186  1  0.00314984  0.81061368  0.20521888  1
  Ti  Ti187  1  0.60026550  0.19730247  0.20025710  1
  Ti  Ti188  1  0.40092398  -0.00182837  0.39977357  1
  Ti  Ti189  1  0.21925637  0.80605113  0.82170297  1
  Ti  Ti190  1  0.09795355  0.50118114  0.50640529  1
  Ti  Ti191  1  0.39753654  0.60556614  -0.00299103  1
  Ti  Ti192  1  0.80582157  0.59105559  0.39792873  1
  Ti  Ti193  1  0.48498632  0.69818526  0.10800083  1
  Ti  Ti194  1  0.90316532  0.69410203  0.10268518  1
  Ti  Ti195  1  0.18440345  0.38467863  -0.00193784  1
  Ti  Ti196  1  0.90216644  0.49104641  0.09272379  1
  Ti  Ti197  1  0.50388875  0.09071885  0.90226827  1
  Ti  Ti198  1  0.20132432  -0.00017237  0.20170416  1
  Ti  Ti199  1  -0.00374213  0.59023408  0.40360075  1
  Mo  Mo200  1  0.89938947  0.49010776  0.69885052  1
  Mo  Mo201  1  -0.01399443  0.58991562  0.18895909  1
  Mo  Mo202  1  0.50004166  0.08789790  0.28719190  1
  Mo  Mo203  1  0.89706295  0.90396514  0.70248645  1
  Mo  Mo204  1  0.69539549  0.69610125  0.70676650  1
  Mo  Mo205  1  0.40513141  0.80018909  0.18908952  1
  Mo  Mo206  1  -0.00145539  0.39939076  0.00248932  1
  Mo  Mo207  1  0.21068407  0.79777634  -0.00062365  1
  Mo  Mo208  1  -0.00355675  0.19455779  0.79953066  1
  Mo  Mo209  1  0.59800859  0.00249019  -0.00134486  1
  Mo  Mo210  1  0.30970801  0.90304785  0.90117298  1
  Mo  Mo211  1  0.79934507  0.40227763  0.40578639  1
  Mo  Mo212  1  0.52254704  0.31846789  0.29742329  1
  Mo  Mo213  1  0.50155723  0.70302674  0.71102899  1
  Mo  Mo214  1  0.30213076  0.70257390  0.90281329  1
  Mo  Mo215  1  -0.00794553  0.80723760  0.79862278  1
  Mo  Mo216  1  0.70079658  0.29709018  0.50624555  1
  Mo  Mo217  1  0.10121619  0.90564288  0.30130407  1
  Mo  Mo218  1  0.89891308  0.49181378  0.30920874  1
  Mo  Mo219  1  0.69741911  0.69709414  0.90526229  1
  Mo  Mo220  1  0.09630566  0.30046048  0.90232279  1
  Mo  Mo221  1  0.60376010  0.61033573  0.80386435  1
  Mo  Mo222  1  0.19759463  0.80926102  0.60174384  1
  Mo  Mo223  1  0.19036219  0.59627450  0.60193615  1
  Mo  Mo224  1  0.19987059  0.19887740  -0.00034898  1
  Mo  Mo225  1  0.40817097  0.59838569  0.19993295  1
  Mo  Mo226  1  0.89810819  0.30330947  0.30017733  1
  Mo  Mo227  1  0.59601212  0.80252351  0.80051003  1
  Mo  Mo228  1  0.60224467  0.40246961  0.00616880  1
  Mo  Mo229  1  0.40177758  0.40004392  0.39715758  1
  Mo  Mo230  1  0.80710814  0.39765836  0.19560830  1
  Mo  Mo231  1  0.09282371  0.30135071  0.09603837  1
  Mo  Mo232  1  0.31187867  0.69424247  0.28225822  1
  Mo  Mo233  1  0.70010747  0.09932210  0.09372018  1
  Mo  Mo234  1  0.29819201  0.29365796  0.70944440  1
  Mo  Mo235  1  0.10123580  0.09373440  0.49709276  1
  Mo  Mo236  1  0.09986188  0.90539654  0.50266228  1
  Mo  Mo237  1  0.89884843  0.49937093  0.90598599  1
  Mo  Mo238  1  0.69735847  0.10103240  0.69678859  1
  Mo  Mo239  1  0.21358720  0.60472137  0.19423813  1
  Mo  Mo240  1  0.80411705  0.19736768  0.40709130  1
  Mo  Mo241  1  0.79852874  0.19079225  0.80245828  1
  Mo  Mo242  1  0.29063820  0.29522336  0.30216816  1
  Mo  Mo243  1  0.79968733  0.40592647  0.79730373  1
  Mo  Mo244  1  0.79533716  0.00284856  0.60354092  1
  Mo  Mo245  1  -0.00060447  0.00448426  0.60349154  1
  Mo  Mo246  1  0.30649276  0.69889517  0.09315248  1
  Mo  Mo247  1  0.70121356  0.49700738  0.70361916  1
  Mo  Mo248  1  0.70450970  0.49406477  0.09892118  1
  Mo  Mo249  1  0.09526309  0.30742632  0.49674557  1
