# generated using pymatgen
data_HfZrTaTiMo
_symmetry_space_group_name_H-M   'P 1'
_cell_length_a   16.89035625
_cell_length_b   16.88862652
_cell_length_c   16.88364914
_cell_angle_alpha   90.01894303
_cell_angle_beta   90.03604128
_cell_angle_gamma   90.00740529
_symmetry_Int_Tables_number   1
_chemical_formula_structural   HfZrTaTiMo
_chemical_formula_sum   'Hf50 Zr50 Ta50 Ti50 Mo50'
_cell_volume   4816.14270488
_cell_formula_units_Z   50
loop_
 _symmetry_equiv_pos_site_id
 _symmetry_equiv_pos_as_xyz
  1  'x, y, z'
loop_
 _atom_site_type_symbol
 _atom_site_label
 _atom_site_symmetry_multiplicity
 _atom_site_fract_x
 _atom_site_fract_y
 _atom_site_fract_z
 _atom_site_occupancy
  Hf  Hf0  1  0.91000013  0.49573577  0.10413495  1
  Hf  Hf1  1  0.40290989  0.80231783  0.80391290  1
  Hf  Hf2  1  0.69492603  0.69696546  0.69836334  1
  Hf  Hf3  1  0.80308247  0.00020035  0.79730696  1
  Hf  Hf4  1  0.40387912  0.00282413  0.80197526  1
  Hf  Hf5  1  0.79336059  0.79628521  0.21082516  1
  Hf  Hf6  1  0.69291119  0.30318114  0.90085522  1
  Hf  Hf7  1  0.50865768  0.90186738  0.69536589  1
  Hf  Hf8  1  0.29594007  0.10622033  0.11282894  1
  Hf  Hf9  1  0.91569740  0.89136560  0.70047591  1
  Hf  Hf10  1  0.29473031  0.50120515  0.10156632  1
  Hf  Hf11  1  0.90101665  0.69747270  0.69633168  1
  Hf  Hf12  1  0.09368746  0.29993717  0.50421011  1
  Hf  Hf13  1  0.49786622  0.49669971  0.90144545  1
  Hf  Hf14  1  0.90376401  0.49970360  0.29724386  1
  Hf  Hf15  1  0.50307903  0.69593750  0.88963183  1
  Hf  Hf16  1  0.60203196  0.20163226  0.00774875  1
  Hf  Hf17  1  0.18877986  0.00702823  0.79824805  1
  Hf  Hf18  1  0.10405349  0.11266037  0.30459984  1
  Hf  Hf19  1  0.20684826  0.40464982  0.40356907  1
  Hf  Hf20  1  0.19692663  0.60554475  0.00222192  1
  Hf  Hf21  1  0.49745672  0.51109073  0.50076742  1
  Hf  Hf22  1  0.00507503  0.59672280  -0.00251878  1
  Hf  Hf23  1  0.38373201  0.40393094  0.59125606  1
  Hf  Hf24  1  0.19188450  0.61034409  0.20233767  1
  Hf  Hf25  1  0.69384299  0.49395129  0.09231343  1
  Hf  Hf26  1  0.29937031  0.69672197  0.49615478  1
  Hf  Hf27  1  -0.00565653  0.00106410  0.20889460  1
  Hf  Hf28  1  0.80889238  0.19021896  0.59281107  1
  Hf  Hf29  1  0.70079878  0.09643050  0.30348610  1
  Hf  Hf30  1  0.30083355  0.90011202  0.10424930  1
  Hf  Hf31  1  0.69652895  0.69698136  0.09555438  1
  Hf  Hf32  1  0.50137406  0.10703987  0.90201018  1
  Hf  Hf33  1  0.09142680  0.10947349  0.49608263  1
  Hf  Hf34  1  0.58711185  0.80719918  -0.00184299  1
  Hf  Hf35  1  0.89940744  0.89731634  0.10064649  1
  Hf  Hf36  1  0.80651616  -0.00530432  0.59633416  1
  Hf  Hf37  1  0.89840371  0.10257872  0.09626762  1
  Hf  Hf38  1  0.91678614  0.29982768  0.69038246  1
  Hf  Hf39  1  0.29418513  0.90350515  0.70430783  1
  Hf  Hf40  1  0.30047637  0.11517071  0.89199193  1
  Hf  Hf41  1  0.79946793  0.20293788  0.19579680  1
  Hf  Hf42  1  0.19960271  0.20498350  0.60250731  1
  Hf  Hf43  1  0.69036826  0.69313415  0.88823632  1
  Hf  Hf44  1  0.50201595  0.90500737  0.29871274  1
  Hf  Hf45  1  0.19440020  0.00368365  0.59936443  1
  Hf  Hf46  1  0.50016084  0.30064584  0.70041805  1
  Hf  Hf47  1  0.80853688  0.40379737  0.80203474  1
  Hf  Hf48  1  0.39937122  0.40996779  0.20388152  1
  Hf  Hf49  1  0.90282234  0.69354020  0.10419460  1
  Zr  Zr50  1  0.59849765  0.19395649  0.19766240  1
  Zr  Zr51  1  0.60785158  0.42861533  0.61128176  1
  Zr  Zr52  1  0.10923266  0.70034439  0.49739482  1
  Zr  Zr53  1  0.80457578  0.59137351  -0.01052656  1
  Zr  Zr54  1  0.59755106  0.79912101  0.19973109  1
  Zr  Zr55  1  0.01087342  0.59962449  0.60177674  1
  Zr  Zr56  1  0.10360057  0.48740969  0.90295858  1
  Zr  Zr57  1  0.79950045  0.80276321  -0.00569774  1
  Zr  Zr58  1  0.70579945  0.30343769  0.69233811  1
  Zr  Zr59  1  0.39499905  0.00546743  0.59923128  1
  Zr  Zr60  1  0.09625100  0.10890863  0.10570150  1
  Zr  Zr61  1  0.90484193  0.69714028  0.88508628  1
  Zr  Zr62  1  0.61095020  0.79790167  0.39874190  1
  Zr  Zr63  1  0.10741722  0.89295757  0.30813416  1
  Zr  Zr64  1  0.79502485  0.80697663  0.79699961  1
  Zr  Zr65  1  0.40115977  0.20333820  0.01209224  1
  Zr  Zr66  1  0.80334041  0.38651286  0.19453757  1
  Zr  Zr67  1  0.50076751  0.29941754  0.30712189  1
  Zr  Zr68  1  0.30019627  0.31287443  0.90162281  1
  Zr  Zr69  1  0.61212964  0.60436238  0.40892664  1
  Zr  Zr70  1  0.19911787  0.00246777  -0.00383973  1
  Zr  Zr71  1  0.50919918  0.09400236  0.50498523  1
  Zr  Zr72  1  0.51147942  0.30729608  0.49997264  1
  Zr  Zr73  1  0.19328103  0.79901450  0.60958763  1
  Zr  Zr74  1  -0.00651165  -0.00268119  0.40503685  1
  Zr  Zr75  1  0.29586168  0.50105977  0.89411409  1
  Zr  Zr76  1  0.09220617  0.89445452  0.88622759  1
  Zr  Zr77  1  0.29447515  0.28501119  0.29447368  1
  Zr  Zr78  1  0.38822258  0.40859096  0.40026913  1
  Zr  Zr79  1  0.30282656  0.10184019  0.29878146  1
  Zr  Zr80  1  0.80035582  0.60157802  0.40330041  1
  Zr  Zr81  1  0.78025906  0.58555715  0.59139145  1
  Zr  Zr82  1  0.30021993  0.29958714  0.71144635  1
  Zr  Zr83  1  0.80663790  0.39572807  -0.00410943  1
  Zr  Zr84  1  0.39675559  0.79711195  0.60211775  1
  Zr  Zr85  1  0.40701101  -0.00816980  0.00192101  1
  Zr  Zr86  1  0.80407559  -0.00774295  0.40542256  1
  Zr  Zr87  1  0.70354014  0.29846141  0.31936360  1
  Zr  Zr88  1  0.69078426  0.09192820  0.69488280  1
  Zr  Zr89  1  0.69982142  0.49108440  0.30449490  1
  Zr  Zr90  1  0.01024894  0.78672572  0.20182143  1
  Zr  Zr91  1  0.80436854  0.19970883  0.79666578  1
  Zr  Zr92  1  0.00184898  -0.00319693  -0.00395683  1
  Zr  Zr93  1  0.00165555  0.40267932  0.40257313  1
  Zr  Zr94  1  0.39743680  0.19937774  0.59672565  1
  Zr  Zr95  1  0.89947914  0.70490701  0.50529120  1
  Zr  Zr96  1  0.90300341  0.10619608  0.90122200  1
  Zr  Zr97  1  0.19314432  0.21126908  -0.00274886  1
  Zr  Zr98  1  0.59704644  0.40033314  0.19622390  1
  Zr  Zr99  1  0.30500315  0.90035145  0.29966359  1
  Ta  Ta100  1  0.58925382  0.59499195  0.00423328  1
  Ta  Ta101  1  0.29731712  0.10900500  0.70961436  1
  Ta  Ta102  1  0.09823110  0.30887364  0.10078004  1
  Ta  Ta103  1  0.59758749  0.19789340  0.79838490  1
  Ta  Ta104  1  0.00673668  0.59952837  0.39732075  1
  Ta  Ta105  1  0.49779240  0.69872739  0.50114429  1
  Ta  Ta106  1  0.00058203  0.00186781  0.60114867  1
  Ta  Ta107  1  0.70374324  0.08987356  0.09804341  1
  Ta  Ta108  1  0.40244797  0.79615562  0.19794458  1
  Ta  Ta109  1  0.60348994  0.19373632  0.40613845  1
  Ta  Ta110  1  0.50049460  0.89851522  0.49784353  1
  Ta  Ta111  1  0.00761377  0.79326122  -0.00168130  1
  Ta  Ta112  1  0.69374353  0.50142923  0.89456680  1
  Ta  Ta113  1  0.60257629  0.79877602  0.59246381  1
  Ta  Ta114  1  0.20134098  0.79314334  0.19800674  1
  Ta  Ta115  1  0.28937291  0.50419454  0.69837486  1
  Ta  Ta116  1  0.69950272  0.09617849  0.90491615  1
  Ta  Ta117  1  0.00224601  0.79265814  0.40041372  1
  Ta  Ta118  1  0.10321973  0.89508070  0.10149627  1
  Ta  Ta119  1  0.08765009  0.10961644  0.70206915  1
  Ta  Ta120  1  0.50210179  0.31230857  0.09340390  1
  Ta  Ta121  1  0.39975874  0.79864850  -0.00118304  1
  Ta  Ta122  1  0.19937714  0.79645175  0.00013795  1
  Ta  Ta123  1  0.80268864  -0.00141656  0.20488464  1
  Ta  Ta124  1  0.59553606  0.60062065  0.20170347  1
  Ta  Ta125  1  0.90281154  0.49535499  0.69620085  1
  Ta  Ta126  1  0.92014068  0.29868317  0.90235701  1
  Ta  Ta127  1  0.59810748  0.40297348  0.79717389  1
  Ta  Ta128  1  0.50466373  0.69618285  0.69493204  1
  Ta  Ta129  1  0.90361651  0.69403306  0.30132227  1
  Ta  Ta130  1  0.19416522  -0.00276132  0.20257672  1
  Ta  Ta131  1  0.59548271  0.00083326  0.80455181  1
  Ta  Ta132  1  0.49380985  0.69401502  0.30272485  1
  Ta  Ta133  1  0.39919479  0.60397798  0.00045858  1
  Ta  Ta134  1  0.40221859  0.00283997  0.40196770  1
  Ta  Ta135  1  0.30364243  0.70230974  0.09851001  1
  Ta  Ta136  1  0.68939143  0.90479667  0.89808474  1
  Ta  Ta137  1  0.10204422  0.69995808  0.89150627  1
  Ta  Ta138  1  0.09744386  0.49239428  0.10657436  1
  Ta  Ta139  1  0.49715040  0.30538632  0.89819078  1
  Ta  Ta140  1  0.69780922  0.90812226  0.10184164  1
  Ta  Ta141  1  0.09830311  0.50062550  0.29438640  1
  Ta  Ta142  1  0.20282253  0.00146924  0.40411624  1
  Ta  Ta143  1  0.59428023  -0.00126878  0.00537496  1
  Ta  Ta144  1  0.49329971  0.69576932  0.10286777  1
  Ta  Ta145  1  0.59549226  0.57904733  0.77812956  1
  Ta  Ta146  1  0.29705085  0.89702471  0.49130488  1
  Ta  Ta147  1  0.29703697  0.70053127  0.89636061  1
  Ta  Ta148  1  0.79348020  0.60091776  0.20374287  1
  Ta  Ta149  1  -0.00599767  0.21062672  0.20610688  1
  Ti  Ti150  1  0.00295347  0.58964880  0.79694287  1
  Ti  Ti151  1  0.79551444  0.20712883  0.00349737  1
  Ti  Ti152  1  0.89764042  0.29397763  0.31593245  1
  Ti  Ti153  1  0.10101237  0.89479222  0.50005467  1
  Ti  Ti154  1  0.40606823  0.19425992  0.40282158  1
  Ti  Ti155  1  0.90986742  0.88680762  0.50586101  1
  Ti  Ti156  1  0.70190641  0.30393301  0.50337733  1
  Ti  Ti157  1  0.90628669  0.29328400  0.50063779  1
  Ti  Ti158  1  0.39928617  0.59946557  0.20318172  1
  Ti  Ti159  1  0.89653012  0.11382569  0.31448323  1
  Ti  Ti160  1  0.19984865  0.40161876  0.20788411  1
  Ti  Ti161  1  0.39445586  0.59860135  0.60558921  1
  Ti  Ti162  1  0.80403256  0.39971643  0.41700083  1
  Ti  Ti163  1  0.79679268  -0.00558693  -0.00349576  1
  Ti  Ti164  1  0.29937668  0.70428909  0.30153696  1
  Ti  Ti165  1  0.10831457  0.50315859  0.50386367  1
  Ti  Ti166  1  0.20326783  0.40028247  0.59521593  1
  Ti  Ti167  1  0.08559713  0.11340513  0.89483228  1
  Ti  Ti168  1  0.39808640  0.59905416  0.79366214  1
  Ti  Ti169  1  0.69827388  0.90837393  0.29673459  1
  Ti  Ti170  1  0.60200004  0.19634002  0.60083991  1
  Ti  Ti171  1  0.18984721  0.60193168  0.79072779  1
  Ti  Ti172  1  0.10166526  0.29575695  0.30280838  1
  Ti  Ti173  1  0.00042608  0.39052894  0.20581497  1
  Ti  Ti174  1  0.79426672  0.79810941  0.40158381  1
  Ti  Ti175  1  0.10038310  0.49170687  0.69169326  1
  Ti  Ti176  1  0.90757841  0.89764997  0.89275556  1
  Ti  Ti177  1  0.29440504  0.69385538  0.70423573  1
  Ti  Ti178  1  0.18977563  0.39466909  0.79200774  1
  Ti  Ti179  1  0.40248520  0.79888628  0.39778690  1
  Ti  Ti180  1  0.20192645  0.59544949  0.39155415  1
  Ti  Ti181  1  0.91402762  0.29673873  0.08942698  1
  Ti  Ti182  1  0.41862439  0.00756830  0.19634896  1
  Ti  Ti183  1  0.40078641  0.40693671  0.00873171  1
  Ti  Ti184  1  0.00745914  0.39667992  0.79804756  1
  Ti  Ti185  1  0.90571081  0.49222628  0.51074823  1
  Ti  Ti186  1  0.19440943  0.79654075  0.79620367  1
  Ti  Ti187  1  0.18019416  0.21267567  0.80001574  1
  Ti  Ti188  1  0.40364562  0.40865646  0.79195308  1
  Ti  Ti189  1  0.78790651  0.80545053  0.59211967  1
  Ti  Ti190  1  0.69124798  0.89948847  0.69852389  1
  Ti  Ti191  1  0.60037822  -0.00135545  0.40227011  1
  Ti  Ti192  1  0.29437475  0.10542356  0.49218386  1
  Ti  Ti193  1  0.50332340  0.50533449  0.30639489  1
  Ti  Ti194  1  0.90088131  0.88839486  0.30424750  1
  Ti  Ti195  1  0.38881179  0.59547572  0.39243378  1
  Ti  Ti196  1  0.41830642  0.19629186  0.19714780  1
  Ti  Ti197  1  0.70050936  0.09557813  0.49818744  1
  Ti  Ti198  1  0.29466806  0.30395701  0.10654875  1
  Ti  Ti199  1  0.29424549  0.89464459  0.89959738  1
  Mo  Mo200  1  0.69944304  0.47983184  0.49424595  1
  Mo  Mo201  1  0.90324330  0.10271570  0.50161929  1
  Mo  Mo202  1  0.29090369  0.51714898  0.50390483  1
  Mo  Mo203  1  0.79992658  0.58973864  0.79502696  1
  Mo  Mo204  1  0.10037086  0.30639838  0.69834783  1
  Mo  Mo205  1  0.50235964  0.10381326  0.70399763  1
  Mo  Mo206  1  0.70014840  0.71357238  0.50313631  1
  Mo  Mo207  1  0.20313367  0.59627019  0.60829905  1
  Mo  Mo208  1  0.60501676  -0.00150365  0.19782243  1
  Mo  Mo209  1  0.10043813  0.69489648  0.30686706  1
  Mo  Mo210  1  0.50694512  0.09515683  0.10481165  1
  Mo  Mo211  1  0.00196280  0.59585357  0.20396277  1
  Mo  Mo212  1  0.69635225  0.90316801  0.50175732  1
  Mo  Mo213  1  0.91099324  0.49497357  0.88755074  1
  Mo  Mo214  1  0.00203690  0.20656439  0.00273758  1
  Mo  Mo215  1  0.47810937  0.50424297  0.69893994  1
  Mo  Mo216  1  0.71484838  0.49995545  0.70710772  1
  Mo  Mo217  1  0.29401481  0.28670935  0.49231759  1
  Mo  Mo218  1  0.20204440  0.40109536  0.01499023  1
  Mo  Mo219  1  -0.00219879  0.00861289  0.79373874  1
  Mo  Mo220  1  0.20030367  0.20306071  0.40423199  1
  Mo  Mo221  1  0.50255041  0.90021181  0.89902666  1
  Mo  Mo222  1  0.60629217  -0.00862517  0.59500466  1
  Mo  Mo223  1  0.49396684  0.50676511  0.09956214  1
  Mo  Mo224  1  0.91125887  0.09661634  0.69855221  1
  Mo  Mo225  1  0.69754816  0.29636183  0.09109957  1
  Mo  Mo226  1  0.09634584  0.90352056  0.69614635  1
  Mo  Mo227  1  0.41217958  0.20033887  0.79811351  1
  Mo  Mo228  1  0.59359620  0.40214259  -0.00596590  1
  Mo  Mo229  1  0.09715421  0.69889687  0.70930325  1
  Mo  Mo230  1  0.81001893  0.39707789  0.59328273  1
  Mo  Mo231  1  0.18825708  0.20975478  0.19968784  1
  Mo  Mo232  1  0.59455039  0.60657474  0.59937850  1
  Mo  Mo233  1  0.09779564  0.30422282  0.90042569  1
  Mo  Mo234  1  0.00489571  0.40604173  0.59903290  1
  Mo  Mo235  1  -0.00164004  0.19677046  0.59964373  1
  Mo  Mo236  1  -0.00764022  0.20590083  0.39838378  1
  Mo  Mo237  1  0.70296509  0.69590560  0.29676305  1
  Mo  Mo238  1  0.00516275  0.39867499  0.00083651  1
  Mo  Mo239  1  0.00540083  0.20570876  0.79922520  1
  Mo  Mo240  1  0.10375781  0.70154811  0.09237066  1
  Mo  Mo241  1  0.20356504  0.80063997  0.39775012  1
  Mo  Mo242  1  0.00601013  0.79172603  0.79556133  1
  Mo  Mo243  1  0.00873302  0.80466504  0.59866837  1
  Mo  Mo244  1  0.50252969  0.09649853  0.30608683  1
  Mo  Mo245  1  0.79860202  0.19910470  0.41076841  1
  Mo  Mo246  1  0.29338017  0.51064675  0.29691700  1
  Mo  Mo247  1  0.59896663  0.40166832  0.40801089  1
  Mo  Mo248  1  0.49720737  0.89752118  0.10279996  1
  Mo  Mo249  1  0.59819020  0.80671310  0.79413391  1
