# generated using pymatgen
data_HfZrTaTiMo
_symmetry_space_group_name_H-M   'P 1'
_cell_length_a   16.89140429
_cell_length_b   16.89407371
_cell_length_c   16.88098464
_cell_angle_alpha   89.96430808
_cell_angle_beta   90.00279421
_cell_angle_gamma   89.94078603
_symmetry_Int_Tables_number   1
_chemical_formula_structural   HfZrTaTiMo
_chemical_formula_sum   'Hf50 Zr50 Ta50 Ti50 Mo50'
_cell_volume   4817.23240457
_cell_formula_units_Z   50
loop_
 _symmetry_equiv_pos_site_id
 _symmetry_equiv_pos_as_xyz
  1  'x, y, z'
loop_
 _atom_site_type_symbol
 _atom_site_label
 _atom_site_symmetry_multiplicity
 _atom_site_fract_x
 _atom_site_fract_y
 _atom_site_fract_z
 _atom_site_occupancy
  Hf  Hf0  1  0.79710648  0.18958404  0.19456138  1
  Hf  Hf1  1  -0.00579100  0.60820584  0.79148759  1
  Hf  Hf2  1  0.39224463  0.20118874  0.40565542  1
  Hf  Hf3  1  0.60050716  0.60800463  0.00731626  1
  Hf  Hf4  1  0.42100001  0.00495623  0.80686980  1
  Hf  Hf5  1  0.09525379  0.10124293  0.70386022  1
  Hf  Hf6  1  0.69756704  0.89341137  0.50559223  1
  Hf  Hf7  1  0.70254495  0.89942083  0.29569033  1
  Hf  Hf8  1  -0.01119791  0.20155255  0.40567245  1
  Hf  Hf9  1  0.89072405  0.69725859  0.09995940  1
  Hf  Hf10  1  0.80089603  0.20625046  0.59488111  1
  Hf  Hf11  1  0.19891091  0.20092841  0.19931438  1
  Hf  Hf12  1  0.79862396  0.19165626  0.40501551  1
  Hf  Hf13  1  0.80058848  -0.01290918  0.80639796  1
  Hf  Hf14  1  -0.00737781  -0.00158882  0.60312532  1
  Hf  Hf15  1  0.70353874  0.89589966  0.09768352  1
  Hf  Hf16  1  0.40660221  0.40271155  0.79405437  1
  Hf  Hf17  1  0.30127324  0.50442117  0.50218510  1
  Hf  Hf18  1  0.89217524  0.49975772  0.90036121  1
  Hf  Hf19  1  -0.01022064  0.80538394  -0.00626845  1
  Hf  Hf20  1  0.30372539  0.70555948  0.89293166  1
  Hf  Hf21  1  0.89959551  0.10935801  0.71384304  1
  Hf  Hf22  1  0.20512609  0.79669491  0.39995180  1
  Hf  Hf23  1  0.70295806  0.10637456  0.70542785  1
  Hf  Hf24  1  0.00078835  0.19408020  0.19979277  1
  Hf  Hf25  1  0.09904151  0.50562277  0.10405736  1
  Hf  Hf26  1  0.29347527  0.49439114  0.69694774  1
  Hf  Hf27  1  0.19920947  0.40150916  0.20560007  1
  Hf  Hf28  1  0.19890296  0.79691242  0.59380408  1
  Hf  Hf29  1  0.09441077  0.29790465  0.88900913  1
  Hf  Hf30  1  0.49761978  0.30293253  0.10029740  1
  Hf  Hf31  1  -0.00460463  0.60297291  -0.00577025  1
  Hf  Hf32  1  0.71463184  0.10913503  0.90806737  1
  Hf  Hf33  1  0.09993332  0.09208326  0.30431433  1
  Hf  Hf34  1  0.30468502  0.89984623  0.89818150  1
  Hf  Hf35  1  -0.00045082  0.78671774  0.59551901  1
  Hf  Hf36  1  0.11172111  0.68488385  0.29866529  1
  Hf  Hf37  1  0.90024912  0.10075899  0.90505834  1
  Hf  Hf38  1  0.89886934  0.31034673  0.30087096  1
  Hf  Hf39  1  0.10108560  0.30447362  0.49618579  1
  Hf  Hf40  1  0.10332166  0.69944764  0.10050102  1
  Hf  Hf41  1  0.60906622  0.40740251  0.00138117  1
  Hf  Hf42  1  0.39038389  0.39999139  0.20802942  1
  Hf  Hf43  1  0.89877467  0.87921677  0.70958086  1
  Hf  Hf44  1  0.80316653  0.79154146  0.39538872  1
  Hf  Hf45  1  0.09202146  0.09706117  0.89983266  1
  Hf  Hf46  1  0.60881068  0.19263840  0.20255712  1
  Hf  Hf47  1  0.40194432  -0.00169370  0.39304782  1
  Hf  Hf48  1  0.60572528  0.40988738  0.20259659  1
  Hf  Hf49  1  0.20688165  0.39719666  -0.00374003  1
  Zr  Zr50  1  0.89083214  0.51061914  0.69290543  1
  Zr  Zr51  1  0.20387170  0.20418477  0.00699640  1
  Zr  Zr52  1  0.70508519  0.88161147  0.90694728  1
  Zr  Zr53  1  0.50394046  0.69987571  0.30251035  1
  Zr  Zr54  1  0.30693605  0.90192598  0.69969651  1
  Zr  Zr55  1  0.20646915  0.19690809  0.79845356  1
  Zr  Zr56  1  0.59429665  0.00055865  -0.00493750  1
  Zr  Zr57  1  0.31424352  0.09582028  0.69326827  1
  Zr  Zr58  1  0.60883860  0.40841195  0.40563639  1
  Zr  Zr59  1  0.41605381  0.80240827  0.00230612  1
  Zr  Zr60  1  0.50352631  0.30771301  0.90020036  1
  Zr  Zr61  1  -0.00049574  0.40109252  0.59456339  1
  Zr  Zr62  1  0.20516789  0.81036930  0.19554819  1
  Zr  Zr63  1  0.79421465  0.39951578  0.58901186  1
  Zr  Zr64  1  0.49984738  0.30340773  0.30809670  1
  Zr  Zr65  1  0.30130746  0.70323035  0.10268192  1
  Zr  Zr66  1  0.09381784  0.90798606  0.29986729  1
  Zr  Zr67  1  0.00562300  0.19720118  0.01595927  1
  Zr  Zr68  1  0.50474245  0.89638693  0.50121607  1
  Zr  Zr69  1  0.10414132  0.09717225  0.49852513  1
  Zr  Zr70  1  0.30324430  0.69792791  0.69847543  1
  Zr  Zr71  1  0.69937817  0.69536986  0.50232211  1
  Zr  Zr72  1  0.89484727  0.29196487  0.90060843  1
  Zr  Zr73  1  0.18889608  0.41522903  0.40628182  1
  Zr  Zr74  1  0.80230108  0.00053013  0.59754893  1
  Zr  Zr75  1  0.70079033  0.50565211  0.89423341  1
  Zr  Zr76  1  0.49651400  0.09953693  0.10167090  1
  Zr  Zr77  1  0.38784584  0.20207507  0.20990431  1
  Zr  Zr78  1  -0.00680861  0.78685905  0.40048278  1
  Zr  Zr79  1  0.20321891  0.00079591  0.00375944  1
  Zr  Zr80  1  0.49395252  0.09627865  0.50802011  1
  Zr  Zr81  1  0.50225286  0.69447348  0.49466008  1
  Zr  Zr82  1  0.70749666  0.30390115  0.30025870  1
  Zr  Zr83  1  0.20668738  0.20564514  0.59477986  1
  Zr  Zr84  1  0.40867265  0.60180269  -0.01086350  1
  Zr  Zr85  1  0.20590268  0.59540539  -0.01174151  1
  Zr  Zr86  1  0.79508667  0.39858667  0.79638890  1
  Zr  Zr87  1  0.10401376  0.71442347  0.89596501  1
  Zr  Zr88  1  0.10138779  0.90288059  0.49591187  1
  Zr  Zr89  1  0.49617552  0.50367883  0.10460993  1
  Zr  Zr90  1  0.09735602  0.48916963  0.88819054  1
  Zr  Zr91  1  0.59780439  -0.00050998  0.80506231  1
  Zr  Zr92  1  0.30084861  0.50674214  0.10446322  1
  Zr  Zr93  1  0.19484000  0.59416127  0.79412717  1
  Zr  Zr94  1  0.89300404  0.31249253  0.10185857  1
  Zr  Zr95  1  0.31032501  0.09603330  0.09686433  1
  Zr  Zr96  1  0.17934560  0.59898528  0.59320244  1
  Zr  Zr97  1  -0.02514184  0.00004334  0.41139467  1
  Zr  Zr98  1  -0.00666901  0.79737177  0.20257818  1
  Zr  Zr99  1  0.58692255  0.19567485  0.80179565  1
  Ta  Ta100  1  0.59531225  0.39959175  0.60228541  1
  Ta  Ta101  1  0.60434283  0.19951602  0.00477444  1
  Ta  Ta102  1  0.49345189  0.50860268  0.30882328  1
  Ta  Ta103  1  0.68955037  0.30284373  0.70554040  1
  Ta  Ta104  1  0.28933896  0.30628708  0.31544354  1
  Ta  Ta105  1  0.49857797  0.50141092  0.49873423  1
  Ta  Ta106  1  0.08508620  0.91395157  0.09794283  1
  Ta  Ta107  1  0.30101031  0.30600594  0.69678936  1
  Ta  Ta108  1  0.59985230  0.00372333  0.60825592  1
  Ta  Ta109  1  0.69660659  0.50407383  0.69700993  1
  Ta  Ta110  1  0.40332132  0.79451074  0.59795916  1
  Ta  Ta111  1  0.20188278  -0.00508476  0.60129818  1
  Ta  Ta112  1  0.09548038  0.30367516  0.30482856  1
  Ta  Ta113  1  0.30352672  0.30423924  0.88994890  1
  Ta  Ta114  1  0.60453217  0.00313852  0.39448804  1
  Ta  Ta115  1  0.59486601  0.20312560  0.60203003  1
  Ta  Ta116  1  0.30457754  0.69228606  0.49372132  1
  Ta  Ta117  1  0.20549997  0.00230555  0.19817924  1
  Ta  Ta118  1  0.39666664  0.79924165  0.39495750  1
  Ta  Ta119  1  0.60300900  0.80172091  0.39100114  1
  Ta  Ta120  1  0.41752587  0.79790188  0.79609478  1
  Ta  Ta121  1  0.40043115  0.61084395  0.20886237  1
  Ta  Ta122  1  0.59905196  0.60776500  0.79038059  1
  Ta  Ta123  1  0.09693066  0.90205733  0.89840743  1
  Ta  Ta124  1  0.60345891  0.00441995  0.20278563  1
  Ta  Ta125  1  0.29516155  0.51790941  0.30766391  1
  Ta  Ta126  1  0.60317283  0.19171304  0.40368955  1
  Ta  Ta127  1  0.89473741  0.09083429  0.29476094  1
  Ta  Ta128  1  0.09777083  0.89824563  0.70681142  1
  Ta  Ta129  1  0.50796699  0.89601093  0.10860236  1
  Ta  Ta130  1  0.30107891  0.08910910  0.50173499  1
  Ta  Ta131  1  0.60109124  0.59461301  0.60205704  1
  Ta  Ta132  1  0.69827184  0.88800498  0.69784176  1
  Ta  Ta133  1  0.79644172  0.58853958  0.40004664  1
  Ta  Ta134  1  -0.00308400  0.59449340  0.20389958  1
  Ta  Ta135  1  -0.00846469  0.20565705  0.59619445  1
  Ta  Ta136  1  0.70681499  0.30245423  0.09265420  1
  Ta  Ta137  1  0.60967716  0.59746060  0.20056283  1
  Ta  Ta138  1  0.50473345  0.89752362  0.69445848  1
  Ta  Ta139  1  0.40988431  0.59820971  0.60400496  1
  Ta  Ta140  1  0.89382747  0.50290184  0.10235053  1
  Ta  Ta141  1  -0.00223082  0.40357366  0.00352334  1
  Ta  Ta142  1  0.70443500  0.69956900  0.89681021  1
  Ta  Ta143  1  -0.00467479  -0.01092009  0.80598611  1
  Ta  Ta144  1  0.89089436  0.90816272  0.28911350  1
  Ta  Ta145  1  0.50041598  0.30194527  0.50091709  1
  Ta  Ta146  1  0.89874092  0.49895221  0.30055667  1
  Ta  Ta147  1  0.40335178  0.39739415  0.59671589  1
  Ta  Ta148  1  0.30189612  0.90307115  0.29903567  1
  Ta  Ta149  1  0.89109791  0.90530210  0.09560851  1
  Ti  Ti150  1  0.40056307  0.80220090  0.20166582  1
  Ti  Ti151  1  0.70485781  0.70340081  0.09898470  1
  Ti  Ti152  1  0.59762710  0.78755846  0.61025333  1
  Ti  Ti153  1  0.60127087  0.79262576  0.19730444  1
  Ti  Ti154  1  0.79414012  0.59838362  0.00363757  1
  Ti  Ti155  1  0.50120153  0.09910403  0.30003660  1
  Ti  Ti156  1  0.50804023  0.50144532  0.89171989  1
  Ti  Ti157  1  0.41113386  -0.00906411  -0.00504788  1
  Ti  Ti158  1  0.40383579  0.21053736  0.60156942  1
  Ti  Ti159  1  -0.00310632  0.40104502  0.78931261  1
  Ti  Ti160  1  0.79473834  0.00256255  0.40337736  1
  Ti  Ti161  1  0.20171153  0.80774556  0.79577152  1
  Ti  Ti162  1  0.30536710  0.90240637  0.50018770  1
  Ti  Ti163  1  0.50636872  0.49867124  0.69852968  1
  Ti  Ti164  1  0.69190827  0.29746976  0.50122740  1
  Ti  Ti165  1  0.50459661  0.89798067  0.29532280  1
  Ti  Ti166  1  0.20043245  0.00009814  0.80018264  1
  Ti  Ti167  1  0.88453543  0.71009818  0.88818257  1
  Ti  Ti168  1  0.20367698  0.81526811  0.00774510  1
  Ti  Ti169  1  0.69442750  0.09623838  0.50345054  1
  Ti  Ti170  1  0.39488311  0.40120735  0.40486098  1
  Ti  Ti171  1  0.79082163  0.00792551  0.19438427  1
  Ti  Ti172  1  0.00342416  0.60054620  0.59874502  1
  Ti  Ti173  1  0.89809869  0.29566967  0.70490829  1
  Ti  Ti174  1  0.89657812  0.08687779  0.09280807  1
  Ti  Ti175  1  0.09442515  0.71195526  0.70584479  1
  Ti  Ti176  1  0.51390351  0.70622541  0.89604687  1
  Ti  Ti177  1  0.80177017  0.79505193  0.20232325  1
  Ti  Ti178  1  0.10596586  0.30831091  0.70014058  1
  Ti  Ti179  1  0.70440032  0.69330862  0.29609751  1
  Ti  Ti180  1  0.89599256  0.68133705  0.50403404  1
  Ti  Ti181  1  0.40746313  0.20090734  0.79376332  1
  Ti  Ti182  1  0.39971057  -0.00527758  0.20334297  1
  Ti  Ti183  1  0.39348231  0.40477849  -0.00645696  1
  Ti  Ti184  1  0.79860675  0.40570257  0.40648522  1
  Ti  Ti185  1  0.78963002  0.41895132  0.19737431  1
  Ti  Ti186  1  0.88868075  0.88730135  0.50418849  1
  Ti  Ti187  1  0.80010643  0.77961406  0.60957044  1
  Ti  Ti188  1  0.60239139  0.79444026  0.79281464  1
  Ti  Ti189  1  0.70533379  0.29861876  0.90297105  1
  Ti  Ti190  1  0.20619677  0.19717407  0.40009048  1
  Ti  Ti191  1  0.90197993  0.50172408  0.49434346  1
  Ti  Ti192  1  0.00832640  0.58831836  0.40192656  1
  Ti  Ti193  1  0.00316006  0.40857053  0.20616524  1
  Ti  Ti194  1  0.60991203  0.59358555  0.39656673  1
  Ti  Ti195  1  0.09722230  0.31005420  0.10472132  1
  Ti  Ti196  1  0.89546226  0.68351566  0.29835875  1
  Ti  Ti197  1  0.31100217  0.10279554  0.90030456  1
  Ti  Ti198  1  0.41050088  0.60117923  0.79620480  1
  Ti  Ti199  1  0.39626850  0.21149777  -0.00249315  1
  Mo  Mo200  1  0.31284867  0.49551631  0.88963405  1
  Mo  Mo201  1  0.70144473  0.09158888  0.30392080  1
  Mo  Mo202  1  0.80033150  0.40269911  0.00419522  1
  Mo  Mo203  1  0.31665861  0.90499459  0.10632246  1
  Mo  Mo204  1  0.70678844  0.50629068  0.10061352  1
  Mo  Mo205  1  0.19970437  0.60338205  0.40232182  1
  Mo  Mo206  1  -0.00099519  0.79947222  0.80195721  1
  Mo  Mo207  1  -0.00975485  0.00261732  0.19584895  1
  Mo  Mo208  1  0.09741513  0.08796427  0.10836308  1
  Mo  Mo209  1  0.50720110  0.88308318  0.89691897  1
  Mo  Mo210  1  0.30532701  0.70451294  0.30218937  1
  Mo  Mo211  1  0.79980873  0.60154187  0.20473141  1
  Mo  Mo212  1  0.79691602  0.19944099  0.00713808  1
  Mo  Mo213  1  0.50829035  0.70405793  0.11337438  1
  Mo  Mo214  1  0.20317985  0.59880275  0.20486442  1
  Mo  Mo215  1  0.89789625  0.30321155  0.49576786  1
  Mo  Mo216  1  -0.00555252  0.40512016  0.39714450  1
  Mo  Mo217  1  0.21462168  -0.00099898  0.39832186  1
  Mo  Mo218  1  0.89662364  0.69529603  0.69578120  1
  Mo  Mo219  1  0.30375988  0.30461193  0.50137857  1
  Mo  Mo220  1  0.09082832  0.50296857  0.49819386  1
  Mo  Mo221  1  0.20508976  0.39397177  0.79535155  1
  Mo  Mo222  1  0.50077813  0.10086658  0.68989419  1
  Mo  Mo223  1  0.89343881  0.10420535  0.50451517  1
  Mo  Mo224  1  0.29453425  0.09591789  0.30473266  1
  Mo  Mo225  1  0.30138250  0.30367876  0.09144536  1
  Mo  Mo226  1  0.70323123  0.09778337  0.09723842  1
  Mo  Mo227  1  0.79564212  0.79227625  0.79760790  1
  Mo  Mo228  1  0.80071721  0.79309344  0.00081447  1
  Mo  Mo229  1  0.40162724  -0.01240134  0.59851304  1
  Mo  Mo230  1  0.49810294  0.30066219  0.69259075  1
  Mo  Mo231  1  0.79350411  0.60918314  0.79153099  1
  Mo  Mo232  1  0.50349532  0.69909531  0.69758661  1
  Mo  Mo233  1  0.00018519  0.20822206  0.78819942  1
  Mo  Mo234  1  0.79693046  0.59759302  0.59276708  1
  Mo  Mo235  1  0.09483279  0.48717394  0.69476626  1
  Mo  Mo236  1  0.19916147  0.39987926  0.60207218  1
  Mo  Mo237  1  0.70576446  0.50644794  0.30078076  1
  Mo  Mo238  1  0.70052872  0.69614288  0.70118749  1
  Mo  Mo239  1  0.48692127  0.11648181  0.91563400  1
  Mo  Mo240  1  0.09788235  0.69351291  0.49206036  1
  Mo  Mo241  1  0.60216758  0.79050707  0.01034088  1
  Mo  Mo242  1  0.80319500  -0.00367772  0.00377125  1
  Mo  Mo243  1  0.59939228  0.40764698  0.79333903  1
  Mo  Mo244  1  0.69569163  0.50139220  0.50331442  1
  Mo  Mo245  1  -0.00407960  -0.00337704  -0.00118458  1
  Mo  Mo246  1  0.39866612  0.60065602  0.40271319  1
  Mo  Mo247  1  0.09315733  0.50087575  0.29975376  1
  Mo  Mo248  1  0.89981874  0.89655495  0.90298086  1
  Mo  Mo249  1  0.79598290  0.21076807  0.79909567  1
