# generated using pymatgen
data_HfZrTaTiMo
_symmetry_space_group_name_H-M   'P 1'
_cell_length_a   16.89562783
_cell_length_b   16.89426350
_cell_length_c   16.88876494
_cell_angle_alpha   90.00352255
_cell_angle_beta   89.97802596
_cell_angle_gamma   90.00844067
_symmetry_Int_Tables_number   1
_chemical_formula_structural   HfZrTaTiMo
_chemical_formula_sum   'Hf50 Zr50 Ta50 Ti50 Mo50'
_cell_volume   4820.71494504
_cell_formula_units_Z   50
loop_
 _symmetry_equiv_pos_site_id
 _symmetry_equiv_pos_as_xyz
  1  'x, y, z'
loop_
 _atom_site_type_symbol
 _atom_site_label
 _atom_site_symmetry_multiplicity
 _atom_site_fract_x
 _atom_site_fract_y
 _atom_site_fract_z
 _atom_site_occupancy
  Hf  Hf0  1  0.40037302  0.19113388  0.19602204  1
  Hf  Hf1  1  0.10061300  0.30182372  0.69326905  1
  Hf  Hf2  1  0.89672789  0.50099613  0.10782586  1
  Hf  Hf3  1  0.38609546  0.19361241  0.40311369  1
  Hf  Hf4  1  0.01167212  0.79959655  0.19867620  1
  Hf  Hf5  1  0.29440055  0.30486840  0.29816916  1
  Hf  Hf6  1  0.09924911  0.90477232  0.89455400  1
  Hf  Hf7  1  0.09991186  0.70006581  0.49118854  1
  Hf  Hf8  1  0.80001194  0.38178699  -0.00143655  1
  Hf  Hf9  1  0.20333942  0.40283074  0.58695096  1
  Hf  Hf10  1  0.09902885  0.49366525  0.69787229  1
  Hf  Hf11  1  0.11331734  0.88633635  0.50766870  1
  Hf  Hf12  1  0.58583168  0.60264923  0.38587512  1
  Hf  Hf13  1  0.50313800  0.90906203  0.69334309  1
  Hf  Hf14  1  0.39781053  0.80246253  0.59424451  1
  Hf  Hf15  1  0.40071228  0.80128519  0.20301588  1
  Hf  Hf16  1  0.41145794  0.59863361  0.23313984  1
  Hf  Hf17  1  0.59860429  0.59309111  -0.00552519  1
  Hf  Hf18  1  0.30475364  0.50595563  0.11248657  1
  Hf  Hf19  1  0.79173344  0.79336752  0.59538393  1
  Hf  Hf20  1  0.79911971  0.60786375  0.59629631  1
  Hf  Hf21  1  0.60071608  0.39560226  0.80454955  1
  Hf  Hf22  1  0.79524706  0.60457242  0.40233367  1
  Hf  Hf23  1  0.30041563  0.70343109  0.69712972  1
  Hf  Hf24  1  0.49653059  0.29695636  0.89722289  1
  Hf  Hf25  1  0.49981014  0.49209072  0.69053530  1
  Hf  Hf26  1  0.20346055  0.19272795  0.20348245  1
  Hf  Hf27  1  0.60447996  0.60343994  0.79809859  1
  Hf  Hf28  1  0.00599787  0.00285296  0.59490023  1
  Hf  Hf29  1  0.89183991  0.69597482  0.10906093  1
  Hf  Hf30  1  0.00388184  0.79303775  0.00764960  1
  Hf  Hf31  1  -0.01530060  0.78786149  0.79769091  1
  Hf  Hf32  1  0.49021537  0.69659177  0.09799564  1
  Hf  Hf33  1  0.89817823  0.29518851  0.29786353  1
  Hf  Hf34  1  0.10098776  0.49478831  0.90397223  1
  Hf  Hf35  1  0.50516797  0.29614886  0.49293069  1
  Hf  Hf36  1  0.29599875  0.91141056  0.10857759  1
  Hf  Hf37  1  0.89876825  0.10917784  0.30092124  1
  Hf  Hf38  1  0.79662275  0.79714631  0.79842256  1
  Hf  Hf39  1  0.79597002  -0.00067861  0.40938244  1
  Hf  Hf40  1  -0.00563133  0.39450540  0.80511320  1
  Hf  Hf41  1  0.49798908  0.29837437  0.09838084  1
  Hf  Hf42  1  0.49124158  0.90580730  0.31006584  1
  Hf  Hf43  1  0.70121326  0.10959011  0.30062832  1
  Hf  Hf44  1  0.20351744  0.19601763  0.59161056  1
  Hf  Hf45  1  0.50156447  0.49678138  0.49761298  1
  Hf  Hf46  1  0.70730962  0.49352462  0.29475219  1
  Hf  Hf47  1  0.60070749  0.60056112  0.19807759  1
  Hf  Hf48  1  0.49691099  0.09695701  0.69341330  1
  Hf  Hf49  1  0.89422448  0.89817247  0.10390291  1
  Zr  Zr50  1  0.70008616  0.49330051  0.68937566  1
  Zr  Zr51  1  0.21343177  0.59020932  0.80869991  1
  Zr  Zr52  1  0.50232981  0.10122268  0.30928319  1
  Zr  Zr53  1  0.80017641  0.39624992  0.80051184  1
  Zr  Zr54  1  0.49378363  0.90613334  0.49848819  1
  Zr  Zr55  1  0.60426915  0.61953005  0.59147457  1
  Zr  Zr56  1  0.10016378  0.89907266  0.70248329  1
  Zr  Zr57  1  0.09741857  0.29476399  0.09509895  1
  Zr  Zr58  1  0.60129883  0.19577588  -0.00513391  1
  Zr  Zr59  1  0.20065079  0.01072354  0.41385052  1
  Zr  Zr60  1  0.89794800  0.89912627  0.89923819  1
  Zr  Zr61  1  0.39782954  0.41007542  0.39450743  1
  Zr  Zr62  1  0.89534572  0.11162066  0.10688082  1
  Zr  Zr63  1  0.20257660  0.19715360  0.79824249  1
  Zr  Zr64  1  0.69813609  0.29943149  0.30794072  1
  Zr  Zr65  1  0.11173656  0.89039821  0.30667463  1
  Zr  Zr66  1  0.00309198  0.00103087  0.00230643  1
  Zr  Zr67  1  0.20466106  0.40893385  0.00423559  1
  Zr  Zr68  1  0.19809618  0.80346736  0.01642094  1
  Zr  Zr69  1  0.90234302  0.09533217  0.69998837  1
  Zr  Zr70  1  -0.00039003  0.19831050  0.80733816  1
  Zr  Zr71  1  -0.01254733  0.60294051  0.79358416  1
  Zr  Zr72  1  0.59467041  -0.00227474  0.19433660  1
  Zr  Zr73  1  0.09632384  0.29866019  0.30436319  1
  Zr  Zr74  1  0.21036875  0.59135420  0.40343558  1
  Zr  Zr75  1  0.90398487  0.49906518  0.91153820  1
  Zr  Zr76  1  0.40934406  0.59238773  0.80128151  1
  Zr  Zr77  1  0.79357603  0.20063117  0.59560211  1
  Zr  Zr78  1  0.59917352  0.81238206  0.00567051  1
  Zr  Zr79  1  0.29478315  0.30035967  0.89800761  1
  Zr  Zr80  1  0.40264544  0.80953013  0.79660327  1
  Zr  Zr81  1  0.60513038  0.00070928  0.80919992  1
  Zr  Zr82  1  0.49922467  0.49533603  0.10066764  1
  Zr  Zr83  1  0.80148105  0.60988398  0.79342483  1
  Zr  Zr84  1  0.00280389  0.40334000  0.19380761  1
  Zr  Zr85  1  0.10822104  0.70417078  0.69433954  1
  Zr  Zr86  1  0.90888350  0.30224765  0.68091242  1
  Zr  Zr87  1  0.10483730  0.69962785  0.89905511  1
  Zr  Zr88  1  0.00399490  0.00082695  0.39937087  1
  Zr  Zr89  1  0.78993463  -0.00046578  -0.00509464  1
  Zr  Zr90  1  0.90288344  0.69362772  0.30014000  1
  Zr  Zr91  1  0.79335487  0.60255089  -0.00068500  1
  Zr  Zr92  1  0.20589570  0.59500620  0.59269047  1
  Zr  Zr93  1  0.79919992  0.21006675  0.81140194  1
  Zr  Zr94  1  0.49529444  0.09644319  0.50205155  1
  Zr  Zr95  1  0.09914224  0.10521792  0.09793461  1
  Zr  Zr96  1  0.69703821  0.48638328  0.48850931  1
  Zr  Zr97  1  0.50004137  0.70935833  0.90236598  1
  Zr  Zr98  1  0.30647252  0.70803110  0.91224191  1
  Zr  Zr99  1  0.89919362  0.89895554  0.50208735  1
  Ta  Ta100  1  0.29240349  0.90781386  0.69022431  1
  Ta  Ta101  1  0.69855946  0.70294273  0.29491220  1
  Ta  Ta102  1  0.70513877  0.90485456  0.69574140  1
  Ta  Ta103  1  0.01690072  0.59858298  0.20060460  1
  Ta  Ta104  1  0.00232760  -0.00352887  0.20320961  1
  Ta  Ta105  1  0.60379000  0.80194816  0.39990804  1
  Ta  Ta106  1  0.70161665  0.90023569  0.10263473  1
  Ta  Ta107  1  0.70302109  0.09819799  0.70026152  1
  Ta  Ta108  1  0.59621870  0.80228634  0.20184668  1
  Ta  Ta109  1  0.50653460  0.29592649  0.30196758  1
  Ta  Ta110  1  0.39649870  0.19389829  -0.00008452  1
  Ta  Ta111  1  0.19691362  0.40741348  0.19977194  1
  Ta  Ta112  1  0.61336497  -0.00118806  0.40733264  1
  Ta  Ta113  1  0.89760845  0.90497967  0.69800090  1
  Ta  Ta114  1  0.49446187  0.90887100  0.90405537  1
  Ta  Ta115  1  0.39770707  0.60050463  0.59050781  1
  Ta  Ta116  1  0.19935693  0.60026683  0.01377857  1
  Ta  Ta117  1  0.90507915  0.11049446  0.49999557  1
  Ta  Ta118  1  0.59931036  0.19921230  0.79513091  1
  Ta  Ta119  1  0.70303102  0.10212566  0.10428168  1
  Ta  Ta120  1  0.79733610  -0.00131851  0.80122281  1
  Ta  Ta121  1  0.59569521  0.00295759  0.00295618  1
  Ta  Ta122  1  0.90297483  0.49531682  0.49151918  1
  Ta  Ta123  1  0.61948352  0.00314478  0.59134758  1
  Ta  Ta124  1  0.79239500  0.80271748  0.20484572  1
  Ta  Ta125  1  0.19685378  0.19557920  0.40443969  1
  Ta  Ta126  1  0.90761993  0.30322443  0.49076013  1
  Ta  Ta127  1  0.60373860  0.19815324  0.59892286  1
  Ta  Ta128  1  0.30013558  0.29933651  0.09948883  1
  Ta  Ta129  1  -0.00505864  0.59875247  0.59326638  1
  Ta  Ta130  1  0.30518485  0.48882863  0.69910747  1
  Ta  Ta131  1  0.10167550  0.09612941  0.69772431  1
  Ta  Ta132  1  0.39939363  0.19513846  0.79567978  1
  Ta  Ta133  1  0.10036126  0.30135192  0.90736010  1
  Ta  Ta134  1  0.20089682  0.00381623  0.80115540  1
  Ta  Ta135  1  0.30067857  0.09376374  0.69640032  1
  Ta  Ta136  1  0.70039717  0.71189663  0.90448113  1
  Ta  Ta137  1  0.49484451  0.29715641  0.69606428  1
  Ta  Ta138  1  0.39093885  0.20421634  0.60077986  1
  Ta  Ta139  1  -0.00823407  0.79146235  0.60149404  1
  Ta  Ta140  1  0.30134450  0.90021160  0.31055715  1
  Ta  Ta141  1  0.30043955  0.09574527  0.90280076  1
  Ta  Ta142  1  0.79237940  0.79999924  0.39950058  1
  Ta  Ta143  1  0.30189116  0.91254053  0.90448629  1
  Ta  Ta144  1  0.79764899  -0.00270176  0.20609072  1
  Ta  Ta145  1  0.39971171  0.40226874  -0.00436110  1
  Ta  Ta146  1  0.60273019  0.39353126  0.19674479  1
  Ta  Ta147  1  0.89799855  0.50210116  0.30036721  1
  Ta  Ta148  1  0.09175896  0.30066675  0.49465978  1
  Ta  Ta149  1  0.00968790  0.60161565  0.01351350  1
  Ti  Ti150  1  0.70590921  0.28577042  0.10132736  1
  Ti  Ti151  1  0.29387712  0.30604794  0.48966393  1
  Ti  Ti152  1  0.89934592  0.09912329  0.90141313  1
  Ti  Ti153  1  0.69878843  0.89965090  0.29981754  1
  Ti  Ti154  1  0.79481665  0.20504430  0.41213727  1
  Ti  Ti155  1  0.79850225  0.39164363  0.58482038  1
  Ti  Ti156  1  0.50283434  0.70574055  0.69548623  1
  Ti  Ti157  1  0.40842382  0.00539990  0.00888471  1
  Ti  Ti158  1  0.69489947  0.29645610  0.69809363  1
  Ti  Ti159  1  0.60529086  0.80653249  0.79767597  1
  Ti  Ti160  1  0.20316706  0.79214018  0.20281449  1
  Ti  Ti161  1  -0.01366510  0.20992667  -0.00274162  1
  Ti  Ti162  1  0.30249890  0.30559894  0.70347880  1
  Ti  Ti163  1  0.10266107  0.10383557  0.90252433  1
  Ti  Ti164  1  0.60568197  0.39718296  -0.00162693  1
  Ti  Ti165  1  0.39535355  0.58435317  -0.01228855  1
  Ti  Ti166  1  0.20957900  0.80772459  0.80324417  1
  Ti  Ti167  1  0.39469724  0.39577495  0.59380361  1
  Ti  Ti168  1  0.59672615  0.19816478  0.19448304  1
  Ti  Ti169  1  0.08959644  0.10820273  0.30103961  1
  Ti  Ti170  1  0.80002433  0.38919759  0.19354822  1
  Ti  Ti171  1  0.39423058  0.00159284  0.79915485  1
  Ti  Ti172  1  0.40377372  0.39810486  0.20380071  1
  Ti  Ti173  1  0.29212836  0.49685791  0.30108650  1
  Ti  Ti174  1  0.60447778  0.38552967  0.59482296  1
  Ti  Ti175  1  0.60667050  0.80215287  0.59179033  1
  Ti  Ti176  1  0.49229937  0.09916662  0.89774953  1
  Ti  Ti177  1  0.09022874  0.49590110  0.49095801  1
  Ti  Ti178  1  0.30208952  0.08551194  0.30162297  1
  Ti  Ti179  1  0.70358842  0.10557242  0.90040940  1
  Ti  Ti180  1  -0.00112491  0.40508756  0.39432289  1
  Ti  Ti181  1  0.10357273  0.50268746  0.30333355  1
  Ti  Ti182  1  0.19024347  0.00087293  0.20404358  1
  Ti  Ti183  1  0.70457842  0.49601586  0.10288587  1
  Ti  Ti184  1  0.40414319  0.00458217  0.19379426  1
  Ti  Ti185  1  0.30067774  0.71052967  0.49220992  1
  Ti  Ti186  1  0.48943580  0.70532983  0.48423201  1
  Ti  Ti187  1  0.10913391  0.69364760  0.30531425  1
  Ti  Ti188  1  0.39818524  0.40354153  0.80569890  1
  Ti  Ti189  1  0.90167678  0.49306531  0.68198725  1
  Ti  Ti190  1  -0.00200619  0.79823404  0.39660134  1
  Ti  Ti191  1  0.89785729  0.89803252  0.29967734  1
  Ti  Ti192  1  0.70182717  0.70643905  0.10255602  1
  Ti  Ti193  1  0.70097806  0.49641108  0.89935154  1
  Ti  Ti194  1  0.30362307  0.70599985  0.31195065  1
  Ti  Ti195  1  0.29543414  0.10018872  0.09208299  1
  Ti  Ti196  1  0.39996241  0.81572469  0.01040654  1
  Ti  Ti197  1  0.90740620  0.69600337  0.49173762  1
  Ti  Ti198  1  0.30215276  0.69107714  0.10999023  1
  Ti  Ti199  1  0.19599115  0.00164417  0.00068685  1
  Mo  Mo200  1  0.39772880  0.80024106  0.39983849  1
  Mo  Mo201  1  0.80145760  0.00043602  0.60400014  1
  Mo  Mo202  1  0.50325582  0.71733173  0.30238303  1
  Mo  Mo203  1  0.50041631  0.48932471  0.90163888  1
  Mo  Mo204  1  0.79132595  0.60311207  0.20152838  1
  Mo  Mo205  1  0.29856436  0.09864168  0.50736947  1
  Mo  Mo206  1  0.29914605  0.90167571  0.50180792  1
  Mo  Mo207  1  0.20906112  0.79440446  0.39879774  1
  Mo  Mo208  1  0.69882909  0.29762877  0.49841365  1
  Mo  Mo209  1  0.11004712  0.69481262  0.11183016  1
  Mo  Mo210  1  0.19441374  0.39997780  0.39880571  1
  Mo  Mo211  1  0.70336897  0.10246222  0.50067753  1
  Mo  Mo212  1  0.20730794  0.79915413  0.59614634  1
  Mo  Mo213  1  0.00159070  0.59291675  0.39486493  1
  Mo  Mo214  1  0.69180832  0.70430729  0.48684506  1
  Mo  Mo215  1  0.30207186  0.49746533  0.89980985  1
  Mo  Mo216  1  0.20849681  0.19492627  -0.00132263  1
  Mo  Mo217  1  0.49924595  0.10062700  0.09393531  1
  Mo  Mo218  1  0.39971756  0.60420674  0.40510051  1
  Mo  Mo219  1  0.89791942  0.29714958  0.10310031  1
  Mo  Mo220  1  0.10426070  0.50483857  0.10481212  1
  Mo  Mo221  1  0.00144102  0.40575976  0.58649981  1
  Mo  Mo222  1  0.38696243  -0.00109129  0.40386293  1
  Mo  Mo223  1  0.79545460  0.20171769  0.19594416  1
  Mo  Mo224  1  0.10652112  0.90559974  0.11154826  1
  Mo  Mo225  1  0.69130896  0.71339845  0.70572965  1
  Mo  Mo226  1  -0.00151172  0.19763159  0.20311358  1
  Mo  Mo227  1  0.69412752  0.29490509  0.90066293  1
  Mo  Mo228  1  0.00569897  0.19982849  0.59240096  1
  Mo  Mo229  1  0.59843323  0.39584565  0.39312420  1
  Mo  Mo230  1  0.80968420  0.39876009  0.39883301  1
  Mo  Mo231  1  0.19893768  0.00310425  0.60496224  1
  Mo  Mo232  1  0.90559183  0.30021883  0.91112765  1
  Mo  Mo233  1  0.51073701  0.48102447  0.29753840  1
  Mo  Mo234  1  0.20188915  0.39743646  0.79542623  1
  Mo  Mo235  1  0.79424381  0.79785863  0.00402841  1
  Mo  Mo236  1  0.09698680  0.11061207  0.50315368  1
  Mo  Mo237  1  0.49386480  0.90611553  0.10035918  1
  Mo  Mo238  1  0.69910040  0.89728257  0.50097175  1
  Mo  Mo239  1  0.00070755  0.00598634  0.79975852  1
  Mo  Mo240  1  0.20462566  0.60233466  0.20915686  1
  Mo  Mo241  1  0.38726572  0.00202150  0.59794868  1
  Mo  Mo242  1  0.89606292  0.70000436  0.68178885  1
  Mo  Mo243  1  0.00092217  0.20031867  0.40250529  1
  Mo  Mo244  1  0.60420573  0.19792691  0.40946922  1
  Mo  Mo245  1  0.89340304  0.70212033  0.92193134  1
  Mo  Mo246  1  0.79845138  0.19771269  -0.00020766  1
  Mo  Mo247  1  0.30997674  0.49623542  0.50322945  1
  Mo  Mo248  1  0.69427161  0.90021071  0.89882144  1
  Mo  Mo249  1  -0.00065911  0.39833470  0.00145100  1
