# generated using pymatgen
data_HfZrTaTiMo
_symmetry_space_group_name_H-M   'P 1'
_cell_length_a   16.89121910
_cell_length_b   16.89438081
_cell_length_c   16.88758460
_cell_angle_alpha   90.02008134
_cell_angle_beta   90.04509584
_cell_angle_gamma   89.96139575
_symmetry_Int_Tables_number   1
_chemical_formula_structural   HfZrTaTiMo
_chemical_formula_sum   'Hf50 Zr50 Ta50 Ti50 Mo50'
_cell_volume   4819.15120053
_cell_formula_units_Z   50
loop_
 _symmetry_equiv_pos_site_id
 _symmetry_equiv_pos_as_xyz
  1  'x, y, z'
loop_
 _atom_site_type_symbol
 _atom_site_label
 _atom_site_symmetry_multiplicity
 _atom_site_fract_x
 _atom_site_fract_y
 _atom_site_fract_z
 _atom_site_occupancy
  Hf  Hf0  1  0.50568624  0.29157910  0.89440303  1
  Hf  Hf1  1  0.89271476  0.49572644  0.50677342  1
  Hf  Hf2  1  0.89277333  0.90357768  0.69818340  1
  Hf  Hf3  1  0.90062610  0.70298320  0.49614125  1
  Hf  Hf4  1  0.49125279  0.69508951  0.48624498  1
  Hf  Hf5  1  0.60371366  0.59285239  0.80032952  1
  Hf  Hf6  1  0.19366995  0.00762519  0.39808431  1
  Hf  Hf7  1  0.21177438  0.40288247  0.20226662  1
  Hf  Hf8  1  0.40198527  0.40367901  0.80381939  1
  Hf  Hf9  1  0.69503059  0.10447152  0.29283194  1
  Hf  Hf10  1  0.10301594  0.50085308  0.09956350  1
  Hf  Hf11  1  0.10260071  0.49743826  0.90430310  1
  Hf  Hf12  1  0.30623281  0.49768961  0.69933943  1
  Hf  Hf13  1  -0.00169230  0.60589455  0.60679147  1
  Hf  Hf14  1  0.40548202  0.80638330  0.80709593  1
  Hf  Hf15  1  0.80228516  0.59037521  0.20105830  1
  Hf  Hf16  1  0.78887808  -0.00099061  0.81488446  1
  Hf  Hf17  1  0.80390102  0.79683877  0.19876602  1
  Hf  Hf18  1  0.50526918  0.29350569  0.69210004  1
  Hf  Hf19  1  0.10957506  0.30211422  0.09249273  1
  Hf  Hf20  1  0.89806762  0.90349521  0.50432238  1
  Hf  Hf21  1  0.69421634  0.90725371  0.69872601  1
  Hf  Hf22  1  0.21476237  0.59784336  0.21084373  1
  Hf  Hf23  1  0.79957075  -0.00623430  0.00296133  1
  Hf  Hf24  1  0.59803581  0.39895392  0.19172400  1
  Hf  Hf25  1  0.29191998  0.90504621  0.70076161  1
  Hf  Hf26  1  0.09935472  0.89320011  0.89907763  1
  Hf  Hf27  1  0.41240349  0.80420671  0.00317377  1
  Hf  Hf28  1  0.59740905  0.80082868  0.59638036  1
  Hf  Hf29  1  0.10809358  0.51500840  0.49298855  1
  Hf  Hf30  1  0.30793735  0.09804668  0.29201856  1
  Hf  Hf31  1  0.29844946  0.09888154  0.09869192  1
  Hf  Hf32  1  0.00353017  0.79985505  0.61390746  1
  Hf  Hf33  1  0.20679501  0.61676096  0.61143214  1
  Hf  Hf34  1  0.50397375  0.50293708  0.49892383  1
  Hf  Hf35  1  0.40660433  0.39751945  0.00407502  1
  Hf  Hf36  1  0.00545203  0.39367238  0.60690960  1
  Hf  Hf37  1  0.79688928  0.40357998  0.81142370  1
  Hf  Hf38  1  0.80019749  0.00000133  0.40122839  1
  Hf  Hf39  1  0.18935767  0.81160033  0.38763982  1
  Hf  Hf40  1  0.09925097  0.91082701  0.51687657  1
  Hf  Hf41  1  0.50200852  0.69970254  0.70606349  1
  Hf  Hf42  1  0.39260827  0.79670401  0.60688439  1
  Hf  Hf43  1  0.39613251  0.00916331  0.80875127  1
  Hf  Hf44  1  0.59744529  0.80242764  0.00109942  1
  Hf  Hf45  1  0.30432997  0.28822289  0.29783019  1
  Hf  Hf46  1  0.60207028  0.81023584  0.81140760  1
  Hf  Hf47  1  0.58489511  0.80014908  0.38432891  1
  Hf  Hf48  1  0.10272622  0.29429513  0.29824126  1
  Hf  Hf49  1  0.50932801  0.51463735  0.29952956  1
  Zr  Zr50  1  0.30774579  0.28743120  0.69600862  1
  Zr  Zr51  1  0.19512334  0.00901643  0.79702279  1
  Zr  Zr52  1  0.90431546  0.09619274  0.29404620  1
  Zr  Zr53  1  0.00448711  0.20611054  0.79541342  1
  Zr  Zr54  1  0.00343424  0.00151956  0.79626167  1
  Zr  Zr55  1  0.78733602  0.21001067  0.80803377  1
  Zr  Zr56  1  0.80073698  0.80175915  -0.00267153  1
  Zr  Zr57  1  0.31170789  0.90244735  0.29825623  1
  Zr  Zr58  1  0.70856704  0.29903771  0.09928420  1
  Zr  Zr59  1  0.88957479  0.10431683  0.69521975  1
  Zr  Zr60  1  0.40872400  0.39533143  0.19722078  1
  Zr  Zr61  1  0.80207183  0.60163164  0.39130147  1
  Zr  Zr62  1  0.09905768  0.50202085  0.70747758  1
  Zr  Zr63  1  0.68534345  0.10087723  0.70250735  1
  Zr  Zr64  1  0.90797887  0.69632044  0.10678001  1
  Zr  Zr65  1  0.48485005  0.90510474  0.49566550  1
  Zr  Zr66  1  -0.00701980  0.40213925  0.20186115  1
  Zr  Zr67  1  0.30629711  0.70811478  0.10771137  1
  Zr  Zr68  1  0.29609547  0.70683640  0.48801939  1
  Zr  Zr69  1  0.09858220  0.69554871  0.10336136  1
  Zr  Zr70  1  0.69530687  0.30456407  0.50563922  1
  Zr  Zr71  1  0.69931333  0.29892567  0.30053504  1
  Zr  Zr72  1  0.20500420  0.39784510  0.59916201  1
  Zr  Zr73  1  0.10957937  0.27278956  0.52349403  1
  Zr  Zr74  1  0.40026963  0.40006325  0.39666531  1
  Zr  Zr75  1  0.29554369  0.70860824  0.90488859  1
  Zr  Zr76  1  0.59429404  -0.01123092  0.19526503  1
  Zr  Zr77  1  0.09913228  0.70130009  0.49170669  1
  Zr  Zr78  1  0.19314901  -0.00113952  0.00348818  1
  Zr  Zr79  1  0.29566889  0.29525008  0.90579710  1
  Zr  Zr80  1  0.10363480  0.30161266  0.90955307  1
  Zr  Zr81  1  0.40347850  -0.00263130  -0.00653308  1
  Zr  Zr82  1  0.50105980  0.10443885  0.50137886  1
  Zr  Zr83  1  0.00567952  0.19367095  0.40279346  1
  Zr  Zr84  1  0.09255517  0.69359019  0.29831836  1
  Zr  Zr85  1  0.70129752  0.89312845  0.29659995  1
  Zr  Zr86  1  0.00041739  0.39781776  0.40324051  1
  Zr  Zr87  1  0.59957697  0.00347003  0.39974846  1
  Zr  Zr88  1  -0.00703742  0.80241647  0.00097886  1
  Zr  Zr89  1  0.79495179  0.19164993  0.40924192  1
  Zr  Zr90  1  0.89253606  0.50722130  0.70765589  1
  Zr  Zr91  1  0.80480089  0.58882677  0.00180429  1
  Zr  Zr92  1  0.51019614  0.09813641  0.08756437  1
  Zr  Zr93  1  0.21018666  0.60033506  0.80560859  1
  Zr  Zr94  1  0.60509060  0.60622861  0.59932467  1
  Zr  Zr95  1  0.09678025  0.10328674  0.66883409  1
  Zr  Zr96  1  0.60958629  0.39570921  0.80172421  1
  Zr  Zr97  1  0.38208152  0.01991621  0.60221716  1
  Zr  Zr98  1  0.20832619  0.39949715  0.40179441  1
  Zr  Zr99  1  0.78859270  0.79177063  0.59570794  1
  Ta  Ta100  1  0.90154334  0.10333385  0.90764338  1
  Ta  Ta101  1  0.69209762  0.69067733  0.09989639  1
  Ta  Ta102  1  0.89298129  0.29557392  0.50957372  1
  Ta  Ta103  1  0.80493891  0.19488643  0.19228656  1
  Ta  Ta104  1  0.29627350  0.90454309  0.49736090  1
  Ta  Ta105  1  0.39978975  0.19511104  -0.00436619  1
  Ta  Ta106  1  0.30418482  0.51301180  0.49699336  1
  Ta  Ta107  1  0.00707802  0.00064444  0.39724447  1
  Ta  Ta108  1  0.70193914  0.69397615  0.90213034  1
  Ta  Ta109  1  0.69748955  0.49734928  0.49801571  1
  Ta  Ta110  1  -0.00300572  0.20182040  0.00464640  1
  Ta  Ta111  1  -0.00415313  0.39751733  0.80528505  1
  Ta  Ta112  1  0.91044529  0.09810925  0.51223010  1
  Ta  Ta113  1  0.49835758  0.10991977  0.70527670  1
  Ta  Ta114  1  0.90427768  0.09546706  0.09577624  1
  Ta  Ta115  1  0.68488858  0.69334750  0.28952029  1
  Ta  Ta116  1  0.89731795  0.29881077  0.90688860  1
  Ta  Ta117  1  0.29193994  0.89781681  0.90496071  1
  Ta  Ta118  1  0.89061970  0.30345126  0.69521962  1
  Ta  Ta119  1  0.30243336  0.89964163  0.10640005  1
  Ta  Ta120  1  0.20722643  0.59765119  0.00100762  1
  Ta  Ta121  1  0.19542567  0.19129329  0.19624075  1
  Ta  Ta122  1  0.89457029  0.29505682  0.29875197  1
  Ta  Ta123  1  0.50427241  0.91840759  0.69929642  1
  Ta  Ta124  1  0.40202138  0.59813439  0.80436749  1
  Ta  Ta125  1  0.59453641  0.20237512  0.19433412  1
  Ta  Ta126  1  0.68860002  0.10478804  0.90803532  1
  Ta  Ta127  1  0.30831018  0.50277881  0.09707280  1
  Ta  Ta128  1  0.40228074  0.60125328  -0.00202789  1
  Ta  Ta129  1  -0.01404921  0.40317146  0.00215355  1
  Ta  Ta130  1  0.60517205  0.40323554  0.00161860  1
  Ta  Ta131  1  0.69584333  0.49927307  0.30113891  1
  Ta  Ta132  1  0.50317281  0.50309573  0.90533800  1
  Ta  Ta133  1  0.19032165  0.81216666  0.19866106  1
  Ta  Ta134  1  -0.00526265  0.81032653  0.39138355  1
  Ta  Ta135  1  0.18703846  -0.00146246  0.20171654  1
  Ta  Ta136  1  0.70119664  0.09981153  0.09566469  1
  Ta  Ta137  1  0.41053858  0.20366070  0.18806446  1
  Ta  Ta138  1  0.19944619  0.39284083  0.79967199  1
  Ta  Ta139  1  0.50454797  0.29756001  0.50080060  1
  Ta  Ta140  1  0.70406990  0.49426705  0.68752881  1
  Ta  Ta141  1  0.80287344  -0.00298055  0.19038333  1
  Ta  Ta142  1  0.00074795  0.19818802  0.19402615  1
  Ta  Ta143  1  0.50770607  0.51149195  0.09465195  1
  Ta  Ta144  1  -0.00585082  0.59058207  -0.00357331  1
  Ta  Ta145  1  0.19902379  0.19503133  0.79872413  1
  Ta  Ta146  1  0.09497378  0.69610373  0.90301476  1
  Ta  Ta147  1  0.89100935  0.69780436  0.71482725  1
  Ta  Ta148  1  0.39805837  0.60344211  0.60653988  1
  Ta  Ta149  1  0.80166914  0.40043980  0.39781370  1
  Ti  Ti150  1  0.50601591  0.28934661  0.30691342  1
  Ti  Ti151  1  0.40339470  0.60262579  0.20047719  1
  Ti  Ti152  1  0.69720252  0.50447692  0.90879166  1
  Ti  Ti153  1  0.80441297  0.40524375  0.19970356  1
  Ti  Ti154  1  0.50429444  0.49606616  0.69421473  1
  Ti  Ti155  1  0.90582830  0.90726061  0.90180190  1
  Ti  Ti156  1  0.70909970  0.69639296  0.71499123  1
  Ti  Ti157  1  0.60027497  0.40017206  0.39849505  1
  Ti  Ti158  1  0.10500886  0.50307557  0.30619086  1
  Ti  Ti159  1  0.29601049  0.29409943  0.09373248  1
  Ti  Ti160  1  0.42453760  0.80537750  0.20470091  1
  Ti  Ti161  1  0.40267795  0.40074778  0.59246048  1
  Ti  Ti162  1  0.08558858  0.90765422  0.10235591  1
  Ti  Ti163  1  0.51241432  0.10572772  0.89153832  1
  Ti  Ti164  1  0.78493164  0.01100807  0.58974030  1
  Ti  Ti165  1  0.89860477  0.68719153  0.88961797  1
  Ti  Ti166  1  0.19597230  0.79902982  0.61293601  1
  Ti  Ti167  1  0.41118100  -0.00277525  0.19402537  1
  Ti  Ti168  1  0.40439682  0.19519617  0.40076533  1
  Ti  Ti169  1  0.31162351  0.28663144  0.50097947  1
  Ti  Ti170  1  0.09183899  0.09881721  0.09872807  1
  Ti  Ti171  1  0.89865154  0.29702353  0.10054377  1
  Ti  Ti172  1  0.70015260  0.30267970  0.68818724  1
  Ti  Ti173  1  0.60520569  0.19445924  0.59334296  1
  Ti  Ti174  1  0.49830835  0.10177935  0.29931353  1
  Ti  Ti175  1  0.69700475  0.89346340  0.10143499  1
  Ti  Ti176  1  -0.00085416  0.81036035  0.20635167  1
  Ti  Ti177  1  0.30760144  0.71380713  0.29798698  1
  Ti  Ti178  1  0.39073420  0.60253286  0.38519115  1
  Ti  Ti179  1  0.60229899  -0.01399380  -0.01068216  1
  Ti  Ti180  1  -0.00602091  0.79923426  0.80219778  1
  Ti  Ti181  1  0.90348273  0.90519017  0.29437352  1
  Ti  Ti182  1  0.80263288  0.79596715  0.39022059  1
  Ti  Ti183  1  0.19556167  0.80189749  0.01115909  1
  Ti  Ti184  1  0.80184319  0.19833855  0.00077640  1
  Ti  Ti185  1  0.19686298  0.79750882  0.79351749  1
  Ti  Ti186  1  -0.01319417  0.58655459  0.20947787  1
  Ti  Ti187  1  0.08973680  0.69714440  0.72139983  1
  Ti  Ti188  1  -0.01426167  0.59646169  0.38747037  1
  Ti  Ti189  1  0.23572127  0.16387117  0.58912960  1
  Ti  Ti190  1  0.09578338  0.10479919  0.91188531  1
  Ti  Ti191  1  0.69307267  0.69678775  0.48181017  1
  Ti  Ti192  1  0.51114071  0.69357605  0.10949228  1
  Ti  Ti193  1  0.69389234  0.90205939  0.49895870  1
  Ti  Ti194  1  0.79386405  0.60572012  0.59889788  1
  Ti  Ti195  1  0.79747393  0.80402986  0.81205077  1
  Ti  Ti196  1  0.80103204  0.40445693  0.00230137  1
  Ti  Ti197  1  0.19976854  0.18891980  0.39877107  1
  Ti  Ti198  1  0.50791119  0.68931104  0.90507655  1
  Ti  Ti199  1  0.60351273  0.21032269  0.00131328  1
  Mo  Mo200  1  0.29050473  0.10645347  0.90563937  1
  Mo  Mo201  1  -0.01411358  0.20489355  0.60080864  1
  Mo  Mo202  1  0.69850704  0.90047624  0.90216191  1
  Mo  Mo203  1  -0.00413682  0.60201380  0.80986474  1
  Mo  Mo204  1  0.60329647  0.59659770  0.19561075  1
  Mo  Mo205  1  0.40065181  0.19462971  0.80455034  1
  Mo  Mo206  1  0.59888728  0.40329106  0.59794924  1
  Mo  Mo207  1  0.30602641  0.49785418  0.90531536  1
  Mo  Mo208  1  0.59341427  0.00415014  0.80602485  1
  Mo  Mo209  1  0.49408568  0.69825253  0.29239221  1
  Mo  Mo210  1  0.09014280  0.90605690  0.29257063  1
  Mo  Mo211  1  -0.00322102  0.00579807  -0.00130243  1
  Mo  Mo212  1  0.59817393  0.79277124  0.19313988  1
  Mo  Mo213  1  0.90397494  0.90565399  0.10669002  1
  Mo  Mo214  1  0.40075393  0.00106507  0.39316368  1
  Mo  Mo215  1  0.50323567  0.29572070  0.08976318  1
  Mo  Mo216  1  0.70049110  0.49559875  0.10078739  1
  Mo  Mo217  1  0.30672831  0.09705805  0.47441220  1
  Mo  Mo218  1  0.21400608  0.59971761  0.38883762  1
  Mo  Mo219  1  0.79738379  0.40109145  0.59906317  1
  Mo  Mo220  1  0.50183723  0.90909968  0.89794563  1
  Mo  Mo221  1  0.60457114  0.60096054  0.39689322  1
  Mo  Mo222  1  0.09949596  0.30000656  0.70943664  1
  Mo  Mo223  1  0.60016862  0.60061185  -0.00051386  1
  Mo  Mo224  1  0.69812508  0.10125952  0.50300420  1
  Mo  Mo225  1  0.39530149  0.80160314  0.39337727  1
  Mo  Mo226  1  0.49648089  0.90224153  0.29577108  1
  Mo  Mo227  1  0.90096081  0.49388259  0.90168245  1
  Mo  Mo228  1  0.79208278  0.59872129  0.80414707  1
  Mo  Mo229  1  0.79531992  0.20184543  0.60151499  1
  Mo  Mo230  1  0.21368670  0.41189034  0.00243362  1
  Mo  Mo231  1  0.40429066  0.20282078  0.59368466  1
  Mo  Mo232  1  0.59735325  0.00010579  0.60110941  1
  Mo  Mo233  1  0.60073909  0.20052984  0.80129619  1
  Mo  Mo234  1  0.30239388  0.10502933  0.71620068  1
  Mo  Mo235  1  0.10033261  0.89105327  0.70427089  1
  Mo  Mo236  1  -0.00113967  0.00083922  0.19504918  1
  Mo  Mo237  1  0.10230679  0.09661376  0.49645412  1
  Mo  Mo238  1  0.59329472  0.20198102  0.39522502  1
  Mo  Mo239  1  0.30802290  0.70479979  0.70765915  1
  Mo  Mo240  1  0.49971850  0.89801588  0.09848392  1
  Mo  Mo241  1  0.10015641  0.10106678  0.29057059  1
  Mo  Mo242  1  -0.00601469  -0.00298681  0.59952193  1
  Mo  Mo243  1  0.70334978  0.29888005  0.91364824  1
  Mo  Mo244  1  0.90061171  0.49283056  0.10209617  1
  Mo  Mo245  1  0.19716692  0.18980206  0.00281795  1
  Mo  Mo246  1  0.89297596  0.48761092  0.30278201  1
  Mo  Mo247  1  0.31052924  0.50208251  0.29755409  1
  Mo  Mo248  1  0.20464109  -0.00192192  0.59569593  1
  Mo  Mo249  1  0.90263756  0.70892896  0.30075126  1
