# generated using pymatgen
data_HfZrTaTiMo
_symmetry_space_group_name_H-M   'P 1'
_cell_length_a   16.89367344
_cell_length_b   16.88494533
_cell_length_c   16.89026564
_cell_angle_alpha   90.00625437
_cell_angle_beta   90.04504460
_cell_angle_gamma   89.94387533
_symmetry_Int_Tables_number   1
_chemical_formula_structural   HfZrTaTiMo
_chemical_formula_sum   'Hf50 Zr50 Ta50 Ti50 Mo50'
_cell_volume   4817.92337593
_cell_formula_units_Z   50
loop_
 _symmetry_equiv_pos_site_id
 _symmetry_equiv_pos_as_xyz
  1  'x, y, z'
loop_
 _atom_site_type_symbol
 _atom_site_label
 _atom_site_symmetry_multiplicity
 _atom_site_fract_x
 _atom_site_fract_y
 _atom_site_fract_z
 _atom_site_occupancy
  Hf  Hf0  1  0.48874062  0.89498637  0.10022527  1
  Hf  Hf1  1  0.20145745  -0.00268664  0.60543029  1
  Hf  Hf2  1  0.40486366  0.19788353  -0.00389005  1
  Hf  Hf3  1  0.30671198  0.30531861  0.69149615  1
  Hf  Hf4  1  0.60153586  -0.00152529  0.59486580  1
  Hf  Hf5  1  0.39714629  0.39868354  0.40318865  1
  Hf  Hf6  1  0.49134792  0.90602300  0.90168951  1
  Hf  Hf7  1  -0.00338454  0.80686361  0.60390240  1
  Hf  Hf8  1  0.51307269  0.70725127  0.68992182  1
  Hf  Hf9  1  0.27356553  0.90393368  0.88203361  1
  Hf  Hf10  1  0.00205764  -0.00376794  0.39950292  1
  Hf  Hf11  1  0.70137753  0.50894502  0.68938187  1
  Hf  Hf12  1  0.49519530  0.09578500  0.49113467  1
  Hf  Hf13  1  0.20216782  0.59930902  0.20395124  1
  Hf  Hf14  1  0.41885528  0.19790886  0.80347025  1
  Hf  Hf15  1  0.49766766  0.70081515  0.10586504  1
  Hf  Hf16  1  0.59759312  0.20248893  0.59264169  1
  Hf  Hf17  1  0.89323935  0.30198554  0.48997453  1
  Hf  Hf18  1  0.70426466  0.90283697  0.69441924  1
  Hf  Hf19  1  0.80664419  0.41233649  0.59327326  1
  Hf  Hf20  1  0.71027211  0.10379992  0.10278492  1
  Hf  Hf21  1  0.08486314  0.28878728  0.90209084  1
  Hf  Hf22  1  0.18245601  0.80264256  0.21415233  1
  Hf  Hf23  1  0.41529651  0.59301034  0.78840205  1
  Hf  Hf24  1  -0.00178602  0.60040436  0.21196916  1
  Hf  Hf25  1  0.09651388  0.69824063  0.70217792  1
  Hf  Hf26  1  -0.00413954  0.59792779  0.80692924  1
  Hf  Hf27  1  0.19908968  0.20779702  0.19865679  1
  Hf  Hf28  1  0.89979129  0.10311809  0.29518628  1
  Hf  Hf29  1  0.50065079  0.30225491  0.30032799  1
  Hf  Hf30  1  0.38866178  0.59241912  0.01327689  1
  Hf  Hf31  1  0.80260370  0.59885876  0.80026762  1
  Hf  Hf32  1  0.89664756  0.49578766  0.91379338  1
  Hf  Hf33  1  0.09422356  0.29480894  0.69231498  1
  Hf  Hf34  1  0.00091471  0.59925567  0.00511132  1
  Hf  Hf35  1  0.20472830  0.19812988  0.79816940  1
  Hf  Hf36  1  0.39488631  0.00392961  0.20431033  1
  Hf  Hf37  1  0.61112879  -0.00851640  -0.00688044  1
  Hf  Hf38  1  0.61157191  0.79833247  0.19590291  1
  Hf  Hf39  1  0.90006553  0.28804421  0.90696147  1
  Hf  Hf40  1  0.10181150  0.11228386  0.30438695  1
  Hf  Hf41  1  0.29126314  0.90160731  0.09330987  1
  Hf  Hf42  1  0.39942427  0.19911446  0.20125391  1
  Hf  Hf43  1  0.80699154  0.79773917  0.59791525  1
  Hf  Hf44  1  0.79445522  0.60450478  0.00856841  1
  Hf  Hf45  1  0.18887572  0.40287298  0.80119868  1
  Hf  Hf46  1  0.00236907  -0.00127317  0.59982961  1
  Hf  Hf47  1  0.69630288  0.29650944  0.10302843  1
  Hf  Hf48  1  0.60681195  0.80798965  0.80650681  1
  Hf  Hf49  1  0.70363173  0.09621056  0.69786319  1
  Zr  Zr50  1  0.40399654  0.60300883  0.58594876  1
  Zr  Zr51  1  0.11021944  0.90914393  0.73189293  1
  Zr  Zr52  1  0.90792613  0.90296242  0.90271460  1
  Zr  Zr53  1  0.80178065  0.00578934  -0.00320583  1
  Zr  Zr54  1  0.19780642  0.40128702  0.00515258  1
  Zr  Zr55  1  0.79238073  0.39393472  0.00204412  1
  Zr  Zr56  1  0.29551074  0.69724194  0.70397155  1
  Zr  Zr57  1  0.39832922  0.00268028  0.79339344  1
  Zr  Zr58  1  0.80646256  0.79909564  0.79875922  1
  Zr  Zr59  1  0.71409765  0.69290122  0.29563910  1
  Zr  Zr60  1  -0.00215653  0.39438431  0.20635380  1
  Zr  Zr61  1  0.60322684  0.19123762  -0.01827400  1
  Zr  Zr62  1  0.49931164  0.70147305  0.89970537  1
  Zr  Zr63  1  0.60232271  -0.00161126  0.20408807  1
  Zr  Zr64  1  0.80400250  0.19869274  0.59719273  1
  Zr  Zr65  1  0.79218989  0.19520397  0.80870882  1
  Zr  Zr66  1  0.30028273  0.49543018  0.69378209  1
  Zr  Zr67  1  0.30513841  0.49730595  0.89572489  1
  Zr  Zr68  1  0.49785539  0.89339125  0.30649961  1
  Zr  Zr69  1  0.09456078  0.50098113  0.68617378  1
  Zr  Zr70  1  0.19165748  0.00208971  0.19820374  1
  Zr  Zr71  1  0.50537568  0.89244424  0.49668281  1
  Zr  Zr72  1  0.38954514  0.80258199  -0.00829247  1
  Zr  Zr73  1  0.50714891  0.49488435  0.90887017  1
  Zr  Zr74  1  0.10471343  0.10540533  0.49841196  1
  Zr  Zr75  1  0.49959813  0.09494463  0.09418335  1
  Zr  Zr76  1  0.79821579  0.40386684  0.79743919  1
  Zr  Zr77  1  0.19817621  0.19940883  0.00394065  1
  Zr  Zr78  1  0.30056681  0.89728548  0.30539209  1
  Zr  Zr79  1  0.09968512  0.49780951  0.10908020  1
  Zr  Zr80  1  0.09367378  0.70730435  0.49205826  1
  Zr  Zr81  1  0.70071376  0.49727066  0.10899006  1
  Zr  Zr82  1  0.49904637  0.69989816  0.30188165  1
  Zr  Zr83  1  0.20454883  0.80591313  0.60195683  1
  Zr  Zr84  1  0.09111123  0.09268570  0.89032755  1
  Zr  Zr85  1  -0.00801795  0.40531343  0.79485443  1
  Zr  Zr86  1  0.90086204  0.89387026  0.10779302  1
  Zr  Zr87  1  0.30367633  0.09996927  0.49429827  1
  Zr  Zr88  1  0.29293675  0.69919351  0.89274995  1
  Zr  Zr89  1  0.30263806  0.10780569  0.69008890  1
  Zr  Zr90  1  0.89056194  0.30077041  0.30305692  1
  Zr  Zr91  1  0.69438284  0.30124959  0.69613156  1
  Zr  Zr92  1  0.60963903  0.59413871  0.40451309  1
  Zr  Zr93  1  0.50588361  0.49676774  0.10748300  1
  Zr  Zr94  1  0.00857323  -0.00606887  0.20103679  1
  Zr  Zr95  1  -0.00801878  0.60020110  0.39999408  1
  Zr  Zr96  1  0.70971975  0.10370148  0.29998240  1
  Zr  Zr97  1  0.19724530  0.59712097  0.58548045  1
  Zr  Zr98  1  0.30918474  0.30434134  0.89577791  1
  Zr  Zr99  1  0.29416408  0.71133982  0.10682126  1
  Ta  Ta100  1  -0.00585666  0.41134858  0.40221171  1
  Ta  Ta101  1  0.60782951  -0.00027638  0.39812815  1
  Ta  Ta102  1  0.50018542  0.50070094  0.30123640  1
  Ta  Ta103  1  0.90225457  0.09384046  0.70359130  1
  Ta  Ta104  1  0.30579639  0.30341512  0.10395628  1
  Ta  Ta105  1  -0.00375241  0.19965516  0.59459581  1
  Ta  Ta106  1  0.70423029  0.30303690  0.48798911  1
  Ta  Ta107  1  0.00028011  0.39344970  0.01136243  1
  Ta  Ta108  1  0.70278058  0.70045828  0.89919569  1
  Ta  Ta109  1  0.60158223  0.00743907  0.80565792  1
  Ta  Ta110  1  0.50496011  0.89635679  0.69552507  1
  Ta  Ta111  1  0.60696601  0.59726361  0.80097268  1
  Ta  Ta112  1  0.19175731  0.59864268  0.00061011  1
  Ta  Ta113  1  0.60568743  0.39971201  0.21280052  1
  Ta  Ta114  1  0.90075379  0.70583205  0.91292855  1
  Ta  Ta115  1  0.19639128  0.39551775  0.58046404  1
  Ta  Ta116  1  0.60905329  0.60455572  0.00039089  1
  Ta  Ta117  1  0.20041284  0.60426919  0.39570789  1
  Ta  Ta118  1  0.50771982  0.30453011  0.10082348  1
  Ta  Ta119  1  0.70921459  0.90100724  0.49661108  1
  Ta  Ta120  1  0.80710646  0.79270653  0.40467975  1
  Ta  Ta121  1  -0.00563345  0.40532358  0.58778799  1
  Ta  Ta122  1  0.89247951  0.49594757  0.11403604  1
  Ta  Ta123  1  0.09020554  0.70633191  0.10262874  1
  Ta  Ta124  1  0.00423585  0.79603904  0.81152308  1
  Ta  Ta125  1  0.29938535  0.10303117  0.31063200  1
  Ta  Ta126  1  0.00339408  0.00214000  0.00426294  1
  Ta  Ta127  1  0.60668340  0.40401343  0.39902656  1
  Ta  Ta128  1  0.89969260  0.89963173  0.49574810  1
  Ta  Ta129  1  0.59879014  0.40667379  0.58839892  1
  Ta  Ta130  1  0.20692206  0.21907683  0.40348839  1
  Ta  Ta131  1  0.61324404  0.80068134  0.00322996  1
  Ta  Ta132  1  0.39977400  -0.01153132  0.60112027  1
  Ta  Ta133  1  0.39649323  0.80107467  0.59680441  1
  Ta  Ta134  1  0.39242546  0.78826566  0.40962106  1
  Ta  Ta135  1  0.60386599  0.20121006  0.39901046  1
  Ta  Ta136  1  0.60028663  0.40855475  0.79545517  1
  Ta  Ta137  1  0.18130872  0.59279169  0.81542940  1
  Ta  Ta138  1  0.20363010  0.39563320  0.20480456  1
  Ta  Ta139  1  0.89921747  0.89082263  0.29998041  1
  Ta  Ta140  1  0.79226553  0.79911510  0.00534871  1
  Ta  Ta141  1  0.10782555  0.49423096  0.30969193  1
  Ta  Ta142  1  0.40259909  0.39734566  0.00992188  1
  Ta  Ta143  1  0.89543978  0.70357753  0.11118322  1
  Ta  Ta144  1  0.70756488  0.09775700  0.49435392  1
  Ta  Ta145  1  0.71640363  0.89866445  0.30171055  1
  Ta  Ta146  1  0.39213426  0.59507005  0.20785848  1
  Ta  Ta147  1  0.29486592  0.49676527  0.48958142  1
  Ta  Ta148  1  0.69905671  0.69885847  0.69277241  1
  Ta  Ta149  1  0.30055358  0.90027421  0.49389297  1
  Ti  Ti150  1  0.60167357  0.59574138  0.59224334  1
  Ti  Ti151  1  -0.01539142  0.59291054  0.58812197  1
  Ti  Ti152  1  0.90184439  0.10768396  0.10309903  1
  Ti  Ti153  1  0.09047923  0.10490616  0.70438587  1
  Ti  Ti154  1  0.40758308  0.40332465  0.59339365  1
  Ti  Ti155  1  0.69140104  0.30288819  0.89728780  1
  Ti  Ti156  1  0.71513361  0.90134953  0.11202568  1
  Ti  Ti157  1  0.80439091  -0.00279616  0.40028720  1
  Ti  Ti158  1  0.39653267  0.40433721  0.19969654  1
  Ti  Ti159  1  0.19949073  0.20983493  0.58976316  1
  Ti  Ti160  1  0.90155970  0.29129573  0.10048102  1
  Ti  Ti161  1  0.90476874  0.29284780  0.69889905  1
  Ti  Ti162  1  0.39764095  0.20671080  0.40116168  1
  Ti  Ti163  1  0.50511431  0.09941819  0.69670012  1
  Ti  Ti164  1  0.29862992  0.70422953  0.30409216  1
  Ti  Ti165  1  0.60589845  0.59752648  0.20296763  1
  Ti  Ti166  1  0.51015363  0.70588729  0.50071602  1
  Ti  Ti167  1  0.09500730  0.30565186  0.49179303  1
  Ti  Ti168  1  0.29901034  0.49641616  0.30428187  1
  Ti  Ti169  1  0.89475771  0.09686124  0.49924310  1
  Ti  Ti170  1  0.39489973  0.60185562  0.39998101  1
  Ti  Ti171  1  0.30013679  0.30384543  0.30182756  1
  Ti  Ti172  1  0.90677024  0.10557212  0.90094040  1
  Ti  Ti173  1  0.09142927  0.88854411  0.09041387  1
  Ti  Ti174  1  0.51004819  0.30858722  0.90065080  1
  Ti  Ti175  1  0.50672043  0.30500087  0.69710095  1
  Ti  Ti176  1  0.40724769  0.20722310  0.59348899  1
  Ti  Ti177  1  0.90124015  0.69198428  0.69542221  1
  Ti  Ti178  1  0.50397518  0.30279812  0.49470430  1
  Ti  Ti179  1  0.70671822  0.30320755  0.30442775  1
  Ti  Ti180  1  0.19688162  -0.00500913  0.39568929  1
  Ti  Ti181  1  0.10300035  0.89317874  0.48815928  1
  Ti  Ti182  1  0.09699532  0.30239291  0.30572218  1
  Ti  Ti183  1  0.18019567  0.79446214  -0.01347468  1
  Ti  Ti184  1  0.08674449  0.11381333  0.10095686  1
  Ti  Ti185  1  0.59735913  0.20008354  0.20711498  1
  Ti  Ti186  1  0.18746388  0.00155536  -0.00037104  1
  Ti  Ti187  1  0.70974248  0.69365771  0.50559683  1
  Ti  Ti188  1  0.30158683  0.09108222  0.90499590  1
  Ti  Ti189  1  0.90073287  0.91204414  0.70551773  1
  Ti  Ti190  1  0.49606091  0.09926249  0.30996807  1
  Ti  Ti191  1  0.41563976  0.40370575  0.79046070  1
  Ti  Ti192  1  0.61647229  0.79840690  0.40371371  1
  Ti  Ti193  1  0.80353782  0.20642142  0.19829270  1
  Ti  Ti194  1  0.39507824  0.80637748  0.78788526  1
  Ti  Ti195  1  -0.00188885  0.20291725  0.40334957  1
  Ti  Ti196  1  0.50010542  0.50044490  0.49388206  1
  Ti  Ti197  1  0.29905234  0.09641244  0.09418159  1
  Ti  Ti198  1  0.79587009  0.00107136  0.80938406  1
  Ti  Ti199  1  0.89907135  0.70470287  0.29988294  1
  Mo  Mo200  1  0.19848281  0.39968121  0.39714865  1
  Mo  Mo201  1  0.80266491  0.19809092  0.00324307  1
  Mo  Mo202  1  -0.00834413  0.19600448  0.78645009  1
  Mo  Mo203  1  0.00178216  0.20505387  0.19919088  1
  Mo  Mo204  1  0.88501284  0.49995597  0.30103019  1
  Mo  Mo205  1  0.80778465  -0.00262623  0.20267210  1
  Mo  Mo206  1  0.59511679  0.20312300  0.79555447  1
  Mo  Mo207  1  0.51090883  0.49713383  0.68869580  1
  Mo  Mo208  1  0.19990278  0.79644315  0.40167656  1
  Mo  Mo209  1  0.80786182  -0.00176845  0.59276733  1
  Mo  Mo210  1  0.70218613  0.50092213  0.49686795  1
  Mo  Mo211  1  -0.00390360  0.79715132  0.00577245  1
  Mo  Mo212  1  0.09290467  0.69898674  0.90605839  1
  Mo  Mo213  1  0.70377941  0.89818373  0.89752685  1
  Mo  Mo214  1  0.80386968  0.79776422  0.20310290  1
  Mo  Mo215  1  0.50189216  0.09338872  0.89473664  1
  Mo  Mo216  1  0.70176883  0.09794711  0.89476322  1
  Mo  Mo217  1  0.70272856  0.49692647  0.30043771  1
  Mo  Mo218  1  -0.00011112  0.79398173  0.20592913  1
  Mo  Mo219  1  -0.00483726  0.80072035  0.39711421  1
  Mo  Mo220  1  0.60964624  0.79728943  0.59549960  1
  Mo  Mo221  1  0.09640344  0.90117198  0.91006829  1
  Mo  Mo222  1  0.79683288  0.19636718  0.40067834  1
  Mo  Mo223  1  0.80774174  0.59783722  0.20504216  1
  Mo  Mo224  1  0.30483138  0.89666316  0.69699518  1
  Mo  Mo225  1  0.69635275  0.50484709  0.89688001  1
  Mo  Mo226  1  0.80531193  0.59961917  0.40336785  1
  Mo  Mo227  1  0.29819058  0.69911489  0.49258880  1
  Mo  Mo228  1  0.09269348  0.49605776  0.91164796  1
  Mo  Mo229  1  0.89428403  0.50495332  0.49303687  1
  Mo  Mo230  1  0.59844768  0.39591353  -0.00329461  1
  Mo  Mo231  1  0.39530318  0.79445205  0.20988358  1
  Mo  Mo232  1  0.09707856  0.49657419  0.49198420  1
  Mo  Mo233  1  -0.00604950  0.19536918  0.01168294  1
  Mo  Mo234  1  0.40007265  -0.00003933  0.40219002  1
  Mo  Mo235  1  0.18988521  0.78275270  0.80486177  1
  Mo  Mo236  1  0.79727257  0.39755798  0.20455291  1
  Mo  Mo237  1  0.38593168  0.00226246  -0.00252044  1
  Mo  Mo238  1  0.80473975  0.60597510  0.59490987  1
  Mo  Mo239  1  0.90021704  0.51042745  0.68763811  1
  Mo  Mo240  1  0.30556987  0.30287978  0.50301949  1
  Mo  Mo241  1  0.30069164  0.49259310  0.11179110  1
  Mo  Mo242  1  0.79397200  0.41276715  0.39713437  1
  Mo  Mo243  1  0.09763786  0.69588951  0.30059943  1
  Mo  Mo244  1  0.20233205  0.02003358  0.79815109  1
  Mo  Mo245  1  0.70017754  0.69899628  0.10048648  1
  Mo  Mo246  1  0.89756121  0.70308517  0.50040741  1
  Mo  Mo247  1  -0.00926713  0.00164530  0.80114400  1
  Mo  Mo248  1  0.09398011  0.88990687  0.31638042  1
  Mo  Mo249  1  0.09872810  0.29650460  0.10550726  1
