# generated using pymatgen
data_HfZrTaTiMo
_symmetry_space_group_name_H-M   'P 1'
_cell_length_a   16.88431065
_cell_length_b   16.88407964
_cell_length_c   16.88857489
_cell_angle_alpha   90.06032440
_cell_angle_beta   89.99871202
_cell_angle_gamma   89.98805877
_symmetry_Int_Tables_number   1
_chemical_formula_structural   HfZrTaTiMo
_chemical_formula_sum   'Hf50 Zr50 Ta50 Ti50 Mo50'
_cell_volume   4814.52537279
_cell_formula_units_Z   50
loop_
 _symmetry_equiv_pos_site_id
 _symmetry_equiv_pos_as_xyz
  1  'x, y, z'
loop_
 _atom_site_type_symbol
 _atom_site_label
 _atom_site_symmetry_multiplicity
 _atom_site_fract_x
 _atom_site_fract_y
 _atom_site_fract_z
 _atom_site_occupancy
  Hf  Hf0  1  -0.00389574  0.80784292  0.20094082  1
  Hf  Hf1  1  0.29620907  0.69438796  0.30472191  1
  Hf  Hf2  1  0.09844361  0.11281685  0.10638223  1
  Hf  Hf3  1  0.80176132  0.20582317  0.80394845  1
  Hf  Hf4  1  -0.00095501  -0.01052934  0.39341787  1
  Hf  Hf5  1  0.09454849  0.10900661  0.29784818  1
  Hf  Hf6  1  0.50011807  0.90133029  0.50061426  1
  Hf  Hf7  1  0.81110706  0.18926004  0.20491197  1
  Hf  Hf8  1  0.40832823  0.60215777  0.19401292  1
  Hf  Hf9  1  0.21133480  0.20500122  0.40771325  1
  Hf  Hf10  1  0.40712940  0.00475359  -0.00159210  1
  Hf  Hf11  1  0.39909198  0.39116087  -0.00858014  1
  Hf  Hf12  1  -0.00829146  0.41454804  0.39354678  1
  Hf  Hf13  1  0.50816871  0.49099037  0.09718965  1
  Hf  Hf14  1  0.20154151  0.20572668  0.79849251  1
  Hf  Hf15  1  0.39028389  0.01209128  0.41062758  1
  Hf  Hf16  1  0.29793947  0.90021334  0.30133979  1
  Hf  Hf17  1  0.69209175  0.29986133  0.70393140  1
  Hf  Hf18  1  -0.00102511  0.59097571  0.20225430  1
  Hf  Hf19  1  0.60047274  0.59632250  0.80585721  1
  Hf  Hf20  1  0.60479347  0.59029070  0.59931627  1
  Hf  Hf21  1  0.20269766  0.79541032  0.80361173  1
  Hf  Hf22  1  0.19913270  0.39795330  0.39942339  1
  Hf  Hf23  1  0.89984113  0.69757873  0.09432785  1
  Hf  Hf24  1  0.29211346  0.29684748  0.11129233  1
  Hf  Hf25  1  0.29970221  0.90224700  0.10378288  1
  Hf  Hf26  1  0.69892392  0.89849005  0.70966910  1
  Hf  Hf27  1  0.00339598  0.79677990  0.59425749  1
  Hf  Hf28  1  0.50041307  0.92541637  0.12632010  1
  Hf  Hf29  1  0.49816549  0.29953653  0.30195192  1
  Hf  Hf30  1  0.09780088  0.29947339  0.29019870  1
  Hf  Hf31  1  0.18525357  0.80511448  0.19778781  1
  Hf  Hf32  1  0.09639570  0.10213537  0.49507034  1
  Hf  Hf33  1  0.09330529  0.50797419  0.50522169  1
  Hf  Hf34  1  0.50244212  0.29745500  0.11165966  1
  Hf  Hf35  1  0.39963538  0.59190348  0.60031002  1
  Hf  Hf36  1  0.70272305  0.49063301  0.29359533  1
  Hf  Hf37  1  0.90717029  0.29756441  0.10277869  1
  Hf  Hf38  1  0.00116429  0.41359948  0.00542197  1
  Hf  Hf39  1  0.09663700  0.09405629  0.69424458  1
  Hf  Hf40  1  0.69495535  0.09920700  0.70141036  1
  Hf  Hf41  1  0.01079635  0.78861666  0.78876003  1
  Hf  Hf42  1  0.50495684  0.70851312  0.70365001  1
  Hf  Hf43  1  0.10172913  0.29936443  0.10324531  1
  Hf  Hf44  1  0.39697992  0.60353600  0.80891503  1
  Hf  Hf45  1  0.70713722  0.69841306  0.90778813  1
  Hf  Hf46  1  -0.00675605  0.19450753  0.80319551  1
  Hf  Hf47  1  0.40267879  0.20084678  -0.00489267  1
  Hf  Hf48  1  0.59428997  0.00283914  0.00073979  1
  Hf  Hf49  1  0.39690179  0.80137853  0.40383284  1
  Zr  Zr50  1  0.90662009  0.30435712  0.90584075  1
  Zr  Zr51  1  0.49354780  0.30115652  0.50514294  1
  Zr  Zr52  1  0.19777588  -0.00408798  0.79332033  1
  Zr  Zr53  1  0.18976427  0.81465176  0.59748685  1
  Zr  Zr54  1  0.19576245  0.00126118  0.00440951  1
  Zr  Zr55  1  -0.00874652  0.60286561  0.79887455  1
  Zr  Zr56  1  0.80577493  0.59553994  0.19764118  1
  Zr  Zr57  1  0.20387451  0.20520582  0.59612124  1
  Zr  Zr58  1  0.50000659  0.69244280  0.49520355  1
  Zr  Zr59  1  0.09831604  0.69808091  0.30829160  1
  Zr  Zr60  1  0.48931404  0.09354415  0.28405786  1
  Zr  Zr61  1  0.69825105  0.30552374  0.29585685  1
  Zr  Zr62  1  0.91431730  0.90493526  0.90570344  1
  Zr  Zr63  1  0.60167687  0.60586289  0.19593416  1
  Zr  Zr64  1  0.09003251  0.31160401  0.70149548  1
  Zr  Zr65  1  0.59260049  0.00193196  0.60080407  1
  Zr  Zr66  1  0.81370871  0.01224163  0.80816482  1
  Zr  Zr67  1  0.29232315  0.69491011  0.10182009  1
  Zr  Zr68  1  0.69990170  0.09462537  0.10608220  1
  Zr  Zr69  1  -0.00956570  0.60480594  0.60396390  1
  Zr  Zr70  1  0.30563662  0.10495280  0.11526526  1
  Zr  Zr71  1  0.39514579  0.80929386  0.60162363  1
  Zr  Zr72  1  0.29819771  0.49888667  0.29729876  1
  Zr  Zr73  1  0.70352036  0.70331074  0.71208119  1
  Zr  Zr74  1  0.10219504  0.49856470  0.89539275  1
  Zr  Zr75  1  0.20658005  0.39409857  0.59144204  1
  Zr  Zr76  1  0.70166934  0.69789871  0.49503066  1
  Zr  Zr77  1  0.30476331  0.09835552  0.88973116  1
  Zr  Zr78  1  0.79831334  0.20267866  0.39397653  1
  Zr  Zr79  1  0.50179622  0.49701309  0.30645670  1
  Zr  Zr80  1  0.28525667  0.69554126  0.49804860  1
  Zr  Zr81  1  0.29314855  0.49297302  0.09903446  1
  Zr  Zr82  1  0.60049193  -0.00052583  0.39777035  1
  Zr  Zr83  1  0.89787386  0.09654394  0.49038432  1
  Zr  Zr84  1  0.49696776  0.48306777  0.70534075  1
  Zr  Zr85  1  0.29529616  0.69327655  0.69795166  1
  Zr  Zr86  1  0.80623140  0.59159815  0.60257893  1
  Zr  Zr87  1  0.68976811  0.10203336  0.89136492  1
  Zr  Zr88  1  0.81036050  0.79760165  0.59610412  1
  Zr  Zr89  1  0.80837336  -0.00115289  0.00752008  1
  Zr  Zr90  1  -0.00716125  0.20818020  0.59555571  1
  Zr  Zr91  1  0.90627195  0.90269689  0.70677274  1
  Zr  Zr92  1  0.59922232  0.20378120  -0.00488558  1
  Zr  Zr93  1  0.59206359  0.80327825  0.01221109  1
  Zr  Zr94  1  0.70268411  0.09765663  0.49814793  1
  Zr  Zr95  1  0.40109951  0.79650926  -0.00286517  1
  Zr  Zr96  1  0.09336340  0.90660266  0.89987011  1
  Zr  Zr97  1  0.70700842  0.30601039  0.10397706  1
  Zr  Zr98  1  0.41249929  0.79191338  0.19955221  1
  Zr  Zr99  1  0.69626063  0.89469403  0.89254661  1
  Ta  Ta100  1  0.79810360  0.40148709  0.60052617  1
  Ta  Ta101  1  0.50626735  0.69466952  0.31180046  1
  Ta  Ta102  1  0.19549800  0.79656134  -0.00202141  1
  Ta  Ta103  1  0.00373522  -0.01374773  0.59164154  1
  Ta  Ta104  1  0.20802186  0.39461878  0.80087448  1
  Ta  Ta105  1  0.60577383  0.40189301  0.59500682  1
  Ta  Ta106  1  0.39192331  0.39653739  0.40618167  1
  Ta  Ta107  1  0.79873332  0.20512746  0.60040275  1
  Ta  Ta108  1  0.80169047  0.40506059  0.80384615  1
  Ta  Ta109  1  0.79930348  0.80095770  0.20023027  1
  Ta  Ta110  1  0.89387106  0.30703070  0.49801118  1
  Ta  Ta111  1  0.40269413  0.60163128  -0.00416132  1
  Ta  Ta112  1  0.70437223  0.49764024  0.09298487  1
  Ta  Ta113  1  0.50152193  0.49531782  0.90252265  1
  Ta  Ta114  1  0.18863344  -0.00247954  0.20805875  1
  Ta  Ta115  1  0.59378842  0.19512170  0.40178006  1
  Ta  Ta116  1  0.50121827  0.10102971  0.87893016  1
  Ta  Ta117  1  0.60477328  0.80387410  0.59716926  1
  Ta  Ta118  1  0.70373480  0.70106230  0.09867039  1
  Ta  Ta119  1  0.80676300  0.19617908  -0.00645723  1
  Ta  Ta120  1  0.20086917  0.20471625  -0.01018063  1
  Ta  Ta121  1  0.70283484  0.49478719  0.70706079  1
  Ta  Ta122  1  0.19845021  0.60002508  -0.00414845  1
  Ta  Ta123  1  0.30034262  0.49924805  0.89903749  1
  Ta  Ta124  1  0.31726315  0.30360793  0.69243026  1
  Ta  Ta125  1  -0.00150005  -0.00615664  0.19826888  1
  Ta  Ta126  1  0.09833827  0.30194232  0.90143201  1
  Ta  Ta127  1  0.60150565  0.19086632  0.20471929  1
  Ta  Ta128  1  0.70413566  0.70123802  0.30244009  1
  Ta  Ta129  1  0.80783308  0.59085247  0.40038737  1
  Ta  Ta130  1  0.60528057  0.80273517  0.39562118  1
  Ta  Ta131  1  0.00299175  0.80434886  0.40486863  1
  Ta  Ta132  1  0.70367641  0.50183359  0.90464495  1
  Ta  Ta133  1  0.89928777  0.69920093  0.30539018  1
  Ta  Ta134  1  0.80538150  0.80248519  0.00638906  1
  Ta  Ta135  1  0.39555101  0.80234008  0.80579312  1
  Ta  Ta136  1  0.19876648  -0.00287256  0.40411998  1
  Ta  Ta137  1  0.59521398  0.20056434  0.59621928  1
  Ta  Ta138  1  0.80319459  0.80139791  0.39698377  1
  Ta  Ta139  1  0.19092047  0.59320892  0.40270191  1
  Ta  Ta140  1  0.60450208  0.79898267  0.20668602  1
  Ta  Ta141  1  0.29544338  0.49558970  0.70169333  1
  Ta  Ta142  1  0.30698055  0.10166673  0.69354518  1
  Ta  Ta143  1  0.90058574  0.09828978  0.68926364  1
  Ta  Ta144  1  0.60422444  0.39951596  0.41069308  1
  Ta  Ta145  1  0.10626458  0.50024338  0.69991521  1
  Ta  Ta146  1  0.00093730  0.41618726  0.19837804  1
  Ta  Ta147  1  0.09553421  0.69537094  0.09290399  1
  Ta  Ta148  1  0.80594190  -0.00531094  0.59414068  1
  Ta  Ta149  1  0.60580535  0.39635683  -0.00808370  1
  Ti  Ti150  1  0.70250469  0.90000681  0.11051186  1
  Ti  Ti151  1  -0.01072245  0.41141254  0.79876583  1
  Ti  Ti152  1  0.39752539  0.19073102  0.58683205  1
  Ti  Ti153  1  0.49513419  0.10707787  0.69980663  1
  Ti  Ti154  1  0.39910939  0.39955371  0.20299717  1
  Ti  Ti155  1  0.59808491  0.59975478  0.00079004  1
  Ti  Ti156  1  0.50644964  0.29695813  0.88630108  1
  Ti  Ti157  1  0.81213987  -0.00419106  0.20220231  1
  Ti  Ti158  1  0.30217230  0.90021436  0.90049273  1
  Ti  Ti159  1  0.00200707  0.80409164  0.00769155  1
  Ti  Ti160  1  0.82071657  0.78878561  0.81028633  1
  Ti  Ti161  1  0.50422737  0.89725910  0.70578621  1
  Ti  Ti162  1  0.70402373  0.90119920  0.29791979  1
  Ti  Ti163  1  -0.01636153  0.41154202  0.60043408  1
  Ti  Ti164  1  -0.01733680  0.20693127  0.38563165  1
  Ti  Ti165  1  0.89290284  0.31736517  0.29107330  1
  Ti  Ti166  1  0.30419706  0.29402169  0.29411922  1
  Ti  Ti167  1  0.90613931  0.69516910  0.48589095  1
  Ti  Ti168  1  0.49883253  0.29930548  0.69732327  1
  Ti  Ti169  1  0.49592192  0.49699027  0.49522703  1
  Ti  Ti170  1  0.91417818  0.10241948  0.09610968  1
  Ti  Ti171  1  0.70032986  0.29927787  0.50092111  1
  Ti  Ti172  1  0.08530665  0.09923219  0.90776661  1
  Ti  Ti173  1  0.40236387  -0.00367266  0.79153105  1
  Ti  Ti174  1  0.81273506  0.59566791  0.80852017  1
  Ti  Ti175  1  0.09674252  0.69799290  0.90941954  1
  Ti  Ti176  1  0.18421734  0.58755409  0.19790684  1
  Ti  Ti177  1  0.79985366  0.40918727  0.40937588  1
  Ti  Ti178  1  0.61064337  0.59065032  0.40293812  1
  Ti  Ti179  1  0.39414342  0.39450081  0.80539750  1
  Ti  Ti180  1  0.30125648  0.90682395  0.69862951  1
  Ti  Ti181  1  0.49945736  0.90266070  0.30125266  1
  Ti  Ti182  1  0.20020952  0.39796724  -0.00595589  1
  Ti  Ti183  1  0.50473389  0.70336160  0.90076182  1
  Ti  Ti184  1  -0.00721053  0.59402574  -0.00188761  1
  Ti  Ti185  1  0.29689865  0.10766312  0.29771662  1
  Ti  Ti186  1  0.80328276  0.40638431  -0.00405763  1
  Ti  Ti187  1  0.50376729  0.90181837  0.88628380  1
  Ti  Ti188  1  0.89557758  0.30557880  0.69753431  1
  Ti  Ti189  1  0.08313901  0.30377388  0.49360625  1
  Ti  Ti190  1  0.60714265  0.39674477  0.80898577  1
  Ti  Ti191  1  0.70575629  0.08834328  0.30103627  1
  Ti  Ti192  1  0.89207824  0.89842646  0.30277480  1
  Ti  Ti193  1  0.30308790  0.50070098  0.49991850  1
  Ti  Ti194  1  0.39571575  0.00545223  0.59621387  1
  Ti  Ti195  1  0.20457584  -0.00168028  0.58933453  1
  Ti  Ti196  1  0.39811703  0.20710029  0.79652038  1
  Ti  Ti197  1  0.20203218  0.60002517  0.80656319  1
  Ti  Ti198  1  0.70668183  0.90056559  0.49572474  1
  Ti  Ti199  1  0.11398167  0.68308244  0.68646452  1
  Mo  Mo200  1  0.80133913  -0.01297224  0.39576985  1
  Mo  Mo201  1  0.38204080  -0.00013200  0.21053755  1
  Mo  Mo202  1  0.89665182  0.69932902  0.70972842  1
  Mo  Mo203  1  0.31185515  0.29997106  0.49872428  1
  Mo  Mo204  1  0.09744692  0.89966328  0.09905121  1
  Mo  Mo205  1  0.29771540  0.30199104  0.89411504  1
  Mo  Mo206  1  0.89603174  0.49860130  0.09651858  1
  Mo  Mo207  1  0.10201524  0.90702729  0.69476294  1
  Mo  Mo208  1  0.29862170  0.10118704  0.50480253  1
  Mo  Mo209  1  0.89993078  0.89746082  0.10573428  1
  Mo  Mo210  1  0.89565405  0.49296227  0.70389733  1
  Mo  Mo211  1  0.29635221  0.90860671  0.50018320  1
  Mo  Mo212  1  0.10263474  0.50292503  0.09635730  1
  Mo  Mo213  1  0.00305351  0.00189098  0.01899137  1
  Mo  Mo214  1  -0.01043796  0.20182888  0.20550694  1
  Mo  Mo215  1  0.10222087  0.90149661  0.49401369  1
  Mo  Mo216  1  0.89868326  0.89482544  0.49455748  1
  Mo  Mo217  1  0.70366622  0.30741044  0.90005171  1
  Mo  Mo218  1  0.80939109  0.40540048  0.19254220  1
  Mo  Mo219  1  0.60679696  0.39821010  0.19378189  1
  Mo  Mo220  1  0.90047230  0.08776399  0.29336481  1
  Mo  Mo221  1  0.89301907  0.50396557  0.90261235  1
  Mo  Mo222  1  0.29580185  0.69615139  0.90373923  1
  Mo  Mo223  1  0.10071543  0.90202746  0.30215008  1
  Mo  Mo224  1  0.91387728  0.10303007  0.91201288  1
  Mo  Mo225  1  0.70170635  0.49325567  0.49944775  1
  Mo  Mo226  1  0.58416614  -0.00100306  0.79392954  1
  Mo  Mo227  1  0.19386039  0.40173536  0.20350445  1
  Mo  Mo228  1  0.58866839  0.20651816  0.78939373  1
  Mo  Mo229  1  0.20303043  0.20126127  0.20924184  1
  Mo  Mo230  1  0.00344390  0.00916348  0.78727284  1
  Mo  Mo231  1  0.00552318  0.19926286  -0.00131456  1
  Mo  Mo232  1  0.40200617  0.40416416  0.60005835  1
  Mo  Mo233  1  0.58932334  0.80086057  0.80187397  1
  Mo  Mo234  1  0.40011682  0.20221842  0.20403417  1
  Mo  Mo235  1  0.50210263  0.10556685  0.10611365  1
  Mo  Mo236  1  0.90390621  0.70263587  0.90933699  1
  Mo  Mo237  1  0.89573514  0.50059073  0.30266896  1
  Mo  Mo238  1  0.51017398  0.69201751  0.09418101  1
  Mo  Mo239  1  0.49660643  0.10679313  0.50164653  1
  Mo  Mo240  1  0.39320112  0.59345427  0.40228573  1
  Mo  Mo241  1  0.19920292  0.58836568  0.59777871  1
  Mo  Mo242  1  0.19233445  0.80612116  0.40288732  1
  Mo  Mo243  1  0.61803825  -0.00412482  0.20764417  1
  Mo  Mo244  1  0.10166867  0.49921497  0.29876765  1
  Mo  Mo245  1  0.39598249  0.20205752  0.39940041  1
  Mo  Mo246  1  0.09619589  0.69987601  0.49476210  1
  Mo  Mo247  1  -0.00372683  0.60378933  0.39967841  1
  Mo  Mo248  1  0.79896670  0.59990360  -0.00185010  1
  Mo  Mo249  1  0.89684334  0.49682263  0.50108693  1
