# generated using pymatgen
data_HfZrTaTiMo
_symmetry_space_group_name_H-M   'P 1'
_cell_length_a   16.88348691
_cell_length_b   16.87683218
_cell_length_c   16.89002391
_cell_angle_alpha   89.98348589
_cell_angle_beta   89.97620941
_cell_angle_gamma   89.94274047
_symmetry_Int_Tables_number   1
_chemical_formula_structural   HfZrTaTiMo
_chemical_formula_sum   'Hf50 Zr50 Ta50 Ti50 Mo50'
_cell_volume   4812.63659821
_cell_formula_units_Z   50
loop_
 _symmetry_equiv_pos_site_id
 _symmetry_equiv_pos_as_xyz
  1  'x, y, z'
loop_
 _atom_site_type_symbol
 _atom_site_label
 _atom_site_symmetry_multiplicity
 _atom_site_fract_x
 _atom_site_fract_y
 _atom_site_fract_z
 _atom_site_occupancy
  Hf  Hf0  1  0.29813761  0.30268339  0.49763988  1
  Hf  Hf1  1  0.40470603  0.00427497  0.61131440  1
  Hf  Hf2  1  0.80784487  0.59901740  0.39779680  1
  Hf  Hf3  1  0.70434840  0.29670412  0.69657925  1
  Hf  Hf4  1  0.70692194  0.69127932  0.68479528  1
  Hf  Hf5  1  0.89297163  0.29386241  0.69908770  1
  Hf  Hf6  1  0.30255198  0.50432129  0.90391623  1
  Hf  Hf7  1  0.50145198  0.49926517  0.49221044  1
  Hf  Hf8  1  -0.00639600  0.60819131  0.20741422  1
  Hf  Hf9  1  0.80001681  0.79285499  0.20375389  1
  Hf  Hf10  1  0.69635399  0.50167264  0.91894895  1
  Hf  Hf11  1  0.81038298  0.39145655  0.00553721  1
  Hf  Hf12  1  0.10388723  0.50351953  0.10506662  1
  Hf  Hf13  1  0.59247514  0.79237906  0.79235767  1
  Hf  Hf14  1  0.58924200  0.20254713  0.00052350  1
  Hf  Hf15  1  0.80219662  0.80716951  0.58954259  1
  Hf  Hf16  1  0.79735503  0.40146501  0.19768509  1
  Hf  Hf17  1  0.09503681  0.89952249  0.11036864  1
  Hf  Hf18  1  0.80373902  0.39520106  0.81227022  1
  Hf  Hf19  1  0.20173377  0.60872078  0.21882956  1
  Hf  Hf20  1  0.79898222  0.20757924  -0.00191970  1
  Hf  Hf21  1  0.30170759  0.49896889  0.10931344  1
  Hf  Hf22  1  0.69676349  0.90848571  0.69854330  1
  Hf  Hf23  1  0.30539331  0.09737597  0.10623844  1
  Hf  Hf24  1  0.20123393  0.80028010  -0.00202296  1
  Hf  Hf25  1  0.30839630  0.90259705  0.89278005  1
  Hf  Hf26  1  0.09820897  0.70244584  0.69155896  1
  Hf  Hf27  1  0.50147623  0.49701486  0.69670743  1
  Hf  Hf28  1  0.10170761  0.49847094  0.30445733  1
  Hf  Hf29  1  0.68908351  0.09935712  0.10367454  1
  Hf  Hf30  1  0.19927119  0.79720469  0.20571569  1
  Hf  Hf31  1  0.69608400  0.49901295  0.29971314  1
  Hf  Hf32  1  0.39581439  0.18848135  0.79591811  1
  Hf  Hf33  1  -0.00596400  0.22038384  0.00645639  1
  Hf  Hf34  1  0.19864788  0.20281655  -0.00156367  1
  Hf  Hf35  1  0.60229786  0.19564970  0.39868379  1
  Hf  Hf36  1  0.89137333  0.10628397  0.88607008  1
  Hf  Hf37  1  -0.00419466  -0.00594095  -0.01006157  1
  Hf  Hf38  1  0.79168576  0.00186067  0.21153816  1
  Hf  Hf39  1  0.59067071  0.19871297  0.79848086  1
  Hf  Hf40  1  0.79910177  0.79430125  0.79488751  1
  Hf  Hf41  1  0.00312660  0.59677070  0.80111357  1
  Hf  Hf42  1  0.50008917  0.70130088  0.49170873  1
  Hf  Hf43  1  0.90906589  0.89741604  0.69195592  1
  Hf  Hf44  1  0.90641649  0.70736634  0.49775685  1
  Hf  Hf45  1  0.69190835  0.69898170  0.49374198  1
  Hf  Hf46  1  0.11263315  0.50296350  0.68799868  1
  Hf  Hf47  1  0.40055894  0.40552436  0.80086984  1
  Hf  Hf48  1  0.89997934  0.09754612  0.10554681  1
  Hf  Hf49  1  0.49600618  0.30629314  0.49953147  1
  Zr  Zr50  1  0.59901390  0.59546726  0.79849640  1
  Zr  Zr51  1  0.79711873  -0.00059456  0.58484176  1
  Zr  Zr52  1  0.89669590  0.09944489  0.69872455  1
  Zr  Zr53  1  0.19357188  0.20743934  0.20574715  1
  Zr  Zr54  1  0.30204238  0.30673092  0.10966313  1
  Zr  Zr55  1  0.30021205  0.10743170  0.30055356  1
  Zr  Zr56  1  0.40089949  0.79601939  0.60468608  1
  Zr  Zr57  1  0.79970256  -0.00581344  0.00134406  1
  Zr  Zr58  1  0.69129078  0.70121856  0.29976813  1
  Zr  Zr59  1  0.09838450  0.30548844  0.69927560  1
  Zr  Zr60  1  0.20274540  0.19271469  0.60624203  1
  Zr  Zr61  1  0.89584687  0.50386211  0.69005968  1
  Zr  Zr62  1  0.09230842  0.10592522  0.89545308  1
  Zr  Zr63  1  0.29700334  0.30879868  0.69773409  1
  Zr  Zr64  1  0.19344259  0.79647149  0.40006273  1
  Zr  Zr65  1  0.59915235  0.18977283  0.59391339  1
  Zr  Zr66  1  0.49793119  0.68971207  0.90335085  1
  Zr  Zr67  1  0.00040784  0.80385359  -0.00734616  1
  Zr  Zr68  1  0.69517615  0.09211977  0.89030613  1
  Zr  Zr69  1  0.10528099  0.50819436  0.49791854  1
  Zr  Zr70  1  0.40473992  0.20672055  0.39507623  1
  Zr  Zr71  1  0.79212321  0.19203757  0.40443404  1
  Zr  Zr72  1  0.91116620  0.09537317  0.30112801  1
  Zr  Zr73  1  0.89926704  0.69760077  0.90481251  1
  Zr  Zr74  1  0.68183500  0.89742385  0.11300439  1
  Zr  Zr75  1  0.50525441  0.69784338  0.30355277  1
  Zr  Zr76  1  0.79628379  0.80237435  0.00523173  1
  Zr  Zr77  1  0.89915089  0.29990983  0.30790236  1
  Zr  Zr78  1  0.70355699  0.49569487  0.68671186  1
  Zr  Zr79  1  0.39331401  0.59062244  0.39602203  1
  Zr  Zr80  1  0.20347277  0.00091165  -0.00499393  1
  Zr  Zr81  1  0.10360577  0.30562796  0.30806462  1
  Zr  Zr82  1  0.20909099  0.00921803  0.79374656  1
  Zr  Zr83  1  0.91187951  0.89291391  0.30436337  1
  Zr  Zr84  1  0.09328910  0.09514242  0.10726348  1
  Zr  Zr85  1  0.30295326  0.69336755  0.09928754  1
  Zr  Zr86  1  0.28942566  0.69384683  0.70115776  1
  Zr  Zr87  1  0.50774265  0.69854421  0.10506894  1
  Zr  Zr88  1  0.79538949  -0.00349235  0.40712824  1
  Zr  Zr89  1  0.19123059  0.39964186  0.00155472  1
  Zr  Zr90  1  0.50696001  0.89622179  0.29977997  1
  Zr  Zr91  1  0.69021234  0.90602363  0.89228241  1
  Zr  Zr92  1  0.30722235  0.90006428  0.30559906  1
  Zr  Zr93  1  -0.00319533  0.39266698  0.18502240  1
  Zr  Zr94  1  0.20404239  -0.00186782  0.59692677  1
  Zr  Zr95  1  -0.00660553  0.39863806  0.59111218  1
  Zr  Zr96  1  0.40588047  0.00738095  0.41066968  1
  Zr  Zr97  1  0.40101500  0.19900755  -0.00443966  1
  Zr  Zr98  1  0.40507256  0.80714419  0.00137560  1
  Zr  Zr99  1  0.80209646  0.59862879  0.80317620  1
  Ta  Ta100  1  0.01472147  -0.00385963  0.40840668  1
  Ta  Ta101  1  0.79267505  0.20222079  0.20283823  1
  Ta  Ta102  1  0.60604191  0.59006123  0.19224895  1
  Ta  Ta103  1  0.90980570  0.90044772  0.11603098  1
  Ta  Ta104  1  0.00017029  0.20379737  0.20170331  1
  Ta  Ta105  1  0.49926011  0.09732810  0.10916567  1
  Ta  Ta106  1  0.09531159  0.70056861  0.10087248  1
  Ta  Ta107  1  0.40257029  0.80245315  0.19834039  1
  Ta  Ta108  1  0.49865698  0.30282103  0.69589912  1
  Ta  Ta109  1  0.39554548  0.40645019  0.60005570  1
  Ta  Ta110  1  0.10620441  0.69800877  0.89660000  1
  Ta  Ta111  1  0.10677189  0.30251484  0.49856642  1
  Ta  Ta112  1  0.79891844  0.40313400  0.40605954  1
  Ta  Ta113  1  0.68824535  0.89741779  0.30564502  1
  Ta  Ta114  1  0.50266667  0.89580605  0.49858834  1
  Ta  Ta115  1  0.89623302  0.51051647  0.09529231  1
  Ta  Ta116  1  0.69258773  0.30271603  0.10469582  1
  Ta  Ta117  1  0.29314509  0.50178484  0.50543272  1
  Ta  Ta118  1  0.70334004  0.09706967  0.70327434  1
  Ta  Ta119  1  0.19938417  0.40831566  0.80345973  1
  Ta  Ta120  1  0.19492630  0.00112730  0.40286735  1
  Ta  Ta121  1  0.39504648  0.59722844  0.60321682  1
  Ta  Ta122  1  0.40378586  0.19219344  0.60183614  1
  Ta  Ta123  1  0.69467744  0.69318583  0.91626157  1
  Ta  Ta124  1  0.00055897  0.60878658  0.39403092  1
  Ta  Ta125  1  0.40634243  0.58946473  0.00437313  1
  Ta  Ta126  1  0.09947388  0.30644140  0.89384558  1
  Ta  Ta127  1  0.01002693  0.19572594  0.40524510  1
  Ta  Ta128  1  0.40987959  0.39873555  0.00632486  1
  Ta  Ta129  1  0.00602640  0.59815802  -0.00092377  1
  Ta  Ta130  1  0.10017327  0.89533840  0.69624791  1
  Ta  Ta131  1  0.50527251  0.09801812  0.29416839  1
  Ta  Ta132  1  0.19556263  -0.00080137  0.21283856  1
  Ta  Ta133  1  0.30413128  0.89341581  0.49792713  1
  Ta  Ta134  1  0.40620734  0.79874381  0.79192251  1
  Ta  Ta135  1  0.00202986  0.19704990  0.59203280  1
  Ta  Ta136  1  0.59706301  0.20595806  0.20447108  1
  Ta  Ta137  1  0.20871236  0.40127588  0.39961923  1
  Ta  Ta138  1  0.79900890  0.80838860  0.40394260  1
  Ta  Ta139  1  0.90192117  0.70027323  0.10090484  1
  Ta  Ta140  1  0.00306414  -0.00519814  0.79470872  1
  Ta  Ta141  1  0.30152845  0.90518922  0.10717963  1
  Ta  Ta142  1  0.09301130  0.09956921  0.69902910  1
  Ta  Ta143  1  0.20478292  0.20007353  0.80412109  1
  Ta  Ta144  1  0.59735199  0.80000172  0.00307737  1
  Ta  Ta145  1  0.59987511  0.39602038  0.80364225  1
  Ta  Ta146  1  0.59728185  0.39631885  0.39179148  1
  Ta  Ta147  1  0.41441566  0.39799159  0.21152843  1
  Ta  Ta148  1  0.29977933  0.30468143  0.89902601  1
  Ta  Ta149  1  0.30232337  0.69575018  0.89710422  1
  Ti  Ti150  1  0.59083669  0.60238813  0.59829822  1
  Ti  Ti151  1  0.49169571  0.08535645  0.89706966  1
  Ti  Ti152  1  0.29431364  0.69498836  0.49684582  1
  Ti  Ti153  1  0.60423976  0.00672522  0.40811030  1
  Ti  Ti154  1  -0.00009312  0.20732708  0.79782332  1
  Ti  Ti155  1  0.00994219  -0.00377474  0.59162597  1
  Ti  Ti156  1  0.09965246  0.69916704  0.49887570  1
  Ti  Ti157  1  -0.00785264  0.60472158  0.59535212  1
  Ti  Ti158  1  0.69647795  0.30283731  0.29820583  1
  Ti  Ti159  1  0.89372317  0.90467628  0.88403566  1
  Ti  Ti160  1  0.70081287  0.30523862  0.49865824  1
  Ti  Ti161  1  0.50555865  0.49777867  0.90780369  1
  Ti  Ti162  1  0.40206219  -0.00073971  0.00158618  1
  Ti  Ti163  1  0.79696195  0.60208714  0.19349315  1
  Ti  Ti164  1  0.40828633  0.59151599  0.20514115  1
  Ti  Ti165  1  0.20213860  0.79904625  0.80017645  1
  Ti  Ti166  1  0.09352181  0.89805676  0.30059792  1
  Ti  Ti167  1  0.49771696  0.90249457  0.89244688  1
  Ti  Ti168  1  0.19793047  0.59377708  0.80493552  1
  Ti  Ti169  1  0.89979553  0.49891743  0.29895659  1
  Ti  Ti170  1  0.31129362  0.70510110  0.30859950  1
  Ti  Ti171  1  0.49741876  0.30716820  0.89838245  1
  Ti  Ti172  1  0.29819994  0.10446787  0.49719779  1
  Ti  Ti173  1  -0.00011961  0.40687869  0.80868587  1
  Ti  Ti174  1  -0.00158274  0.79544351  0.79479785  1
  Ti  Ti175  1  0.30095534  0.49074762  0.30168669  1
  Ti  Ti176  1  0.69539314  0.50559166  0.49752435  1
  Ti  Ti177  1  0.69413126  0.29871936  0.90001402  1
  Ti  Ti178  1  0.59654025  0.39576515  0.00952096  1
  Ti  Ti179  1  0.59242646  0.00316296  0.59508137  1
  Ti  Ti180  1  0.10617848  0.10436456  0.49838573  1
  Ti  Ti181  1  0.60063497  0.39739065  0.59647514  1
  Ti  Ti182  1  0.90148707  0.50385235  0.91013227  1
  Ti  Ti183  1  0.19747997  0.80345388  0.59281889  1
  Ti  Ti184  1  0.58252224  -0.00662174  0.00731382  1
  Ti  Ti185  1  0.79680270  0.19248661  0.58926383  1
  Ti  Ti186  1  0.90036787  0.29320421  0.49736448  1
  Ti  Ti187  1  -0.00935673  0.40659505  0.40869348  1
  Ti  Ti188  1  -0.00121402  0.40086063  -0.00328040  1
  Ti  Ti189  1  0.41063882  0.21259326  0.20441556  1
  Ti  Ti190  1  0.80471054  0.40632262  0.58083860  1
  Ti  Ti191  1  0.40145763  0.60029845  0.79439794  1
  Ti  Ti192  1  0.30137376  0.89707334  0.70223020  1
  Ti  Ti193  1  0.40619656  -0.00533460  0.19844980  1
  Ti  Ti194  1  0.50741386  0.49353787  0.10446479  1
  Ti  Ti195  1  0.19628425  0.60182829  -0.00383834  1
  Ti  Ti196  1  0.57676392  0.00126751  0.78119260  1
  Ti  Ti197  1  0.10158585  0.89600429  0.88648451  1
  Ti  Ti198  1  0.91008777  0.09726274  0.49879310  1
  Ti  Ti199  1  0.59404583  0.80342824  0.60277195  1
  Mo  Mo200  1  0.49569527  0.90415800  0.10190512  1
  Mo  Mo201  1  0.20455203  0.60888105  0.59174821  1
  Mo  Mo202  1  0.50165142  0.89752962  0.69595506  1
  Mo  Mo203  1  0.50034413  0.10087069  0.69676454  1
  Mo  Mo204  1  0.50300674  0.30109419  0.10439687  1
  Mo  Mo205  1  0.10214060  0.10053175  0.30947452  1
  Mo  Mo206  1  0.60110023  0.80689850  0.40412946  1
  Mo  Mo207  1  0.00570745  0.00216864  0.20982657  1
  Mo  Mo208  1  0.90530446  0.70190125  0.68933327  1
  Mo  Mo209  1  0.50478149  0.49806443  0.29536039  1
  Mo  Mo210  1  0.30547841  0.31098270  0.30284487  1
  Mo  Mo211  1  0.49839496  0.69406840  0.69250052  1
  Mo  Mo212  1  0.20375622  0.40489710  0.59671444  1
  Mo  Mo213  1  0.80885152  -0.00281634  0.79006859  1
  Mo  Mo214  1  0.19778095  0.20036275  0.40580185  1
  Mo  Mo215  1  0.89230183  0.29646782  0.10654306  1
  Mo  Mo216  1  0.80497972  0.60020651  0.58681842  1
  Mo  Mo217  1  0.09807906  0.50216517  0.90030103  1
  Mo  Mo218  1  0.90850030  0.30461900  0.88990772  1
  Mo  Mo219  1  0.30078444  0.10163734  0.70220524  1
  Mo  Mo220  1  0.00851217  0.80311211  0.59427682  1
  Mo  Mo221  1  0.89604422  0.70257190  0.30114320  1
  Mo  Mo222  1  0.00049762  0.79395910  0.20303911  1
  Mo  Mo223  1  0.92182596  0.89734818  0.49717715  1
  Mo  Mo224  1  0.50074156  0.09730983  0.49998600  1
  Mo  Mo225  1  0.09628496  0.30438517  0.09861480  1
  Mo  Mo226  1  0.90125863  0.50696424  0.49151425  1
  Mo  Mo227  1  0.20142570  0.60197605  0.39994867  1
  Mo  Mo228  1  0.30637588  0.10252030  0.90251644  1
  Mo  Mo229  1  0.78954078  0.20232880  0.79840186  1
  Mo  Mo230  1  0.70020549  0.49736907  0.10143987  1
  Mo  Mo231  1  0.40435364  -0.00486013  0.79885757  1
  Mo  Mo232  1  0.70107438  0.69369973  0.09735729  1
  Mo  Mo233  1  0.60257665  0.58697695  0.39946226  1
  Mo  Mo234  1  0.00490666  0.79915691  0.40090782  1
  Mo  Mo235  1  0.20872183  0.40433051  0.20921177  1
  Mo  Mo236  1  0.60104362  0.59344745  0.00963811  1
  Mo  Mo237  1  0.80152104  0.59932631  0.01065874  1
  Mo  Mo238  1  0.59959809  0.39717727  0.19904042  1
  Mo  Mo239  1  0.59595354  0.00680073  0.20701027  1
  Mo  Mo240  1  0.69135749  0.09811338  0.29878544  1
  Mo  Mo241  1  0.67994858  0.89756463  0.49918926  1
  Mo  Mo242  1  0.59894239  0.79511438  0.19961035  1
  Mo  Mo243  1  0.69428757  0.09347956  0.50352816  1
  Mo  Mo244  1  0.39794041  0.79828900  0.40448198  1
  Mo  Mo245  1  0.50460289  0.30158691  0.29919518  1
  Mo  Mo246  1  0.10715413  0.89812667  0.50302389  1
  Mo  Mo247  1  0.39713263  0.40202462  0.39704376  1
  Mo  Mo248  1  0.30004917  0.50503578  0.70014887  1
  Mo  Mo249  1  0.09041317  0.70479563  0.30390909  1
