# generated using pymatgen
data_HfZrTaTiMo
_symmetry_space_group_name_H-M   'P 1'
_cell_length_a   16.88437710
_cell_length_b   16.89094310
_cell_length_c   16.87868564
_cell_angle_alpha   89.97084063
_cell_angle_beta   90.01579463
_cell_angle_gamma   89.96474139
_symmetry_Int_Tables_number   1
_chemical_formula_structural   HfZrTaTiMo
_chemical_formula_sum   'Hf50 Zr50 Ta50 Ti50 Mo50'
_cell_volume   4813.68216754
_cell_formula_units_Z   50
loop_
 _symmetry_equiv_pos_site_id
 _symmetry_equiv_pos_as_xyz
  1  'x, y, z'
loop_
 _atom_site_type_symbol
 _atom_site_label
 _atom_site_symmetry_multiplicity
 _atom_site_fract_x
 _atom_site_fract_y
 _atom_site_fract_z
 _atom_site_occupancy
  Hf  Hf0  1  0.59608577  0.40404416  0.39687590  1
  Hf  Hf1  1  0.49884568  0.88826347  0.91330632  1
  Hf  Hf2  1  0.19043204  0.80385032  0.60050685  1
  Hf  Hf3  1  0.21524487  0.60130836  0.79184787  1
  Hf  Hf4  1  0.58026095  0.61196301  0.59057334  1
  Hf  Hf5  1  0.39837717  0.79093302  0.79587486  1
  Hf  Hf6  1  0.50561899  0.90636793  0.30129738  1
  Hf  Hf7  1  0.29168455  0.51014784  0.49555316  1
  Hf  Hf8  1  0.11181218  0.31001868  0.09916109  1
  Hf  Hf9  1  0.10552186  0.70051288  0.90004432  1
  Hf  Hf10  1  0.03144006  -0.00272938  0.60664309  1
  Hf  Hf11  1  0.19437058  0.00325274  0.40257154  1
  Hf  Hf12  1  0.69809303  0.09995312  0.28948009  1
  Hf  Hf13  1  0.40760227  0.79412629  0.59870241  1
  Hf  Hf14  1  0.40058302  0.59993034  0.19268090  1
  Hf  Hf15  1  0.70261127  0.90172865  0.30541567  1
  Hf  Hf16  1  0.30005450  0.28406047  0.51050164  1
  Hf  Hf17  1  0.40711564  0.39613630  0.00072511  1
  Hf  Hf18  1  0.28931860  0.48719690  0.09998435  1
  Hf  Hf19  1  0.89083360  0.10848295  0.10611175  1
  Hf  Hf20  1  -0.00517025  0.40080770  0.20295369  1
  Hf  Hf21  1  -0.00204469  0.80284723  -0.00812236  1
  Hf  Hf22  1  -0.00636004  0.40368800  -0.00165645  1
  Hf  Hf23  1  0.29884418  0.69916161  0.50053570  1
  Hf  Hf24  1  0.50232644  0.71016818  0.09136016  1
  Hf  Hf25  1  0.69758051  0.50917714  0.09962528  1
  Hf  Hf26  1  0.39778119  0.39459677  0.79613686  1
  Hf  Hf27  1  0.90279224  0.90506611  0.49932555  1
  Hf  Hf28  1  0.79976714  0.40149136  0.60004588  1
  Hf  Hf29  1  0.69154328  0.30527095  0.49970703  1
  Hf  Hf30  1  0.70612187  0.28482308  0.09941395  1
  Hf  Hf31  1  0.69783798  0.89332085  0.09606636  1
  Hf  Hf32  1  -0.00212936  0.60845900  0.59638860  1
  Hf  Hf33  1  0.79588659  0.19543911  0.59968584  1
  Hf  Hf34  1  0.80315916  0.40150862  0.20484189  1
  Hf  Hf35  1  0.90707522  0.09500955  0.49877925  1
  Hf  Hf36  1  0.20426345  0.40340927  0.79531549  1
  Hf  Hf37  1  0.09762412  0.50461305  0.10600763  1
  Hf  Hf38  1  0.29978568  0.90483618  0.69631494  1
  Hf  Hf39  1  0.49995846  0.09983511  0.49024899  1
  Hf  Hf40  1  0.79732084  0.40762977  0.38565920  1
  Hf  Hf41  1  0.60300727  0.19758238  0.60394053  1
  Hf  Hf42  1  0.49482099  0.10103276  0.70167097  1
  Hf  Hf43  1  0.90034368  0.09642273  0.70404016  1
  Hf  Hf44  1  0.50194546  0.28582233  0.29222401  1
  Hf  Hf45  1  0.10395640  0.89745682  0.10520477  1
  Hf  Hf46  1  0.69643355  0.89247426  0.90673921  1
  Hf  Hf47  1  0.90315189  0.69744168  0.10160520  1
  Hf  Hf48  1  0.50135068  0.50011175  0.69971747  1
  Hf  Hf49  1  0.60974279  0.39481955  0.20204773  1
  Zr  Zr50  1  0.70689138  0.50201445  0.89070256  1
  Zr  Zr51  1  0.21271076  -0.00161495  0.20876309  1
  Zr  Zr52  1  0.09449262  0.28887360  0.49953089  1
  Zr  Zr53  1  0.79991060  0.78985889  0.21783019  1
  Zr  Zr54  1  0.69813027  0.70825584  0.49120192  1
  Zr  Zr55  1  0.39417998  0.81538577  0.20260795  1
  Zr  Zr56  1  -0.00193648  -0.00982728  0.80799369  1
  Zr  Zr57  1  0.38896198  -0.00092621  0.38737924  1
  Zr  Zr58  1  0.20094496  0.59777489  -0.00229889  1
  Zr  Zr59  1  0.89349336  0.89880542  0.11240961  1
  Zr  Zr60  1  0.29768948  0.70506256  0.09826930  1
  Zr  Zr61  1  0.80345987  -0.00205319  -0.00536970  1
  Zr  Zr62  1  0.60847402  -0.00433512  0.59633464  1
  Zr  Zr63  1  0.00027543  0.41223011  0.59587297  1
  Zr  Zr64  1  0.20124196  0.19108833  0.38804866  1
  Zr  Zr65  1  0.89522281  0.09192863  0.29752414  1
  Zr  Zr66  1  0.43141277  0.59738955  0.43001332  1
  Zr  Zr67  1  -0.00077614  0.40742361  0.39490439  1
  Zr  Zr68  1  0.39922544  0.40289479  0.59950717  1
  Zr  Zr69  1  0.30409668  0.68907504  0.31005385  1
  Zr  Zr70  1  -0.00866858  0.40138427  0.81089045  1
  Zr  Zr71  1  0.29295327  0.29990695  0.90592273  1
  Zr  Zr72  1  0.19341045  0.39877442  0.39888639  1
  Zr  Zr73  1  0.20736057  0.81349031  -0.00516052  1
  Zr  Zr74  1  0.18288340  0.16842499  0.60921246  1
  Zr  Zr75  1  0.59904481  0.78699802  0.79651028  1
  Zr  Zr76  1  0.50418703  0.90020753  0.69890730  1
  Zr  Zr77  1  0.50359781  0.50886932  0.29498594  1
  Zr  Zr78  1  0.79458996  0.20519329  0.79831671  1
  Zr  Zr79  1  0.19121724  -0.00152656  0.79287085  1
  Zr  Zr80  1  0.09906815  0.10428185  0.90910987  1
  Zr  Zr81  1  0.90419875  0.29691352  0.49654275  1
  Zr  Zr82  1  -0.00731012  0.59967557  0.80990942  1
  Zr  Zr83  1  0.88544449  0.50884984  0.70645778  1
  Zr  Zr84  1  0.60034227  0.60914324  -0.01158598  1
  Zr  Zr85  1  0.80844797  0.40095130  0.00289050  1
  Zr  Zr86  1  0.39839212  0.39347048  0.20204873  1
  Zr  Zr87  1  0.19887506  0.40693279  0.60399025  1
  Zr  Zr88  1  0.00095901  -0.00450571  0.00054521  1
  Zr  Zr89  1  0.69707913  0.09856179  0.09796035  1
  Zr  Zr90  1  0.79766156  0.80656381  0.59839726  1
  Zr  Zr91  1  0.50208621  0.49744490  0.89606951  1
  Zr  Zr92  1  0.69606386  0.50776773  0.50084494  1
  Zr  Zr93  1  0.79383529  0.20494608  0.39553171  1
  Zr  Zr94  1  0.19906858  0.80514432  0.39707717  1
  Zr  Zr95  1  0.40446678  0.19806450  -0.00331442  1
  Zr  Zr96  1  0.00247038  0.80681550  0.79720127  1
  Zr  Zr97  1  0.09459090  0.29711013  0.70602806  1
  Zr  Zr98  1  0.39693925  0.39355654  0.40017447  1
  Zr  Zr99  1  0.59941630  0.00186908  0.80699615  1
  Ta  Ta100  1  0.50872406  0.50038883  0.09868992  1
  Ta  Ta101  1  0.00514406  0.00287234  0.20469929  1
  Ta  Ta102  1  0.79825998  0.61242924  0.38819184  1
  Ta  Ta103  1  0.09905204  0.70051856  0.70187547  1
  Ta  Ta104  1  0.79924090  0.60349972  0.20536026  1
  Ta  Ta105  1  0.69844555  0.09784679  0.70946131  1
  Ta  Ta106  1  0.20381791  0.19297897  0.80298703  1
  Ta  Ta107  1  0.20145956  0.19469561  0.00651360  1
  Ta  Ta108  1  0.09641231  0.89656952  0.29813503  1
  Ta  Ta109  1  0.70255600  0.70210304  0.09764158  1
  Ta  Ta110  1  0.31038832  0.70174541  0.90038628  1
  Ta  Ta111  1  0.30366457  0.28137236  0.69780908  1
  Ta  Ta112  1  0.30172988  0.09552427  0.90256324  1
  Ta  Ta113  1  0.30672366  0.09941095  0.10201695  1
  Ta  Ta114  1  0.69306497  0.50355377  0.69911695  1
  Ta  Ta115  1  0.19644667  0.60089539  0.20532918  1
  Ta  Ta116  1  0.50892675  0.28853386  0.09928413  1
  Ta  Ta117  1  0.29903031  0.90339309  0.50255395  1
  Ta  Ta118  1  0.89174007  0.70611130  0.70255432  1
  Ta  Ta119  1  0.20405570  0.19643701  0.20186809  1
  Ta  Ta120  1  0.39332579  -0.00844220  0.00404837  1
  Ta  Ta121  1  0.09524272  0.69972860  0.10751459  1
  Ta  Ta122  1  0.60075766  0.39077215  0.79814295  1
  Ta  Ta123  1  0.29714230  0.29659136  0.10578580  1
  Ta  Ta124  1  0.00326970  0.80272523  0.40403695  1
  Ta  Ta125  1  0.40151988  -0.00125178  0.59454996  1
  Ta  Ta126  1  0.89474280  0.10910097  0.90366572  1
  Ta  Ta127  1  0.19589850  0.60379155  0.60299897  1
  Ta  Ta128  1  0.39309202  0.19737360  0.39089151  1
  Ta  Ta129  1  0.90050774  0.29839426  0.70035771  1
  Ta  Ta130  1  0.09831928  0.50863688  0.70209230  1
  Ta  Ta131  1  0.50107365  0.09684893  0.10176466  1
  Ta  Ta132  1  0.40262013  0.19695184  0.80495827  1
  Ta  Ta133  1  0.69607499  0.10654416  0.90755069  1
  Ta  Ta134  1  0.60114100  0.79801998  0.20084378  1
  Ta  Ta135  1  -0.00257402  0.20801271  0.00776119  1
  Ta  Ta136  1  0.89652274  0.51687924  0.48905486  1
  Ta  Ta137  1  0.69483688  0.29490039  0.90612631  1
  Ta  Ta138  1  0.59854305  -0.00444559  0.19546533  1
  Ta  Ta139  1  0.30239537  0.09659182  0.50659840  1
  Ta  Ta140  1  0.50071643  0.09949803  0.28836871  1
  Ta  Ta141  1  0.29256265  0.50215601  0.30211671  1
  Ta  Ta142  1  0.49893963  0.29133788  0.50288345  1
  Ta  Ta143  1  0.40341968  0.80444261  0.40169119  1
  Ta  Ta144  1  0.40198388  0.59886940  -0.00311956  1
  Ta  Ta145  1  0.59639515  0.60745475  0.79413823  1
  Ta  Ta146  1  0.09484727  0.69819538  0.29753703  1
  Ta  Ta147  1  0.00752818  0.19948397  0.19750737  1
  Ta  Ta148  1  0.50915527  0.69972891  0.30205603  1
  Ta  Ta149  1  0.00397360  0.80121265  0.59791145  1
  Ti  Ti150  1  0.79864884  0.60623006  0.59698989  1
  Ti  Ti151  1  0.09948744  0.51374485  0.30479218  1
  Ti  Ti152  1  0.10454648  0.29987600  0.90605926  1
  Ti  Ti153  1  0.79760740  -0.00185028  0.40293348  1
  Ti  Ti154  1  -0.00069845  0.20187539  0.80747975  1
  Ti  Ti155  1  0.50440615  0.09471118  0.91050926  1
  Ti  Ti156  1  0.01170747  -0.00203204  0.39741238  1
  Ti  Ti157  1  0.69577077  0.09340745  0.49047454  1
  Ti  Ti158  1  0.10547278  0.49697236  0.90177729  1
  Ti  Ti159  1  0.39742890  -0.00127936  0.80998634  1
  Ti  Ti160  1  0.20508698  0.80091038  0.20486941  1
  Ti  Ti161  1  0.01054905  0.18837792  0.38626426  1
  Ti  Ti162  1  0.10408287  0.09980690  0.10225306  1
  Ti  Ti163  1  0.30852927  0.09694331  0.69963006  1
  Ti  Ti164  1  0.90171850  0.51179377  0.10510445  1
  Ti  Ti165  1  0.90145599  0.90171311  0.30686647  1
  Ti  Ti166  1  0.79685003  0.00024661  0.80216203  1
  Ti  Ti167  1  0.70437249  0.89699239  0.70503587  1
  Ti  Ti168  1  0.87944191  0.88470942  0.89427493  1
  Ti  Ti169  1  0.00082094  0.80074523  0.20709747  1
  Ti  Ti170  1  0.89258487  0.29201225  0.90539919  1
  Ti  Ti171  1  0.69644353  0.30484729  0.70149007  1
  Ti  Ti172  1  0.89565152  0.90069263  0.69772438  1
  Ti  Ti173  1  0.80655016  0.60098955  -0.00458412  1
  Ti  Ti174  1  0.91204817  0.69826290  0.30747960  1
  Ti  Ti175  1  0.79874928  0.39657048  0.80189091  1
  Ti  Ti176  1  0.88524274  0.70179105  0.89316354  1
  Ti  Ti177  1  0.49750974  0.29452436  0.69604737  1
  Ti  Ti178  1  0.69719755  0.89846890  0.49084697  1
  Ti  Ti179  1  0.59894734  0.39298283  -0.00306681  1
  Ti  Ti180  1  0.68946915  0.52254027  0.29688026  1
  Ti  Ti181  1  0.30481569  0.50106987  0.90090323  1
  Ti  Ti182  1  0.89656334  0.70601537  0.49286697  1
  Ti  Ti183  1  0.59292462  0.20473709  0.80694450  1
  Ti  Ti184  1  0.39215339  0.60635322  0.61751955  1
  Ti  Ti185  1  0.71067624  0.70743147  0.90127729  1
  Ti  Ti186  1  0.20764843  -0.00321962  -0.00064985  1
  Ti  Ti187  1  0.60130293  0.19942587  0.39387504  1
  Ti  Ti188  1  0.10460108  0.30043499  0.29162290  1
  Ti  Ti189  1  0.00128235  0.19029291  0.60463854  1
  Ti  Ti190  1  0.70097133  0.69768702  0.69569727  1
  Ti  Ti191  1  0.79289133  0.00181646  0.60071945  1
  Ti  Ti192  1  0.90813312  0.51931840  0.29934958  1
  Ti  Ti193  1  0.50251538  0.90164801  0.09460096  1
  Ti  Ti194  1  0.59835306  0.79851406  0.39698948  1
  Ti  Ti195  1  0.09868667  0.69362135  0.49056950  1
  Ti  Ti196  1  0.20431199  0.80349496  0.80076653  1
  Ti  Ti197  1  0.89966516  0.28687660  0.29150119  1
  Ti  Ti198  1  -0.00531087  0.59785645  -0.00641653  1
  Ti  Ti199  1  0.50778946  0.90121957  0.49456679  1
  Mo  Mo200  1  0.60244938  0.00218806  0.39730024  1
  Mo  Mo201  1  0.59711990  0.19731835  -0.00412768  1
  Mo  Mo202  1  0.60383393  0.60575810  0.39829615  1
  Mo  Mo203  1  -0.00386017  0.60838966  0.40156949  1
  Mo  Mo204  1  0.40615195  0.00256100  0.19176724  1
  Mo  Mo205  1  0.08858966  0.10566923  0.72103390  1
  Mo  Mo206  1  0.10351119  0.88854597  0.70171540  1
  Mo  Mo207  1  0.69200711  0.70053043  0.29798421  1
  Mo  Mo208  1  0.18657299  0.60053273  0.40046843  1
  Mo  Mo209  1  0.69982268  0.29253008  0.29813197  1
  Mo  Mo210  1  0.09575580  0.51504062  0.50098930  1
  Mo  Mo211  1  0.19708186  0.39742773  -0.00795952  1
  Mo  Mo212  1  0.49185324  0.69473211  0.89821601  1
  Mo  Mo213  1  0.59078956  0.00181066  0.00392727  1
  Mo  Mo214  1  0.39878949  0.80144206  -0.00194084  1
  Mo  Mo215  1  0.29883802  0.89788807  0.30275405  1
  Mo  Mo216  1  0.79706707  0.79973688  0.79354087  1
  Mo  Mo217  1  0.78777457  0.61120146  0.79409871  1
  Mo  Mo218  1  0.30853823  0.10509417  0.29140881  1
  Mo  Mo219  1  0.49938050  0.69494653  0.69916326  1
  Mo  Mo220  1  0.59831725  0.19413744  0.19744199  1
  Mo  Mo221  1  0.40112431  0.60106994  0.80144181  1
  Mo  Mo222  1  0.40523173  0.19293294  0.60094125  1
  Mo  Mo223  1  0.29696944  0.29896466  0.29131123  1
  Mo  Mo224  1  0.60197790  0.60849375  0.19493139  1
  Mo  Mo225  1  0.59865030  0.39375313  0.60812374  1
  Mo  Mo226  1  0.80523272  0.20684505  0.20009789  1
  Mo  Mo227  1  0.29689111  0.70176922  0.69964694  1
  Mo  Mo228  1  0.11070170  0.89839481  0.90184984  1
  Mo  Mo229  1  0.20711630  -0.00286911  0.59852146  1
  Mo  Mo230  1  0.30520890  0.90505371  0.89666557  1
  Mo  Mo231  1  0.50830847  0.47758029  0.50936779  1
  Mo  Mo232  1  0.80276049  -0.00695531  0.20463414  1
  Mo  Mo233  1  0.50538370  0.72396701  0.49837051  1
  Mo  Mo234  1  0.60345158  0.80417605  0.59782862  1
  Mo  Mo235  1  0.80196374  0.78980581  -0.00303310  1
  Mo  Mo236  1  0.09869469  0.89825753  0.49525035  1
  Mo  Mo237  1  0.90572204  0.29707238  0.10503932  1
  Mo  Mo238  1  0.19729725  0.40223777  0.21356914  1
  Mo  Mo239  1  0.30261291  0.90660187  0.10070483  1
  Mo  Mo240  1  -0.00008385  0.60349412  0.20433037  1
  Mo  Mo241  1  0.09437465  0.09578618  0.48585007  1
  Mo  Mo242  1  0.50776590  0.29652580  0.89705601  1
  Mo  Mo243  1  0.30134179  0.50600597  0.69726438  1
  Mo  Mo244  1  0.80387857  0.20150143  -0.00445213  1
  Mo  Mo245  1  0.39801119  0.19630774  0.19533875  1
  Mo  Mo246  1  0.89129127  0.50809671  0.90426934  1
  Mo  Mo247  1  0.09630858  0.09783365  0.29115797  1
  Mo  Mo248  1  0.60339776  0.79634267  0.00353278  1
  Mo  Mo249  1  0.81212185  0.80186254  0.40051014  1
