# generated using pymatgen
data_HfZrTaTiMo
_symmetry_space_group_name_H-M   'P 1'
_cell_length_a   16.88907886
_cell_length_b   16.89072638
_cell_length_c   16.88420459
_cell_angle_alpha   89.96920273
_cell_angle_beta   89.97972189
_cell_angle_gamma   89.98240313
_symmetry_Int_Tables_number   1
_chemical_formula_structural   HfZrTaTiMo
_chemical_formula_sum   'Hf50 Zr50 Ta50 Ti50 Mo50'
_cell_volume   4816.53572200
_cell_formula_units_Z   50
loop_
 _symmetry_equiv_pos_site_id
 _symmetry_equiv_pos_as_xyz
  1  'x, y, z'
loop_
 _atom_site_type_symbol
 _atom_site_label
 _atom_site_symmetry_multiplicity
 _atom_site_fract_x
 _atom_site_fract_y
 _atom_site_fract_z
 _atom_site_occupancy
  Hf  Hf0  1  0.20420720  0.40846254  0.60550984  1
  Hf  Hf1  1  0.59811996  0.80527563  0.79518291  1
  Hf  Hf2  1  0.69283695  0.71372248  0.50308506  1
  Hf  Hf3  1  0.60107427  0.39738070  0.60219312  1
  Hf  Hf4  1  0.59489678  -0.00071494  -0.00559595  1
  Hf  Hf5  1  0.39843401  0.39793373  0.19431870  1
  Hf  Hf6  1  0.18937531  -0.00502060  0.61824781  1
  Hf  Hf7  1  0.10694813  0.50548378  0.90494230  1
  Hf  Hf8  1  0.90266890  0.30688981  0.30156683  1
  Hf  Hf9  1  0.80219083  0.60348986  0.18524112  1
  Hf  Hf10  1  0.69074761  0.48817697  0.88087508  1
  Hf  Hf11  1  0.39948702  0.39264971  -0.00261946  1
  Hf  Hf12  1  0.60393137  0.59200744  0.59985998  1
  Hf  Hf13  1  0.00704901  0.79408920  -0.00525738  1
  Hf  Hf14  1  0.59877924  0.60681089  0.19481070  1
  Hf  Hf15  1  0.29979098  0.88967881  0.08754805  1
  Hf  Hf16  1  0.00243727  0.80377625  0.60637444  1
  Hf  Hf17  1  -0.00305270  0.19235053  0.79830451  1
  Hf  Hf18  1  0.19610271  -0.01115855  0.38864791  1
  Hf  Hf19  1  0.70216786  0.09480014  0.30817465  1
  Hf  Hf20  1  0.10442415  0.29930189  0.09831010  1
  Hf  Hf21  1  0.19984031  -0.00552886  0.19905900  1
  Hf  Hf22  1  0.90356699  0.50090549  0.50661941  1
  Hf  Hf23  1  0.70801184  0.29544871  0.89334840  1
  Hf  Hf24  1  0.30002527  0.49896492  0.30263558  1
  Hf  Hf25  1  0.30260074  0.10691465  0.29552402  1
  Hf  Hf26  1  0.39878910  0.20341117  0.40471881  1
  Hf  Hf27  1  0.29563426  0.30444102  0.50401039  1
  Hf  Hf28  1  0.69574207  0.49863485  0.07885269  1
  Hf  Hf29  1  0.79640708  0.60794805  0.60204895  1
  Hf  Hf30  1  0.59566443  -0.00557015  0.40457614  1
  Hf  Hf31  1  0.19615512  0.18208451  0.80201073  1
  Hf  Hf32  1  -0.00614644  0.39998171  0.80935018  1
  Hf  Hf33  1  0.40146530  0.60133266  0.40518799  1
  Hf  Hf34  1  0.00184684  0.19320131  0.61237529  1
  Hf  Hf35  1  0.80266327  0.60596697  0.40411274  1
  Hf  Hf36  1  0.40118014  0.19773306  -0.00945921  1
  Hf  Hf37  1  0.49628811  0.69857611  0.70178916  1
  Hf  Hf38  1  0.01208224  0.40424624  0.61593973  1
  Hf  Hf39  1  0.60487001  0.20494481  0.60456555  1
  Hf  Hf40  1  -0.00249061  0.60536436  0.00106145  1
  Hf  Hf41  1  0.01226835  0.40095773  0.40142537  1
  Hf  Hf42  1  0.49740087  0.50547063  0.09550132  1
  Hf  Hf43  1  0.29325386  0.29666276  0.89441264  1
  Hf  Hf44  1  0.69527442  0.89045615  0.30919584  1
  Hf  Hf45  1  0.59817993  0.20564215  0.19525337  1
  Hf  Hf46  1  -0.00137620  0.19656047  -0.00660794  1
  Hf  Hf47  1  0.70273741  0.29961676  0.08305368  1
  Hf  Hf48  1  0.49516693  0.10187202  0.10262853  1
  Hf  Hf49  1  0.70206344  0.71031892  0.89559962  1
  Zr  Zr50  1  0.19829181  0.00300774  -0.01558812  1
  Zr  Zr51  1  0.29096181  0.10176801  0.50008540  1
  Zr  Zr52  1  0.49143530  0.30678471  0.30740166  1
  Zr  Zr53  1  0.79478141  -0.00009463  0.18987756  1
  Zr  Zr54  1  0.90551371  0.09593063  0.30421922  1
  Zr  Zr55  1  0.39649662  0.00234524  -0.01178530  1
  Zr  Zr56  1  0.39983632  0.61740949  -0.00648887  1
  Zr  Zr57  1  0.59992175  -0.00833622  0.19410270  1
  Zr  Zr58  1  0.59793040  0.40335324  0.41526739  1
  Zr  Zr59  1  0.10757630  0.70087912  0.50737598  1
  Zr  Zr60  1  0.10179922  0.10329979  0.09842554  1
  Zr  Zr61  1  0.49855021  0.09912961  0.50688071  1
  Zr  Zr62  1  0.90548421  0.88940816  0.09552900  1
  Zr  Zr63  1  0.90549508  0.08612638  0.49441812  1
  Zr  Zr64  1  0.40094109  -0.00806350  0.20047393  1
  Zr  Zr65  1  0.81087237  0.79266951  0.40781236  1
  Zr  Zr66  1  0.90409902  0.50275463  0.30051968  1
  Zr  Zr67  1  0.60174864  0.20793631  0.41325241  1
  Zr  Zr68  1  0.59487284  0.39800592  0.19141021  1
  Zr  Zr69  1  0.20413563  0.60623498  0.20177473  1
  Zr  Zr70  1  0.89910461  0.30900846  0.51255543  1
  Zr  Zr71  1  0.39155199  0.61098107  0.80643020  1
  Zr  Zr72  1  0.09197865  0.10277013  0.30157115  1
  Zr  Zr73  1  0.39530729  0.58870790  0.59251102  1
  Zr  Zr74  1  0.89343212  0.71443872  0.70456664  1
  Zr  Zr75  1  0.79743406  0.20555090  0.41412591  1
  Zr  Zr76  1  0.60376786  -0.00994599  0.61342193  1
  Zr  Zr77  1  0.70395451  0.49981894  0.30170107  1
  Zr  Zr78  1  -0.00679680  0.40105798  0.00317261  1
  Zr  Zr79  1  0.71057103  0.31111510  0.30344180  1
  Zr  Zr80  1  0.40316327  -0.00997686  0.39620605  1
  Zr  Zr81  1  0.09728085  0.09732071  0.49672073  1
  Zr  Zr82  1  0.79561967  0.79648381  0.19371779  1
  Zr  Zr83  1  0.90383288  0.90515258  0.30385558  1
  Zr  Zr84  1  0.79683710  -0.00205150  0.00126915  1
  Zr  Zr85  1  0.50053640  0.49577416  0.88939016  1
  Zr  Zr86  1  0.00301000  0.60462654  0.80228521  1
  Zr  Zr87  1  0.70860960  0.30812135  0.70935017  1
  Zr  Zr88  1  0.79295626  0.59940763  0.79607287  1
  Zr  Zr89  1  0.49435501  0.09652106  0.70592694  1
  Zr  Zr90  1  0.81689377  0.40395137  0.17330142  1
  Zr  Zr91  1  0.28895995  0.89094940  0.50382140  1
  Zr  Zr92  1  0.50069491  0.48743382  0.70900773  1
  Zr  Zr93  1  0.59316762  0.61215592  -0.01380749  1
  Zr  Zr94  1  0.29566593  0.50766516  0.09534394  1
  Zr  Zr95  1  0.39323035  -0.00981048  0.60334219  1
  Zr  Zr96  1  0.89147531  0.09195548  0.89220001  1
  Zr  Zr97  1  0.19471504  0.40852527  0.79378100  1
  Zr  Zr98  1  0.91354608  0.70396805  0.28671045  1
  Zr  Zr99  1  0.80670050  0.19890153  0.18853124  1
  Ta  Ta100  1  0.39685939  0.79843109  0.60148238  1
  Ta  Ta101  1  0.81790372  0.40502939  -0.01699150  1
  Ta  Ta102  1  0.29532176  0.30671301  0.30237618  1
  Ta  Ta103  1  0.59588787  0.59897064  0.40663043  1
  Ta  Ta104  1  0.09990612  0.50774264  0.30012434  1
  Ta  Ta105  1  0.29462711  0.29497978  0.09960426  1
  Ta  Ta106  1  0.00659096  -0.00818048  0.19269103  1
  Ta  Ta107  1  0.00723187  0.40434097  0.19590595  1
  Ta  Ta108  1  0.10416364  0.29395276  0.90318618  1
  Ta  Ta109  1  0.19977314  0.19784271  0.61362057  1
  Ta  Ta110  1  0.50040904  0.10396156  0.29831979  1
  Ta  Ta111  1  0.70617504  0.09130163  0.50868781  1
  Ta  Ta112  1  0.89305937  0.49589958  0.70097014  1
  Ta  Ta113  1  0.80762706  0.59948203  -0.00479338  1
  Ta  Ta114  1  0.80450302  0.19083877  0.61080159  1
  Ta  Ta115  1  0.29402816  0.70955831  0.69685278  1
  Ta  Ta116  1  0.48976486  0.89679122  0.89235030  1
  Ta  Ta117  1  0.29458724  0.11047654  0.09742873  1
  Ta  Ta118  1  0.90128726  0.90162591  0.70852376  1
  Ta  Ta119  1  0.90203141  0.90039051  0.50695338  1
  Ta  Ta120  1  0.70194509  0.89664476  0.90006266  1
  Ta  Ta121  1  0.09977514  0.69894999  0.29874278  1
  Ta  Ta122  1  0.20296008  0.60930098  0.80130735  1
  Ta  Ta123  1  0.59666861  0.19428915  0.80238662  1
  Ta  Ta124  1  0.50296912  0.70551241  0.29988903  1
  Ta  Ta125  1  0.29548514  0.70110182  0.50411834  1
  Ta  Ta126  1  0.00392403  0.60638991  0.40746920  1
  Ta  Ta127  1  0.09492039  0.90012929  0.49952709  1
  Ta  Ta128  1  0.01259841  -0.00381176  0.79947892  1
  Ta  Ta129  1  0.49752224  0.50685511  0.30289053  1
  Ta  Ta130  1  0.19988960  0.20766847  0.20528503  1
  Ta  Ta131  1  0.19889558  0.79515841  0.39352263  1
  Ta  Ta132  1  0.10523876  0.70819889  0.70657932  1
  Ta  Ta133  1  0.39983743  0.79382912  0.40300623  1
  Ta  Ta134  1  0.80452403  -0.00181144  0.60871468  1
  Ta  Ta135  1  0.10666613  0.29904954  0.50760825  1
  Ta  Ta136  1  0.60061771  -0.00247613  0.80492275  1
  Ta  Ta137  1  0.68673621  0.70470058  0.30207241  1
  Ta  Ta138  1  0.19981992  0.79940631  0.20179170  1
  Ta  Ta139  1  0.89440512  0.71185874  0.89826913  1
  Ta  Ta140  1  0.20044222  0.39881348  0.00150029  1
  Ta  Ta141  1  0.10457825  0.50415777  0.10067602  1
  Ta  Ta142  1  0.70741982  0.89971528  0.50524028  1
  Ta  Ta143  1  0.10454217  0.50565043  0.50253614  1
  Ta  Ta144  1  0.69805286  0.70781511  0.08868030  1
  Ta  Ta145  1  0.20070033  0.59616896  0.61129610  1
  Ta  Ta146  1  0.00367875  0.79533492  0.40530714  1
  Ta  Ta147  1  0.58903491  0.19872010  -0.01157565  1
  Ta  Ta148  1  0.00601900  -0.00619783  -0.00983828  1
  Ta  Ta149  1  0.30556349  0.71297617  0.09967716  1
  Ti  Ti150  1  0.40424130  0.61055341  0.20002706  1
  Ti  Ti151  1  0.09086160  0.88821501  0.29584098  1
  Ti  Ti152  1  0.20097905  0.61693839  -0.00686156  1
  Ti  Ti153  1  0.39317863  0.20179253  0.60957905  1
  Ti  Ti154  1  0.19483277  0.39848319  0.20381920  1
  Ti  Ti155  1  0.00162801  0.60081264  0.18809918  1
  Ti  Ti156  1  0.50396583  0.88272292  0.29608566  1
  Ti  Ti157  1  0.20127488  -0.00499116  0.80108638  1
  Ti  Ti158  1  0.31064237  0.30320706  0.70501877  1
  Ti  Ti159  1  0.48437528  0.89820189  0.70858563  1
  Ti  Ti160  1  0.30780480  0.49919810  0.70744982  1
  Ti  Ti161  1  0.69634232  0.10764240  0.08895905  1
  Ti  Ti162  1  0.10655132  0.70577201  0.10206874  1
  Ti  Ti163  1  0.58754711  0.38539909  -0.00804679  1
  Ti  Ti164  1  0.81210715  0.20313823  -0.00321188  1
  Ti  Ti165  1  0.19223250  0.21216061  0.39409543  1
  Ti  Ti166  1  0.30365485  0.09141235  0.70700013  1
  Ti  Ti167  1  0.70077490  0.10233488  0.89592382  1
  Ti  Ti168  1  0.29648246  0.72674730  0.90274062  1
  Ti  Ti169  1  0.30666662  0.88523965  0.29447400  1
  Ti  Ti170  1  0.00159720  -0.00182882  0.61468433  1
  Ti  Ti171  1  0.39944388  0.20925497  0.19742374  1
  Ti  Ti172  1  0.71411550  0.88788677  0.70017597  1
  Ti  Ti173  1  0.29869150  0.49809635  0.89848396  1
  Ti  Ti174  1  0.10318043  0.89304278  0.09667578  1
  Ti  Ti175  1  0.39728845  0.41384913  0.41683734  1
  Ti  Ti176  1  0.58426460  0.79861347  -0.00530282  1
  Ti  Ti177  1  0.70550047  0.10092761  0.70825766  1
  Ti  Ti178  1  0.49542051  0.30027515  0.88020441  1
  Ti  Ti179  1  0.20111590  0.80687532  0.79617294  1
  Ti  Ti180  1  0.48314420  0.30800708  0.51819918  1
  Ti  Ti181  1  0.89031464  0.30240072  0.70981655  1
  Ti  Ti182  1  0.71259562  0.49061828  0.50297360  1
  Ti  Ti183  1  0.90937048  0.09522931  0.09880246  1
  Ti  Ti184  1  0.69287460  0.88537200  0.08860335  1
  Ti  Ti185  1  0.89567343  0.89245665  0.89204019  1
  Ti  Ti186  1  0.49105077  0.88249381  0.09892100  1
  Ti  Ti187  1  0.19561415  0.40267172  0.40063649  1
  Ti  Ti188  1  0.00319755  0.60223553  0.60715852  1
  Ti  Ti189  1  0.59847281  0.80304791  0.60802880  1
  Ti  Ti190  1  0.50209037  0.70512099  0.50124597  1
  Ti  Ti191  1  0.50455631  0.88646240  0.50163124  1
  Ti  Ti192  1  0.10507487  0.29453461  0.70620149  1
  Ti  Ti193  1  0.00050975  0.20970469  0.19831896  1
  Ti  Ti194  1  0.20307338  0.59975881  0.40472429  1
  Ti  Ti195  1  0.79559972  -0.00392166  0.79562754  1
  Ti  Ti196  1  0.39839308  0.19029883  0.80332353  1
  Ti  Ti197  1  0.00686703  0.21332772  0.40252697  1
  Ti  Ti198  1  0.10618558  0.88858002  0.89453741  1
  Ti  Ti199  1  0.30372957  0.70407952  0.30070095  1
  Mo  Mo200  1  0.80984546  0.40281949  0.80222342  1
  Mo  Mo201  1  0.30207643  0.09745420  0.89272109  1
  Mo  Mo202  1  0.80184527  0.79794938  -0.00396321  1
  Mo  Mo203  1  0.90664941  0.29676053  0.09591985  1
  Mo  Mo204  1  0.49771365  0.71455445  0.89349071  1
  Mo  Mo205  1  0.29806816  0.89837480  0.88980262  1
  Mo  Mo206  1  0.29692577  0.89333323  0.70566699  1
  Mo  Mo207  1  0.19849340  0.79868122  -0.00087912  1
  Mo  Mo208  1  0.49865637  0.49804624  0.49948381  1
  Mo  Mo209  1  0.71455723  0.29966030  0.51438528  1
  Mo  Mo210  1  0.09892338  0.09316503  0.70338458  1
  Mo  Mo211  1  0.19854779  0.79893194  0.60455953  1
  Mo  Mo212  1  0.80277250  0.80679641  0.60302892  1
  Mo  Mo213  1  0.59258515  0.37998104  0.79568035  1
  Mo  Mo214  1  0.20216769  0.20148651  -0.00183576  1
  Mo  Mo215  1  0.89734007  0.29233367  0.89623184  1
  Mo  Mo216  1  0.49604814  0.29497282  0.08921975  1
  Mo  Mo217  1  0.90909566  0.69985253  0.50699635  1
  Mo  Mo218  1  0.48941691  0.29241963  0.70360885  1
  Mo  Mo219  1  0.59578849  0.79610482  0.19262319  1
  Mo  Mo220  1  0.80361162  0.40455255  0.41356470  1
  Mo  Mo221  1  0.79868474  0.19045491  0.79657959  1
  Mo  Mo222  1  0.59076435  0.79753508  0.40602518  1
  Mo  Mo223  1  0.39302902  0.80524566  0.79615841  1
  Mo  Mo224  1  0.60394530  0.61533965  0.78905419  1
  Mo  Mo225  1  0.49855788  0.71027952  0.10370819  1
  Mo  Mo226  1  0.90832434  0.50510861  0.09334107  1
  Mo  Mo227  1  0.00345487  -0.01749285  0.39551232  1
  Mo  Mo228  1  0.39204029  -0.00341306  0.80080771  1
  Mo  Mo229  1  0.40223579  0.80254251  -0.00724977  1
  Mo  Mo230  1  0.79729204  -0.00585548  0.41452059  1
  Mo  Mo231  1  0.10276719  0.30647356  0.29887892  1
  Mo  Mo232  1  0.70023416  0.49898004  0.69987935  1
  Mo  Mo233  1  0.09880592  0.09336626  0.89799325  1
  Mo  Mo234  1  0.29043929  0.50330996  0.49676482  1
  Mo  Mo235  1  0.39875576  0.79376507  0.20497035  1
  Mo  Mo236  1  0.09872883  0.89610563  0.70779814  1
  Mo  Mo237  1  0.39291501  0.39360878  0.79943732  1
  Mo  Mo238  1  0.00464582  0.80631516  0.80500513  1
  Mo  Mo239  1  0.89839121  0.08732139  0.70154149  1
  Mo  Mo240  1  0.79905190  0.80908159  0.80072922  1
  Mo  Mo241  1  0.11197200  0.70458021  0.89747943  1
  Mo  Mo242  1  0.89856558  0.69796048  0.09161348  1
  Mo  Mo243  1  0.39424467  0.39745515  0.60379456  1
  Mo  Mo244  1  0.89920973  0.50953451  0.89563613  1
  Mo  Mo245  1  0.79979481  0.40700476  0.60840996  1
  Mo  Mo246  1  0.50291208  0.09674063  0.89314268  1
  Mo  Mo247  1  0.09567122  0.51578594  0.70031997  1
  Mo  Mo248  1  0.69232381  0.70540188  0.69757579  1
  Mo  Mo249  1  0.01471364  0.79746156  0.19442643  1
