# generated using pymatgen
data_HfZrTaTiMo
_symmetry_space_group_name_H-M   'P 1'
_cell_length_a   16.88572805
_cell_length_b   16.89187219
_cell_length_c   16.87577712
_cell_angle_alpha   89.97230987
_cell_angle_beta   90.05005035
_cell_angle_gamma   89.99908173
_symmetry_Int_Tables_number   1
_chemical_formula_structural   HfZrTaTiMo
_chemical_formula_sum   'Hf50 Zr50 Ta50 Ti50 Mo50'
_cell_volume   4813.50183680
_cell_formula_units_Z   50
loop_
 _symmetry_equiv_pos_site_id
 _symmetry_equiv_pos_as_xyz
  1  'x, y, z'
loop_
 _atom_site_type_symbol
 _atom_site_label
 _atom_site_symmetry_multiplicity
 _atom_site_fract_x
 _atom_site_fract_y
 _atom_site_fract_z
 _atom_site_occupancy
  Hf  Hf0  1  0.19579534  0.20347420  0.60026093  1
  Hf  Hf1  1  0.51182685  0.89288337  0.91234319  1
  Hf  Hf2  1  0.39755383  0.19728300  0.39302921  1
  Hf  Hf3  1  0.29726441  0.89851046  0.90463433  1
  Hf  Hf4  1  0.19998666  0.80567760  0.20776555  1
  Hf  Hf5  1  0.79091914  0.01001635  0.39334814  1
  Hf  Hf6  1  0.49252214  0.31218487  0.49712748  1
  Hf  Hf7  1  0.49360311  0.31531554  0.28716579  1
  Hf  Hf8  1  0.01245443  -0.00556091  0.40365848  1
  Hf  Hf9  1  0.71087340  0.49363769  0.90147862  1
  Hf  Hf10  1  0.21423108  -0.00167732  0.20935103  1
  Hf  Hf11  1  0.59815331  0.19622981  0.39208282  1
  Hf  Hf12  1  -0.01083572  0.60121540  0.19446638  1
  Hf  Hf13  1  0.19429185  0.79968066  0.80422930  1
  Hf  Hf14  1  0.90251672  0.49581452  0.71073385  1
  Hf  Hf15  1  0.19729719  0.20091883  -0.00018136  1
  Hf  Hf16  1  0.19922524  0.58057312  0.59390533  1
  Hf  Hf17  1  0.50596031  0.71838733  0.10331565  1
  Hf  Hf18  1  0.49882786  0.50558903  0.89430778  1
  Hf  Hf19  1  0.60846877  0.59867895  0.01045896  1
  Hf  Hf20  1  0.19218862  0.39957390  0.19865373  1
  Hf  Hf21  1  0.50416285  0.70324856  0.89929105  1
  Hf  Hf22  1  0.32575911  0.49365083  0.48760153  1
  Hf  Hf23  1  0.19790919  0.40272914  -0.00510236  1
  Hf  Hf24  1  0.70640415  0.29999251  0.49547919  1
  Hf  Hf25  1  0.10046611  0.69567890  0.69688460  1
  Hf  Hf26  1  0.79704481  0.00394653  0.60453875  1
  Hf  Hf27  1  0.39263517  -0.01096865  0.39076296  1
  Hf  Hf28  1  -0.00253036  0.00333323  0.80450827  1
  Hf  Hf29  1  0.49891981  0.10417984  0.90761747  1
  Hf  Hf30  1  0.29785989  0.70617973  0.49937054  1
  Hf  Hf31  1  0.60293498  0.60662168  0.79137359  1
  Hf  Hf32  1  0.09346066  0.50566445  0.29585076  1
  Hf  Hf33  1  0.19553707  0.39613114  0.40279624  1
  Hf  Hf34  1  0.09771266  0.50147404  0.70959553  1
  Hf  Hf35  1  0.00962191  0.39635219  0.60283196  1
  Hf  Hf36  1  0.80718052  0.41237381  0.39265572  1
  Hf  Hf37  1  0.69998271  0.88844703  0.28896666  1
  Hf  Hf38  1  0.10922469  0.69319697  0.10014148  1
  Hf  Hf39  1  0.89175678  0.89774169  0.89997946  1
  Hf  Hf40  1  0.20385992  0.39852786  0.80434922  1
  Hf  Hf41  1  0.69943644  0.30562162  0.29941588  1
  Hf  Hf42  1  0.20163067  0.19143305  0.39715289  1
  Hf  Hf43  1  0.40312620  -0.00579175  0.79780775  1
  Hf  Hf44  1  0.00506115  0.80060577  0.39562765  1
  Hf  Hf45  1  0.60052198  0.20928732  0.60344109  1
  Hf  Hf46  1  0.50061248  0.09441618  0.49901947  1
  Hf  Hf47  1  0.80665421  0.60550146  0.60020047  1
  Hf  Hf48  1  0.80018366  0.60331854  0.79838157  1
  Hf  Hf49  1  0.20271891  0.19747459  0.20487952  1
  Zr  Zr50  1  0.90326311  0.29297891  0.29968421  1
  Zr  Zr51  1  0.30616222  0.29914412  0.10363899  1
  Zr  Zr52  1  0.80430586  0.60284534  0.20179156  1
  Zr  Zr53  1  0.49614688  0.10007734  0.69993715  1
  Zr  Zr54  1  0.89992184  0.29722365  0.50005212  1
  Zr  Zr55  1  0.19412346  0.59028144  0.40332673  1
  Zr  Zr56  1  0.48955129  0.50430707  0.30462647  1
  Zr  Zr57  1  0.39161638  0.40821893  -0.00450733  1
  Zr  Zr58  1  0.00222119  0.79420539  0.80342449  1
  Zr  Zr59  1  0.49257016  0.29833929  0.09959250  1
  Zr  Zr60  1  0.70575672  0.88675845  0.50134143  1
  Zr  Zr61  1  0.89014122  0.89851173  0.09633786  1
  Zr  Zr62  1  0.30661310  0.09620559  0.50850218  1
  Zr  Zr63  1  0.09308131  0.09828641  0.10108055  1
  Zr  Zr64  1  0.90438210  0.29441398  0.71315473  1
  Zr  Zr65  1  0.40627051  0.79333418  0.79219407  1
  Zr  Zr66  1  0.60225058  0.40202361  0.00603961  1
  Zr  Zr67  1  0.29061791  0.90192392  0.69749724  1
  Zr  Zr68  1  0.61342272  -0.00224734  0.80821817  1
  Zr  Zr69  1  0.89715657  0.89413357  0.50314132  1
  Zr  Zr70  1  0.59272100  0.80540080  0.39974941  1
  Zr  Zr71  1  0.30200357  0.29703995  0.70291918  1
  Zr  Zr72  1  0.19106575  -0.00290751  0.59290147  1
  Zr  Zr73  1  0.09910456  0.69973902  0.49970105  1
  Zr  Zr74  1  0.50059348  0.69178662  0.49780614  1
  Zr  Zr75  1  0.30104252  0.69490428  0.30548328  1
  Zr  Zr76  1  0.09551735  0.90361595  0.10273944  1
  Zr  Zr77  1  0.60699703  0.60049771  0.19585848  1
  Zr  Zr78  1  0.90377482  0.50404407  0.49749226  1
  Zr  Zr79  1  0.89965607  0.10512744  0.50209751  1
  Zr  Zr80  1  0.79115467  0.00910085  0.19644219  1
  Zr  Zr81  1  0.49538016  0.70447969  0.29632497  1
  Zr  Zr82  1  0.59806810  0.19714504  0.19435614  1
  Zr  Zr83  1  0.40750512  0.60240252  0.60665371  1
  Zr  Zr84  1  0.59967529  -0.01068275  0.59591329  1
  Zr  Zr85  1  0.01505537  0.19536337  0.40614608  1
  Zr  Zr86  1  0.39912322  0.60072024  0.00665670  1
  Zr  Zr87  1  -0.00060784  0.79160350  0.00138892  1
  Zr  Zr88  1  0.50341254  0.50205798  0.69806107  1
  Zr  Zr89  1  0.69332325  0.89701024  0.08584960  1
  Zr  Zr90  1  0.19827282  -0.00628759  0.39787369  1
  Zr  Zr91  1  0.89923710  0.89931884  0.29104295  1
  Zr  Zr92  1  0.70035051  0.10222217  0.70442584  1
  Zr  Zr93  1  0.79288538  0.02104435  -0.02540028  1
  Zr  Zr94  1  0.29419052  0.69624026  0.70044187  1
  Zr  Zr95  1  0.80477371  0.18171212  0.81823535  1
  Zr  Zr96  1  0.79229454  0.19810858  0.20083075  1
  Zr  Zr97  1  0.89726756  0.89939686  0.69801877  1
  Zr  Zr98  1  0.29827311  0.10191390  0.89257525  1
  Zr  Zr99  1  0.70026960  0.50613631  0.50442808  1
  Ta  Ta100  1  -0.00755250  0.40216869  0.19568603  1
  Ta  Ta101  1  0.69975892  0.50235982  0.29920511  1
  Ta  Ta102  1  0.69152965  0.10314013  0.08627505  1
  Ta  Ta103  1  0.59733469  0.00357938  0.19483049  1
  Ta  Ta104  1  0.49954235  0.30569101  0.70391035  1
  Ta  Ta105  1  -0.00424565  0.20169877  -0.00534605  1
  Ta  Ta106  1  0.89148914  0.69631232  0.90486305  1
  Ta  Ta107  1  -0.00661506  0.59737372  0.00043725  1
  Ta  Ta108  1  0.19958300  0.40046912  0.59737342  1
  Ta  Ta109  1  0.79953204  0.20239763  0.60574173  1
  Ta  Ta110  1  0.69952901  0.70673976  0.90472711  1
  Ta  Ta111  1  0.10011896  0.10181113  0.70768737  1
  Ta  Ta112  1  0.50061026  0.90176303  0.10202619  1
  Ta  Ta113  1  0.80289794  0.40736315  0.19645288  1
  Ta  Ta114  1  0.09856418  0.69874604  0.29703149  1
  Ta  Ta115  1  0.29632604  0.69619384  0.90691152  1
  Ta  Ta116  1  0.90057388  0.10733269  0.09683078  1
  Ta  Ta117  1  0.10581524  0.90543871  0.90610299  1
  Ta  Ta118  1  0.30617064  0.30722049  0.29819179  1
  Ta  Ta119  1  0.79701414  0.79466795  0.79816991  1
  Ta  Ta120  1  0.09309652  0.29758153  0.89828638  1
  Ta  Ta121  1  0.89743579  0.29860687  0.09568612  1
  Ta  Ta122  1  0.20314371  0.00239488  0.00162750  1
  Ta  Ta123  1  0.40099747  0.20456156  0.60279381  1
  Ta  Ta124  1  0.59912663  0.21175904  0.80572319  1
  Ta  Ta125  1  0.60104266  0.20533126  -0.00314458  1
  Ta  Ta126  1  0.39856245  0.40219722  0.80414416  1
  Ta  Ta127  1  0.30319791  0.90062927  0.09685531  1
  Ta  Ta128  1  0.00102049  0.39963333  0.00112024  1
  Ta  Ta129  1  0.90052603  0.49532126  0.90219891  1
  Ta  Ta130  1  0.28520348  0.51344105  0.10449809  1
  Ta  Ta131  1  0.08998574  0.09399879  0.28622128  1
  Ta  Ta132  1  0.60315857  0.59880899  0.40084179  1
  Ta  Ta133  1  0.69642480  0.70679405  0.69152857  1
  Ta  Ta134  1  0.40535796  0.80717064  0.59685944  1
  Ta  Ta135  1  0.31000263  0.09804606  0.09707936  1
  Ta  Ta136  1  0.80076994  0.60030487  0.00954565  1
  Ta  Ta137  1  0.49606233  0.08894630  0.29271817  1
  Ta  Ta138  1  0.79885473  0.39704939  0.60926704  1
  Ta  Ta139  1  0.30256158  0.49936075  0.29448272  1
  Ta  Ta140  1  0.70927903  0.30204844  0.90342915  1
  Ta  Ta141  1  0.89632673  0.30504296  0.90558973  1
  Ta  Ta142  1  0.60308821  0.40107589  0.60288098  1
  Ta  Ta143  1  0.09840639  0.50351457  0.09609058  1
  Ta  Ta144  1  0.60331535  0.39498005  0.80064471  1
  Ta  Ta145  1  0.09553016  0.50396686  0.90380955  1
  Ta  Ta146  1  0.40341384  0.00140910  0.00605138  1
  Ta  Ta147  1  0.90818256  0.10260378  0.29362592  1
  Ta  Ta148  1  0.70423518  0.69883144  0.50026792  1
  Ta  Ta149  1  0.59749645  0.40835458  0.40129074  1
  Ti  Ti150  1  0.59231426  0.79521235  0.60000923  1
  Ti  Ti151  1  0.10131200  0.30113584  0.50269065  1
  Ti  Ti152  1  0.90489576  0.10083144  0.70436087  1
  Ti  Ti153  1  0.40433439  0.20330186  0.79736363  1
  Ti  Ti154  1  0.09298341  0.29611281  0.29286664  1
  Ti  Ti155  1  0.70193314  0.49714105  0.69979851  1
  Ti  Ti156  1  0.39063755  0.80944831  0.20158499  1
  Ti  Ti157  1  0.29551193  0.09800869  0.70405172  1
  Ti  Ti158  1  0.30647153  0.29057906  0.90076089  1
  Ti  Ti159  1  -0.00225485  0.60534202  0.81037113  1
  Ti  Ti160  1  0.51223363  0.89121460  0.70348607  1
  Ti  Ti161  1  -0.00245488  0.00487357  -0.00372736  1
  Ti  Ti162  1  -0.00022914  0.59889868  0.59429729  1
  Ti  Ti163  1  0.09828756  0.90097206  0.69989226  1
  Ti  Ti164  1  0.39363086  0.60394035  0.19394948  1
  Ti  Ti165  1  0.00864162  0.19984027  0.60927998  1
  Ti  Ti166  1  0.70136062  0.88761483  0.90007031  1
  Ti  Ti167  1  -0.01723910  0.60789524  0.39317272  1
  Ti  Ti168  1  0.39497717  0.80051065  0.00375339  1
  Ti  Ti169  1  -0.00599027  0.79297593  0.20241211  1
  Ti  Ti170  1  0.40337396  -0.01536605  0.59673728  1
  Ti  Ti171  1  0.70664113  0.30428592  0.71000070  1
  Ti  Ti172  1  0.08790256  0.29815874  0.10081033  1
  Ti  Ti173  1  0.30499153  0.30379845  0.49840556  1
  Ti  Ti174  1  0.70239689  0.70233646  0.30051639  1
  Ti  Ti175  1  0.89688316  0.49283508  0.09161480  1
  Ti  Ti176  1  0.59882841  -0.00310592  0.39384395  1
  Ti  Ti177  1  0.29086025  0.70331662  0.09592711  1
  Ti  Ti178  1  0.49558834  0.30093692  0.90019214  1
  Ti  Ti179  1  0.10083379  0.09981758  0.89681693  1
  Ti  Ti180  1  0.20552220  0.59480795  0.81101660  1
  Ti  Ti181  1  0.00172465  0.79890680  0.59507936  1
  Ti  Ti182  1  0.39870953  0.81216671  0.40546934  1
  Ti  Ti183  1  0.19574927  0.81627008  0.39907032  1
  Ti  Ti184  1  0.81307116  0.77997559  0.39640337  1
  Ti  Ti185  1  0.49996779  0.90031928  0.28703754  1
  Ti  Ti186  1  0.00648325  0.00482711  0.59768990  1
  Ti  Ti187  1  0.70017573  0.10792557  0.49679466  1
  Ti  Ti188  1  0.90320109  0.70398220  0.69711311  1
  Ti  Ti189  1  0.00482887  0.39404165  0.80661303  1
  Ti  Ti190  1  0.30567328  0.50143447  0.70887187  1
  Ti  Ti191  1  0.19083005  0.20433983  0.79792489  1
  Ti  Ti192  1  0.40115160  0.40004806  0.60748055  1
  Ti  Ti193  1  0.70381687  0.88937246  0.70275122  1
  Ti  Ti194  1  0.39933487  0.18551156  0.20111141  1
  Ti  Ti195  1  0.10855299  0.69362904  0.91017685  1
  Ti  Ti196  1  0.70767216  0.30607555  0.09433607  1
  Ti  Ti197  1  0.49592193  0.48941469  0.11696386  1
  Ti  Ti198  1  0.70624154  0.71716977  0.10056746  1
  Ti  Ti199  1  0.00335060  0.40380646  0.39714683  1
  Mo  Mo200  1  0.70716704  0.49202466  0.10354527  1
  Mo  Mo201  1  0.68735217  0.09449599  0.30118841  1
  Mo  Mo202  1  0.80089938  -0.00738338  0.79786148  1
  Mo  Mo203  1  0.79654049  0.60848002  0.39564190  1
  Mo  Mo204  1  0.09889368  0.89362828  0.51073039  1
  Mo  Mo205  1  0.80141613  0.79037426  0.19750422  1
  Mo  Mo206  1  -0.00813842  0.00412931  0.19755580  1
  Mo  Mo207  1  0.80001050  0.20693302  0.00334521  1
  Mo  Mo208  1  0.80258157  0.79181524  0.60430419  1
  Mo  Mo209  1  0.49763750  0.89980688  0.50222491  1
  Mo  Mo210  1  0.60845197  0.60007208  0.59846973  1
  Mo  Mo211  1  0.90116510  0.50009729  0.29797280  1
  Mo  Mo212  1  0.59605851  0.00336415  0.00376850  1
  Mo  Mo213  1  0.89683065  0.70105473  0.09683386  1
  Mo  Mo214  1  0.39336298  0.59843608  0.80426755  1
  Mo  Mo215  1  0.90084833  0.69948704  0.49969462  1
  Mo  Mo216  1  0.10307586  0.29822711  0.70719784  1
  Mo  Mo217  1  0.90166912  0.70062126  0.29815580  1
  Mo  Mo218  1  0.50820423  0.49656520  0.50084356  1
  Mo  Mo219  1  0.00465342  0.19747497  0.80577041  1
  Mo  Mo220  1  0.30125163  0.89044413  0.50019927  1
  Mo  Mo221  1  0.30517742  0.89272688  0.29900873  1
  Mo  Mo222  1  0.60231889  0.80442280  0.19957579  1
  Mo  Mo223  1  -0.00058815  0.20535891  0.19223061  1
  Mo  Mo224  1  0.09688304  0.89723360  0.29362194  1
  Mo  Mo225  1  0.38580302  0.41306335  0.19483592  1
  Mo  Mo226  1  0.79837190  0.40001531  0.80218777  1
  Mo  Mo227  1  0.40181127  0.60015739  0.39787514  1
  Mo  Mo228  1  0.19737656  0.60218953  0.20045166  1
  Mo  Mo229  1  0.68467819  0.11193768  0.90179729  1
  Mo  Mo230  1  0.18994334  0.00212378  0.80276875  1
  Mo  Mo231  1  0.61425974  0.40510208  0.19989563  1
  Mo  Mo232  1  0.60838957  0.80033008  0.79680785  1
  Mo  Mo233  1  0.30380683  0.10351876  0.29276363  1
  Mo  Mo234  1  0.79784112  0.79047553  -0.00348699  1
  Mo  Mo235  1  0.29772656  0.50900108  0.89749059  1
  Mo  Mo236  1  0.40222236  0.19695543  -0.00260702  1
  Mo  Mo237  1  0.19430842  0.80460063  0.59906323  1
  Mo  Mo238  1  0.09006064  0.49198128  0.49926439  1
  Mo  Mo239  1  0.80755781  0.40035772  0.00330335  1
  Mo  Mo240  1  0.40467779  -0.00448396  0.19626659  1
  Mo  Mo241  1  0.79430049  0.18936883  0.39949253  1
  Mo  Mo242  1  0.20375092  0.80129866  0.00151536  1
  Mo  Mo243  1  0.91701460  0.10247953  0.90364589  1
  Mo  Mo244  1  0.39982790  0.39540302  0.39204942  1
  Mo  Mo245  1  0.19639960  0.60073233  -0.00246105  1
  Mo  Mo246  1  0.60243428  0.79853058  0.00067443  1
  Mo  Mo247  1  0.49889209  0.09659922  0.09820492  1
  Mo  Mo248  1  0.09641333  0.10126895  0.51271993  1
  Mo  Mo249  1  0.50806094  0.70598721  0.69627659  1
