# generated using pymatgen
data_HfZrTaTiMo
_symmetry_space_group_name_H-M   'P 1'
_cell_length_a   16.88844814
_cell_length_b   16.89247001
_cell_length_c   16.88296520
_cell_angle_alpha   90.00873589
_cell_angle_beta   90.03904078
_cell_angle_gamma   89.99753785
_symmetry_Int_Tables_number   1
_chemical_formula_structural   HfZrTaTiMo
_chemical_formula_sum   'Hf50 Zr50 Ta50 Ti50 Mo50'
_cell_volume   4816.49950909
_cell_formula_units_Z   50
loop_
 _symmetry_equiv_pos_site_id
 _symmetry_equiv_pos_as_xyz
  1  'x, y, z'
loop_
 _atom_site_type_symbol
 _atom_site_label
 _atom_site_symmetry_multiplicity
 _atom_site_fract_x
 _atom_site_fract_y
 _atom_site_fract_z
 _atom_site_occupancy
  Hf  Hf0  1  0.50000556  0.50055913  0.70249713  1
  Hf  Hf1  1  0.69957495  0.30202977  0.49590114  1
  Hf  Hf2  1  0.79426919  0.79839991  0.80571987  1
  Hf  Hf3  1  0.30720668  0.10004043  0.29842268  1
  Hf  Hf4  1  0.40435364  0.80262613  0.61534610  1
  Hf  Hf5  1  0.50044263  0.30482981  0.90498834  1
  Hf  Hf6  1  0.60503837  0.59207083  0.40207021  1
  Hf  Hf7  1  0.50449820  0.49521376  0.29902023  1
  Hf  Hf8  1  0.29812148  0.50284538  0.09638634  1
  Hf  Hf9  1  0.50344779  0.70997700  0.29378519  1
  Hf  Hf10  1  0.28669859  0.89198868  0.70863626  1
  Hf  Hf11  1  0.10451795  0.69557820  0.70474136  1
  Hf  Hf12  1  0.51004355  0.69561429  0.70526312  1
  Hf  Hf13  1  0.30261880  0.29789779  0.49095099  1
  Hf  Hf14  1  0.19394301  0.19484200  0.19127908  1
  Hf  Hf15  1  0.69820811  0.09711728  0.89466419  1
  Hf  Hf16  1  0.10274523  0.31774167  0.29354835  1
  Hf  Hf17  1  0.89708045  0.90275569  0.29062961  1
  Hf  Hf18  1  0.60388856  0.80755905  0.40122555  1
  Hf  Hf19  1  0.31074668  0.10131864  0.49475118  1
  Hf  Hf20  1  0.90279879  0.50271640  0.70233081  1
  Hf  Hf21  1  0.80616068  0.81113604  0.42081608  1
  Hf  Hf22  1  0.29496638  0.50805681  0.70232756  1
  Hf  Hf23  1  0.08279758  0.08641919  0.28870654  1
  Hf  Hf24  1  0.40174343  0.80027361  0.81601241  1
  Hf  Hf25  1  0.40690591  0.19170183  0.00720385  1
  Hf  Hf26  1  0.40410241  0.60575002  0.80617319  1
  Hf  Hf27  1  0.58709452  -0.00526751  0.20063516  1
  Hf  Hf28  1  0.70446700  0.08861911  0.10426619  1
  Hf  Hf29  1  0.90197721  0.10231133  0.69123865  1
  Hf  Hf30  1  0.10268576  0.89535565  0.69814222  1
  Hf  Hf31  1  0.30021491  0.30150509  0.90608950  1
  Hf  Hf32  1  0.40467615  0.20371756  0.79369322  1
  Hf  Hf33  1  0.59844665  -0.00346859  0.60034932  1
  Hf  Hf34  1  0.10390414  0.29044996  0.90275090  1
  Hf  Hf35  1  0.71134377  0.90189839  0.28863672  1
  Hf  Hf36  1  0.89497084  0.09351692  0.30194530  1
  Hf  Hf37  1  0.19497410  0.40027211  0.79516739  1
  Hf  Hf38  1  0.19385203  0.40140223  0.59409516  1
  Hf  Hf39  1  -0.01585632  0.79587462  0.59600884  1
  Hf  Hf40  1  0.61135190  0.60039971  0.19471215  1
  Hf  Hf41  1  0.00551333  0.39675562  0.59299734  1
  Hf  Hf42  1  0.39751115  -0.01383216  0.00225987  1
  Hf  Hf43  1  0.90560567  0.08707713  0.11699070  1
  Hf  Hf44  1  0.39789359  0.59521932  0.40389951  1
  Hf  Hf45  1  0.10086662  0.70050877  0.09808747  1
  Hf  Hf46  1  0.20457150  -0.00727527  0.39647685  1
  Hf  Hf47  1  0.79485294  0.79649054  0.60763349  1
  Hf  Hf48  1  0.79970356  0.39353296  0.79478961  1
  Hf  Hf49  1  0.19413117  0.20102631  0.39297020  1
  Zr  Zr50  1  0.89692931  0.91140245  0.70735012  1
  Zr  Zr51  1  0.90633828  0.30121305  0.90729085  1
  Zr  Zr52  1  0.89566708  0.69541270  0.91094026  1
  Zr  Zr53  1  0.00464794  0.59509465  0.00391527  1
  Zr  Zr54  1  0.59274360  0.39226204  0.59261510  1
  Zr  Zr55  1  0.29710773  0.69913330  0.30141428  1
  Zr  Zr56  1  0.20375533  -0.01292700  0.19420110  1
  Zr  Zr57  1  0.40061247  0.60496719  0.19851527  1
  Zr  Zr58  1  0.09696196  0.10074671  0.69862410  1
  Zr  Zr59  1  0.20954551  0.81137540  0.00348145  1
  Zr  Zr60  1  0.40425282  -0.00576975  0.80664404  1
  Zr  Zr61  1  0.49341512  0.89964007  0.49921913  1
  Zr  Zr62  1  0.29631824  0.10155097  0.70259875  1
  Zr  Zr63  1  0.09946571  0.69992423  0.49448538  1
  Zr  Zr64  1  0.08869980  0.88737715  0.30090163  1
  Zr  Zr65  1  0.79945585  0.20685227  0.79423440  1
  Zr  Zr66  1  -0.00637788  0.79697330  0.80620391  1
  Zr  Zr67  1  0.70749791  0.10152468  0.29716153  1
  Zr  Zr68  1  0.40243015  0.20264075  0.19687461  1
  Zr  Zr69  1  0.80335197  0.59898440  0.19738435  1
  Zr  Zr70  1  0.29333582  0.70565116  0.50726360  1
  Zr  Zr71  1  0.29766047  0.30963861  0.09513636  1
  Zr  Zr72  1  0.60255160  -0.00169308  0.39996406  1
  Zr  Zr73  1  0.90492623  0.70060180  0.30280065  1
  Zr  Zr74  1  0.80854507  -0.01312011  -0.00525074  1
  Zr  Zr75  1  0.00499865  0.00088407  0.81060498  1
  Zr  Zr76  1  0.79431673  -0.01042410  0.58915409  1
  Zr  Zr77  1  0.80690205  0.19621335  0.00521081  1
  Zr  Zr78  1  0.68523198  0.90091754  0.90157610  1
  Zr  Zr79  1  0.60600484  0.59499412  0.59547568  1
  Zr  Zr80  1  0.79686569  0.41246551  0.20602732  1
  Zr  Zr81  1  0.51008665  0.09573013  0.89727420  1
  Zr  Zr82  1  0.60255752  0.39473903  0.79369720  1
  Zr  Zr83  1  0.08835410  0.09627080  0.50593930  1
  Zr  Zr84  1  0.50219521  0.49855430  0.09251218  1
  Zr  Zr85  1  0.70802628  0.71025500  0.29454671  1
  Zr  Zr86  1  0.49751264  0.70352978  0.50066083  1
  Zr  Zr87  1  0.40671804  0.40193105  0.40703446  1
  Zr  Zr88  1  0.40897726  0.61215571  -0.00506764  1
  Zr  Zr89  1  0.59356399  0.20066808  0.19537864  1
  Zr  Zr90  1  0.40222294  -0.00039273  0.60935706  1
  Zr  Zr91  1  0.00107295  0.21210094  0.40249691  1
  Zr  Zr92  1  0.70491174  0.30073931  0.10002309  1
  Zr  Zr93  1  0.70078737  0.50346623  0.90178736  1
  Zr  Zr94  1  0.18736413  0.41739822  -0.00697580  1
  Zr  Zr95  1  0.10038088  0.89444984  0.50391119  1
  Zr  Zr96  1  0.19553879  0.20902918  0.59600794  1
  Zr  Zr97  1  0.70066512  0.10905246  0.50056500  1
  Zr  Zr98  1  0.09959975  0.30802944  0.09935136  1
  Zr  Zr99  1  0.01127534  0.18239835  0.00674272  1
  Ta  Ta100  1  0.40152357  0.39884533  0.59960326  1
  Ta  Ta101  1  0.69965927  0.88751589  0.10048076  1
  Ta  Ta102  1  0.61199404  0.80333994  0.60838528  1
  Ta  Ta103  1  0.40378018  0.80207696  -0.00303263  1
  Ta  Ta104  1  0.28952987  0.49223098  0.29618680  1
  Ta  Ta105  1  0.49257063  0.10191602  0.30653097  1
  Ta  Ta106  1  0.70369080  0.50165821  0.69701965  1
  Ta  Ta107  1  0.89929899  0.50303168  0.89771049  1
  Ta  Ta108  1  0.00446874  0.40184782  0.80146719  1
  Ta  Ta109  1  0.09005288  0.89501100  0.10009922  1
  Ta  Ta110  1  0.89900400  0.49908563  0.49754458  1
  Ta  Ta111  1  0.10453844  0.69927433  0.89956432  1
  Ta  Ta112  1  0.09505320  0.50838135  0.70137994  1
  Ta  Ta113  1  0.20438337  0.79862500  0.20054754  1
  Ta  Ta114  1  0.80124783  0.39863681  0.60168847  1
  Ta  Ta115  1  0.28629984  0.69675024  0.89905028  1
  Ta  Ta116  1  -0.00348731  0.41446699  0.20166975  1
  Ta  Ta117  1  0.89923656  0.09308346  0.89323448  1
  Ta  Ta118  1  0.19401697  0.60055371  0.20406825  1
  Ta  Ta119  1  0.28986275  0.69875835  0.70456735  1
  Ta  Ta120  1  0.79090530  0.60503774  0.79944728  1
  Ta  Ta121  1  0.29324712  0.10173411  0.90511404  1
  Ta  Ta122  1  0.30025835  0.50520414  0.90006369  1
  Ta  Ta123  1  0.50338820  0.30394641  0.30244579  1
  Ta  Ta124  1  0.70247248  0.69895967  0.50344957  1
  Ta  Ta125  1  0.89839138  0.68790085  0.70236103  1
  Ta  Ta126  1  0.69433176  0.29484018  0.90591138  1
  Ta  Ta127  1  0.41172365  0.21274126  0.59902335  1
  Ta  Ta128  1  0.90613158  0.31046548  0.10469747  1
  Ta  Ta129  1  0.89776884  0.10367883  0.50204602  1
  Ta  Ta130  1  0.79973031  0.59763884  0.40451439  1
  Ta  Ta131  1  0.49592132  0.10931716  0.49478800  1
  Ta  Ta132  1  0.80397929  0.20820212  0.39772616  1
  Ta  Ta133  1  0.19248118  0.00188142  0.00038621  1
  Ta  Ta134  1  0.69948613  0.10210543  0.69781428  1
  Ta  Ta135  1  0.00187109  -0.00715820  -0.00048298  1
  Ta  Ta136  1  -0.00231748  0.59834718  0.59260436  1
  Ta  Ta137  1  0.29841325  0.09381702  0.09637391  1
  Ta  Ta138  1  0.89918700  0.50030196  0.09129720  1
  Ta  Ta139  1  0.60238253  0.20842911  0.78506186  1
  Ta  Ta140  1  0.59415699  0.20689197  0.39934187  1
  Ta  Ta141  1  0.60652792  0.40412615  0.20087882  1
  Ta  Ta142  1  0.39610933  0.80941786  0.19145277  1
  Ta  Ta143  1  0.29650724  0.69974639  0.09707528  1
  Ta  Ta144  1  0.18967178  0.58863515  0.39707512  1
  Ta  Ta145  1  0.60340649  0.40006227  0.00229735  1
  Ta  Ta146  1  0.09971754  0.89184522  0.90489563  1
  Ta  Ta147  1  0.20299603  -0.00388448  0.59580171  1
  Ta  Ta148  1  0.69943019  0.30869850  0.30784541  1
  Ta  Ta149  1  0.89940484  0.31221604  0.30191125  1
  Ti  Ti150  1  -0.00300465  0.79307801  0.19329723  1
  Ti  Ti151  1  0.29851550  0.30704612  0.29793153  1
  Ti  Ti152  1  0.19854099  0.19662803  0.80335425  1
  Ti  Ti153  1  0.19281602  0.59560213  0.59330894  1
  Ti  Ti154  1  0.09216152  0.29416398  0.70083760  1
  Ti  Ti155  1  0.40019601  0.59542419  0.59646256  1
  Ti  Ti156  1  0.00651091  0.41166645  0.40303951  1
  Ti  Ti157  1  0.80003563  0.21143299  0.60058374  1
  Ti  Ti158  1  0.39865382  0.40013200  0.79877066  1
  Ti  Ti159  1  0.51078119  0.70998708  0.09884215  1
  Ti  Ti160  1  0.70674030  0.70914720  0.08715627  1
  Ti  Ti161  1  0.00138057  0.19772457  0.80385515  1
  Ti  Ti162  1  0.09444126  0.69686259  0.30307868  1
  Ti  Ti163  1  0.70479719  0.50604480  0.08728221  1
  Ti  Ti164  1  0.00237152  0.40909462  -0.00271578  1
  Ti  Ti165  1  -0.01139435  -0.00783627  0.41036198  1
  Ti  Ti166  1  0.19879087  -0.00299648  0.81399349  1
  Ti  Ti167  1  0.90183875  0.50192897  0.31156787  1
  Ti  Ti168  1  0.69642248  0.91055502  0.71521657  1
  Ti  Ti169  1  0.40057179  -0.01149000  0.38975764  1
  Ti  Ti170  1  0.80133606  0.40094163  -0.00188429  1
  Ti  Ti171  1  0.30143878  0.30237173  0.69911149  1
  Ti  Ti172  1  0.51831922  0.89816303  0.72276036  1
  Ti  Ti173  1  0.59576358  0.19677845  0.00945252  1
  Ti  Ti174  1  0.29879212  0.89420734  0.50443041  1
  Ti  Ti175  1  0.39519765  0.81118294  0.38765758  1
  Ti  Ti176  1  -0.00181740  0.20956621  0.20044599  1
  Ti  Ti177  1  0.80672362  0.21040170  0.20449578  1
  Ti  Ti178  1  0.50329424  0.49890407  0.90019178  1
  Ti  Ti179  1  0.49882433  0.31308155  0.09727430  1
  Ti  Ti180  1  0.40266152  -0.00847694  0.19732840  1
  Ti  Ti181  1  0.50681089  0.88798392  0.09839658  1
  Ti  Ti182  1  0.89498247  0.70217948  0.09559104  1
  Ti  Ti183  1  0.20489597  0.80239549  0.39315338  1
  Ti  Ti184  1  0.79986831  0.60007725  0.59760652  1
  Ti  Ti185  1  0.89730111  0.30592944  0.49554892  1
  Ti  Ti186  1  0.60349843  0.61265340  -0.01072226  1
  Ti  Ti187  1  0.19199491  0.40786209  0.40387316  1
  Ti  Ti188  1  0.09992113  0.51826609  0.88532269  1
  Ti  Ti189  1  0.39989056  0.40031992  0.20080350  1
  Ti  Ti190  1  0.10253866  0.50309808  0.11059784  1
  Ti  Ti191  1  0.00065740  0.59436683  0.20542226  1
  Ti  Ti192  1  0.58933557  -0.00376702  0.00813620  1
  Ti  Ti193  1  0.29699380  0.50049848  0.50037594  1
  Ti  Ti194  1  0.60693933  0.78085606  0.81012091  1
  Ti  Ti195  1  0.50903326  0.10637848  0.69410312  1
  Ti  Ti196  1  0.89742694  0.88643890  0.09749424  1
  Ti  Ti197  1  -0.01259873  0.79510920  0.41124566  1
  Ti  Ti198  1  0.70931383  0.49054010  0.49334243  1
  Ti  Ti199  1  0.91003687  0.29768384  0.69543338  1
  Mo  Mo200  1  0.80007049  0.59826050  0.00145269  1
  Mo  Mo201  1  -0.00168634  0.80086225  0.00279587  1
  Mo  Mo202  1  0.49470423  0.30139068  0.69978413  1
  Mo  Mo203  1  0.89326570  0.68589368  0.50503484  1
  Mo  Mo204  1  0.09555804  0.50274025  0.49869249  1
  Mo  Mo205  1  0.29271400  0.90333976  0.90181418  1
  Mo  Mo206  1  0.49323900  0.90036083  0.29447848  1
  Mo  Mo207  1  0.79627252  0.00386487  0.79908729  1
  Mo  Mo208  1  0.50894974  0.70205575  0.90289088  1
  Mo  Mo209  1  0.49166561  0.49915312  0.50339787  1
  Mo  Mo210  1  0.30285473  0.89811991  0.10010416  1
  Mo  Mo211  1  0.09871253  0.30689851  0.49042899  1
  Mo  Mo212  1  -0.00319835  0.59573824  0.40088239  1
  Mo  Mo213  1  0.60453568  0.39982444  0.39702048  1
  Mo  Mo214  1  0.40706112  0.40763190  -0.00942130  1
  Mo  Mo215  1  0.09499413  0.50658361  0.30113254  1
  Mo  Mo216  1  0.90428872  0.89701777  0.90736839  1
  Mo  Mo217  1  0.59941529  0.79932245  0.19176833  1
  Mo  Mo218  1  0.30345146  0.89705574  0.29687826  1
  Mo  Mo219  1  0.20534584  0.79791041  0.60259190  1
  Mo  Mo220  1  0.70238845  0.69277706  0.70137862  1
  Mo  Mo221  1  -0.00022219  0.00109790  0.59684595  1
  Mo  Mo222  1  0.69987727  0.69803299  0.90471725  1
  Mo  Mo223  1  0.69664398  0.89546673  0.50375048  1
  Mo  Mo224  1  0.19700950  0.79631129  0.80657960  1
  Mo  Mo225  1  0.59543828  0.19726685  0.59871188  1
  Mo  Mo226  1  0.40453093  0.20612112  0.39586498  1
  Mo  Mo227  1  0.60457802  0.59815150  0.80238875  1
  Mo  Mo228  1  0.19851524  0.60353259  -0.00006329  1
  Mo  Mo229  1  0.49645533  0.08821642  0.10294617  1
  Mo  Mo230  1  0.50840405  0.89234184  0.90430826  1
  Mo  Mo231  1  0.79774752  0.79625964  -0.00046457  1
  Mo  Mo232  1  0.60043591  0.01032772  0.79085793  1
  Mo  Mo233  1  0.80498343  0.40331957  0.40418677  1
  Mo  Mo234  1  0.19846467  0.40892873  0.20213002  1
  Mo  Mo235  1  0.20552416  0.18645666  0.00081203  1
  Mo  Mo236  1  -0.00220692  -0.01538923  0.19205120  1
  Mo  Mo237  1  0.20106115  0.59807297  0.80107194  1
  Mo  Mo238  1  -0.00951648  0.20966796  0.59768225  1
  Mo  Mo239  1  0.90278810  0.91055844  0.50271265  1
  Mo  Mo240  1  0.70237059  0.29698049  0.68965218  1
  Mo  Mo241  1  0.50104980  0.29782664  0.49755986  1
  Mo  Mo242  1  0.80601851  0.00687608  0.40198394  1
  Mo  Mo243  1  0.80032916  -0.01060650  0.19113711  1
  Mo  Mo244  1  0.69949183  0.49728169  0.30918062  1
  Mo  Mo245  1  -0.00308435  0.59657344  0.79880892  1
  Mo  Mo246  1  0.59656413  0.79581939  0.00027049  1
  Mo  Mo247  1  0.10430893  0.09572965  0.90074122  1
  Mo  Mo248  1  0.10045836  0.08800747  0.10036079  1
  Mo  Mo249  1  0.80478495  0.79578339  0.18508269  1
