# generated using pymatgen
data_HfZrTaTiMo
_symmetry_space_group_name_H-M   'P 1'
_cell_length_a   16.88372583
_cell_length_b   16.89323649
_cell_length_c   16.89260216
_cell_angle_alpha   89.97195534
_cell_angle_beta   90.05020494
_cell_angle_gamma   89.90664482
_symmetry_Int_Tables_number   1
_chemical_formula_structural   HfZrTaTiMo
_chemical_formula_sum   'Hf50 Zr50 Ta50 Ti50 Mo50'
_cell_volume   4818.11222629
_cell_formula_units_Z   50
loop_
 _symmetry_equiv_pos_site_id
 _symmetry_equiv_pos_as_xyz
  1  'x, y, z'
loop_
 _atom_site_type_symbol
 _atom_site_label
 _atom_site_symmetry_multiplicity
 _atom_site_fract_x
 _atom_site_fract_y
 _atom_site_fract_z
 _atom_site_occupancy
  Hf  Hf0  1  0.09411405  0.70888595  0.69502959  1
  Hf  Hf1  1  0.19937044  0.59880865  0.20157253  1
  Hf  Hf2  1  0.19700092  0.20187163  0.19888138  1
  Hf  Hf3  1  0.69820208  0.69938145  0.90000873  1
  Hf  Hf4  1  0.89481220  0.50007218  0.10972604  1
  Hf  Hf5  1  0.79583050  0.20289063  0.00552355  1
  Hf  Hf6  1  0.80570866  0.79350676  0.21018568  1
  Hf  Hf7  1  0.39506958  0.79936011  0.40208979  1
  Hf  Hf8  1  0.19545356  0.39861080  0.79869423  1
  Hf  Hf9  1  0.40130157  0.60584923  0.79889220  1
  Hf  Hf10  1  0.50742588  0.70479616  0.91281762  1
  Hf  Hf11  1  0.30673077  0.29936511  0.10543655  1
  Hf  Hf12  1  0.60765478  0.20918858  0.59786755  1
  Hf  Hf13  1  0.70403655  0.70119888  0.49992777  1
  Hf  Hf14  1  0.40744329  0.20528620  0.80326367  1
  Hf  Hf15  1  0.50037620  0.50500293  0.28792714  1
  Hf  Hf16  1  -0.00007000  0.79764072  0.40172271  1
  Hf  Hf17  1  0.79949356  0.20392870  0.39966121  1
  Hf  Hf18  1  0.29930542  0.10677288  0.69341049  1
  Hf  Hf19  1  0.68917915  0.69479619  0.09775864  1
  Hf  Hf20  1  -0.00214230  0.20186873  0.78837266  1
  Hf  Hf21  1  0.80279291  0.60339097  0.00051421  1
  Hf  Hf22  1  0.60526785  0.60390706  0.78825918  1
  Hf  Hf23  1  0.81118248  0.79245626  0.39943762  1
  Hf  Hf24  1  0.30178799  0.30459355  0.90344855  1
  Hf  Hf25  1  0.79811843  0.20683921  0.21185120  1
  Hf  Hf26  1  0.20509095  0.39862291  0.39793602  1
  Hf  Hf27  1  0.69773615  0.49220024  0.29661208  1
  Hf  Hf28  1  0.19460970  0.39273667  0.60748594  1
  Hf  Hf29  1  -0.00433361  0.60556083  0.21206574  1
  Hf  Hf30  1  0.08788722  0.50655383  0.70247700  1
  Hf  Hf31  1  0.90178830  0.09375088  0.10448556  1
  Hf  Hf32  1  0.50870350  0.49652194  0.90264393  1
  Hf  Hf33  1  0.40633925  0.19918599  0.00198904  1
  Hf  Hf34  1  0.60414330  -0.00515263  -0.00346343  1
  Hf  Hf35  1  0.30661867  0.49980110  0.69843125  1
  Hf  Hf36  1  0.39919660  0.39561175  0.39904467  1
  Hf  Hf37  1  0.39031923  -0.00853386  0.40023479  1
  Hf  Hf38  1  0.80410040  0.20717655  0.78568539  1
  Hf  Hf39  1  0.39749732  0.60668766  0.39865964  1
  Hf  Hf40  1  0.00150026  0.20207702  0.19966071  1
  Hf  Hf41  1  0.29657432  0.09387535  0.90078754  1
  Hf  Hf42  1  0.18970082  0.19607139  0.00086814  1
  Hf  Hf43  1  0.89540337  0.30891040  0.50456620  1
  Hf  Hf44  1  0.09922074  0.09272712  0.31072386  1
  Hf  Hf45  1  0.30231554  0.50015057  0.50243919  1
  Hf  Hf46  1  0.80473807  0.60058352  0.60001784  1
  Hf  Hf47  1  0.21004415  -0.01749936  0.20509707  1
  Hf  Hf48  1  0.69816745  0.49741270  0.89405612  1
  Hf  Hf49  1  0.50585757  0.49741027  0.49746834  1
  Zr  Zr50  1  0.70116081  0.90428685  0.30998310  1
  Zr  Zr51  1  0.40107411  -0.00681772  0.79794220  1
  Zr  Zr52  1  0.59628745  -0.00450004  0.19859519  1
  Zr  Zr53  1  0.49868775  0.69343522  0.10045228  1
  Zr  Zr54  1  0.09736078  0.70200063  0.89655378  1
  Zr  Zr55  1  0.89027897  0.49874389  0.89480155  1
  Zr  Zr56  1  0.60448172  0.60770649  0.39603357  1
  Zr  Zr57  1  0.20187190  -0.01185621  0.40251666  1
  Zr  Zr58  1  0.39724378  -0.02778718  0.60524223  1
  Zr  Zr59  1  0.69401449  0.31436805  0.89211703  1
  Zr  Zr60  1  0.59843989  0.79620935  0.60295134  1
  Zr  Zr61  1  0.49522975  0.10723324  0.50173792  1
  Zr  Zr62  1  0.09595834  0.30770814  0.30371700  1
  Zr  Zr63  1  -0.00929409  0.20095144  0.39811916  1
  Zr  Zr64  1  0.20471667  0.60527930  0.79930735  1
  Zr  Zr65  1  0.38713732  0.80886426  0.19990808  1
  Zr  Zr66  1  0.69937754  0.09563458  0.30824393  1
  Zr  Zr67  1  0.19636288  0.60655381  0.60104297  1
  Zr  Zr68  1  0.60398208  0.79873488  0.20503147  1
  Zr  Zr69  1  0.30909979  0.70865688  0.90862169  1
  Zr  Zr70  1  0.81295058  -0.00581798  0.80032542  1
  Zr  Zr71  1  0.90149587  0.30693548  0.10354994  1
  Zr  Zr72  1  0.70175376  0.09764729  0.69778752  1
  Zr  Zr73  1  0.59493736  0.20853775  0.00933582  1
  Zr  Zr74  1  0.30132463  0.11147596  0.50801545  1
  Zr  Zr75  1  0.80142843  0.80450919  -0.00871795  1
  Zr  Zr76  1  0.59961437  -0.00749032  0.60133239  1
  Zr  Zr77  1  0.20174946  0.59549183  -0.00203479  1
  Zr  Zr78  1  0.10106660  0.70324096  0.10202668  1
  Zr  Zr79  1  0.70284331  0.09498773  0.10643593  1
  Zr  Zr80  1  0.40016639  0.80692700  0.78479238  1
  Zr  Zr81  1  0.09909794  0.08690020  0.10197946  1
  Zr  Zr82  1  0.19884529  -0.00871436  0.59836357  1
  Zr  Zr83  1  0.90972713  0.10273590  0.89822701  1
  Zr  Zr84  1  -0.00526061  0.79995105  -0.00692634  1
  Zr  Zr85  1  0.89368339  0.30752028  0.90018795  1
  Zr  Zr86  1  0.19362958  0.39948538  0.00601274  1
  Zr  Zr87  1  0.09570670  0.29220849  0.50775340  1
  Zr  Zr88  1  0.50365367  0.49749165  0.69854284  1
  Zr  Zr89  1  0.49466600  0.10269496  0.29897064  1
  Zr  Zr90  1  0.09064867  0.50436111  0.49730149  1
  Zr  Zr91  1  0.28718500  0.71213097  0.50318486  1
  Zr  Zr92  1  0.70616370  0.90364596  0.49922196  1
  Zr  Zr93  1  0.49681151  0.29698404  0.29368840  1
  Zr  Zr94  1  0.69774277  0.10392212  0.89549173  1
  Zr  Zr95  1  0.00564703  -0.00560136  -0.01307640  1
  Zr  Zr96  1  0.19152004  0.20377528  0.79537620  1
  Zr  Zr97  1  0.90174305  0.90189090  0.10412450  1
  Zr  Zr98  1  0.70691636  0.49316139  0.49802056  1
  Zr  Zr99  1  0.49994148  0.10363666  0.69883791  1
  Ta  Ta100  1  -0.00670581  0.39740990  0.79349232  1
  Ta  Ta101  1  0.49762490  0.69792292  0.29256505  1
  Ta  Ta102  1  0.19819269  0.40471655  0.19832682  1
  Ta  Ta103  1  0.19633752  0.60266711  0.39678807  1
  Ta  Ta104  1  0.60825795  0.39826925  0.60235780  1
  Ta  Ta105  1  0.09604150  0.10215137  0.50374743  1
  Ta  Ta106  1  0.80455609  0.20116790  0.59979943  1
  Ta  Ta107  1  0.20440432  0.80518247  0.79332907  1
  Ta  Ta108  1  0.09434484  0.10087132  0.68947591  1
  Ta  Ta109  1  0.69146027  0.50464142  0.10733929  1
  Ta  Ta110  1  0.09025313  0.30320848  0.89937347  1
  Ta  Ta111  1  0.40562294  0.39138040  0.60092157  1
  Ta  Ta112  1  0.79563849  0.60640213  0.21167938  1
  Ta  Ta113  1  0.10490852  0.70406886  0.30673895  1
  Ta  Ta114  1  0.60274761  0.60245283  0.60085164  1
  Ta  Ta115  1  0.09304982  0.50269427  0.10042063  1
  Ta  Ta116  1  0.40624632  0.61426988  0.59724228  1
  Ta  Ta117  1  0.49643993  0.89832060  0.30164079  1
  Ta  Ta118  1  0.00515158  -0.01592620  0.21772625  1
  Ta  Ta119  1  -0.00874237  0.39953276  0.60817857  1
  Ta  Ta120  1  0.00091882  0.80194493  0.21295673  1
  Ta  Ta121  1  0.81184428  0.00086139  0.60024166  1
  Ta  Ta122  1  0.80064859  -0.00906956  -0.00943703  1
  Ta  Ta123  1  0.49148530  0.09744586  0.10569520  1
  Ta  Ta124  1  0.10235583  0.90109419  0.88670334  1
  Ta  Ta125  1  0.81587751  0.60073361  0.39756397  1
  Ta  Ta126  1  0.60178274  -0.01390332  0.80186205  1
  Ta  Ta127  1  0.09206380  0.89819977  0.69973875  1
  Ta  Ta128  1  0.60637250  0.20924161  0.40161345  1
  Ta  Ta129  1  0.81465885  0.79906981  0.60123911  1
  Ta  Ta130  1  0.00109773  0.40280878  0.00115401  1
  Ta  Ta131  1  0.40309086  0.39557829  0.79880387  1
  Ta  Ta132  1  0.91020987  0.89924940  0.69670738  1
  Ta  Ta133  1  0.70656761  0.09916319  0.49892960  1
  Ta  Ta134  1  -0.01752972  0.60760754  0.79628781  1
  Ta  Ta135  1  0.50130505  0.89243754  0.90581720  1
  Ta  Ta136  1  0.08778937  0.50056895  0.89678053  1
  Ta  Ta137  1  0.30290583  0.50135066  0.29342222  1
  Ta  Ta138  1  0.88970783  0.49854376  0.69970505  1
  Ta  Ta139  1  0.90385314  0.08701045  0.30400666  1
  Ta  Ta140  1  0.60609458  0.80392642  0.79961381  1
  Ta  Ta141  1  0.20605910  0.20149886  0.40055741  1
  Ta  Ta142  1  0.31025196  0.49435082  0.90338452  1
  Ta  Ta143  1  0.59270742  0.79544154  0.39881899  1
  Ta  Ta144  1  0.20389862  0.81291746  0.00163461  1
  Ta  Ta145  1  0.71285770  0.89330946  0.70168515  1
  Ta  Ta146  1  0.40415670  0.59092794  0.00686753  1
  Ta  Ta147  1  0.30087534  0.70287851  0.09963964  1
  Ta  Ta148  1  0.30717973  0.50136071  0.10505137  1
  Ta  Ta149  1  0.49463256  0.89700876  0.09339733  1
  Ti  Ti150  1  0.59310061  0.40042832  0.01919141  1
  Ti  Ti151  1  0.81025535  0.79626211  0.80009254  1
  Ti  Ti152  1  0.40424924  0.40158812  0.19280871  1
  Ti  Ti153  1  0.80566196  -0.00768633  0.20740664  1
  Ti  Ti154  1  0.70185563  0.31163702  0.11520081  1
  Ti  Ti155  1  0.30443112  0.29435965  0.69355131  1
  Ti  Ti156  1  0.00038446  -0.00008550  0.59794289  1
  Ti  Ti157  1  0.19313575  0.00029898  0.79607660  1
  Ti  Ti158  1  0.80064440  0.40101577  0.39553129  1
  Ti  Ti159  1  0.19744868  -0.00542116  -0.00291658  1
  Ti  Ti160  1  0.60071896  0.20702908  0.79733580  1
  Ti  Ti161  1  0.00828544  0.20293177  0.00094873  1
  Ti  Ti162  1  0.09866809  0.50235013  0.30362404  1
  Ti  Ti163  1  0.59080002  -0.00106824  0.40659268  1
  Ti  Ti164  1  0.71229342  0.70208550  0.70201864  1
  Ti  Ti165  1  0.59508349  0.39494791  0.19739034  1
  Ti  Ti166  1  0.00741097  0.40354129  0.19806686  1
  Ti  Ti167  1  0.29205938  0.70346899  0.29551128  1
  Ti  Ti168  1  -0.00761862  0.60100044  -0.00553749  1
  Ti  Ti169  1  -0.00887071  0.41077959  0.40435150  1
  Ti  Ti170  1  0.89681033  0.31764002  0.29528752  1
  Ti  Ti171  1  0.70083299  0.89642178  0.09770283  1
  Ti  Ti172  1  -0.01237926  0.60503243  0.59210640  1
  Ti  Ti173  1  0.29966053  0.90156171  0.90052235  1
  Ti  Ti174  1  0.30331309  0.09475998  0.10069198  1
  Ti  Ti175  1  0.39575182  0.20597384  0.39945387  1
  Ti  Ti176  1  0.50300247  0.30203743  0.49863186  1
  Ti  Ti177  1  0.70313755  0.30651688  0.49752829  1
  Ti  Ti178  1  0.90900539  0.90473073  0.50118516  1
  Ti  Ti179  1  0.79234970  0.40315807  0.01184665  1
  Ti  Ti180  1  0.90174386  0.69942290  0.10396755  1
  Ti  Ti181  1  0.50276912  0.09348773  0.90101500  1
  Ti  Ti182  1  0.10333106  0.89327731  0.10464568  1
  Ti  Ti183  1  0.30386340  0.10579549  0.29618968  1
  Ti  Ti184  1  0.89973488  0.49801904  0.30172806  1
  Ti  Ti185  1  0.50750608  0.31060896  0.89807903  1
  Ti  Ti186  1  0.10365758  0.88744209  0.50193528  1
  Ti  Ti187  1  0.39838412  -0.00527952  0.00244451  1
  Ti  Ti188  1  -0.00460845  0.79266541  0.59124172  1
  Ti  Ti189  1  -0.01013829  0.80024473  0.80149365  1
  Ti  Ti190  1  0.41096311  0.40012278  0.00757435  1
  Ti  Ti191  1  0.50648498  0.30502026  0.70133478  1
  Ti  Ti192  1  0.39318224  -0.00571030  0.20061443  1
  Ti  Ti193  1  0.30292720  0.29935436  0.29241638  1
  Ti  Ti194  1  0.90696363  0.09960512  0.50381250  1
  Ti  Ti195  1  0.49876154  0.70567327  0.69448070  1
  Ti  Ti196  1  0.60005855  0.20515800  0.19931957  1
  Ti  Ti197  1  0.49759321  0.88762036  0.50044223  1
  Ti  Ti198  1  0.30160847  0.29311544  0.51096416  1
  Ti  Ti199  1  0.81587322  -0.00085370  0.40585955  1
  Mo  Mo200  1  0.00095952  0.59994449  0.39970972  1
  Mo  Mo201  1  0.90526257  0.69629101  0.30231896  1
  Mo  Mo202  1  0.60053732  0.38877444  0.40188411  1
  Mo  Mo203  1  0.90042509  0.49795493  0.49838695  1
  Mo  Mo204  1  0.39158591  0.19073973  0.19652630  1
  Mo  Mo205  1  0.19242005  0.80384180  0.60115664  1
  Mo  Mo206  1  0.59867789  0.39780662  0.78802797  1
  Mo  Mo207  1  0.00102766  -0.00576866  0.41175597  1
  Mo  Mo208  1  0.19578732  0.79854447  0.39642936  1
  Mo  Mo209  1  0.59904879  0.58655567  0.00269361  1
  Mo  Mo210  1  0.19287073  0.20118439  0.59886288  1
  Mo  Mo211  1  0.89482401  0.30513276  0.69336278  1
  Mo  Mo212  1  -0.00608855  0.19725914  0.60105179  1
  Mo  Mo213  1  0.70016881  0.30467484  0.69437605  1
  Mo  Mo214  1  0.19728562  0.79883825  0.19779318  1
  Mo  Mo215  1  0.51573801  0.89322738  0.70476887  1
  Mo  Mo216  1  0.90626833  0.09725430  0.68549016  1
  Mo  Mo217  1  0.79458861  0.40321491  0.78192084  1
  Mo  Mo218  1  0.29859398  0.89341693  0.30215716  1
  Mo  Mo219  1  0.39737302  0.79573989  0.60054571  1
  Mo  Mo220  1  0.50003749  0.49595425  0.10144187  1
  Mo  Mo221  1  0.30228585  0.70662710  0.69372943  1
  Mo  Mo222  1  0.89514971  0.69885409  0.89085695  1
  Mo  Mo223  1  0.40693721  0.21911777  0.60227942  1
  Mo  Mo224  1  0.90538404  0.89753614  0.88727062  1
  Mo  Mo225  1  0.09821391  0.30881246  0.09756192  1
  Mo  Mo226  1  0.59984145  0.59732837  0.20082516  1
  Mo  Mo227  1  0.28120697  0.89584064  0.69803127  1
  Mo  Mo228  1  0.39225925  0.60348973  0.19978841  1
  Mo  Mo229  1  0.50118684  0.29817684  0.10457844  1
  Mo  Mo230  1  0.79759532  0.39839073  0.60182388  1
  Mo  Mo231  1  0.79876959  0.60485645  0.79242537  1
  Mo  Mo232  1  0.90341393  0.90345226  0.30789472  1
  Mo  Mo233  1  0.10364253  0.89030749  0.30403769  1
  Mo  Mo234  1  0.10485181  0.09511424  0.89000321  1
  Mo  Mo235  1  0.39637387  0.80649893  0.00258677  1
  Mo  Mo236  1  0.30067604  0.90363771  0.08911568  1
  Mo  Mo237  1  0.70279325  0.49745380  0.69727710  1
  Mo  Mo238  1  0.08941200  0.30155659  0.70090947  1
  Mo  Mo239  1  0.09339485  0.69982501  0.49813131  1
  Mo  Mo240  1  0.90131612  0.70459341  0.69705637  1
  Mo  Mo241  1  0.50074032  0.69886012  0.50146650  1
  Mo  Mo242  1  0.79632867  0.40585884  0.20464517  1
  Mo  Mo243  1  0.90384662  0.69544043  0.50034270  1
  Mo  Mo244  1  0.69350017  0.30664390  0.30405633  1
  Mo  Mo245  1  0.00921749  -0.00000290  0.78933379  1
  Mo  Mo246  1  0.60120370  0.81151401  -0.00088947  1
  Mo  Mo247  1  0.70265508  0.89553886  0.89302708  1
  Mo  Mo248  1  0.70086734  0.69447472  0.30344024  1
  Mo  Mo249  1  0.29631522  0.88982940  0.50229034  1
