# generated using pymatgen
data_HfZrTaTiMo
_symmetry_space_group_name_H-M   'P 1'
_cell_length_a   16.88396886
_cell_length_b   16.88388314
_cell_length_c   16.89208674
_cell_angle_alpha   89.98506828
_cell_angle_beta   90.07145028
_cell_angle_gamma   90.03639631
_symmetry_Int_Tables_number   1
_chemical_formula_structural   HfZrTaTiMo
_chemical_formula_sum   'Hf50 Zr50 Ta50 Ti50 Mo50'
_cell_volume   4815.37088890
_cell_formula_units_Z   50
loop_
 _symmetry_equiv_pos_site_id
 _symmetry_equiv_pos_as_xyz
  1  'x, y, z'
loop_
 _atom_site_type_symbol
 _atom_site_label
 _atom_site_symmetry_multiplicity
 _atom_site_fract_x
 _atom_site_fract_y
 _atom_site_fract_z
 _atom_site_occupancy
  Hf  Hf0  1  0.39254454  0.18697321  0.19934911  1
  Hf  Hf1  1  0.09565371  0.69261214  0.09791396  1
  Hf  Hf2  1  0.90370841  0.29324618  0.30541833  1
  Hf  Hf3  1  0.21197606  0.61388196  0.60543649  1
  Hf  Hf4  1  0.70012848  0.91043110  0.89718155  1
  Hf  Hf5  1  0.29391550  0.49989366  0.89269780  1
  Hf  Hf6  1  0.59995466  0.60029736  0.40182131  1
  Hf  Hf7  1  0.29797660  0.49844720  0.09159324  1
  Hf  Hf8  1  0.90150125  0.49809676  0.68556314  1
  Hf  Hf9  1  0.91161048  0.50125970  0.09297428  1
  Hf  Hf10  1  0.80081454  0.00461956  0.00722276  1
  Hf  Hf11  1  0.59832161  0.80637351  0.40481260  1
  Hf  Hf12  1  0.79284593  0.59341419  -0.00337248  1
  Hf  Hf13  1  0.11524651  0.90143234  0.09677387  1
  Hf  Hf14  1  0.70127011  0.49375082  0.50259661  1
  Hf  Hf15  1  0.58170865  0.60096483  0.80381944  1
  Hf  Hf16  1  -0.00565262  0.39477051  0.19826914  1
  Hf  Hf17  1  0.30168928  0.90368238  0.50467929  1
  Hf  Hf18  1  0.10149271  0.30368903  0.09297370  1
  Hf  Hf19  1  0.20185725  0.38750651  0.41542822  1
  Hf  Hf20  1  0.79073544  0.80392273  0.00571073  1
  Hf  Hf21  1  0.29438821  0.29316311  0.89238944  1
  Hf  Hf22  1  0.20700059  0.19250560  0.40883863  1
  Hf  Hf23  1  0.70334848  0.90459742  0.69048754  1
  Hf  Hf24  1  0.69166858  0.09696414  0.10223361  1
  Hf  Hf25  1  0.00413860  0.00126293  0.40714514  1
  Hf  Hf26  1  0.79899951  0.00176436  0.40301724  1
  Hf  Hf27  1  0.00029193  0.80253732  -0.00096990  1
  Hf  Hf28  1  0.70795201  0.28859828  0.89461191  1
  Hf  Hf29  1  0.49186788  0.90641704  0.50565263  1
  Hf  Hf30  1  0.68995185  0.69398171  0.10416171  1
  Hf  Hf31  1  0.00482261  0.39991965  0.79737968  1
  Hf  Hf32  1  0.20956552  0.39293600  0.60449515  1
  Hf  Hf33  1  0.00575876  0.59720946  0.79357474  1
  Hf  Hf34  1  -0.00305278  0.00830252  0.00177178  1
  Hf  Hf35  1  0.29479980  0.90683922  0.91473846  1
  Hf  Hf36  1  0.30259207  0.70677155  0.08745383  1
  Hf  Hf37  1  0.59673920  0.39744980  0.00220162  1
  Hf  Hf38  1  0.89974819  0.49636927  0.50031239  1
  Hf  Hf39  1  0.19701274  0.00541733  0.60460367  1
  Hf  Hf40  1  0.49738939  0.70133365  0.09865141  1
  Hf  Hf41  1  0.79980639  0.59866214  0.79622400  1
  Hf  Hf42  1  0.20545722  0.00982596  0.79385943  1
  Hf  Hf43  1  0.69524084  0.29768185  0.70209594  1
  Hf  Hf44  1  0.79767999  0.39215285  0.19708448  1
  Hf  Hf45  1  0.69816596  0.48746187  0.68677587  1
  Hf  Hf46  1  0.20911599  0.60930499  0.40749830  1
  Hf  Hf47  1  0.70364802  0.70194750  0.30010198  1
  Hf  Hf48  1  0.90014683  0.89662503  0.50353598  1
  Hf  Hf49  1  0.09621439  0.28772113  0.30229023  1
  Zr  Zr50  1  0.88886831  0.10801995  0.89252815  1
  Zr  Zr51  1  0.10104433  0.10480563  0.89601151  1
  Zr  Zr52  1  0.21358940  0.00781860  0.20286455  1
  Zr  Zr53  1  0.00036843  0.79154784  0.40859875  1
  Zr  Zr54  1  0.50495974  0.69937885  0.28964615  1
  Zr  Zr55  1  0.30169251  0.90461203  0.30957044  1
  Zr  Zr56  1  0.09834067  0.50244712  0.50370336  1
  Zr  Zr57  1  0.19992453  0.78764737  0.41152476  1
  Zr  Zr58  1  0.59979024  0.60616917  0.59959222  1
  Zr  Zr59  1  0.21104424  0.19917975  0.60246137  1
  Zr  Zr60  1  0.79918498  0.59229587  0.20539725  1
  Zr  Zr61  1  0.90614635  0.69160823  0.10644541  1
  Zr  Zr62  1  0.20347670  0.18981096  0.00098763  1
  Zr  Zr63  1  0.58634194  0.80294227  0.80363235  1
  Zr  Zr64  1  0.58792206  0.20207514  0.40026746  1
  Zr  Zr65  1  0.40909870  0.40185490  0.19723772  1
  Zr  Zr66  1  0.59388263  0.59711153  -0.01042305  1
  Zr  Zr67  1  0.48499260  0.49904061  0.68618364  1
  Zr  Zr68  1  0.49695438  0.29162082  0.88949905  1
  Zr  Zr69  1  0.69582391  0.30777272  0.51206971  1
  Zr  Zr70  1  0.09186157  0.50242418  0.30488383  1
  Zr  Zr71  1  0.30032816  0.29616067  0.30006018  1
  Zr  Zr72  1  0.90286791  0.29882770  0.50517054  1
  Zr  Zr73  1  0.20637580  0.79376000  0.20718362  1
  Zr  Zr74  1  0.10707894  0.90376360  0.89881987  1
  Zr  Zr75  1  0.31799666  0.50203231  0.51397284  1
  Zr  Zr76  1  0.58810177  -0.00198097  0.79473846  1
  Zr  Zr77  1  0.60493915  0.81873435  0.18643530  1
  Zr  Zr78  1  -0.00057553  0.81131375  0.78963803  1
  Zr  Zr79  1  0.79262558  0.19897941  0.40039604  1
  Zr  Zr80  1  0.10156741  0.29066293  0.70395236  1
  Zr  Zr81  1  0.10166431  0.90614540  0.30495961  1
  Zr  Zr82  1  0.69456214  0.09632583  0.50812039  1
  Zr  Zr83  1  0.41252095  0.38779597  0.40598313  1
  Zr  Zr84  1  0.90427948  0.69319043  0.90308499  1
  Zr  Zr85  1  0.70336798  0.90588566  0.29938066  1
  Zr  Zr86  1  0.90733185  0.10276240  0.30038187  1
  Zr  Zr87  1  0.11116391  0.70253461  0.89344031  1
  Zr  Zr88  1  0.80925997  0.39576896  0.79676962  1
  Zr  Zr89  1  0.60129485  0.19908714  0.00070507  1
  Zr  Zr90  1  0.69863230  0.48686994  0.89341214  1
  Zr  Zr91  1  0.09922085  0.50013569  0.09240690  1
  Zr  Zr92  1  0.30575682  0.49771239  0.30522321  1
  Zr  Zr93  1  0.90398802  0.89997787  0.10841813  1
  Zr  Zr94  1  0.29719355  0.30812010  0.09353899  1
  Zr  Zr95  1  0.49692255  0.90888295  0.29460190  1
  Zr  Zr96  1  0.80527985  0.80677299  0.79771585  1
  Zr  Zr97  1  0.41048985  0.59834874  -0.01981681  1
  Zr  Zr98  1  0.20713326  0.60318003  0.20673748  1
  Zr  Zr99  1  0.70001087  0.70527647  0.69608398  1
  Ta  Ta100  1  0.38766145  0.60690743  0.78908475  1
  Ta  Ta101  1  0.79738011  0.20191674  0.19246040  1
  Ta  Ta102  1  -0.00675444  0.20081999  0.80000303  1
  Ta  Ta103  1  0.70460362  0.10151932  0.70633390  1
  Ta  Ta104  1  0.69563637  0.49491918  0.30277969  1
  Ta  Ta105  1  0.59127415  0.19658623  0.60878938  1
  Ta  Ta106  1  0.79932266  0.00429032  0.19803450  1
  Ta  Ta107  1  0.39809228  0.79242238  0.40167484  1
  Ta  Ta108  1  0.29604532  0.70751191  0.89312916  1
  Ta  Ta109  1  0.90937196  0.49348815  0.90844694  1
  Ta  Ta110  1  0.49587574  0.70381394  0.50777053  1
  Ta  Ta111  1  0.49412694  0.09542450  0.90112830  1
  Ta  Ta112  1  0.09870302  0.09750514  0.10422715  1
  Ta  Ta113  1  0.20182011  0.40072899  0.79244765  1
  Ta  Ta114  1  0.00569867  0.61225820  0.59661732  1
  Ta  Ta115  1  0.10689160  0.70816775  0.69685658  1
  Ta  Ta116  1  0.49808336  0.29322009  0.09946543  1
  Ta  Ta117  1  0.89733845  0.89530526  0.30088135  1
  Ta  Ta118  1  -0.00508008  0.00037931  0.78218010  1
  Ta  Ta119  1  0.50345869  0.49503448  0.50469518  1
  Ta  Ta120  1  0.39152744  0.39770275  0.79044863  1
  Ta  Ta121  1  0.39687547  0.00221577  0.79949966  1
  Ta  Ta122  1  0.80275129  0.19402383  0.60883889  1
  Ta  Ta123  1  0.59153384  0.00867558  0.39878760  1
  Ta  Ta124  1  0.39966799  0.01652743  0.39760560  1
  Ta  Ta125  1  0.40547298  0.60660552  0.40429112  1
  Ta  Ta126  1  0.69995348  0.10110830  0.89266324  1
  Ta  Ta127  1  0.80243624  0.60302318  0.40412286  1
  Ta  Ta128  1  0.20338311  0.19115935  0.19808877  1
  Ta  Ta129  1  0.59212472  0.80844239  -0.00593592  1
  Ta  Ta130  1  0.69016861  0.09934374  0.29200955  1
  Ta  Ta131  1  0.00113598  0.79727132  0.20842354  1
  Ta  Ta132  1  0.48953655  0.91149717  0.09560309  1
  Ta  Ta133  1  0.90446617  0.70408481  0.69030508  1
  Ta  Ta134  1  0.79745905  0.40040325  0.39476091  1
  Ta  Ta135  1  -0.00675100  0.20214184  0.00525604  1
  Ta  Ta136  1  0.10174084  0.10233845  0.30216634  1
  Ta  Ta137  1  0.10075138  0.30198399  0.90141264  1
  Ta  Ta138  1  0.30318417  0.90181966  0.69345462  1
  Ta  Ta139  1  0.39603158  0.80757483  0.80082231  1
  Ta  Ta140  1  0.90118258  0.50100614  0.30860510  1
  Ta  Ta141  1  0.48501423  0.70935259  0.69358077  1
  Ta  Ta142  1  0.49281808  0.10090484  0.51096865  1
  Ta  Ta143  1  0.40881646  0.39987099  -0.00938027  1
  Ta  Ta144  1  0.49819829  0.09431152  0.10022619  1
  Ta  Ta145  1  0.90326055  0.30078422  0.90612625  1
  Ta  Ta146  1  0.70725573  0.71115874  0.49715083  1
  Ta  Ta147  1  0.39946890  0.19359143  -0.00171017  1
  Ta  Ta148  1  0.81272829  0.00485131  0.60591568  1
  Ta  Ta149  1  0.20057604  0.60185830  -0.01000406  1
  Ti  Ti150  1  0.59163987  0.18823583  0.79403655  1
  Ti  Ti151  1  0.59581913  0.39380057  0.40083156  1
  Ti  Ti152  1  0.09557913  0.10149622  0.50245022  1
  Ti  Ti153  1  0.10336327  0.49625726  0.90262279  1
  Ti  Ti154  1  0.49067113  0.28801660  0.70019074  1
  Ti  Ti155  1  0.69466731  0.29885541  0.29751171  1
  Ti  Ti156  1  0.09101606  0.69292228  0.30107060  1
  Ti  Ti157  1  0.40667005  0.80732543  -0.00792281  1
  Ti  Ti158  1  0.80365562  0.20328346  0.01461759  1
  Ti  Ti159  1  0.01029594  0.39442516  0.60063052  1
  Ti  Ti160  1  0.89927831  0.90731635  0.89744515  1
  Ti  Ti161  1  0.48687904  0.90199580  0.68871965  1
  Ti  Ti162  1  0.00434554  0.39223181  0.40572011  1
  Ti  Ti163  1  -0.00040751  0.00144240  0.20114797  1
  Ti  Ti164  1  0.39933174  0.60056491  0.20502864  1
  Ti  Ti165  1  0.89908711  0.29413407  0.69824223  1
  Ti  Ti166  1  0.10534694  0.90163055  0.50914563  1
  Ti  Ti167  1  0.69238638  0.49743767  0.10583363  1
  Ti  Ti168  1  0.39682510  0.37610792  0.60175962  1
  Ti  Ti169  1  0.39782044  0.00707922  0.20261446  1
  Ti  Ti170  1  0.60102285  0.39344056  0.19658104  1
  Ti  Ti171  1  0.80957174  0.00277219  0.78791293  1
  Ti  Ti172  1  0.19753831  0.39909089  0.20546203  1
  Ti  Ti173  1  0.39373810  0.80553104  0.19886419  1
  Ti  Ti174  1  0.80510717  0.60974930  0.59241756  1
  Ti  Ti175  1  0.80051655  0.38922475  0.01058872  1
  Ti  Ti176  1  -0.00430177  0.19682053  0.18751141  1
  Ti  Ti177  1  0.31019640  0.09619108  0.50878678  1
  Ti  Ti178  1  0.50333458  0.50328545  0.10496496  1
  Ti  Ti179  1  0.50821186  0.50036625  0.29899051  1
  Ti  Ti180  1  0.80621523  0.80055470  0.59696858  1
  Ti  Ti181  1  -0.00177452  0.19319381  0.60269784  1
  Ti  Ti182  1  0.30471899  0.08045847  0.08124690  1
  Ti  Ti183  1  0.59649902  0.80417458  0.59837562  1
  Ti  Ti184  1  0.80014514  0.80516266  0.19770698  1
  Ti  Ti185  1  0.09357455  0.10262524  0.70036779  1
  Ti  Ti186  1  0.20557524  0.80664058  0.78607165  1
  Ti  Ti187  1  -0.00651330  0.60999343  0.41039634  1
  Ti  Ti188  1  0.59645565  0.20002457  0.19928596  1
  Ti  Ti189  1  0.69507690  0.70365613  0.89800860  1
  Ti  Ti190  1  0.89550523  0.70275695  0.30478580  1
  Ti  Ti191  1  0.11104306  0.50689501  0.69829993  1
  Ti  Ti192  1  0.90634699  0.10177704  0.50557303  1
  Ti  Ti193  1  0.58491906  0.40062002  0.79392653  1
  Ti  Ti194  1  0.40194635  0.19826329  0.40663963  1
  Ti  Ti195  1  0.70150959  0.90171265  0.50413488  1
  Ti  Ti196  1  0.59377472  0.00618266  0.60549363  1
  Ti  Ti197  1  0.00829463  0.80228776  0.60058048  1
  Ti  Ti198  1  0.50073320  0.29445026  0.29182834  1
  Ti  Ti199  1  0.59456977  -0.00527934  -0.00058476  1
  Mo  Mo200  1  0.48880616  0.71240578  0.89221588  1
  Mo  Mo201  1  0.31161059  0.89864338  0.10020608  1
  Mo  Mo202  1  0.19863048  0.19875852  0.79787280  1
  Mo  Mo203  1  0.00896242  0.59453458  -0.01521592  1
  Mo  Mo204  1  0.49230944  0.90490941  0.90484853  1
  Mo  Mo205  1  0.19839699  0.40383117  -0.01384959  1
  Mo  Mo206  1  0.69561532  0.90670108  0.09522986  1
  Mo  Mo207  1  0.31126594  0.28950877  0.50693644  1
  Mo  Mo208  1  0.40204045  0.19586373  0.60680233  1
  Mo  Mo209  1  0.49194076  0.48783794  0.88316491  1
  Mo  Mo210  1  0.31110738  0.70605126  0.50765622  1
  Mo  Mo211  1  0.19763367  0.80610670  0.60474570  1
  Mo  Mo212  1  -0.00498043  0.60241743  0.22104162  1
  Mo  Mo213  1  0.90342894  0.90195183  0.68915357  1
  Mo  Mo214  1  0.58304293  0.38935312  0.60218570  1
  Mo  Mo215  1  0.39485624  0.19149037  0.79836810  1
  Mo  Mo216  1  0.39916390  0.61325793  0.59927405  1
  Mo  Mo217  1  0.09279746  0.29170882  0.50376897  1
  Mo  Mo218  1  0.29975531  0.10166818  0.31149816  1
  Mo  Mo219  1  0.49854041  0.09983357  0.70156117  1
  Mo  Mo220  1  0.49756542  0.10351696  0.29831565  1
  Mo  Mo221  1  0.39530628  0.80371194  0.60197018  1
  Mo  Mo222  1  0.31509025  0.69885726  0.30326072  1
  Mo  Mo223  1  0.39808529  0.00476670  0.60527030  1
  Mo  Mo224  1  0.20090982  0.00080521  0.00365780  1
  Mo  Mo225  1  0.80098680  0.19938418  0.79496384  1
  Mo  Mo226  1  0.01000217  0.19555716  0.41304098  1
  Mo  Mo227  1  0.31050690  0.10024036  0.70277459  1
  Mo  Mo228  1  0.90132373  0.10358058  0.10651066  1
  Mo  Mo229  1  0.49985062  0.29469381  0.51032113  1
  Mo  Mo230  1  0.09886341  0.70152180  0.50786117  1
  Mo  Mo231  1  0.40357850  0.00211957  -0.00340902  1
  Mo  Mo232  1  0.59711628  0.58227070  0.20162631  1
  Mo  Mo233  1  0.20601838  0.79624023  0.00273976  1
  Mo  Mo234  1  0.69648419  0.29775084  0.10529456  1
  Mo  Mo235  1  0.10296418  0.90178586  0.69314864  1
  Mo  Mo236  1  0.90358329  0.10282311  0.69568593  1
  Mo  Mo237  1  0.20020839  0.01073447  0.41131386  1
  Mo  Mo238  1  0.80697047  0.38951579  0.59720288  1
  Mo  Mo239  1  0.30674283  0.10019564  0.89504785  1
  Mo  Mo240  1  0.29824429  0.49839059  0.70262888  1
  Mo  Mo241  1  0.30357701  0.29296616  0.70635759  1
  Mo  Mo242  1  0.00420649  0.00164530  0.60015478  1
  Mo  Mo243  1  0.89740006  0.29830698  0.09579607  1
  Mo  Mo244  1  0.19987787  0.59865695  0.79392907  1
  Mo  Mo245  1  0.59447594  0.00832567  0.19864408  1
  Mo  Mo246  1  0.00263321  0.39541404  -0.00675596  1
  Mo  Mo247  1  0.89740372  0.70085894  0.50590209  1
  Mo  Mo248  1  0.79964276  0.79998427  0.40324982  1
  Mo  Mo249  1  0.29887089  0.71131111  0.70406415  1
