# generated using pymatgen
data_HfZrTaTiMo
_symmetry_space_group_name_H-M   'P 1'
_cell_length_a   16.89230281
_cell_length_b   16.89133896
_cell_length_c   16.88507111
_cell_angle_alpha   90.01668319
_cell_angle_beta   89.93993383
_cell_angle_gamma   90.01406426
_symmetry_Int_Tables_number   1
_chemical_formula_structural   HfZrTaTiMo
_chemical_formula_sum   'Hf50 Zr50 Ta50 Ti50 Mo50'
_cell_volume   4817.87534219
_cell_formula_units_Z   50
loop_
 _symmetry_equiv_pos_site_id
 _symmetry_equiv_pos_as_xyz
  1  'x, y, z'
loop_
 _atom_site_type_symbol
 _atom_site_label
 _atom_site_symmetry_multiplicity
 _atom_site_fract_x
 _atom_site_fract_y
 _atom_site_fract_z
 _atom_site_occupancy
  Hf  Hf0  1  0.50671179  0.49893475  0.29937604  1
  Hf  Hf1  1  0.30154074  0.09306213  0.50647949  1
  Hf  Hf2  1  0.69956726  0.30244275  0.49707233  1
  Hf  Hf3  1  -0.01207713  0.40409846  0.00164420  1
  Hf  Hf4  1  0.30608494  0.70242123  0.10521252  1
  Hf  Hf5  1  0.19505903  0.60408265  0.21060822  1
  Hf  Hf6  1  0.39856007  0.39774434  0.59628261  1
  Hf  Hf7  1  0.28916697  0.29920344  0.30978278  1
  Hf  Hf8  1  0.09799216  0.89320302  0.89279747  1
  Hf  Hf9  1  0.00040776  0.20129969  0.00021808  1
  Hf  Hf10  1  0.00870302  0.00605630  0.20504233  1
  Hf  Hf11  1  0.18563813  0.18483958  0.20686111  1
  Hf  Hf12  1  0.70394114  0.29991182  0.10458730  1
  Hf  Hf13  1  0.38954732  0.40253908  0.80239003  1
  Hf  Hf14  1  0.69601229  0.31182679  0.70956384  1
  Hf  Hf15  1  0.30166250  0.50062216  0.10185912  1
  Hf  Hf16  1  0.19336219  0.20101733  0.59888560  1
  Hf  Hf17  1  0.89992907  0.10100170  0.70093356  1
  Hf  Hf18  1  0.58330189  0.78221890  -0.00395843  1
  Hf  Hf19  1  0.89732332  0.11217461  0.10522995  1
  Hf  Hf20  1  0.90281774  0.10282702  0.89898737  1
  Hf  Hf21  1  0.29953310  0.09753607  0.69655106  1
  Hf  Hf22  1  -0.00489899  0.40739794  0.39904457  1
  Hf  Hf23  1  0.29751768  0.69636988  0.50069669  1
  Hf  Hf24  1  0.41474165  0.19015557  0.39634505  1
  Hf  Hf25  1  -0.01040439  0.79141412  0.59778934  1
  Hf  Hf26  1  0.60099290  0.79979750  0.59934428  1
  Hf  Hf27  1  0.59381894  -0.00678916  0.59290304  1
  Hf  Hf28  1  0.30430741  0.69699907  0.88472506  1
  Hf  Hf29  1  0.59756503  0.19753166  0.60163196  1
  Hf  Hf30  1  0.28939360  0.08424929  0.30391847  1
  Hf  Hf31  1  0.40461816  0.39808483  0.20273269  1
  Hf  Hf32  1  0.09693852  0.30408604  0.30360263  1
  Hf  Hf33  1  -0.00369040  0.78913691  0.20733306  1
  Hf  Hf34  1  -0.00476879  0.59027307  -0.01477008  1
  Hf  Hf35  1  0.89465250  0.68509626  0.09950744  1
  Hf  Hf36  1  -0.00200111  0.19818886  0.59497770  1
  Hf  Hf37  1  0.19872579  0.41045483  0.80201978  1
  Hf  Hf38  1  0.30216499  0.51889819  0.69295173  1
  Hf  Hf39  1  0.59739962  0.59684822  -0.00172529  1
  Hf  Hf40  1  0.90177159  0.30652351  0.70612257  1
  Hf  Hf41  1  0.70586558  0.69729448  0.09580890  1
  Hf  Hf42  1  0.09677156  0.69958101  0.09125149  1
  Hf  Hf43  1  0.51170921  0.30238651  0.49229193  1
  Hf  Hf44  1  0.90554889  0.29407024  0.27652803  1
  Hf  Hf45  1  0.88389841  0.89739574  0.49766857  1
  Hf  Hf46  1  0.09990783  0.89977171  0.09936433  1
  Hf  Hf47  1  0.69974639  0.09603650  0.49453000  1
  Hf  Hf48  1  0.59907522  0.19949214  -0.00470438  1
  Hf  Hf49  1  0.80170601  0.40313267  0.39143289  1
  Zr  Zr50  1  0.89130407  0.89924421  0.30835711  1
  Zr  Zr51  1  0.09726483  0.89737571  0.70452037  1
  Zr  Zr52  1  0.40506043  0.19547858  0.20594209  1
  Zr  Zr53  1  0.29551832  0.70490108  0.69591739  1
  Zr  Zr54  1  0.59491906  0.60018584  0.19295782  1
  Zr  Zr55  1  0.30042357  0.50021604  0.31002596  1
  Zr  Zr56  1  0.89645260  0.10278679  0.30109095  1
  Zr  Zr57  1  0.70246199  0.09615607  0.30485917  1
  Zr  Zr58  1  0.41319476  0.60932511  0.00146741  1
  Zr  Zr59  1  0.69881560  0.70705156  0.29826632  1
  Zr  Zr60  1  0.79097835  0.20547628  0.80278430  1
  Zr  Zr61  1  0.19401893  0.81402933  0.59209805  1
  Zr  Zr62  1  0.10386561  0.89399557  0.30917482  1
  Zr  Zr63  1  0.09040860  0.30048385  0.70498072  1
  Zr  Zr64  1  0.59620212  0.00710412  0.79988113  1
  Zr  Zr65  1  0.40952392  0.80933032  0.59483778  1
  Zr  Zr66  1  0.19960946  0.79411759  0.21060104  1
  Zr  Zr67  1  0.51433680  0.30548615  0.11020111  1
  Zr  Zr68  1  0.20011982  0.59211596  -0.01270479  1
  Zr  Zr69  1  0.70695288  0.09863130  0.90956874  1
  Zr  Zr70  1  0.90046479  0.50345260  0.50490311  1
  Zr  Zr71  1  0.58920463  0.00482321  0.00913824  1
  Zr  Zr72  1  0.30389935  0.10870149  0.88992679  1
  Zr  Zr73  1  0.09694963  0.29849128  0.89718478  1
  Zr  Zr74  1  0.79626155  -0.00742495  0.19550200  1
  Zr  Zr75  1  0.28751008  0.29689871  0.09857108  1
  Zr  Zr76  1  0.48473411  0.10550685  0.70426329  1
  Zr  Zr77  1  0.49961000  0.50142643  0.89110968  1
  Zr  Zr78  1  0.50149734  0.50132409  0.69907322  1
  Zr  Zr79  1  0.69539065  0.29616772  0.29286044  1
  Zr  Zr80  1  0.09437361  0.49626613  0.10753084  1
  Zr  Zr81  1  0.41693860  -0.00605026  0.40601666  1
  Zr  Zr82  1  0.60654326  0.60185350  0.79544694  1
  Zr  Zr83  1  0.40280486  -0.00286929  -0.00234165  1
  Zr  Zr84  1  0.20890050  0.80277636  -0.01088117  1
  Zr  Zr85  1  0.39973977  0.40083958  -0.00199641  1
  Zr  Zr86  1  0.00101033  0.19393182  0.40751362  1
  Zr  Zr87  1  0.50232813  0.50149514  0.49630130  1
  Zr  Zr88  1  0.41731676  0.00469025  0.20439254  1
  Zr  Zr89  1  -0.00161749  -0.00702037  0.59802759  1
  Zr  Zr90  1  0.29833455  0.90599779  0.11631908  1
  Zr  Zr91  1  0.80690206  0.60849780  0.39417375  1
  Zr  Zr92  1  0.19652143  0.40899611  0.60433945  1
  Zr  Zr93  1  0.79950953  -0.00919277  0.79967885  1
  Zr  Zr94  1  0.08964427  0.30005810  0.11104635  1
  Zr  Zr95  1  0.69362003  0.88861335  0.10377365  1
  Zr  Zr96  1  0.69351779  0.88969325  0.90115342  1
  Zr  Zr97  1  0.29349311  0.30179621  0.49245452  1
  Zr  Zr98  1  0.41095673  0.19597260  -0.00164893  1
  Zr  Zr99  1  0.20103972  0.00131787  -0.01003197  1
  Ta  Ta100  1  0.18900627  0.59458999  0.79646154  1
  Ta  Ta101  1  0.49867334  0.89371694  0.89184184  1
  Ta  Ta102  1  0.30495522  0.70294820  0.30990381  1
  Ta  Ta103  1  0.89720956  0.30614710  0.89207822  1
  Ta  Ta104  1  0.09950191  0.69834078  0.69977211  1
  Ta  Ta105  1  0.80459861  0.40696197  0.19159151  1
  Ta  Ta106  1  0.80321376  0.79422027  0.20471590  1
  Ta  Ta107  1  0.40577590  0.60615780  0.40050688  1
  Ta  Ta108  1  0.79981595  0.20521673  0.59838689  1
  Ta  Ta109  1  0.20408681  -0.00540815  0.79872482  1
  Ta  Ta110  1  -0.00613728  -0.00600461  -0.00223020  1
  Ta  Ta111  1  0.19189619  -0.01023076  0.41210857  1
  Ta  Ta112  1  0.70652447  0.70428821  0.50014313  1
  Ta  Ta113  1  0.50104544  0.30452028  0.70528819  1
  Ta  Ta114  1  0.70435520  0.70156679  0.70206875  1
  Ta  Ta115  1  0.10002649  0.31268815  0.49605976  1
  Ta  Ta116  1  -0.00886830  0.79794440  -0.00794592  1
  Ta  Ta117  1  0.09481434  0.70341314  0.88564463  1
  Ta  Ta118  1  0.81053501  -0.01203832  0.00201432  1
  Ta  Ta119  1  0.80449232  0.20473565  0.40484414  1
  Ta  Ta120  1  0.29402569  0.09738181  0.10437170  1
  Ta  Ta121  1  0.40244499  0.80261883  -0.00530428  1
  Ta  Ta122  1  0.40556819  0.80326238  0.40060842  1
  Ta  Ta123  1  0.70680595  0.50282303  0.09663091  1
  Ta  Ta124  1  0.10028417  0.09432496  0.70687328  1
  Ta  Ta125  1  0.80388549  0.40400186  -0.00295689  1
  Ta  Ta126  1  0.00069613  0.60795229  0.39888132  1
  Ta  Ta127  1  -0.00694280  0.78947631  0.40547542  1
  Ta  Ta128  1  0.70892368  0.69537255  0.89714558  1
  Ta  Ta129  1  0.70234817  0.50611543  0.50021805  1
  Ta  Ta130  1  0.30483538  0.28891303  0.70452663  1
  Ta  Ta131  1  0.81018435  0.79874749  -0.00470335  1
  Ta  Ta132  1  0.90068490  0.50645748  0.28733830  1
  Ta  Ta133  1  0.71060963  0.49813870  0.89139062  1
  Ta  Ta134  1  0.51862189  0.89329953  0.30136365  1
  Ta  Ta135  1  0.79838313  0.60250008  0.60331412  1
  Ta  Ta136  1  0.89477473  0.69272355  0.89321521  1
  Ta  Ta137  1  0.60741504  0.60591234  0.59773746  1
  Ta  Ta138  1  0.10087178  0.70047382  0.50048587  1
  Ta  Ta139  1  0.79672386  0.40595818  0.60465609  1
  Ta  Ta140  1  0.80223665  0.79694954  0.79964334  1
  Ta  Ta141  1  0.00201029  -0.00188635  0.40816221  1
  Ta  Ta142  1  0.19327771  0.60368979  0.40045076  1
  Ta  Ta143  1  0.59563085  0.20238261  0.80716630  1
  Ta  Ta144  1  0.89361252  0.50216833  0.70567980  1
  Ta  Ta145  1  0.60566562  0.60421827  0.40083525  1
  Ta  Ta146  1  0.50292962  0.70622695  0.30393594  1
  Ta  Ta147  1  -0.00115120  0.60206415  0.60229775  1
  Ta  Ta148  1  0.60727877  0.40928173  0.60408251  1
  Ta  Ta149  1  0.60801389  0.40521121  -0.00265353  1
  Ti  Ti150  1  0.29929973  0.90417352  0.70113385  1
  Ti  Ti151  1  0.39895943  -0.00624469  0.80534591  1
  Ti  Ti152  1  0.09486102  0.09799565  0.89108971  1
  Ti  Ti153  1  0.19566147  0.19412674  -0.00139291  1
  Ti  Ti154  1  0.50781545  0.70335833  0.49150430  1
  Ti  Ti155  1  0.40947599  -0.00763722  0.59585944  1
  Ti  Ti156  1  0.50218488  0.88914799  0.10705598  1
  Ti  Ti157  1  0.88637762  0.09257149  0.50026391  1
  Ti  Ti158  1  -0.00042473  0.41903022  0.80805892  1
  Ti  Ti159  1  0.40664877  0.80051215  0.20875322  1
  Ti  Ti160  1  0.40179906  0.39967260  0.39929349  1
  Ti  Ti161  1  0.10255594  0.50652488  0.50269355  1
  Ti  Ti162  1  0.09563694  0.49854132  0.30312647  1
  Ti  Ti163  1  -0.00022219  0.59514561  0.79566330  1
  Ti  Ti164  1  0.00023399  0.60260492  0.20816923  1
  Ti  Ti165  1  0.10123661  0.09278343  0.09610066  1
  Ti  Ti166  1  0.89913529  0.30595440  0.50594159  1
  Ti  Ti167  1  0.78886256  -0.00459690  0.60263606  1
  Ti  Ti168  1  0.50706935  0.30660007  0.89125593  1
  Ti  Ti169  1  0.61358524  0.41265614  0.39341720  1
  Ti  Ti170  1  -0.01229819  0.79562020  0.79956053  1
  Ti  Ti171  1  0.19849949  0.40354387  0.20699563  1
  Ti  Ti172  1  0.29860220  0.90202166  0.49786771  1
  Ti  Ti173  1  0.59414508  0.18048659  0.20028470  1
  Ti  Ti174  1  0.19519934  0.19820189  0.79768652  1
  Ti  Ti175  1  -0.00445870  -0.00477323  0.80337097  1
  Ti  Ti176  1  0.51741397  0.30072228  0.30292046  1
  Ti  Ti177  1  0.90394047  0.89361522  0.10085389  1
  Ti  Ti178  1  0.29508616  0.29443325  0.89779963  1
  Ti  Ti179  1  0.70102376  0.10323379  0.69845222  1
  Ti  Ti180  1  0.89388903  0.69281972  0.70414872  1
  Ti  Ti181  1  0.80332422  0.21516422  0.00017803  1
  Ti  Ti182  1  0.60911815  0.80834174  0.40702274  1
  Ti  Ti183  1  0.00063118  0.40918631  0.60431551  1
  Ti  Ti184  1  0.49994036  0.70203574  0.70865362  1
  Ti  Ti185  1  0.29547461  0.50805572  0.49818715  1
  Ti  Ti186  1  0.89356727  0.89644918  0.70069452  1
  Ti  Ti187  1  0.60192437  -0.00257169  0.20285249  1
  Ti  Ti188  1  0.69785895  0.89157757  0.70277239  1
  Ti  Ti189  1  0.70729690  0.10348713  0.10060721  1
  Ti  Ti190  1  0.40553905  0.20449205  0.59298092  1
  Ti  Ti191  1  0.40098610  0.80344463  0.79892924  1
  Ti  Ti192  1  0.41396430  0.60853934  0.59421873  1
  Ti  Ti193  1  0.10491036  0.08606587  0.51044458  1
  Ti  Ti194  1  0.18784150  0.18708360  0.40471381  1
  Ti  Ti195  1  0.19868487  0.40782453  -0.01235250  1
  Ti  Ti196  1  0.79670288  0.79533729  0.60117095  1
  Ti  Ti197  1  0.40692794  0.60211889  0.20233264  1
  Ti  Ti198  1  0.50303815  0.89691909  0.70863408  1
  Ti  Ti199  1  0.29897677  0.89694100  0.30773659  1
  Mo  Mo200  1  0.60138519  0.79628363  0.79585643  1
  Mo  Mo201  1  0.09915997  0.09262578  0.31628613  1
  Mo  Mo202  1  0.70291464  0.89607111  0.49861029  1
  Mo  Mo203  1  0.39982090  0.60545868  0.79432070  1
  Mo  Mo204  1  0.49596203  0.70550914  0.88016797  1
  Mo  Mo205  1  0.60799795  0.41230527  0.19651459  1
  Mo  Mo206  1  0.09137191  0.89456007  0.49772991  1
  Mo  Mo207  1  0.90326598  0.89328783  0.89888694  1
  Mo  Mo208  1  0.79588821  0.80053983  0.40106682  1
  Mo  Mo209  1  0.49258160  0.71018669  0.11575810  1
  Mo  Mo210  1  0.69948657  0.31017292  0.90481207  1
  Mo  Mo211  1  0.50414695  0.09935934  0.10492180  1
  Mo  Mo212  1  0.09782733  0.69587909  0.31201060  1
  Mo  Mo213  1  0.20223117  0.00020011  0.60289239  1
  Mo  Mo214  1  0.40413327  0.21281687  0.80155577  1
  Mo  Mo215  1  0.89832631  0.70079600  0.50470224  1
  Mo  Mo216  1  0.79952780  0.59651044  0.19761785  1
  Mo  Mo217  1  0.50717045  0.89522123  0.49436339  1
  Mo  Mo218  1  0.20043562  0.79813959  0.79221385  1
  Mo  Mo219  1  0.49849197  0.09999492  0.89516480  1
  Mo  Mo220  1  0.29668209  0.50551282  0.89483808  1
  Mo  Mo221  1  0.69798619  0.89726817  0.30563334  1
  Mo  Mo222  1  0.51884130  0.09304980  0.30554378  1
  Mo  Mo223  1  0.50623583  0.49710524  0.10215950  1
  Mo  Mo224  1  0.30674797  0.89511967  0.88308513  1
  Mo  Mo225  1  0.50285128  0.09796903  0.50180322  1
  Mo  Mo226  1  0.20727228  0.79884200  0.40419249  1
  Mo  Mo227  1  0.19831641  -0.00048715  0.20763865  1
  Mo  Mo228  1  0.00600802  0.19400655  0.19496881  1
  Mo  Mo229  1  0.60502241  0.39909837  0.80353663  1
  Mo  Mo230  1  0.59859150  0.79974393  0.19965221  1
  Mo  Mo231  1  0.89486962  0.50287245  0.10268073  1
  Mo  Mo232  1  0.80228165  0.40676117  0.80152545  1
  Mo  Mo233  1  0.89399817  0.30360145  0.09417301  1
  Mo  Mo234  1  0.90033355  0.69807377  0.29842236  1
  Mo  Mo235  1  0.60667874  -0.01070085  0.40077805  1
  Mo  Mo236  1  0.00095883  0.18966850  0.80251278  1
  Mo  Mo237  1  0.19000019  0.41428483  0.40371591  1
  Mo  Mo238  1  0.59993276  0.19359274  0.39968791  1
  Mo  Mo239  1  0.70386848  0.50392757  0.69526439  1
  Mo  Mo240  1  -0.00453165  0.41134602  0.20072774  1
  Mo  Mo241  1  0.18568519  0.60179878  0.59530575  1
  Mo  Mo242  1  0.70411233  0.50173642  0.29517766  1
  Mo  Mo243  1  0.79966171  0.00062675  0.40651905  1
  Mo  Mo244  1  0.89515445  0.50089312  0.89149365  1
  Mo  Mo245  1  0.80256402  0.60241939  0.79485530  1
  Mo  Mo246  1  0.09529897  0.50238644  0.89389693  1
  Mo  Mo247  1  0.79951961  0.59604484  -0.00844210  1
  Mo  Mo248  1  0.79402246  0.20344056  0.19405995  1
  Mo  Mo249  1  0.08754610  0.50674306  0.69793254  1
