# generated using pymatgen
data_HfZrTaTiMo
_symmetry_space_group_name_H-M   'P 1'
_cell_length_a   16.88001002
_cell_length_b   16.88738925
_cell_length_c   16.88985960
_cell_angle_alpha   90.00686310
_cell_angle_beta   90.00608585
_cell_angle_gamma   90.01362407
_symmetry_Int_Tables_number   1
_chemical_formula_structural   HfZrTaTiMo
_chemical_formula_sum   'Hf50 Zr50 Ta50 Ti50 Mo50'
_cell_volume   4814.61135389
_cell_formula_units_Z   50
loop_
 _symmetry_equiv_pos_site_id
 _symmetry_equiv_pos_as_xyz
  1  'x, y, z'
loop_
 _atom_site_type_symbol
 _atom_site_label
 _atom_site_symmetry_multiplicity
 _atom_site_fract_x
 _atom_site_fract_y
 _atom_site_fract_z
 _atom_site_occupancy
  Hf  Hf0  1  0.30488137  0.49733323  0.89757761  1
  Hf  Hf1  1  0.10163497  0.30013189  0.90717802  1
  Hf  Hf2  1  0.00113364  0.58940449  0.38515337  1
  Hf  Hf3  1  0.40768734  0.19352203  0.39262005  1
  Hf  Hf4  1  0.19408717  0.60026334  0.19516072  1
  Hf  Hf5  1  0.09569857  0.10117398  0.69954858  1
  Hf  Hf6  1  0.29753935  0.48876123  0.49227324  1
  Hf  Hf7  1  0.79663165  0.00479728  -0.00123210  1
  Hf  Hf8  1  0.49973494  0.69913321  0.89588601  1
  Hf  Hf9  1  0.18018091  0.20178329  0.59195233  1
  Hf  Hf10  1  0.20305144  0.60232352  0.80806360  1
  Hf  Hf11  1  0.39597682  0.60733096  0.00031703  1
  Hf  Hf12  1  0.49313102  0.49994240  0.28901483  1
  Hf  Hf13  1  0.69540192  0.30332281  0.71102791  1
  Hf  Hf14  1  0.90367588  0.50194065  0.69049655  1
  Hf  Hf15  1  0.70149466  0.70999809  0.29304661  1
  Hf  Hf16  1  0.60854898  0.20269767  0.59233299  1
  Hf  Hf17  1  0.29148133  0.09548367  0.30197859  1
  Hf  Hf18  1  0.50931530  0.91536658  0.69511849  1
  Hf  Hf19  1  0.59940305  0.39422303  0.19976403  1
  Hf  Hf20  1  0.80016051  0.80357440  0.59592898  1
  Hf  Hf21  1  0.60897365  0.80987607  0.58584304  1
  Hf  Hf22  1  0.30608362  0.69463085  0.70567913  1
  Hf  Hf23  1  0.59387094  0.00541581  0.20486006  1
  Hf  Hf24  1  0.80320987  -0.00036682  0.80888923  1
  Hf  Hf25  1  0.40512884  0.59204506  0.60124072  1
  Hf  Hf26  1  0.20838861  0.60529509  0.00583351  1
  Hf  Hf27  1  0.30973416  0.28963011  0.69281870  1
  Hf  Hf28  1  0.49843135  0.48979851  0.49038583  1
  Hf  Hf29  1  0.60531191  0.59980370  0.19432343  1
  Hf  Hf30  1  0.69476395  0.10041706  0.69957595  1
  Hf  Hf31  1  0.60003920  0.40111008  0.59768295  1
  Hf  Hf32  1  0.20215060  0.01233962  0.00360962  1
  Hf  Hf33  1  0.50861787  0.49242404  0.89956117  1
  Hf  Hf34  1  0.60572563  -0.00421341  0.40251276  1
  Hf  Hf35  1  0.00007014  0.80981685  0.60580821  1
  Hf  Hf36  1  0.49555654  0.11013010  0.69979440  1
  Hf  Hf37  1  0.10038214  0.49084458  0.90868927  1
  Hf  Hf38  1  0.70495632  0.89790876  0.10604419  1
  Hf  Hf39  1  0.09747285  0.90356325  0.10165873  1
  Hf  Hf40  1  0.20349210  0.79987174  0.39734714  1
  Hf  Hf41  1  0.21017213  0.19247291  0.80242469  1
  Hf  Hf42  1  0.38360094  0.01201751  0.79863727  1
  Hf  Hf43  1  0.70607890  0.29823761  0.29789710  1
  Hf  Hf44  1  0.49020503  0.11166554  0.91180456  1
  Hf  Hf45  1  -0.00245105  0.79786587  0.19877829  1
  Hf  Hf46  1  0.89569754  0.10593481  0.69629031  1
  Hf  Hf47  1  0.09468590  0.69301570  0.69770123  1
  Hf  Hf48  1  -0.00273391  0.01225784  0.00694833  1
  Hf  Hf49  1  0.50409863  0.09297866  0.51063096  1
  Zr  Zr50  1  0.70421249  0.50275853  0.70502854  1
  Zr  Zr51  1  0.50189513  0.89686196  0.90511070  1
  Zr  Zr52  1  0.51042546  0.70206266  0.70409216  1
  Zr  Zr53  1  -0.00236231  0.21206198  0.78903779  1
  Zr  Zr54  1  0.89477448  0.69279445  0.69961321  1
  Zr  Zr55  1  0.60629605  0.59672870  0.39215467  1
  Zr  Zr56  1  0.59867629  0.00575361  0.01239312  1
  Zr  Zr57  1  0.50069628  0.70322783  0.49354169  1
  Zr  Zr58  1  0.60293172  0.20469535  0.00866299  1
  Zr  Zr59  1  0.89461926  0.71405079  0.30768483  1
  Zr  Zr60  1  0.19656389  0.39201595  0.60358794  1
  Zr  Zr61  1  0.61992011  0.59907215  0.58560183  1
  Zr  Zr62  1  0.30469615  0.70594417  0.29124455  1
  Zr  Zr63  1  0.09773505  0.90855935  0.30307984  1
  Zr  Zr64  1  0.39398124  0.60479374  0.39819090  1
  Zr  Zr65  1  0.29548145  0.49581440  0.29532217  1
  Zr  Zr66  1  0.09325612  0.49630504  0.09353299  1
  Zr  Zr67  1  0.39546833  0.39245133  0.00424425  1
  Zr  Zr68  1  0.91000670  0.10383026  0.49660199  1
  Zr  Zr69  1  0.30167248  0.29622516  0.49474760  1
  Zr  Zr70  1  0.10310222  0.29982946  0.09299284  1
  Zr  Zr71  1  0.40895662  -0.00064310  0.39587363  1
  Zr  Zr72  1  0.79363059  -0.00650253  0.59088234  1
  Zr  Zr73  1  0.29554411  0.91117764  0.49300968  1
  Zr  Zr74  1  0.91588605  0.89074401  0.47056331  1
  Zr  Zr75  1  0.09578397  0.49386892  0.49769436  1
  Zr  Zr76  1  0.80289402  0.79527087  0.00563300  1
  Zr  Zr77  1  0.00038686  -0.00236362  0.59959251  1
  Zr  Zr78  1  0.89947906  0.89385933  0.90447192  1
  Zr  Zr79  1  0.79685103  0.39521191  0.59200198  1
  Zr  Zr80  1  0.90117553  0.68906755  0.50381770  1
  Zr  Zr81  1  0.20503053  0.59734737  0.59813025  1
  Zr  Zr82  1  0.80067162  0.59344351  0.81898240  1
  Zr  Zr83  1  0.79747476  0.00192650  0.39598408  1
  Zr  Zr84  1  0.78861234  0.58885172  0.40319902  1
  Zr  Zr85  1  0.20346028  0.39318297  0.19872723  1
  Zr  Zr86  1  0.80567848  0.20298471  0.00639902  1
  Zr  Zr87  1  0.60543554  0.00463500  0.81947979  1
  Zr  Zr88  1  0.09948160  0.90217699  0.90281749  1
  Zr  Zr89  1  0.00399206  0.37154840  0.60791430  1
  Zr  Zr90  1  -0.00103869  0.59555475  0.81246709  1
  Zr  Zr91  1  0.39274682  0.80813406  0.79885765  1
  Zr  Zr92  1  0.39764788  0.81167550  0.59663566  1
  Zr  Zr93  1  0.30643592  0.11396818  0.10738793  1
  Zr  Zr94  1  0.09436319  0.70071737  0.49738617  1
  Zr  Zr95  1  0.29468488  0.90469227  0.90555443  1
  Zr  Zr96  1  0.40009873  0.37937029  0.37475550  1
  Zr  Zr97  1  0.49985195  0.49618419  0.09628103  1
  Zr  Zr98  1  -0.00287809  0.20297690  0.19899345  1
  Zr  Zr99  1  0.70095166  0.89245314  0.71610555  1
  Ta  Ta100  1  0.50075529  0.29901052  0.70247672  1
  Ta  Ta101  1  0.09558212  0.09675098  0.29834624  1
  Ta  Ta102  1  0.70465387  0.49302239  0.09698540  1
  Ta  Ta103  1  0.60993126  0.60428560  0.00114440  1
  Ta  Ta104  1  -0.00257757  0.39599570  0.80006303  1
  Ta  Ta105  1  0.20066689  0.79866956  0.19179571  1
  Ta  Ta106  1  0.79845791  0.59459276  0.19942341  1
  Ta  Ta107  1  0.79874189  0.20769305  0.80448464  1
  Ta  Ta108  1  0.00371678  0.20294389  0.39566013  1
  Ta  Ta109  1  0.39942391  0.00539442  0.01106003  1
  Ta  Ta110  1  0.19761983  0.79770695  0.80080767  1
  Ta  Ta111  1  0.20094901  0.80894208  0.60643493  1
  Ta  Ta112  1  -0.00140278  0.80291831  0.79828336  1
  Ta  Ta113  1  0.59680616  0.80345354  0.19742880  1
  Ta  Ta114  1  0.00129516  0.39346603  0.38780806  1
  Ta  Ta115  1  0.80210012  0.19932657  0.40046680  1
  Ta  Ta116  1  0.59719193  0.81033223  0.39519446  1
  Ta  Ta117  1  0.19052071  0.20156077  0.39574390  1
  Ta  Ta118  1  0.70489616  0.70059387  0.70581736  1
  Ta  Ta119  1  0.70573873  0.10555146  0.29617937  1
  Ta  Ta120  1  0.90320036  0.49484399  0.50050077  1
  Ta  Ta121  1  0.89375323  0.49582470  0.10217328  1
  Ta  Ta122  1  0.80008443  0.20641004  0.59464449  1
  Ta  Ta123  1  0.40744384  0.00635237  0.19936606  1
  Ta  Ta124  1  -0.00626410  0.59515403  0.20043922  1
  Ta  Ta125  1  0.30803513  0.49374266  0.70778625  1
  Ta  Ta126  1  0.40436855  0.38928263  0.80249284  1
  Ta  Ta127  1  0.10361715  0.90847331  0.49357571  1
  Ta  Ta128  1  0.10065464  0.49489071  0.70522760  1
  Ta  Ta129  1  0.79754916  0.59845624  0.00521485  1
  Ta  Ta130  1  0.49423535  0.29416455  0.10073915  1
  Ta  Ta131  1  0.09801628  0.10536083  0.90233896  1
  Ta  Ta132  1  0.19944635  0.00522863  0.60140715  1
  Ta  Ta133  1  0.49683478  0.70643143  0.28896000  1
  Ta  Ta134  1  0.69740840  0.70809429  0.89723608  1
  Ta  Ta135  1  0.59662100  0.19748668  0.20097652  1
  Ta  Ta136  1  0.30285261  0.90159142  0.10715522  1
  Ta  Ta137  1  0.39175325  0.79590917  0.00747579  1
  Ta  Ta138  1  0.50256124  0.29640008  0.49803857  1
  Ta  Ta139  1  0.40419276  0.80762965  0.39597665  1
  Ta  Ta140  1  -0.00415812  0.40061690  0.20464091  1
  Ta  Ta141  1  0.20541043  0.79262455  0.00381463  1
  Ta  Ta142  1  0.29832793  0.90473900  0.28957013  1
  Ta  Ta143  1  0.10372283  0.90363733  0.70607964  1
  Ta  Ta144  1  0.20382657  0.39212849  0.80041514  1
  Ta  Ta145  1  0.90015185  0.30113621  0.90443758  1
  Ta  Ta146  1  -0.00178913  0.00008362  0.80068383  1
  Ta  Ta147  1  0.80688038  0.39753531  0.80843896  1
  Ta  Ta148  1  0.09504735  0.70668735  0.90752061  1
  Ta  Ta149  1  0.60484662  0.59812357  0.80541000  1
  Ti  Ti150  1  0.09344522  0.69977729  0.09760492  1
  Ti  Ti151  1  -0.00308332  0.79717460  0.00616188  1
  Ti  Ti152  1  0.60116978  0.19383740  0.39522558  1
  Ti  Ti153  1  0.90151838  0.49246279  0.91227228  1
  Ti  Ti154  1  0.30031382  0.29531599  0.90949010  1
  Ti  Ti155  1  0.69290861  0.31191542  0.90321167  1
  Ti  Ti156  1  0.49475916  0.89455044  0.29240281  1
  Ti  Ti157  1  0.90015950  0.70310729  0.90262587  1
  Ti  Ti158  1  0.60018487  0.79779781  0.00350879  1
  Ti  Ti159  1  0.80160781  0.39992162  0.39693998  1
  Ti  Ti160  1  -0.01001517  0.60376933  0.00538603  1
  Ti  Ti161  1  0.89542265  0.90731866  0.11359005  1
  Ti  Ti162  1  0.90199873  0.09381373  0.29649620  1
  Ti  Ti163  1  0.60585617  0.40033801  0.39262664  1
  Ti  Ti164  1  0.70936994  0.89998219  0.28889674  1
  Ti  Ti165  1  0.70892004  0.10070428  0.11381037  1
  Ti  Ti166  1  0.39600807  0.20291276  0.80853884  1
  Ti  Ti167  1  0.50085539  0.49706143  0.71094314  1
  Ti  Ti168  1  0.89180591  0.49218164  0.29389912  1
  Ti  Ti169  1  0.49370998  0.89459918  0.10254333  1
  Ti  Ti170  1  0.49795097  0.70656306  0.10366444  1
  Ti  Ti171  1  0.90492542  0.10939899  0.89707910  1
  Ti  Ti172  1  0.80536065  0.20420791  0.19934262  1
  Ti  Ti173  1  -0.01273455  0.39170875  0.00696091  1
  Ti  Ti174  1  0.70319918  0.70250700  0.10249775  1
  Ti  Ti175  1  0.38721042  0.00388478  0.60696369  1
  Ti  Ti176  1  0.19448309  0.59695155  0.39248064  1
  Ti  Ti177  1  0.40706337  0.39669589  0.60343232  1
  Ti  Ti178  1  0.20590411  0.19888841  0.00397327  1
  Ti  Ti179  1  0.89419615  0.69501279  0.10803590  1
  Ti  Ti180  1  0.29905072  0.70282300  0.50105849  1
  Ti  Ti181  1  0.29834927  0.10518412  0.50403189  1
  Ti  Ti182  1  0.59488597  0.20981305  0.81016193  1
  Ti  Ti183  1  0.09837836  0.70158584  0.29712808  1
  Ti  Ti184  1  0.19481918  0.00678547  0.19303011  1
  Ti  Ti185  1  0.19407896  0.20300302  0.20283934  1
  Ti  Ti186  1  -0.00462469  0.19732053  0.00906443  1
  Ti  Ti187  1  0.78085459  0.80659815  0.40850139  1
  Ti  Ti188  1  0.80092936  0.39707506  0.00289283  1
  Ti  Ti189  1  0.89610877  0.30159651  0.29777275  1
  Ti  Ti190  1  0.69476748  0.49061066  0.90898272  1
  Ti  Ti191  1  0.70576067  0.30572672  0.10263094  1
  Ti  Ti192  1  0.40724544  0.20951791  0.21228917  1
  Ti  Ti193  1  0.90410508  0.29715394  0.49273770  1
  Ti  Ti194  1  0.89718913  0.09278678  0.11524451  1
  Ti  Ti195  1  0.90128741  0.90630462  0.29126079  1
  Ti  Ti196  1  0.70230214  0.11507788  0.90206236  1
  Ti  Ti197  1  0.39001941  0.60205318  0.18444621  1
  Ti  Ti198  1  0.69954141  0.29876907  0.48708046  1
  Ti  Ti199  1  0.20364388  0.00647382  0.79631189  1
  Mo  Mo200  1  0.80037227  0.00408321  0.20212158  1
  Mo  Mo201  1  0.21125469  0.39696079  -0.00146390  1
  Mo  Mo202  1  0.49423107  0.10780943  0.10685859  1
  Mo  Mo203  1  0.00120539  0.58428170  0.59823628  1
  Mo  Mo204  1  0.70380311  0.48012165  0.48856370  1
  Mo  Mo205  1  0.80331306  0.79448650  0.80382525  1
  Mo  Mo206  1  0.69757940  0.88357561  0.90901446  1
  Mo  Mo207  1  0.69621980  0.90540539  0.49540928  1
  Mo  Mo208  1  0.70679554  0.49147186  0.29154461  1
  Mo  Mo209  1  0.39757050  0.38435435  0.19462808  1
  Mo  Mo210  1  0.09406019  0.49642405  0.29574550  1
  Mo  Mo211  1  0.30062803  0.49687880  0.09913525  1
  Mo  Mo212  1  0.10965750  0.30014234  0.71481877  1
  Mo  Mo213  1  0.80065354  0.59867035  0.58912080  1
  Mo  Mo214  1  0.09711445  0.29758702  0.29665680  1
  Mo  Mo215  1  0.10126151  0.10431585  0.10199221  1
  Mo  Mo216  1  0.40312438  0.80980183  0.19737075  1
  Mo  Mo217  1  0.28828644  0.28506919  0.29436090  1
  Mo  Mo218  1  0.00381655  0.00811341  0.39150457  1
  Mo  Mo219  1  0.40753524  0.58827541  0.79750520  1
  Mo  Mo220  1  0.40746155  0.20236143  0.59424949  1
  Mo  Mo221  1  0.80259892  0.40030092  0.19910948  1
  Mo  Mo222  1  0.59859873  0.39962228  0.80413774  1
  Mo  Mo223  1  0.29787649  0.10543276  0.90908224  1
  Mo  Mo224  1  -0.00480256  0.20264572  0.59214759  1
  Mo  Mo225  1  0.30106485  0.70590989  0.10241923  1
  Mo  Mo226  1  0.80158272  0.80208723  0.20016038  1
  Mo  Mo227  1  0.50131674  0.29916373  0.89834225  1
  Mo  Mo228  1  0.60410465  0.00267144  0.59631430  1
  Mo  Mo229  1  0.50693203  0.10211965  0.29771661  1
  Mo  Mo230  1  0.28604933  0.90628913  0.70013913  1
  Mo  Mo231  1  0.60778886  0.39613846  0.00408844  1
  Mo  Mo232  1  0.60384864  0.79568490  0.80441476  1
  Mo  Mo233  1  0.89692728  0.30686034  0.10000783  1
  Mo  Mo234  1  0.88640951  0.30063954  0.70479395  1
  Mo  Mo235  1  0.49842695  0.90448775  0.49889667  1
  Mo  Mo236  1  0.29693257  0.70396340  0.89960218  1
  Mo  Mo237  1  0.29861807  0.10228450  0.68710479  1
  Mo  Mo238  1  0.70256780  0.10785411  0.49437884  1
  Mo  Mo239  1  0.30388116  0.29518673  0.10533643  1
  Mo  Mo240  1  -0.00497828  0.00378891  0.19930345  1
  Mo  Mo241  1  0.39711955  0.20293017  0.00073774  1
  Mo  Mo242  1  0.10088485  0.09858392  0.49157937  1
  Mo  Mo243  1  0.19824961  0.01088428  0.40473702  1
  Mo  Mo244  1  0.51471570  0.29390546  0.29943146  1
  Mo  Mo245  1  0.18751191  0.38695353  0.38989943  1
  Mo  Mo246  1  0.01456744  0.79684866  0.39300981  1
  Mo  Mo247  1  0.09371188  0.29746936  0.48289650  1
  Mo  Mo248  1  0.70063701  0.71108235  0.49465572  1
  Mo  Mo249  1  0.90414488  0.89950313  0.71334118  1
