# generated using pymatgen
data_HfZrTaTiMo
_symmetry_space_group_name_H-M   'P 1'
_cell_length_a   16.89283801
_cell_length_b   16.88002719
_cell_length_c   16.88475208
_cell_angle_alpha   89.99313900
_cell_angle_beta   89.98306256
_cell_angle_gamma   90.04389040
_symmetry_Int_Tables_number   1
_chemical_formula_structural   HfZrTaTiMo
_chemical_formula_sum   'Hf50 Zr50 Ta50 Ti50 Mo50'
_cell_volume   4814.71181966
_cell_formula_units_Z   50
loop_
 _symmetry_equiv_pos_site_id
 _symmetry_equiv_pos_as_xyz
  1  'x, y, z'
loop_
 _atom_site_type_symbol
 _atom_site_label
 _atom_site_symmetry_multiplicity
 _atom_site_fract_x
 _atom_site_fract_y
 _atom_site_fract_z
 _atom_site_occupancy
  Hf  Hf0  1  0.90462953  0.90296019  0.49174233  1
  Hf  Hf1  1  0.79164499  0.39938587  0.59185742  1
  Hf  Hf2  1  0.79271338  0.60584408  0.39827367  1
  Hf  Hf3  1  0.59890830  0.20495191  0.38811485  1
  Hf  Hf4  1  0.90832014  0.30083815  0.49135864  1
  Hf  Hf5  1  0.80770050  0.00679293  0.60338851  1
  Hf  Hf6  1  0.49842266  0.50677098  0.49503776  1
  Hf  Hf7  1  0.90281257  0.69176796  0.49698407  1
  Hf  Hf8  1  0.10159647  0.50194485  0.69945991  1
  Hf  Hf9  1  0.50193759  0.89540001  0.49623733  1
  Hf  Hf10  1  0.48874615  0.29981873  0.09338402  1
  Hf  Hf11  1  0.31032514  0.30794294  0.90802220  1
  Hf  Hf12  1  0.80130382  0.40072671  0.81168025  1
  Hf  Hf13  1  0.79834382  0.40818991  0.39692713  1
  Hf  Hf14  1  0.50215359  0.90154222  0.29442088  1
  Hf  Hf15  1  0.67647227  0.49090509  0.70603257  1
  Hf  Hf16  1  0.30940690  0.69664676  0.50818627  1
  Hf  Hf17  1  0.29806668  0.69910471  0.10011594  1
  Hf  Hf18  1  0.88749539  0.30767988  0.10303860  1
  Hf  Hf19  1  0.39964222  0.81279806  0.62389187  1
  Hf  Hf20  1  0.80334658  0.00297509  0.38763317  1
  Hf  Hf21  1  0.20753359  0.00159984  0.19902941  1
  Hf  Hf22  1  0.09782301  0.89781282  0.29795271  1
  Hf  Hf23  1  0.39568127  0.40685784  0.20084002  1
  Hf  Hf24  1  0.59404133  0.60453065  0.60325176  1
  Hf  Hf25  1  0.51050468  0.10804243  0.69595592  1
  Hf  Hf26  1  0.60408102  -0.01440613  0.60958887  1
  Hf  Hf27  1  -0.00080673  -0.00357822  -0.00880523  1
  Hf  Hf28  1  0.90437706  0.89798175  0.70385122  1
  Hf  Hf29  1  0.40202349  0.40605824  0.59653273  1
  Hf  Hf30  1  0.49746449  0.30359567  0.29256188  1
  Hf  Hf31  1  0.69804908  0.09685865  0.49663576  1
  Hf  Hf32  1  0.70649421  0.89301074  0.48697475  1
  Hf  Hf33  1  0.30538659  0.70203738  0.90301114  1
  Hf  Hf34  1  0.09803938  0.10270427  0.30615318  1
  Hf  Hf35  1  0.10495064  0.50053375  0.90841963  1
  Hf  Hf36  1  0.69961139  0.69625804  0.70971842  1
  Hf  Hf37  1  0.29903556  0.89362884  0.89665261  1
  Hf  Hf38  1  0.10659902  0.09660955  0.89376253  1
  Hf  Hf39  1  0.50026956  0.50812467  0.10037034  1
  Hf  Hf40  1  0.49258933  0.89409919  0.89880698  1
  Hf  Hf41  1  0.38941597  0.00505617  0.39805124  1
  Hf  Hf42  1  0.60296682  0.39691331  0.00206113  1
  Hf  Hf43  1  0.70318294  0.89651544  0.09782106  1
  Hf  Hf44  1  -0.00349347  -0.00410873  0.19993627  1
  Hf  Hf45  1  0.39146044  0.39872919  0.40141552  1
  Hf  Hf46  1  -0.00148378  0.20985812  -0.00877899  1
  Hf  Hf47  1  0.50344785  0.09898880  0.49425207  1
  Hf  Hf48  1  0.51204789  0.32102547  0.70623857  1
  Hf  Hf49  1  0.60911034  0.78364499  0.39508593  1
  Zr  Zr50  1  0.01007780  0.80079658  0.59792935  1
  Zr  Zr51  1  0.80453267  0.20001761  0.59780402  1
  Zr  Zr52  1  0.10701273  0.30104797  0.70020940  1
  Zr  Zr53  1  0.90533060  0.30449916  0.30151924  1
  Zr  Zr54  1  0.19966010  0.79891667  0.40838415  1
  Zr  Zr55  1  0.30525403  0.08806946  0.89667521  1
  Zr  Zr56  1  0.58874115  0.19612195  -0.00165648  1
  Zr  Zr57  1  0.87998716  0.90081914  0.89930783  1
  Zr  Zr58  1  0.79132345  0.19929954  0.39026247  1
  Zr  Zr59  1  0.89371704  0.09725572  0.09327535  1
  Zr  Zr60  1  0.09866949  0.70194390  0.10448563  1
  Zr  Zr61  1  0.30548967  0.50219458  0.90990099  1
  Zr  Zr62  1  0.09542193  0.49766878  0.49637496  1
  Zr  Zr63  1  0.69270702  0.09027777  0.09666871  1
  Zr  Zr64  1  0.30855044  0.90313506  0.09747803  1
  Zr  Zr65  1  0.79065517  0.40532381  0.00400281  1
  Zr  Zr66  1  0.89369581  0.87952111  0.29439349  1
  Zr  Zr67  1  0.10853100  0.09637126  0.69986802  1
  Zr  Zr68  1  0.39371601  0.00150450  0.59683004  1
  Zr  Zr69  1  0.10675233  0.10234892  0.09987680  1
  Zr  Zr70  1  0.00425550  0.40041371  0.19916622  1
  Zr  Zr71  1  0.71441688  0.89390155  0.72528728  1
  Zr  Zr72  1  0.29928846  0.29462505  0.10106487  1
  Zr  Zr73  1  0.49908156  0.50532224  0.90159921  1
  Zr  Zr74  1  0.20657854  0.19662063  0.39997532  1
  Zr  Zr75  1  0.79782300  0.60747461  0.01014571  1
  Zr  Zr76  1  0.10440305  0.51086532  0.10758384  1
  Zr  Zr77  1  0.00478460  0.80030462  0.80537668  1
  Zr  Zr78  1  0.00054299  0.60244414  0.81172592  1
  Zr  Zr79  1  0.49429085  0.70057993  0.50145290  1
  Zr  Zr80  1  0.89302880  0.88898336  0.09730881  1
  Zr  Zr81  1  -0.00130165  0.39196841  0.81399937  1
  Zr  Zr82  1  0.70428462  0.09262105  0.89998128  1
  Zr  Zr83  1  0.69714763  0.71090743  0.89993258  1
  Zr  Zr84  1  0.29050815  0.50472796  0.29983056  1
  Zr  Zr85  1  0.09445794  0.50087712  0.30672758  1
  Zr  Zr86  1  0.00207310  0.19830730  0.60365093  1
  Zr  Zr87  1  0.79467896  0.79164289  0.59475831  1
  Zr  Zr88  1  0.40312845  0.20308755  0.80084332  1
  Zr  Zr89  1  0.09685991  0.68806532  0.29342353  1
  Zr  Zr90  1  0.90509654  0.50037896  0.69280217  1
  Zr  Zr91  1  0.00410497  0.79141038  0.39873422  1
  Zr  Zr92  1  0.69734476  0.30127110  0.71145476  1
  Zr  Zr93  1  0.68520910  0.50196095  0.29698279  1
  Zr  Zr94  1  0.69934827  0.11270230  0.70833394  1
  Zr  Zr95  1  0.80335965  0.59372268  0.80600578  1
  Zr  Zr96  1  0.00504467  0.20556391  0.19967987  1
  Zr  Zr97  1  0.40125699  -0.01641809  0.77463139  1
  Zr  Zr98  1  0.39707615  0.20525419  0.59436830  1
  Zr  Zr99  1  0.60250845  0.23041623  0.57677228  1
  Ta  Ta100  1  0.20602747  0.19515869  -0.00176079  1
  Ta  Ta101  1  0.20421378  0.60334681  0.79824841  1
  Ta  Ta102  1  0.10277873  0.09922367  0.49952583  1
  Ta  Ta103  1  -0.00082988  0.79587360  -0.00091926  1
  Ta  Ta104  1  0.20523481  0.59928808  0.60090757  1
  Ta  Ta105  1  0.20469179  0.40453933  0.59345203  1
  Ta  Ta106  1  0.59900507  0.79317137  0.19570872  1
  Ta  Ta107  1  0.59699042  0.19893174  0.19459756  1
  Ta  Ta108  1  0.29658856  0.30620698  0.69864259  1
  Ta  Ta109  1  0.40074076  0.60051341  0.79185506  1
  Ta  Ta110  1  0.00058294  0.39682091  0.59736494  1
  Ta  Ta111  1  0.78846099  0.20026091  0.19835041  1
  Ta  Ta112  1  0.49197897  0.08327436  0.10514755  1
  Ta  Ta113  1  0.68625907  0.50425178  0.49592057  1
  Ta  Ta114  1  0.20494075  -0.00030406  0.40476758  1
  Ta  Ta115  1  0.79300157  0.59429048  0.59584098  1
  Ta  Ta116  1  0.50140394  0.90182274  0.10414099  1
  Ta  Ta117  1  0.69782254  0.29387409  0.89935961  1
  Ta  Ta118  1  0.20425096  0.80094286  0.20194586  1
  Ta  Ta119  1  0.10176460  0.69449840  0.69848264  1
  Ta  Ta120  1  0.79860872  0.00360771  0.20283815  1
  Ta  Ta121  1  0.20545000  0.60016037  0.40934369  1
  Ta  Ta122  1  0.79962951  0.20261497  -0.00432114  1
  Ta  Ta123  1  0.10913448  0.70403822  0.90577634  1
  Ta  Ta124  1  -0.00723045  0.60762229  0.00555553  1
  Ta  Ta125  1  0.89717064  0.50633321  0.11140410  1
  Ta  Ta126  1  0.49762204  0.69661267  0.90080544  1
  Ta  Ta127  1  0.39779078  0.19891149  0.39643027  1
  Ta  Ta128  1  0.29245923  0.30047608  0.50081213  1
  Ta  Ta129  1  0.89781985  0.29859506  0.70576909  1
  Ta  Ta130  1  0.91547037  0.09937046  0.48648716  1
  Ta  Ta131  1  0.19774344  0.39360676  0.20438085  1
  Ta  Ta132  1  0.40238126  0.60491905  0.20316493  1
  Ta  Ta133  1  0.10232615  0.89195815  0.09694812  1
  Ta  Ta134  1  0.20279157  -0.00169723  0.00073223  1
  Ta  Ta135  1  0.10140692  0.30228367  0.49077332  1
  Ta  Ta136  1  0.59620458  -0.00414253  0.80288061  1
  Ta  Ta137  1  0.20071077  0.79714428  0.79332483  1
  Ta  Ta138  1  -0.00741662  0.19812470  0.80569998  1
  Ta  Ta139  1  0.30004515  0.69960610  0.29961603  1
  Ta  Ta140  1  0.40429180  0.79554478  0.20217494  1
  Ta  Ta141  1  0.19728851  0.79899531  0.60222994  1
  Ta  Ta142  1  0.39822918  0.18923577  0.20133592  1
  Ta  Ta143  1  0.70182257  0.89264093  0.28909610  1
  Ta  Ta144  1  0.20586694  0.20552436  0.80322425  1
  Ta  Ta145  1  0.40738740  0.79682769  0.00566072  1
  Ta  Ta146  1  0.90316050  0.69497100  0.69610295  1
  Ta  Ta147  1  0.10670692  0.90714365  0.70287308  1
  Ta  Ta148  1  0.59694580  0.79766444  0.00560460  1
  Ta  Ta149  1  0.30109567  0.50125035  0.69885562  1
  Ti  Ti150  1  0.60380778  0.79693859  0.60296235  1
  Ti  Ti151  1  0.00137343  0.39837707  0.00519016  1
  Ti  Ti152  1  0.70370569  0.50733410  0.11525009  1
  Ti  Ti153  1  0.50663298  0.50552534  0.30117322  1
  Ti  Ti154  1  0.29979420  0.10116788  0.29169735  1
  Ti  Ti155  1  0.40400389  0.40591093  0.79987127  1
  Ti  Ti156  1  0.89466528  0.70870235  0.90552127  1
  Ti  Ti157  1  0.39836648  0.18465512  0.00156973  1
  Ti  Ti158  1  0.19976642  0.60444595  0.00103482  1
  Ti  Ti159  1  0.60067348  0.61301984  0.19960281  1
  Ti  Ti160  1  0.29951680  0.69852993  0.70162420  1
  Ti  Ti161  1  0.09459123  0.68290478  0.50553748  1
  Ti  Ti162  1  0.20712629  -0.00041075  0.59449724  1
  Ti  Ti163  1  0.59685063  0.38850091  0.40981770  1
  Ti  Ti164  1  0.49762922  0.70014689  0.70876757  1
  Ti  Ti165  1  0.90493377  0.49853903  0.91653353  1
  Ti  Ti166  1  0.11275263  0.30223271  0.90418348  1
  Ti  Ti167  1  0.11015670  0.89791714  0.90000239  1
  Ti  Ti168  1  0.71093957  0.70229361  0.28819010  1
  Ti  Ti169  1  0.50016662  0.09207131  0.29023895  1
  Ti  Ti170  1  0.60439503  0.39222132  0.18831236  1
  Ti  Ti171  1  0.68794191  0.09105508  0.28782839  1
  Ti  Ti172  1  0.30136053  0.50768301  0.09921336  1
  Ti  Ti173  1  0.81723240  0.02477068  0.79765586  1
  Ti  Ti174  1  0.20677108  0.40266128  0.80052118  1
  Ti  Ti175  1  0.60292357  -0.00344015  0.39249539  1
  Ti  Ti176  1  0.20234383  0.40025575  0.01005451  1
  Ti  Ti177  1  0.70045043  0.30933284  0.28729791  1
  Ti  Ti178  1  0.09909639  0.91348671  0.49990405  1
  Ti  Ti179  1  0.49808015  0.69801190  0.09793872  1
  Ti  Ti180  1  0.89998976  0.50851744  0.29632868  1
  Ti  Ti181  1  -0.00039851  0.00422624  0.60167339  1
  Ti  Ti182  1  0.68671642  0.50721166  0.89616817  1
  Ti  Ti183  1  0.39649225  0.59788488  0.39643070  1
  Ti  Ti184  1  0.29970012  0.89541061  0.50245302  1
  Ti  Ti185  1  0.10987769  0.29664631  0.10126424  1
  Ti  Ti186  1  0.59419343  -0.00915844  -0.00392059  1
  Ti  Ti187  1  0.90918018  0.50415483  0.49547967  1
  Ti  Ti188  1  -0.00197282  0.00546738  0.80039704  1
  Ti  Ti189  1  0.60508663  0.60834226  0.00666369  1
  Ti  Ti190  1  0.59036812  0.80194336  0.80064030  1
  Ti  Ti191  1  0.70384253  0.89802219  0.90474053  1
  Ti  Ti192  1  0.28911891  0.10617897  0.69580418  1
  Ti  Ti193  1  0.39793910  0.79837202  0.39397051  1
  Ti  Ti194  1  0.90784285  0.10525151  0.30175869  1
  Ti  Ti195  1  0.29334936  0.29625069  0.29692210  1
  Ti  Ti196  1  0.58628362  0.20430885  0.81701917  1
  Ti  Ti197  1  0.49793885  0.69408186  0.30189524  1
  Ti  Ti198  1  0.49252674  0.08431504  0.90199102  1
  Ti  Ti199  1  0.30258414  0.89626142  0.29783348  1
  Mo  Mo200  1  -0.00213126  0.40159424  0.40128596  1
  Mo  Mo201  1  0.79843931  0.60051626  0.20295783  1
  Mo  Mo202  1  0.20091147  -0.00387508  0.79822543  1
  Mo  Mo203  1  0.79272803  0.40421273  0.20191070  1
  Mo  Mo204  1  0.59988828  -0.00479598  0.20206103  1
  Mo  Mo205  1  0.30489664  0.09966842  0.09759922  1
  Mo  Mo206  1  0.39786507  0.78940325  0.79927877  1
  Mo  Mo207  1  0.79715565  0.79244748  0.39047872  1
  Mo  Mo208  1  0.51668607  0.89092525  0.70154494  1
  Mo  Mo209  1  0.39736817  0.41097442  0.00627551  1
  Mo  Mo210  1  0.79553798  0.79620500  0.00059959  1
  Mo  Mo211  1  0.29754858  0.50351834  0.50187911  1
  Mo  Mo212  1  0.79491789  0.78848097  0.19344376  1
  Mo  Mo213  1  0.00934513  0.19982118  0.40080955  1
  Mo  Mo214  1  0.49582583  0.30767762  0.90271459  1
  Mo  Mo215  1  0.40375559  0.60734893  0.00824903  1
  Mo  Mo216  1  0.69438977  0.70117907  0.10425897  1
  Mo  Mo217  1  0.10970024  0.30412555  0.30588271  1
  Mo  Mo218  1  0.80949936  0.78700847  0.79967843  1
  Mo  Mo219  1  0.49398351  0.50431170  0.70272326  1
  Mo  Mo220  1  0.89645061  0.69176278  0.29088042  1
  Mo  Mo221  1  0.00068661  0.79505615  0.19238539  1
  Mo  Mo222  1  0.81370285  0.20469500  0.80950057  1
  Mo  Mo223  1  0.89432608  0.30036324  0.90461033  1
  Mo  Mo224  1  0.70047753  0.69468567  0.50399742  1
  Mo  Mo225  1  0.48822701  0.30302290  0.48523797  1
  Mo  Mo226  1  0.90981903  0.10320189  0.70116016  1
  Mo  Mo227  1  0.21190827  0.60244708  0.20245855  1
  Mo  Mo228  1  0.39810693  0.60042865  0.61307016  1
  Mo  Mo229  1  0.58943306  0.60351906  0.80091192  1
  Mo  Mo230  1  -0.00860102  0.59635594  0.39860708  1
  Mo  Mo231  1  0.59614195  0.40804932  0.58188290  1
  Mo  Mo232  1  0.70606347  0.30994194  0.48300130  1
  Mo  Mo233  1  0.00475574  0.00194265  0.39974536  1
  Mo  Mo234  1  0.69681058  0.29308649  0.10256803  1
  Mo  Mo235  1  -0.01585544  0.60279069  0.19986417  1
  Mo  Mo236  1  0.40056234  0.00020412  0.20571343  1
  Mo  Mo237  1  0.40384985  -0.00563884  0.00413947  1
  Mo  Mo238  1  0.79640480  0.00228193  -0.00255574  1
  Mo  Mo239  1  0.89879902  0.70215724  0.10504089  1
  Mo  Mo240  1  0.90247303  0.10321042  0.89878337  1
  Mo  Mo241  1  0.20278291  0.20590111  0.59953489  1
  Mo  Mo242  1  0.59775735  0.39915700  0.82107234  1
  Mo  Mo243  1  0.19965108  0.39444212  0.39976601  1
  Mo  Mo244  1  0.20703411  0.20229042  0.20081240  1
  Mo  Mo245  1  0.19609594  0.80475269  -0.00276123  1
  Mo  Mo246  1  0.00057149  0.59751659  0.60053594  1
  Mo  Mo247  1  0.29510571  0.10188050  0.49958473  1
  Mo  Mo248  1  0.27859196  0.89744309  0.69818596  1
  Mo  Mo249  1  0.59712838  0.60673820  0.39292478  1
