# generated using pymatgen
data_HfZrTaTiMo
_symmetry_space_group_name_H-M   'P 1'
_cell_length_a   16.89108966
_cell_length_b   16.89538066
_cell_length_c   16.88433722
_cell_angle_alpha   90.01089438
_cell_angle_beta   89.95369347
_cell_angle_gamma   89.99261070
_symmetry_Int_Tables_number   1
_chemical_formula_structural   HfZrTaTiMo
_chemical_formula_sum   'Hf50 Zr50 Ta50 Ti50 Mo50'
_cell_volume   4818.47391785
_cell_formula_units_Z   50
loop_
 _symmetry_equiv_pos_site_id
 _symmetry_equiv_pos_as_xyz
  1  'x, y, z'
loop_
 _atom_site_type_symbol
 _atom_site_label
 _atom_site_symmetry_multiplicity
 _atom_site_fract_x
 _atom_site_fract_y
 _atom_site_fract_z
 _atom_site_occupancy
  Hf  Hf0  1  0.59912672  0.20692110  0.19821104  1
  Hf  Hf1  1  0.89042794  0.49984941  0.50419484  1
  Hf  Hf2  1  0.39643078  0.19989902  0.00439864  1
  Hf  Hf3  1  0.31852418  0.49172828  0.09128168  1
  Hf  Hf4  1  0.60546347  0.59380370  0.40139407  1
  Hf  Hf5  1  0.78937133  0.41255315  0.39694781  1
  Hf  Hf6  1  0.60538975  0.60304962  0.19717996  1
  Hf  Hf7  1  0.60237905  0.79951094  0.80725712  1
  Hf  Hf8  1  0.08894481  0.69787252  0.89514167  1
  Hf  Hf9  1  0.19311082  0.59643028  -0.00147798  1
  Hf  Hf10  1  0.59551457  0.59701687  0.79541068  1
  Hf  Hf11  1  0.90000561  0.30040681  0.29509684  1
  Hf  Hf12  1  0.39855730  0.60500143  0.20211101  1
  Hf  Hf13  1  -0.00716854  0.19252827  -0.00045038  1
  Hf  Hf14  1  0.40042240  0.00858449  0.19742527  1
  Hf  Hf15  1  0.40765546  0.79251265  0.81063671  1
  Hf  Hf16  1  0.69476124  0.29317105  0.30777764  1
  Hf  Hf17  1  0.79937916  0.81867495  0.79137806  1
  Hf  Hf18  1  0.10620952  0.30185163  0.50243363  1
  Hf  Hf19  1  -0.01697506  0.19294186  0.79835718  1
  Hf  Hf20  1  0.90435078  0.30412004  0.09429295  1
  Hf  Hf21  1  0.10349361  0.70255237  0.50021993  1
  Hf  Hf22  1  0.29297910  0.09403778  0.90592156  1
  Hf  Hf23  1  0.40246311  0.79977305  0.19510954  1
  Hf  Hf24  1  0.20377532  0.39405764  0.80018228  1
  Hf  Hf25  1  0.60118761  0.40658544  0.40312491  1
  Hf  Hf26  1  0.09260598  0.70171623  0.70271459  1
  Hf  Hf27  1  0.51229188  0.10319751  0.31092049  1
  Hf  Hf28  1  0.69615364  0.49639286  0.08762095  1
  Hf  Hf29  1  0.50357040  0.89569437  0.69612371  1
  Hf  Hf30  1  0.58546203  0.20531980  0.59639913  1
  Hf  Hf31  1  0.20222845  0.00795625  0.19985376  1
  Hf  Hf32  1  0.89848236  0.09191015  0.50234438  1
  Hf  Hf33  1  0.09898167  0.09347937  0.50123855  1
  Hf  Hf34  1  0.11250326  0.49375104  0.50395215  1
  Hf  Hf35  1  0.00245774  0.00233583  0.19721247  1
  Hf  Hf36  1  0.59270481  0.39889355  0.79732832  1
  Hf  Hf37  1  -0.00660562  0.59473057  -0.00111716  1
  Hf  Hf38  1  0.59880593  0.61110085  -0.00437367  1
  Hf  Hf39  1  0.19796251  0.80254890  0.19816321  1
  Hf  Hf40  1  0.08858805  0.30043665  0.90246569  1
  Hf  Hf41  1  -0.00760763  0.40065983  0.60647878  1
  Hf  Hf42  1  0.79290275  0.40588315  0.19818861  1
  Hf  Hf43  1  -0.00036158  0.59921145  0.39656622  1
  Hf  Hf44  1  0.61091649  -0.00667030  0.79657134  1
  Hf  Hf45  1  0.19539226  0.80367817  0.80361780  1
  Hf  Hf46  1  -0.00135914  0.19141083  0.39155414  1
  Hf  Hf47  1  0.69832760  0.10831500  0.90201392  1
  Hf  Hf48  1  0.88656393  0.90602895  0.29368928  1
  Hf  Hf49  1  0.10741452  0.29695745  0.29471625  1
  Zr  Zr50  1  0.40598446  -0.00071186  0.00518484  1
  Zr  Zr51  1  0.31044555  0.09757742  0.71566188  1
  Zr  Zr52  1  0.20812661  0.59886082  0.60220702  1
  Zr  Zr53  1  0.89657597  0.69917037  0.70722866  1
  Zr  Zr54  1  0.00013172  0.80249074  0.39263241  1
  Zr  Zr55  1  0.89029043  0.29948744  0.49997507  1
  Zr  Zr56  1  0.89646314  0.70687521  0.50767139  1
  Zr  Zr57  1  0.78749055  -0.00593551  0.60875717  1
  Zr  Zr58  1  0.09371387  0.09124329  0.70246235  1
  Zr  Zr59  1  0.40058459  0.19846750  0.59893842  1
  Zr  Zr60  1  0.49131099  0.48786833  0.90773749  1
  Zr  Zr61  1  0.39362359  0.20161085  0.19963959  1
  Zr  Zr62  1  0.52203830  0.90009010  0.11226572  1
  Zr  Zr63  1  0.09596466  0.90466383  0.50310191  1
  Zr  Zr64  1  0.59724329  -0.00478363  -0.01235916  1
  Zr  Zr65  1  0.50467380  0.70740307  0.30624229  1
  Zr  Zr66  1  0.09574875  0.08899746  0.90032353  1
  Zr  Zr67  1  0.90370961  0.90262412  0.50377320  1
  Zr  Zr68  1  0.20700162  0.39771682  0.19372498  1
  Zr  Zr69  1  0.69985675  0.09358711  0.09932469  1
  Zr  Zr70  1  0.80312080  0.19587541  0.19614406  1
  Zr  Zr71  1  0.89501600  0.70256872  0.29495254  1
  Zr  Zr72  1  0.49791811  0.49466086  0.09428085  1
  Zr  Zr73  1  0.00150413  0.40345078  0.39465015  1
  Zr  Zr74  1  0.30236179  0.70319904  0.08812813  1
  Zr  Zr75  1  0.79774034  0.20650727  0.80467831  1
  Zr  Zr76  1  0.20115594  0.59484490  0.19635342  1
  Zr  Zr77  1  0.19179393  0.39110041  0.00753807  1
  Zr  Zr78  1  0.00350611  0.80625804  0.19228708  1
  Zr  Zr79  1  0.20597059  0.19668031  0.39547296  1
  Zr  Zr80  1  0.30279413  0.90242584  0.31004795  1
  Zr  Zr81  1  -0.00435001  0.59417591  0.60599043  1
  Zr  Zr82  1  0.21334450  -0.00410439  0.60439264  1
  Zr  Zr83  1  0.69376726  0.11036976  0.69925207  1
  Zr  Zr84  1  0.29396270  0.89752359  0.90702740  1
  Zr  Zr85  1  0.40329080  0.60022359  0.60462361  1
  Zr  Zr86  1  0.71587967  0.69719894  0.89381735  1
  Zr  Zr87  1  0.09810812  0.30203706  0.70093033  1
  Zr  Zr88  1  0.68994166  0.10800239  0.49135403  1
  Zr  Zr89  1  0.41971536  -0.00557411  0.81500997  1
  Zr  Zr90  1  0.01355880  0.40600961  0.18381186  1
  Zr  Zr91  1  0.30760404  0.49838109  0.90267115  1
  Zr  Zr92  1  0.20653155  0.80391790  0.60512033  1
  Zr  Zr93  1  0.20964378  0.20341079  0.60715236  1
  Zr  Zr94  1  0.30696814  0.49122366  0.70407256  1
  Zr  Zr95  1  0.39818085  0.80329632  0.59588932  1
  Zr  Zr96  1  0.50776923  0.90109555  0.30253720  1
  Zr  Zr97  1  0.69149151  0.90183314  0.28680472  1
  Zr  Zr98  1  0.59885236  0.58972292  0.60165613  1
  Zr  Zr99  1  0.48391420  0.49412649  0.30213127  1
  Ta  Ta100  1  0.78988619  0.59929534  0.39722804  1
  Ta  Ta101  1  0.70083219  0.70453566  0.29874867  1
  Ta  Ta102  1  0.20336670  0.20146050  0.00708849  1
  Ta  Ta103  1  0.31141179  0.31005857  0.30354974  1
  Ta  Ta104  1  0.69637898  0.30503301  0.50697273  1
  Ta  Ta105  1  0.20727160  0.20499911  0.80662731  1
  Ta  Ta106  1  0.79678782  0.19541060  0.39951191  1
  Ta  Ta107  1  0.89781366  0.69959025  0.09573170  1
  Ta  Ta108  1  0.80540860  0.59660266  -0.00273184  1
  Ta  Ta109  1  0.79856179  0.59946157  0.19449287  1
  Ta  Ta110  1  -0.00430775  0.81182612  0.80448351  1
  Ta  Ta111  1  0.78873855  0.80199140  0.40418153  1
  Ta  Ta112  1  0.49254672  0.49389582  0.50251348  1
  Ta  Ta113  1  0.80191511  0.40120584  -0.00844937  1
  Ta  Ta114  1  0.08862106  0.49583991  0.89590969  1
  Ta  Ta115  1  -0.01213130  0.19776809  0.60549032  1
  Ta  Ta116  1  0.60072170  0.39941395  0.20099824  1
  Ta  Ta117  1  -0.00509654  0.80390466  0.00021737  1
  Ta  Ta118  1  0.70300579  0.69912731  0.69609768  1
  Ta  Ta119  1  0.19833076  0.59860940  0.80304513  1
  Ta  Ta120  1  0.41870932  0.79911180  -0.00146664  1
  Ta  Ta121  1  0.18317531  0.80361762  0.00290534  1
  Ta  Ta122  1  0.90214143  0.90878290  0.90341526  1
  Ta  Ta123  1  0.30212517  0.31326494  0.50132096  1
  Ta  Ta124  1  -0.01595085  0.40780570  0.79769916  1
  Ta  Ta125  1  0.30193707  0.69814664  0.71215533  1
  Ta  Ta126  1  0.69980722  0.69929573  0.50277371  1
  Ta  Ta127  1  0.40988022  0.00164897  0.59110666  1
  Ta  Ta128  1  0.00726596  0.18952353  0.19692750  1
  Ta  Ta129  1  0.10762845  0.69790009  0.30030976  1
  Ta  Ta130  1  0.40340871  0.20381245  0.40672595  1
  Ta  Ta131  1  0.30200630  0.69863770  0.31119336  1
  Ta  Ta132  1  0.50241198  0.30694548  0.09239340  1
  Ta  Ta133  1  0.10511258  0.50522640  0.29804318  1
  Ta  Ta134  1  0.29417267  0.90200134  0.09309408  1
  Ta  Ta135  1  0.59322976  -0.00470418  0.59329293  1
  Ta  Ta136  1  0.00048423  0.59889890  0.19552205  1
  Ta  Ta137  1  0.10839593  0.90739556  0.30473219  1
  Ta  Ta138  1  0.30521724  0.69780241  0.49002514  1
  Ta  Ta139  1  0.70515904  0.49110848  0.70094779  1
  Ta  Ta140  1  0.10306139  0.09459003  0.09245958  1
  Ta  Ta141  1  0.09925657  0.49895301  0.70841164  1
  Ta  Ta142  1  0.69660603  0.30800621  0.69286281  1
  Ta  Ta143  1  0.70541601  0.49680509  0.89367397  1
  Ta  Ta144  1  0.80249640  0.20458616  -0.00401249  1
  Ta  Ta145  1  0.70962724  0.89936800  0.09933229  1
  Ta  Ta146  1  0.79217965  0.59459225  0.60161958  1
  Ta  Ta147  1  0.88411172  0.30784469  0.69921814  1
  Ta  Ta148  1  0.50132833  0.69915820  0.49751644  1
  Ta  Ta149  1  0.51008664  0.10702475  0.09820424  1
  Ti  Ti150  1  0.08942289  0.90856192  0.90816927  1
  Ti  Ti151  1  0.59850357  -0.00960572  0.41366821  1
  Ti  Ti152  1  0.60643867  0.80377963  0.59472378  1
  Ti  Ti153  1  0.69792676  0.09447985  0.29962012  1
  Ti  Ti154  1  0.08641560  0.90366745  0.69920682  1
  Ti  Ti155  1  0.70966914  0.89983209  0.90802238  1
  Ti  Ti156  1  0.00466891  0.00553369  0.38622893  1
  Ti  Ti157  1  0.20911223  0.59383354  0.39586808  1
  Ti  Ti158  1  0.30110747  0.90449935  0.49179938  1
  Ti  Ti159  1  0.19494591  -0.00820793  0.80051183  1
  Ti  Ti160  1  0.91091537  0.91059450  0.69756507  1
  Ti  Ti161  1  0.40975707  0.00304956  0.41148870  1
  Ti  Ti162  1  0.40811447  0.60180389  0.80158184  1
  Ti  Ti163  1  0.79942922  0.20039132  0.60081216  1
  Ti  Ti164  1  0.90046131  0.69809684  0.89305639  1
  Ti  Ti165  1  0.40342164  0.39583573  0.60638758  1
  Ti  Ti166  1  0.09328834  0.69907880  0.09933854  1
  Ti  Ti167  1  0.20207076  0.80065191  0.39995859  1
  Ti  Ti168  1  0.31273725  0.29912384  0.89560913  1
  Ti  Ti169  1  0.50505239  0.11915645  0.90017479  1
  Ti  Ti170  1  0.89791946  0.31148795  0.89958924  1
  Ti  Ti171  1  0.31049651  0.90153414  0.70984255  1
  Ti  Ti172  1  0.89991805  0.49735553  0.09356014  1
  Ti  Ti173  1  0.40553430  0.80197838  0.40714427  1
  Ti  Ti174  1  0.50309473  0.70295526  0.69576048  1
  Ti  Ti175  1  0.89510355  0.90392374  0.09485522  1
  Ti  Ti176  1  0.88789333  0.09301716  0.29744530  1
  Ti  Ti177  1  0.79516098  0.79397872  0.19026627  1
  Ti  Ti178  1  0.30100315  0.69704825  0.90297704  1
  Ti  Ti179  1  0.20438054  0.19633302  0.19268802  1
  Ti  Ti180  1  0.60578357  0.80337430  0.41382920  1
  Ti  Ti181  1  0.49586652  0.30445745  0.30287928  1
  Ti  Ti182  1  0.80522689  0.00465466  -0.00430430  1
  Ti  Ti183  1  0.79230000  0.80612307  0.60150310  1
  Ti  Ti184  1  0.59326778  0.21096621  0.80090338  1
  Ti  Ti185  1  0.80684546  0.00601610  0.79812713  1
  Ti  Ti186  1  0.48658864  0.30078264  0.71021510  1
  Ti  Ti187  1  0.30950171  0.49466671  0.49369998  1
  Ti  Ti188  1  0.49721686  0.30821207  0.49438553  1
  Ti  Ti189  1  0.20969595  0.40642472  0.39273748  1
  Ti  Ti190  1  0.78793659  -0.00468980  0.40295341  1
  Ti  Ti191  1  0.69474861  0.30272514  0.08786356  1
  Ti  Ti192  1  0.49997884  0.10083126  0.70566452  1
  Ti  Ti193  1  0.69224492  0.30620745  0.90431018  1
  Ti  Ti194  1  0.60564504  0.79285617  0.00280928  1
  Ti  Ti195  1  0.30331345  0.09818130  0.31000773  1
  Ti  Ti196  1  0.89775913  0.09164600  0.09639415  1
  Ti  Ti197  1  0.80625542  0.79650391  0.00011352  1
  Ti  Ti198  1  0.89973534  0.50451894  0.29344652  1
  Ti  Ti199  1  0.30228407  0.09578619  0.49379763  1
  Mo  Mo200  1  0.20922060  0.40145976  0.60023251  1
  Mo  Mo201  1  0.29450194  0.09874351  0.09823950  1
  Mo  Mo202  1  0.69673333  0.50054820  0.50860765  1
  Mo  Mo203  1  -0.00969595  -0.00412004  0.80287696  1
  Mo  Mo204  1  0.40457513  0.39377434  0.20142464  1
  Mo  Mo205  1  -0.00572892  0.40261657  -0.00756503  1
  Mo  Mo206  1  0.50292953  0.69621638  0.90146306  1
  Mo  Mo207  1  0.59563948  0.21262022  0.40322456  1
  Mo  Mo208  1  0.51405049  0.88787400  0.90480765  1
  Mo  Mo209  1  0.71211136  0.70092122  0.09587819  1
  Mo  Mo210  1  0.89192033  0.09202906  0.90278260  1
  Mo  Mo211  1  0.61232719  0.78405793  0.18307606  1
  Mo  Mo212  1  0.39872253  0.39788733  0.40515924  1
  Mo  Mo213  1  0.60542552  0.01461039  0.20104761  1
  Mo  Mo214  1  0.60591027  0.39545313  -0.00357365  1
  Mo  Mo215  1  0.10466415  0.09949588  0.29362921  1
  Mo  Mo216  1  0.40061779  0.38823144  0.80103658  1
  Mo  Mo217  1  0.79373384  0.39851711  0.80168744  1
  Mo  Mo218  1  0.50134242  0.29398927  0.90125415  1
  Mo  Mo219  1  0.49816411  0.09763750  0.49593871  1
  Mo  Mo220  1  0.80228349  -0.00217537  0.19435436  1
  Mo  Mo221  1  0.50257381  0.89664078  0.49933297  1
  Mo  Mo222  1  0.40406489  0.19999265  0.80638204  1
  Mo  Mo223  1  0.09999958  0.28112083  0.09869523  1
  Mo  Mo224  1  0.09992672  0.90253864  0.09595453  1
  Mo  Mo225  1  0.29838577  0.50071250  0.30529775  1
  Mo  Mo226  1  0.50621267  0.70258059  0.09801085  1
  Mo  Mo227  1  0.20551187  0.00216073  0.39951461  1
  Mo  Mo228  1  0.19264667  -0.00406922  0.00645629  1
  Mo  Mo229  1  0.89406199  0.50028036  0.89607117  1
  Mo  Mo230  1  -0.00191040  0.80907382  0.61251601  1
  Mo  Mo231  1  0.88947140  0.49825393  0.70567465  1
  Mo  Mo232  1  0.60155386  0.20739316  -0.00070725  1
  Mo  Mo233  1  0.49779287  0.48879555  0.69991444  1
  Mo  Mo234  1  -0.00335401  0.59299301  0.80262835  1
  Mo  Mo235  1  -0.00645993  -0.00418332  0.00546566  1
  Mo  Mo236  1  0.39776120  0.60029193  0.40685425  1
  Mo  Mo237  1  0.40441555  0.62022328  -0.00613248  1
  Mo  Mo238  1  0.09396461  0.50910293  0.09440097  1
  Mo  Mo239  1  0.69639369  0.89448184  0.50070998  1
  Mo  Mo240  1  0.69928642  0.50531390  0.28886525  1
  Mo  Mo241  1  0.30324448  0.29634076  0.10588860  1
  Mo  Mo242  1  0.69670424  0.89564944  0.69560265  1
  Mo  Mo243  1  0.89438866  0.10231274  0.69904711  1
  Mo  Mo244  1  0.79058071  0.40138667  0.60069308  1
  Mo  Mo245  1  0.80118606  0.59078541  0.79662387  1
  Mo  Mo246  1  -0.00491491  0.00596241  0.60847192  1
  Mo  Mo247  1  0.39765677  0.37846388  0.00066544  1
  Mo  Mo248  1  0.59022532  0.39672201  0.60368850  1
  Mo  Mo249  1  0.30627431  0.29897882  0.70339328  1
