# generated using pymatgen
data_HfZrTaTiMo
_symmetry_space_group_name_H-M   'P 1'
_cell_length_a   16.88509418
_cell_length_b   16.89544956
_cell_length_c   16.88739522
_cell_angle_alpha   90.02284739
_cell_angle_beta   90.02976427
_cell_angle_gamma   89.96801711
_symmetry_Int_Tables_number   1
_chemical_formula_structural   HfZrTaTiMo
_chemical_formula_sum   'Hf50 Zr50 Ta50 Ti50 Mo50'
_cell_volume   4817.65555148
_cell_formula_units_Z   50
loop_
 _symmetry_equiv_pos_site_id
 _symmetry_equiv_pos_as_xyz
  1  'x, y, z'
loop_
 _atom_site_type_symbol
 _atom_site_label
 _atom_site_symmetry_multiplicity
 _atom_site_fract_x
 _atom_site_fract_y
 _atom_site_fract_z
 _atom_site_occupancy
  Hf  Hf0  1  0.69679067  0.70086876  0.90412363  1
  Hf  Hf1  1  0.10273837  0.29452734  0.49510685  1
  Hf  Hf2  1  -0.00882893  0.78912499  0.79164754  1
  Hf  Hf3  1  0.00873610  0.00854422  0.01540915  1
  Hf  Hf4  1  0.90844455  0.90021492  0.11204634  1
  Hf  Hf5  1  0.90432430  0.90090981  0.90496960  1
  Hf  Hf6  1  0.79698438  0.20418794  0.01575420  1
  Hf  Hf7  1  0.19612556  -0.00014725  0.19007629  1
  Hf  Hf8  1  0.31757171  0.71876514  0.68007803  1
  Hf  Hf9  1  0.49995212  0.90290009  0.70227055  1
  Hf  Hf10  1  0.09884429  0.89954352  0.69133598  1
  Hf  Hf11  1  0.50032022  0.09248533  0.09652276  1
  Hf  Hf12  1  0.40679048  0.00888286  0.59500254  1
  Hf  Hf13  1  0.20346540  0.61063093  0.59670505  1
  Hf  Hf14  1  -0.01112905  0.00245496  0.60318275  1
  Hf  Hf15  1  0.89161465  0.90673492  0.48567474  1
  Hf  Hf16  1  0.81007385  0.61247237  0.80463556  1
  Hf  Hf17  1  0.20120539  0.20502831  0.80556744  1
  Hf  Hf18  1  0.39689908  0.39081172  0.39642266  1
  Hf  Hf19  1  0.89456321  0.10084363  0.90461539  1
  Hf  Hf20  1  0.80151140  0.60550965  0.61017733  1
  Hf  Hf21  1  0.50066014  0.48918233  0.70796499  1
  Hf  Hf22  1  0.09937716  0.89888218  0.90275774  1
  Hf  Hf23  1  0.09979867  0.09294334  0.30578244  1
  Hf  Hf24  1  0.80567390  0.40811055  0.39460349  1
  Hf  Hf25  1  0.78464140  0.42435391  0.80511365  1
  Hf  Hf26  1  0.49473656  0.69908108  0.10125951  1
  Hf  Hf27  1  0.20339168  0.39075945  0.80505348  1
  Hf  Hf28  1  0.59908200  0.80020887  0.20327472  1
  Hf  Hf29  1  0.80101673  0.19454678  0.39000770  1
  Hf  Hf30  1  -0.00115903  0.39408460  0.00775605  1
  Hf  Hf31  1  0.60015021  0.80255015  0.59428950  1
  Hf  Hf32  1  0.19999431  0.00358492  0.78796988  1
  Hf  Hf33  1  0.30068277  0.70282143  0.29482351  1
  Hf  Hf34  1  0.10051783  0.49837439  0.49759641  1
  Hf  Hf35  1  0.09940276  0.69845452  0.10633564  1
  Hf  Hf36  1  0.20922340  0.59773242  0.01092913  1
  Hf  Hf37  1  0.30767606  0.49723194  0.89431841  1
  Hf  Hf38  1  0.49075392  0.70318487  0.29575762  1
  Hf  Hf39  1  0.10265480  0.50881103  0.90092221  1
  Hf  Hf40  1  -0.00612771  0.19339344  0.19634797  1
  Hf  Hf41  1  0.10119985  0.50577846  0.70259859  1
  Hf  Hf42  1  0.69318340  0.70496724  0.70606813  1
  Hf  Hf43  1  0.60179045  0.40082169  -0.00394518  1
  Hf  Hf44  1  0.38488586  0.58676244  0.19215563  1
  Hf  Hf45  1  0.59697551  0.39331525  0.60089045  1
  Hf  Hf46  1  0.59274175  0.19363608  0.60184746  1
  Hf  Hf47  1  0.79739355  0.18642984  0.60606774  1
  Hf  Hf48  1  0.59999130  0.60509609  0.39935246  1
  Hf  Hf49  1  0.59931803  0.19517911  0.40471680  1
  Zr  Zr50  1  0.19985526  0.79998765  0.40028564  1
  Zr  Zr51  1  0.09654036  0.70158339  0.29131152  1
  Zr  Zr52  1  0.79686825  0.41022273  0.60996525  1
  Zr  Zr53  1  0.40998774  0.19779590  0.59428909  1
  Zr  Zr54  1  0.48664455  0.70375823  0.50162789  1
  Zr  Zr55  1  0.41349098  0.61435228  0.79889066  1
  Zr  Zr56  1  0.80206734  0.80620845  0.60307700  1
  Zr  Zr57  1  0.90569671  0.51016905  0.50128940  1
  Zr  Zr58  1  0.10365716  0.28844360  0.68365088  1
  Zr  Zr59  1  0.40030725  0.80227052  0.00055818  1
  Zr  Zr60  1  0.69642698  0.50807529  0.50271361  1
  Zr  Zr61  1  0.80221095  0.79288413  0.00108017  1
  Zr  Zr62  1  0.39154311  0.39644877  0.19661682  1
  Zr  Zr63  1  0.50292669  0.50053451  0.29753794  1
  Zr  Zr64  1  0.20189021  0.59831505  0.39520832  1
  Zr  Zr65  1  0.30600779  0.10252995  0.90150301  1
  Zr  Zr66  1  0.59575226  0.19889248  -0.00301867  1
  Zr  Zr67  1  -0.00563637  0.19841211  0.39374716  1
  Zr  Zr68  1  0.90110780  0.29722849  0.50233620  1
  Zr  Zr69  1  0.79960528  0.60128629  0.19142043  1
  Zr  Zr70  1  0.40699491  0.38249497  0.59245836  1
  Zr  Zr71  1  0.49987171  0.08841615  0.29632476  1
  Zr  Zr72  1  0.69303100  0.30028282  0.70830182  1
  Zr  Zr73  1  0.09449129  0.90793302  0.49268631  1
  Zr  Zr74  1  0.10902668  0.09514215  0.90827025  1
  Zr  Zr75  1  -0.00226232  0.20773025  0.00571793  1
  Zr  Zr76  1  0.10925804  0.30145252  0.29863704  1
  Zr  Zr77  1  0.69269427  0.90308516  0.09363718  1
  Zr  Zr78  1  -0.00085333  0.19473078  0.80348329  1
  Zr  Zr79  1  0.49672968  0.90589311  0.10338052  1
  Zr  Zr80  1  0.79790608  0.00083819  0.79530025  1
  Zr  Zr81  1  0.50822562  0.29928011  0.28878483  1
  Zr  Zr82  1  0.29644676  0.10054167  0.30319604  1
  Zr  Zr83  1  0.89487854  0.29508197  0.70693611  1
  Zr  Zr84  1  0.69882981  0.29939623  0.89718992  1
  Zr  Zr85  1  0.00735497  0.38685918  0.81130207  1
  Zr  Zr86  1  0.41245750  0.80566988  0.80856425  1
  Zr  Zr87  1  0.79724875  0.79700255  0.19924768  1
  Zr  Zr88  1  0.61136391  0.19078271  0.19507129  1
  Zr  Zr89  1  0.29677692  0.70080059  0.90462052  1
  Zr  Zr90  1  0.30719999  0.49600665  0.70140605  1
  Zr  Zr91  1  0.10689944  0.30583483  0.11127166  1
  Zr  Zr92  1  0.40067933  0.19871156  0.40475964  1
  Zr  Zr93  1  0.19827783  0.79874417  0.79099127  1
  Zr  Zr94  1  0.70429362  0.30704416  0.29124887  1
  Zr  Zr95  1  -0.00083727  0.40379941  0.60234923  1
  Zr  Zr96  1  0.30337362  0.49859695  0.50027147  1
  Zr  Zr97  1  0.90810572  0.50698659  0.90368521  1
  Zr  Zr98  1  0.29692659  0.91161031  0.90165589  1
  Zr  Zr99  1  0.30553203  0.88765344  0.51040488  1
  Ta  Ta100  1  0.59973993  0.80370289  0.39822239  1
  Ta  Ta101  1  0.50125914  0.49268075  0.89914829  1
  Ta  Ta102  1  0.08670078  0.90504604  0.29615455  1
  Ta  Ta103  1  -0.00802310  0.79886747  0.59799394  1
  Ta  Ta104  1  0.90008940  0.70070131  0.49269672  1
  Ta  Ta105  1  0.79686379  -0.00079609  0.00249245  1
  Ta  Ta106  1  0.20451622  0.39825539  -0.00002270  1
  Ta  Ta107  1  0.79696939  0.60066726  0.00439261  1
  Ta  Ta108  1  0.10008335  0.10450526  0.68723270  1
  Ta  Ta109  1  0.58995281  0.80051913  -0.00978606  1
  Ta  Ta110  1  0.30424082  0.10699320  0.69894903  1
  Ta  Ta111  1  0.59642610  0.00660274  0.79983239  1
  Ta  Ta112  1  0.69881895  0.50136423  0.29264654  1
  Ta  Ta113  1  0.30866286  0.29243820  0.70470677  1
  Ta  Ta114  1  -0.00363028  0.59760246  0.38911679  1
  Ta  Ta115  1  0.69921505  0.70029381  0.30124163  1
  Ta  Ta116  1  0.20289491  0.81053692  0.19608445  1
  Ta  Ta117  1  0.60489362  0.60263424  0.19275293  1
  Ta  Ta118  1  0.79768734  -0.00329384  0.20569050  1
  Ta  Ta119  1  -0.00415978  0.00102374  0.79141051  1
  Ta  Ta120  1  0.89344813  0.09279392  0.10791281  1
  Ta  Ta121  1  0.70101909  0.90161999  0.30990748  1
  Ta  Ta122  1  0.58727378  0.19288077  0.79916060  1
  Ta  Ta123  1  0.60327215  0.40019693  0.40270264  1
  Ta  Ta124  1  -0.00786189  0.80109715  0.39421815  1
  Ta  Ta125  1  0.89715418  0.09463068  0.49618032  1
  Ta  Ta126  1  0.79470833  -0.00019102  0.60678701  1
  Ta  Ta127  1  0.49992586  0.50036577  0.49887710  1
  Ta  Ta128  1  0.20638027  0.00961262  0.59583980  1
  Ta  Ta129  1  0.80494177  0.80268299  0.79957301  1
  Ta  Ta130  1  0.90118396  0.70229021  0.29674722  1
  Ta  Ta131  1  0.80321184  0.60327220  0.39102029  1
  Ta  Ta132  1  0.80027733  0.40612462  0.00708915  1
  Ta  Ta133  1  0.69339144  0.90035067  0.70721596  1
  Ta  Ta134  1  0.40173930  0.20752256  -0.00096087  1
  Ta  Ta135  1  0.19757180  0.80611276  0.01031166  1
  Ta  Ta136  1  0.70340870  0.29654733  0.49859565  1
  Ta  Ta137  1  0.70245878  0.09082518  0.49611863  1
  Ta  Ta138  1  -0.00143202  0.40868539  0.38506051  1
  Ta  Ta139  1  0.19974221  0.61277645  0.79067553  1
  Ta  Ta140  1  0.40281104  -0.00385106  0.40333640  1
  Ta  Ta141  1  0.60292271  0.00534407  0.60242658  1
  Ta  Ta142  1  0.40405459  0.59089145  0.00295252  1
  Ta  Ta143  1  0.40000537  0.39426036  -0.00182477  1
  Ta  Ta144  1  0.29765151  0.29837069  0.09905708  1
  Ta  Ta145  1  0.60520720  0.59116128  0.80515264  1
  Ta  Ta146  1  0.39369919  0.19913386  0.19179493  1
  Ta  Ta147  1  0.08610149  0.69898810  0.49633445  1
  Ta  Ta148  1  0.20740887  0.39333255  0.59943041  1
  Ta  Ta149  1  0.09774893  0.69772121  0.90191093  1
  Ti  Ti150  1  0.49207773  0.09428538  0.89611404  1
  Ti  Ti151  1  0.09516075  0.89614069  0.10562314  1
  Ti  Ti152  1  0.80654687  0.40824228  0.19325076  1
  Ti  Ti153  1  -0.00660171  0.40572233  0.20128572  1
  Ti  Ti154  1  0.18935539  0.79280465  0.59303102  1
  Ti  Ti155  1  0.91110035  0.70076041  0.10469811  1
  Ti  Ti156  1  0.69894982  0.90838786  0.49307847  1
  Ti  Ti157  1  0.59020764  0.79774766  0.80960314  1
  Ti  Ti158  1  0.70039141  0.31050386  0.10843922  1
  Ti  Ti159  1  0.69289612  0.90248760  0.89822526  1
  Ti  Ti160  1  0.88505104  0.30034653  0.89983977  1
  Ti  Ti161  1  0.29865280  0.09896060  0.09234675  1
  Ti  Ti162  1  0.00223817  0.79413011  0.00122784  1
  Ti  Ti163  1  0.79723441  0.79724374  0.39515805  1
  Ti  Ti164  1  0.39915720  -0.00139674  -0.00064585  1
  Ti  Ti165  1  0.40718412  0.60025616  0.59993783  1
  Ti  Ti166  1  0.50343318  0.49450014  0.09877296  1
  Ti  Ti167  1  0.40340802  0.80929261  0.39667438  1
  Ti  Ti168  1  0.89826524  0.30565320  0.28842379  1
  Ti  Ti169  1  0.20921807  0.39740035  0.39019128  1
  Ti  Ti170  1  0.91414907  0.51008073  0.71129831  1
  Ti  Ti171  1  0.20804967  0.00092844  0.40690475  1
  Ti  Ti172  1  0.69807455  0.08621447  0.09797131  1
  Ti  Ti173  1  0.69557135  0.50044778  0.09903055  1
  Ti  Ti174  1  0.20045313  0.20470641  0.00341252  1
  Ti  Ti175  1  0.39233678  0.59582434  0.39883472  1
  Ti  Ti176  1  0.80175278  0.19047120  0.20158537  1
  Ti  Ti177  1  0.70168519  0.08532387  0.30710517  1
  Ti  Ti178  1  0.30151610  0.89948813  0.29773572  1
  Ti  Ti179  1  0.28379915  0.28555394  0.49762120  1
  Ti  Ti180  1  0.60302626  -0.00855453  0.21115473  1
  Ti  Ti181  1  0.59346197  0.60238608  0.60903346  1
  Ti  Ti182  1  0.39138777  -0.00619873  0.20052993  1
  Ti  Ti183  1  0.10258845  0.10694487  0.50036713  1
  Ti  Ti184  1  0.10950411  0.49786752  0.28892584  1
  Ti  Ti185  1  0.10762206  0.50105048  0.10935457  1
  Ti  Ti186  1  0.70344396  0.70109888  0.49632262  1
  Ti  Ti187  1  -0.00216258  0.60590942  0.00222203  1
  Ti  Ti188  1  -0.00347213  0.59056506  0.20400080  1
  Ti  Ti189  1  0.69498795  0.09597471  0.90398977  1
  Ti  Ti190  1  0.90500788  0.07400396  0.30238996  1
  Ti  Ti191  1  0.50726103  0.90564226  0.49365934  1
  Ti  Ti192  1  0.59844436  0.59949729  -0.00006024  1
  Ti  Ti193  1  0.90363266  0.50160745  0.09869296  1
  Ti  Ti194  1  0.30688925  0.90476141  0.69516664  1
  Ti  Ti195  1  0.50288934  0.30106239  0.10129642  1
  Ti  Ti196  1  -0.00028916  0.61530799  0.61039033  1
  Ti  Ti197  1  0.30002700  0.70840914  0.10712217  1
  Ti  Ti198  1  0.20651761  0.19769999  0.19813863  1
  Ti  Ti199  1  0.79073348  0.18615600  0.79570939  1
  Mo  Mo200  1  0.20130303  -0.00411346  0.01423797  1
  Mo  Mo201  1  0.90521912  0.70190610  0.91339475  1
  Mo  Mo202  1  0.10602748  0.10569912  0.10638781  1
  Mo  Mo203  1  0.50385094  0.91722546  0.90046093  1
  Mo  Mo204  1  0.90093577  0.09741342  0.69881545  1
  Mo  Mo205  1  0.90117974  0.50347118  0.29209496  1
  Mo  Mo206  1  0.20123462  0.19493005  0.40203334  1
  Mo  Mo207  1  0.69267571  0.09574671  0.70095923  1
  Mo  Mo208  1  0.68930289  0.50840412  0.70411313  1
  Mo  Mo209  1  0.49616601  0.30026037  0.89949935  1
  Mo  Mo210  1  0.30734771  0.70183178  0.49671739  1
  Mo  Mo211  1  0.29944116  0.49065275  0.09305627  1
  Mo  Mo212  1  0.39174307  0.80995235  0.20334899  1
  Mo  Mo213  1  0.40287602  0.38456715  0.80765929  1
  Mo  Mo214  1  0.20786759  0.40776384  0.19805965  1
  Mo  Mo215  1  0.50703463  0.68597978  0.90730849  1
  Mo  Mo216  1  0.89444423  0.89880985  0.70079520  1
  Mo  Mo217  1  0.88889542  0.30413074  0.11279652  1
  Mo  Mo218  1  0.49614416  0.89906910  0.30397204  1
  Mo  Mo219  1  0.89696980  0.89632921  0.30155256  1
  Mo  Mo220  1  0.79670273  0.00015325  0.39806694  1
  Mo  Mo221  1  -0.00427253  0.18787820  0.59330380  1
  Mo  Mo222  1  0.41438992  0.81047956  0.59787081  1
  Mo  Mo223  1  0.50857925  0.69979962  0.69961295  1
  Mo  Mo224  1  0.30448281  0.29838301  0.90685479  1
  Mo  Mo225  1  0.59414129  0.40033848  0.80456740  1
  Mo  Mo226  1  0.00688702  0.61094456  0.80008440  1
  Mo  Mo227  1  0.69807416  0.50678303  0.90990274  1
  Mo  Mo228  1  0.60180924  0.00054421  -0.01422407  1
  Mo  Mo229  1  0.89920178  0.70246208  0.69338334  1
  Mo  Mo230  1  0.00124161  0.80122060  0.20294059  1
  Mo  Mo231  1  0.20091307  0.59670607  0.19520236  1
  Mo  Mo232  1  -0.00110335  -0.00071401  0.20310399  1
  Mo  Mo233  1  0.10993990  0.30049104  0.91479096  1
  Mo  Mo234  1  0.29614607  0.09640192  0.49855836  1
  Mo  Mo235  1  0.68698193  0.69595325  0.09567529  1
  Mo  Mo236  1  0.49655549  0.29569003  0.71856047  1
  Mo  Mo237  1  0.49690044  0.09787281  0.70724817  1
  Mo  Mo238  1  -0.00240893  -0.00111604  0.40122888  1
  Mo  Mo239  1  0.29185460  0.49663973  0.29787944  1
  Mo  Mo240  1  0.60062568  -0.00565660  0.40524208  1
  Mo  Mo241  1  0.20893046  0.19552446  0.59799647  1
  Mo  Mo242  1  0.29423622  0.29505129  0.29371870  1
  Mo  Mo243  1  0.40350584  0.19988556  0.80350587  1
  Mo  Mo244  1  0.50755946  0.08774566  0.49553579  1
  Mo  Mo245  1  0.09769475  0.70221426  0.69224118  1
  Mo  Mo246  1  0.60495464  0.41018863  0.18923378  1
  Mo  Mo247  1  0.29933053  0.90420724  0.10055907  1
  Mo  Mo248  1  0.40099349  0.00738032  0.79373205  1
  Mo  Mo249  1  0.51455346  0.30354944  0.48743247  1
