# generated using pymatgen
data_HfZrTaTiMo
_symmetry_space_group_name_H-M   'P 1'
_cell_length_a   16.88545859
_cell_length_b   16.89153640
_cell_length_c   16.88242835
_cell_angle_alpha   89.97768403
_cell_angle_beta   89.98453433
_cell_angle_gamma   89.97109960
_symmetry_Int_Tables_number   1
_chemical_formula_structural   HfZrTaTiMo
_chemical_formula_sum   'Hf50 Zr50 Ta50 Ti50 Mo50'
_cell_volume   4815.22765699
_cell_formula_units_Z   50
loop_
 _symmetry_equiv_pos_site_id
 _symmetry_equiv_pos_as_xyz
  1  'x, y, z'
loop_
 _atom_site_type_symbol
 _atom_site_label
 _atom_site_symmetry_multiplicity
 _atom_site_fract_x
 _atom_site_fract_y
 _atom_site_fract_z
 _atom_site_occupancy
  Hf  Hf0  1  0.90427127  0.09778727  0.50187762  1
  Hf  Hf1  1  0.09776389  0.89435864  0.90180652  1
  Hf  Hf2  1  0.89857089  0.49252917  0.08926276  1
  Hf  Hf3  1  0.20092614  0.39699656  -0.00933617  1
  Hf  Hf4  1  0.89000840  0.31097120  0.90750009  1
  Hf  Hf5  1  0.79614420  0.39443500  0.19976060  1
  Hf  Hf6  1  0.19832873  0.39614117  0.40433543  1
  Hf  Hf7  1  0.70346391  0.89723721  0.09839677  1
  Hf  Hf8  1  0.19928636  0.80547559  0.60128230  1
  Hf  Hf9  1  0.69067838  0.69881471  0.50096500  1
  Hf  Hf10  1  0.31598442  0.29373650  0.88919861  1
  Hf  Hf11  1  0.00094221  -0.00573255  0.20701279  1
  Hf  Hf12  1  0.91163259  0.11616834  0.10536455  1
  Hf  Hf13  1  0.09697505  0.70721873  0.49702118  1
  Hf  Hf14  1  0.49440967  0.49989136  0.31410587  1
  Hf  Hf15  1  0.59449552  0.60152357  0.60685252  1
  Hf  Hf16  1  0.90844407  0.49531538  0.29959327  1
  Hf  Hf17  1  0.49515411  0.49486689  0.09869792  1
  Hf  Hf18  1  0.28833712  0.69852987  0.71921241  1
  Hf  Hf19  1  0.50040769  0.70586623  0.30164009  1
  Hf  Hf20  1  0.19748397  0.20495297  0.60034410  1
  Hf  Hf21  1  0.30171093  0.89965341  0.90205141  1
  Hf  Hf22  1  0.60192995  0.38923648  0.20738146  1
  Hf  Hf23  1  0.20621888  0.60588966  0.59617596  1
  Hf  Hf24  1  0.39747109  0.00579303  0.39240710  1
  Hf  Hf25  1  0.69825420  0.50648627  0.50237010  1
  Hf  Hf26  1  0.89311250  0.88534453  0.90403523  1
  Hf  Hf27  1  0.80154687  0.01070981  0.00130533  1
  Hf  Hf28  1  0.09922231  0.51089684  0.69824636  1
  Hf  Hf29  1  0.79645277  0.19948819  0.40003315  1
  Hf  Hf30  1  0.69613323  0.30247620  0.89153047  1
  Hf  Hf31  1  0.79660269  -0.00346459  0.60286889  1
  Hf  Hf32  1  0.50752639  0.09577235  0.50865045  1
  Hf  Hf33  1  0.10505550  0.49800142  0.10772952  1
  Hf  Hf34  1  0.39166586  0.00073037  0.60366715  1
  Hf  Hf35  1  0.20721497  0.59420743  -0.00974116  1
  Hf  Hf36  1  0.00091214  0.38964692  0.19550002  1
  Hf  Hf37  1  0.89438872  0.30269818  0.69972175  1
  Hf  Hf38  1  0.19839780  0.39914079  0.79914701  1
  Hf  Hf39  1  0.69562883  0.90075819  0.29185906  1
  Hf  Hf40  1  0.09693942  0.89332198  0.70991291  1
  Hf  Hf41  1  0.00254958  0.20488104  0.80964820  1
  Hf  Hf42  1  0.20363065  0.00279993  0.19913779  1
  Hf  Hf43  1  0.20028513  0.79627149  0.00214292  1
  Hf  Hf44  1  0.80612790  0.60160963  0.20144316  1
  Hf  Hf45  1  0.59293843  0.00851014  0.00299674  1
  Hf  Hf46  1  0.20134213  0.20363786  0.00168219  1
  Hf  Hf47  1  0.19073518  0.20568834  0.80174539  1
  Hf  Hf48  1  0.00616533  0.19845119  0.40170242  1
  Hf  Hf49  1  0.79375358  0.20487838  0.19714767  1
  Zr  Zr50  1  0.90412839  0.09898465  0.69143944  1
  Zr  Zr51  1  0.79521975  0.38597673  0.39948625  1
  Zr  Zr52  1  0.29838009  0.89907367  0.49259678  1
  Zr  Zr53  1  0.09658694  0.50308575  0.50228190  1
  Zr  Zr54  1  0.69837318  0.30579675  0.08414044  1
  Zr  Zr55  1  0.30419351  0.70382076  0.10035119  1
  Zr  Zr56  1  0.40248616  0.80757767  0.79706793  1
  Zr  Zr57  1  0.83022395  0.81298462  0.20632310  1
  Zr  Zr58  1  0.40958404  0.19647459  0.00661553  1
  Zr  Zr59  1  0.79643175  0.19361916  0.79798101  1
  Zr  Zr60  1  0.89968562  0.49625461  0.50510680  1
  Zr  Zr61  1  0.69027030  0.70758509  0.29583493  1
  Zr  Zr62  1  0.49549832  0.28914643  0.71270506  1
  Zr  Zr63  1  0.09769886  0.69455001  0.11273198  1
  Zr  Zr64  1  0.39253693  0.60090947  0.20941047  1
  Zr  Zr65  1  0.59513410  0.40071526  0.60355044  1
  Zr  Zr66  1  0.89653588  0.88990710  0.71328614  1
  Zr  Zr67  1  0.90887690  0.70287012  0.09860324  1
  Zr  Zr68  1  0.69212549  0.89774924  0.50832949  1
  Zr  Zr69  1  0.68316207  0.09378299  0.69565611  1
  Zr  Zr70  1  0.89510314  0.49940970  0.69875160  1
  Zr  Zr71  1  0.70199493  0.71194837  0.09702075  1
  Zr  Zr72  1  0.59812343  0.40816818  0.79604630  1
  Zr  Zr73  1  -0.00917527  0.00945678  0.81051529  1
  Zr  Zr74  1  0.39358035  0.79318007  0.59846285  1
  Zr  Zr75  1  0.19111913  0.00611037  0.39391556  1
  Zr  Zr76  1  0.30459014  0.30556923  0.10939982  1
  Zr  Zr77  1  0.90889195  0.89879992  0.50001077  1
  Zr  Zr78  1  0.30048859  0.10458747  0.70516117  1
  Zr  Zr79  1  0.19934340  0.00090951  0.80009424  1
  Zr  Zr80  1  0.51094787  0.90399997  0.68837541  1
  Zr  Zr81  1  0.80836552  0.77494273  0.60476989  1
  Zr  Zr82  1  0.39815375  0.19792190  0.39604721  1
  Zr  Zr83  1  0.30456128  0.89733871  0.29314519  1
  Zr  Zr84  1  0.20620901  0.60516183  0.39698524  1
  Zr  Zr85  1  -0.00514016  -0.00000009  0.00634735  1
  Zr  Zr86  1  0.30142652  0.49304744  0.10899207  1
  Zr  Zr87  1  0.00195018  0.59646766  -0.01446813  1
  Zr  Zr88  1  0.59234472  0.39053069  0.40271041  1
  Zr  Zr89  1  0.69501690  0.51143156  0.31178357  1
  Zr  Zr90  1  0.00589561  0.39888056  0.80314655  1
  Zr  Zr91  1  0.49470969  0.70425632  0.09162720  1
  Zr  Zr92  1  0.59213296  0.00012961  0.80708512  1
  Zr  Zr93  1  0.70237148  0.89234266  0.89760401  1
  Zr  Zr94  1  0.40197353  0.60316219  0.60114847  1
  Zr  Zr95  1  0.81621584  0.61422266  0.40475792  1
  Zr  Zr96  1  0.81091621  0.80213751  0.39587779  1
  Zr  Zr97  1  0.60062062  0.59457876  0.18924078  1
  Zr  Zr98  1  0.69977251  0.09504074  0.29396758  1
  Zr  Zr99  1  0.79776010  0.60415554  -0.01217140  1
  Ta  Ta100  1  0.30309043  0.30132023  0.50165795  1
  Ta  Ta101  1  0.10133509  0.10559988  0.10292628  1
  Ta  Ta102  1  0.80180420  0.19772724  0.00076740  1
  Ta  Ta103  1  0.40378027  0.00287287  0.00275516  1
  Ta  Ta104  1  0.59799616  -0.00043345  0.39671922  1
  Ta  Ta105  1  0.09537110  0.10033123  0.69383445  1
  Ta  Ta106  1  0.10058077  0.89639682  0.10427734  1
  Ta  Ta107  1  0.50083987  0.90122034  0.29476743  1
  Ta  Ta108  1  0.19223796  0.80265508  0.39532725  1
  Ta  Ta109  1  0.30052528  0.50040605  0.70387711  1
  Ta  Ta110  1  0.39618426  0.60329501  0.41008789  1
  Ta  Ta111  1  0.78888078  0.39039108  0.60256958  1
  Ta  Ta112  1  0.70655654  0.49681270  0.89520133  1
  Ta  Ta113  1  0.69254201  0.88340174  0.70153446  1
  Ta  Ta114  1  0.30267854  0.09740572  0.90358775  1
  Ta  Ta115  1  0.39859909  0.19971772  0.60088041  1
  Ta  Ta116  1  0.59331887  0.80518690  0.40025082  1
  Ta  Ta117  1  0.00059779  0.79464254  0.60513341  1
  Ta  Ta118  1  0.49245893  0.29801564  0.50131551  1
  Ta  Ta119  1  0.59218187  0.40837826  -0.01037794  1
  Ta  Ta120  1  0.79061531  0.20371458  0.59613743  1
  Ta  Ta121  1  0.40627581  0.40608240  -0.01545645  1
  Ta  Ta122  1  0.90818283  0.29120898  0.29570083  1
  Ta  Ta123  1  0.00580533  0.60544016  0.39238515  1
  Ta  Ta124  1  0.59471719  0.19974851  0.19597509  1
  Ta  Ta125  1  -0.01462929  0.61688947  0.59997697  1
  Ta  Ta126  1  0.29956323  0.48590955  0.30467427  1
  Ta  Ta127  1  0.20197723  0.39766742  0.60417716  1
  Ta  Ta128  1  0.59936028  0.59820326  -0.01208612  1
  Ta  Ta129  1  0.49922093  0.89770008  0.49547753  1
  Ta  Ta130  1  0.80124189  0.00048345  0.39725482  1
  Ta  Ta131  1  0.09751898  0.10506784  0.91467060  1
  Ta  Ta132  1  0.30652634  0.49272897  0.50095065  1
  Ta  Ta133  1  0.69464261  0.09806574  0.49974665  1
  Ta  Ta134  1  0.00382216  0.39122426  0.40073436  1
  Ta  Ta135  1  0.59420010  0.00447724  0.18995182  1
  Ta  Ta136  1  0.00598775  0.39427362  -0.00235089  1
  Ta  Ta137  1  0.30550094  0.30409530  0.69982728  1
  Ta  Ta138  1  0.50174717  0.09796193  0.29452205  1
  Ta  Ta139  1  0.00291204  0.80230505  0.38119072  1
  Ta  Ta140  1  0.10658274  0.29630115  0.29741561  1
  Ta  Ta141  1  0.30592622  0.69992148  0.90033826  1
  Ta  Ta142  1  0.00789691  0.38856016  0.59871969  1
  Ta  Ta143  1  0.40152912  0.40173324  0.60238882  1
  Ta  Ta144  1  0.10277630  0.49622244  0.29554322  1
  Ta  Ta145  1  0.79871100  0.60311160  0.79755058  1
  Ta  Ta146  1  0.40353034  0.00705509  0.19019258  1
  Ta  Ta147  1  0.59811561  0.79601625  -0.00941172  1
  Ta  Ta148  1  0.59702823  0.20035437  0.39333842  1
  Ta  Ta149  1  0.29683328  0.29722251  0.30424360  1
  Ti  Ti150  1  0.10129805  0.50408802  0.89226580  1
  Ti  Ti151  1  0.59878445  0.19451997  0.00424413  1
  Ti  Ti152  1  0.49685542  0.89481741  0.90459840  1
  Ti  Ti153  1  0.00696640  -0.00507001  0.39623559  1
  Ti  Ti154  1  0.40338227  0.80621299  0.19623152  1
  Ti  Ti155  1  0.10234701  0.11123913  0.29468515  1
  Ti  Ti156  1  0.49939893  0.70644112  0.49510576  1
  Ti  Ti157  1  0.40263545  0.59727600  0.80664207  1
  Ti  Ti158  1  0.10483553  0.29604063  0.49764705  1
  Ti  Ti159  1  0.50449846  0.29329552  0.89661537  1
  Ti  Ti160  1  0.49815437  0.70325267  0.89792646  1
  Ti  Ti161  1  0.50005749  0.30392964  0.09697267  1
  Ti  Ti162  1  0.00152812  0.79883533  0.00385274  1
  Ti  Ti163  1  0.49475509  0.11031890  0.88906040  1
  Ti  Ti164  1  0.30404382  0.89829155  0.09554519  1
  Ti  Ti165  1  0.68952608  0.29201413  0.50310934  1
  Ti  Ti166  1  0.29051379  0.10749612  0.49587525  1
  Ti  Ti167  1  0.51246285  0.70960285  0.70684760  1
  Ti  Ti168  1  0.20746439  0.19778571  0.20427086  1
  Ti  Ti169  1  0.01137707  -0.01086398  0.59657726  1
  Ti  Ti170  1  0.19584856  -0.00433577  0.59924700  1
  Ti  Ti171  1  0.30202062  0.10088720  0.09966841  1
  Ti  Ti172  1  0.10066395  0.09803750  0.50355216  1
  Ti  Ti173  1  0.40494534  0.19653685  0.20316174  1
  Ti  Ti174  1  0.90319607  0.10115931  0.30023156  1
  Ti  Ti175  1  0.79858097  0.00616603  0.80521147  1
  Ti  Ti176  1  0.40309472  0.41269137  0.80437854  1
  Ti  Ti177  1  0.19262046  0.80043750  0.20828807  1
  Ti  Ti178  1  0.40129423  0.00187884  0.79815521  1
  Ti  Ti179  1  0.90007519  0.70678690  0.89549783  1
  Ti  Ti180  1  0.80752483  0.00283129  0.19324324  1
  Ti  Ti181  1  0.10902135  0.70150580  0.88487708  1
  Ti  Ti182  1  0.60746605  0.60768651  0.80369435  1
  Ti  Ti183  1  0.90096514  0.29792650  0.50282494  1
  Ti  Ti184  1  0.78611447  0.77910877  0.80094707  1
  Ti  Ti185  1  0.49902280  0.89501515  0.09606408  1
  Ti  Ti186  1  0.09693932  0.70061215  0.71035891  1
  Ti  Ti187  1  0.20155531  0.00175617  0.00663017  1
  Ti  Ti188  1  0.00541525  0.20699532  0.60117109  1
  Ti  Ti189  1  0.30581252  0.71176226  0.30784288  1
  Ti  Ti190  1  0.59695607  0.20210057  0.60525063  1
  Ti  Ti191  1  0.20206211  0.60291084  0.21340708  1
  Ti  Ti192  1  0.40827694  0.38712903  0.21583759  1
  Ti  Ti193  1  0.09797266  0.29007190  0.10489874  1
  Ti  Ti194  1  0.70117245  0.49624695  0.08819894  1
  Ti  Ti195  1  0.70714319  0.50414782  0.70077997  1
  Ti  Ti196  1  -0.00834215  0.60441853  0.80095004  1
  Ti  Ti197  1  0.69404106  0.10728976  0.90043101  1
  Ti  Ti198  1  0.40173426  0.59054688  -0.01318597  1
  Ti  Ti199  1  0.49495823  0.50653947  0.70538913  1
  Mo  Mo200  1  0.59538392  0.19665886  0.80498923  1
  Mo  Mo201  1  0.69549011  0.29113905  0.30018738  1
  Mo  Mo202  1  0.50006422  0.10282500  0.10391323  1
  Mo  Mo203  1  0.00378579  0.59027219  0.20558522  1
  Mo  Mo204  1  0.19864497  0.59794927  0.80271234  1
  Mo  Mo205  1  0.69398519  0.69634728  0.89644440  1
  Mo  Mo206  1  0.90147713  0.69635129  0.71188340  1
  Mo  Mo207  1  0.92180357  0.69175765  0.29196779  1
  Mo  Mo208  1  0.59837157  0.79423036  0.80167962  1
  Mo  Mo209  1  0.29348718  0.90288563  0.70434442  1
  Mo  Mo210  1  0.01014004  0.80893155  0.20328096  1
  Mo  Mo211  1  0.30335205  0.10674488  0.28827152  1
  Mo  Mo212  1  0.19851883  0.39134359  0.20708678  1
  Mo  Mo213  1  0.49556511  0.10149766  0.69919448  1
  Mo  Mo214  1  0.00173268  0.20922612  0.00598010  1
  Mo  Mo215  1  0.19890800  0.79701488  0.80583091  1
  Mo  Mo216  1  0.49561705  0.29137417  0.30003724  1
  Mo  Mo217  1  0.09655459  0.90057288  0.49862277  1
  Mo  Mo218  1  0.90386609  0.92005895  0.30557921  1
  Mo  Mo219  1  0.09937825  0.29966367  0.91064134  1
  Mo  Mo220  1  0.59550282  0.79446367  0.59939818  1
  Mo  Mo221  1  0.39498953  0.39611816  0.40571920  1
  Mo  Mo222  1  0.30695209  0.50187238  0.89046788  1
  Mo  Mo223  1  0.80075808  0.79826374  -0.00300283  1
  Mo  Mo224  1  0.69829147  0.29577032  0.69505925  1
  Mo  Mo225  1  0.91310837  0.70313966  0.49286777  1
  Mo  Mo226  1  0.90218324  0.30071877  0.09676950  1
  Mo  Mo227  1  0.00167396  0.78668883  0.80446166  1
  Mo  Mo228  1  0.69694273  0.10289907  0.09713896  1
  Mo  Mo229  1  0.79453437  0.40731603  0.79563517  1
  Mo  Mo230  1  0.40389141  0.80750216  -0.00411565  1
  Mo  Mo231  1  0.40135456  0.79935086  0.39835865  1
  Mo  Mo232  1  0.49283720  0.49968822  0.50267926  1
  Mo  Mo233  1  0.29901221  0.70372088  0.48928224  1
  Mo  Mo234  1  0.89831967  0.50058117  0.89424001  1
  Mo  Mo235  1  0.89870516  0.11049660  0.90787267  1
  Mo  Mo236  1  0.10075045  0.29807791  0.69117208  1
  Mo  Mo237  1  0.10194268  0.89700930  0.29756466  1
  Mo  Mo238  1  0.79665811  0.40394479  -0.00530066  1
  Mo  Mo239  1  0.00723547  0.19908542  0.20598139  1
  Mo  Mo240  1  0.69737393  0.69299240  0.70303752  1
  Mo  Mo241  1  0.59955845  -0.00379350  0.59385114  1
  Mo  Mo242  1  0.58668149  0.81203015  0.19399284  1
  Mo  Mo243  1  0.58288485  0.60518691  0.41367897  1
  Mo  Mo244  1  0.79909626  0.59545108  0.60471928  1
  Mo  Mo245  1  0.19964529  0.19929453  0.40233089  1
  Mo  Mo246  1  0.50286870  0.51168482  0.89559522  1
  Mo  Mo247  1  0.10602749  0.69939823  0.29687384  1
  Mo  Mo248  1  0.39980631  0.19224378  0.79972698  1
  Mo  Mo249  1  0.90455415  0.90114544  0.09628653  1
