# generated using pymatgen
data_HfZrTaTiMo
_symmetry_space_group_name_H-M   'P 1'
_cell_length_a   16.88698014
_cell_length_b   16.87975543
_cell_length_c   16.89046493
_cell_angle_alpha   90.03452961
_cell_angle_beta   89.96552007
_cell_angle_gamma   90.01186508
_symmetry_Int_Tables_number   1
_chemical_formula_structural   HfZrTaTiMo
_chemical_formula_sum   'Hf50 Zr50 Ta50 Ti50 Mo50'
_cell_volume   4814.59299815
_cell_formula_units_Z   50
loop_
 _symmetry_equiv_pos_site_id
 _symmetry_equiv_pos_as_xyz
  1  'x, y, z'
loop_
 _atom_site_type_symbol
 _atom_site_label
 _atom_site_symmetry_multiplicity
 _atom_site_fract_x
 _atom_site_fract_y
 _atom_site_fract_z
 _atom_site_occupancy
  Hf  Hf0  1  0.19501720  -0.00033718  0.39660403  1
  Hf  Hf1  1  0.89736940  0.49892540  0.89499113  1
  Hf  Hf2  1  0.50458424  0.10132200  0.91432988  1
  Hf  Hf3  1  0.09529793  0.30197176  0.10830466  1
  Hf  Hf4  1  0.30169448  0.50642472  0.11927382  1
  Hf  Hf5  1  0.29756959  0.50280350  0.48686967  1
  Hf  Hf6  1  0.00360756  0.00387059  0.59284618  1
  Hf  Hf7  1  0.90737358  0.89192632  0.49105615  1
  Hf  Hf8  1  0.30474410  0.30002858  0.71082015  1
  Hf  Hf9  1  0.49804416  0.69420491  0.49178958  1
  Hf  Hf10  1  0.49700875  0.68866217  0.70343944  1
  Hf  Hf11  1  0.20371238  0.20415022  0.59293617  1
  Hf  Hf12  1  0.10418908  0.09855379  0.90176494  1
  Hf  Hf13  1  0.80327453  0.00335837  0.60076401  1
  Hf  Hf14  1  0.19983000  0.79310074  0.00553781  1
  Hf  Hf15  1  0.29981121  0.30215972  0.90247143  1
  Hf  Hf16  1  0.20640624  0.79515456  0.40434439  1
  Hf  Hf17  1  0.90703801  0.69229529  0.69938939  1
  Hf  Hf18  1  0.50191637  0.90034747  0.68721586  1
  Hf  Hf19  1  0.90025380  0.30027786  0.89919082  1
  Hf  Hf20  1  0.79465782  0.20155168  0.00782614  1
  Hf  Hf21  1  0.39989264  0.80247672  0.00622920  1
  Hf  Hf22  1  0.89652102  0.90370087  0.90311049  1
  Hf  Hf23  1  0.60576707  0.20186196  0.79769587  1
  Hf  Hf24  1  0.20359292  0.20037846  0.01201683  1
  Hf  Hf25  1  0.29499640  0.90417274  0.10728010  1
  Hf  Hf26  1  -0.00003106  0.59337018  0.01299626  1
  Hf  Hf27  1  0.30591334  0.10310116  0.90123594  1
  Hf  Hf28  1  0.59991230  -0.00333236  0.80144190  1
  Hf  Hf29  1  0.39657637  0.60227625  0.00960647  1
  Hf  Hf30  1  0.49695126  0.10456221  0.29676994  1
  Hf  Hf31  1  0.79466707  0.40302171  0.00727735  1
  Hf  Hf32  1  0.70037991  0.90172420  0.49599601  1
  Hf  Hf33  1  0.09588342  0.49431609  0.90274544  1
  Hf  Hf34  1  0.10465049  0.89252196  0.69209670  1
  Hf  Hf35  1  0.89397848  0.09845659  0.90461831  1
  Hf  Hf36  1  0.90236851  0.30378013  0.70661151  1
  Hf  Hf37  1  0.30136557  0.68693478  0.89170375  1
  Hf  Hf38  1  0.69122139  0.70592520  0.09297779  1
  Hf  Hf39  1  0.00006836  0.19541437  0.60395223  1
  Hf  Hf40  1  0.90262424  0.30375503  0.49464801  1
  Hf  Hf41  1  0.39750987  0.80135350  0.20005327  1
  Hf  Hf42  1  0.60767659  0.60055943  0.19923356  1
  Hf  Hf43  1  0.61035679  0.59558418  0.39166764  1
  Hf  Hf44  1  0.88461464  0.50096752  0.12219886  1
  Hf  Hf45  1  0.29654285  0.09731518  0.71095481  1
  Hf  Hf46  1  0.40301115  0.39819459  0.01063342  1
  Hf  Hf47  1  0.40085331  0.20139042  0.58995307  1
  Hf  Hf48  1  0.70437882  0.69519809  0.49081973  1
  Hf  Hf49  1  0.90555989  0.89834302  0.29755337  1
  Zr  Zr50  1  0.29895549  0.49858037  0.89755909  1
  Zr  Zr51  1  0.69998191  0.09849174  0.49470741  1
  Zr  Zr52  1  0.19716067  0.01192474  0.20412019  1
  Zr  Zr53  1  0.79512820  0.80216735  0.00184445  1
  Zr  Zr54  1  0.50950834  0.30238103  0.90879957  1
  Zr  Zr55  1  0.09673198  0.30154909  0.30114775  1
  Zr  Zr56  1  0.09329431  0.30944809  0.70719919  1
  Zr  Zr57  1  0.89374101  0.69021683  0.89761335  1
  Zr  Zr58  1  0.49727896  0.69781896  0.29823542  1
  Zr  Zr59  1  0.71908726  0.49371511  0.48536189  1
  Zr  Zr60  1  0.90961438  0.69546717  0.49344341  1
  Zr  Zr61  1  0.29591137  0.91430580  0.89720194  1
  Zr  Zr62  1  0.39808712  0.00155286  0.58792326  1
  Zr  Zr63  1  0.59999854  0.40250771  0.59297741  1
  Zr  Zr64  1  0.71256307  0.30096107  0.48867639  1
  Zr  Zr65  1  0.00178841  0.79894282  0.00184879  1
  Zr  Zr66  1  0.89155530  0.10413903  0.71699102  1
  Zr  Zr67  1  0.00862529  0.59983677  0.20838010  1
  Zr  Zr68  1  0.39300227  0.80234165  0.39852683  1
  Zr  Zr69  1  0.50418178  0.09934126  0.69513469  1
  Zr  Zr70  1  0.90431380  0.89383196  0.69870628  1
  Zr  Zr71  1  0.89529922  0.10351575  0.48676584  1
  Zr  Zr72  1  0.50897959  0.69544482  0.90498223  1
  Zr  Zr73  1  0.09327131  0.30956021  0.49496168  1
  Zr  Zr74  1  0.40253372  -0.00209703  0.39763538  1
  Zr  Zr75  1  0.50624373  0.50464222  0.89278178  1
  Zr  Zr76  1  0.20350366  0.40134408  0.59849250  1
  Zr  Zr77  1  0.18835452  0.80044190  0.80968584  1
  Zr  Zr78  1  0.59563677  0.19839214  0.39517083  1
  Zr  Zr79  1  0.79618457  0.79432348  0.60145472  1
  Zr  Zr80  1  0.48148064  0.50287416  0.29564683  1
  Zr  Zr81  1  0.69978847  0.09779870  0.90889729  1
  Zr  Zr82  1  0.60472977  0.80041740  0.80105406  1
  Zr  Zr83  1  0.19333300  0.00170427  0.00851557  1
  Zr  Zr84  1  0.40258204  0.40114724  0.59424779  1
  Zr  Zr85  1  0.80333896  0.59465934  0.60057130  1
  Zr  Zr86  1  0.30496949  0.50762102  0.70850816  1
  Zr  Zr87  1  0.78779933  0.79656985  0.79813459  1
  Zr  Zr88  1  0.71784118  0.29511026  0.29093210  1
  Zr  Zr89  1  0.38563286  0.80130272  0.58400628  1
  Zr  Zr90  1  0.59285601  0.20495691  0.19046560  1
  Zr  Zr91  1  0.01189046  -0.00909753  0.80742619  1
  Zr  Zr92  1  0.79460909  0.80755571  0.19919464  1
  Zr  Zr93  1  0.69963580  0.50700541  0.70877403  1
  Zr  Zr94  1  0.40230409  0.80716280  0.80220213  1
  Zr  Zr95  1  0.72799176  0.50044584  0.28039251  1
  Zr  Zr96  1  0.19908905  0.00257601  0.58612227  1
  Zr  Zr97  1  0.59476165  0.39793770  0.38370007  1
  Zr  Zr98  1  0.59771653  0.82313839  0.19934691  1
  Zr  Zr99  1  0.29171725  0.70150219  0.69500263  1
  Ta  Ta100  1  0.60168224  0.78976175  0.59590794  1
  Ta  Ta101  1  0.79432592  0.39843441  0.80085117  1
  Ta  Ta102  1  0.49199168  0.29861140  0.48732468  1
  Ta  Ta103  1  0.80604917  0.39919297  0.60623854  1
  Ta  Ta104  1  0.20000532  0.78981769  0.21026221  1
  Ta  Ta105  1  0.50439972  0.30121487  0.69570380  1
  Ta  Ta106  1  0.00771637  -0.00018942  0.39252321  1
  Ta  Ta107  1  0.09921856  0.69365289  0.50553339  1
  Ta  Ta108  1  0.09455150  0.89284324  0.11194558  1
  Ta  Ta109  1  0.00708142  0.79323667  0.80637909  1
  Ta  Ta110  1  0.90786686  0.49551391  0.70543258  1
  Ta  Ta111  1  0.10654261  0.10027920  0.70776641  1
  Ta  Ta112  1  0.10428287  0.69762880  0.11321698  1
  Ta  Ta113  1  0.89856335  0.69735773  0.30011090  1
  Ta  Ta114  1  0.50275760  0.70001659  0.10001239  1
  Ta  Ta115  1  0.29822545  0.50051499  0.30175550  1
  Ta  Ta116  1  0.59945833  0.20239505  0.59352271  1
  Ta  Ta117  1  0.20733891  0.20456162  0.39315688  1
  Ta  Ta118  1  0.40581365  0.20128545  0.01881967  1
  Ta  Ta119  1  0.89848177  0.29604569  0.10959163  1
  Ta  Ta120  1  0.00519607  0.19979213  0.80873232  1
  Ta  Ta121  1  0.79506685  0.20441733  0.60556978  1
  Ta  Ta122  1  0.69625056  0.30473124  0.90321370  1
  Ta  Ta123  1  0.18371242  0.59916931  0.79513968  1
  Ta  Ta124  1  0.40936869  0.00046438  0.19711706  1
  Ta  Ta125  1  0.51414325  0.90149541  0.49715351  1
  Ta  Ta126  1  0.59664595  0.59490774  0.59727442  1
  Ta  Ta127  1  0.89243134  0.09921895  0.29328860  1
  Ta  Ta128  1  0.09479848  0.50201675  0.49765706  1
  Ta  Ta129  1  0.00035494  0.00226651  0.20203863  1
  Ta  Ta130  1  0.29848892  0.30208383  0.10946375  1
  Ta  Ta131  1  -0.00542411  0.19412645  0.20072489  1
  Ta  Ta132  1  -0.00186977  0.19945189  0.00586270  1
  Ta  Ta133  1  0.00781604  0.59894634  0.79646297  1
  Ta  Ta134  1  0.69014017  0.90629312  0.68617441  1
  Ta  Ta135  1  0.29729282  0.90382940  0.29676746  1
  Ta  Ta136  1  0.19593944  0.59708659  0.01380983  1
  Ta  Ta137  1  0.40273501  0.59449546  0.59392072  1
  Ta  Ta138  1  0.50186160  0.49972820  0.10618787  1
  Ta  Ta139  1  0.79151256  0.59600328  0.00764682  1
  Ta  Ta140  1  -0.00232962  0.40076597  0.01357882  1
  Ta  Ta141  1  0.60519534  0.80523802  0.38884082  1
  Ta  Ta142  1  0.89713321  0.09584045  0.10384637  1
  Ta  Ta143  1  0.09640383  0.30491293  0.90748834  1
  Ta  Ta144  1  0.69701684  0.49939745  0.89996796  1
  Ta  Ta145  1  0.19823750  0.40287084  0.20486180  1
  Ta  Ta146  1  0.59973249  -0.00376935  0.38632785  1
  Ta  Ta147  1  0.29093274  0.90351392  0.69728220  1
  Ta  Ta148  1  0.19651792  0.40401008  0.01316931  1
  Ta  Ta149  1  0.30417137  0.10808295  0.48459578  1
  Ti  Ti150  1  0.09822950  0.69029572  0.90765739  1
  Ti  Ti151  1  0.30581451  0.10609157  0.29777230  1
  Ti  Ti152  1  0.41066589  0.20270007  0.80387262  1
  Ti  Ti153  1  0.59949003  0.40024505  0.79349804  1
  Ti  Ti154  1  0.69538398  0.09864163  0.10559420  1
  Ti  Ti155  1  0.79115130  -0.00386054  0.19710499  1
  Ti  Ti156  1  0.20606072  0.39277455  0.39456301  1
  Ti  Ti157  1  0.09507528  0.10631220  0.30015738  1
  Ti  Ti158  1  0.00221868  0.59393164  0.39510785  1
  Ti  Ti159  1  0.79470471  -0.00500529  0.01417219  1
  Ti  Ti160  1  0.39975615  0.38815030  0.20550443  1
  Ti  Ti161  1  0.19334121  0.60681708  0.39418180  1
  Ti  Ti162  1  0.83159421  0.40111264  0.37813707  1
  Ti  Ti163  1  0.41316866  0.40295390  0.79502708  1
  Ti  Ti164  1  0.19752203  0.59904582  0.59899428  1
  Ti  Ti165  1  0.40628417  -0.00266734  0.79986207  1
  Ti  Ti166  1  0.09229566  0.10271926  0.10575595  1
  Ti  Ti167  1  0.01225649  0.79125342  0.39068161  1
  Ti  Ti168  1  0.90619012  0.90300059  0.10657037  1
  Ti  Ti169  1  0.69505694  0.30495829  0.09906306  1
  Ti  Ti170  1  -0.00571700  0.20035779  0.38966797  1
  Ti  Ti171  1  0.30136430  0.68255179  0.29300516  1
  Ti  Ti172  1  0.19463961  0.20426405  0.80453000  1
  Ti  Ti173  1  0.20470376  0.20160593  0.20388349  1
  Ti  Ti174  1  0.50268593  0.90533509  0.91514171  1
  Ti  Ti175  1  0.70193981  0.30029227  0.70096039  1
  Ti  Ti176  1  0.19435204  0.40384607  0.80218707  1
  Ti  Ti177  1  0.09478241  0.70261838  0.68629893  1
  Ti  Ti178  1  0.08881146  0.49785278  0.69246378  1
  Ti  Ti179  1  0.09879630  0.11025016  0.48856604  1
  Ti  Ti180  1  0.59727388  0.39860304  0.19456613  1
  Ti  Ti181  1  0.00264324  -0.00152934  0.00764789  1
  Ti  Ti182  1  0.70554433  0.10025703  0.29246530  1
  Ti  Ti183  1  -0.00860883  0.40216537  0.21394314  1
  Ti  Ti184  1  0.10508706  0.49735550  0.30567441  1
  Ti  Ti185  1  0.91170605  0.49701467  0.50006649  1
  Ti  Ti186  1  0.39904905  0.20458289  0.19807726  1
  Ti  Ti187  1  0.68980864  0.90249282  0.91666675  1
  Ti  Ti188  1  0.49288399  0.49970941  0.48637830  1
  Ti  Ti189  1  0.09828702  0.89192112  0.29310484  1
  Ti  Ti190  1  0.69481206  0.68388924  0.89582822  1
  Ti  Ti191  1  0.79869228  -0.00266830  0.38861494  1
  Ti  Ti192  1  0.60398691  0.58666202  0.00675497  1
  Ti  Ti193  1  0.40198783  0.00899035  0.01731986  1
  Ti  Ti194  1  0.79302679  0.79725731  0.38753329  1
  Ti  Ti195  1  0.59268522  -0.00328843  0.02530188  1
  Ti  Ti196  1  0.78757402  -0.00812251  0.79964773  1
  Ti  Ti197  1  0.89939680  0.70055556  0.10899911  1
  Ti  Ti198  1  0.09715078  0.88566241  0.50239191  1
  Ti  Ti199  1  0.70002693  0.10035760  0.69739214  1
  Mo  Mo200  1  0.60314546  0.40360235  0.01044945  1
  Mo  Mo201  1  0.30813407  0.10800864  0.11055593  1
  Mo  Mo202  1  0.29959894  0.30198049  0.29465467  1
  Mo  Mo203  1  0.50254490  0.10344157  0.49360141  1
  Mo  Mo204  1  0.49710840  0.30621944  0.10573050  1
  Mo  Mo205  1  0.40078241  0.60667540  0.19793951  1
  Mo  Mo206  1  0.80035322  0.59557627  0.80629473  1
  Mo  Mo207  1  0.49035894  0.30246912  0.29658094  1
  Mo  Mo208  1  0.90609619  0.50857964  0.30201632  1
  Mo  Mo209  1  0.00146241  0.40230275  0.80501857  1
  Mo  Mo210  1  0.70649232  0.70459254  0.29876339  1
  Mo  Mo211  1  0.80700792  0.38427329  0.19590679  1
  Mo  Mo212  1  0.90570948  0.29099369  0.29713403  1
  Mo  Mo213  1  0.81352689  0.60041296  0.39326005  1
  Mo  Mo214  1  0.10167696  0.49479658  0.10762448  1
  Mo  Mo215  1  0.19950980  0.59797262  0.20920748  1
  Mo  Mo216  1  0.19725777  0.79606997  0.59023351  1
  Mo  Mo217  1  0.10068092  0.69871729  0.30729718  1
  Mo  Mo218  1  0.20298218  -0.00000443  0.79766020  1
  Mo  Mo219  1  0.00232443  0.41080059  0.39611689  1
  Mo  Mo220  1  0.29307129  0.68157719  0.49876464  1
  Mo  Mo221  1  0.40505161  0.59492921  0.79314303  1
  Mo  Mo222  1  0.69698626  0.91162814  0.09847684  1
  Mo  Mo223  1  0.60182594  0.00441835  0.59067003  1
  Mo  Mo224  1  0.69571192  0.49779607  0.09802454  1
  Mo  Mo225  1  0.39577173  0.20412201  0.39249612  1
  Mo  Mo226  1  0.09376743  0.89687691  0.91297691  1
  Mo  Mo227  1  0.60255138  0.20486121  0.00714250  1
  Mo  Mo228  1  0.49884637  0.90567906  0.30051595  1
  Mo  Mo229  1  0.79986266  0.19022624  0.19352100  1
  Mo  Mo230  1  0.70441488  0.91028835  0.30080371  1
  Mo  Mo231  1  0.00587831  0.79381370  0.59505256  1
  Mo  Mo232  1  0.28778016  0.90977571  0.49337238  1
  Mo  Mo233  1  0.39012335  0.59926137  0.40066759  1
  Mo  Mo234  1  0.39376788  0.39345057  0.39450417  1
  Mo  Mo235  1  0.49610965  0.90456930  0.10052203  1
  Mo  Mo236  1  0.79098631  0.20892179  0.79989575  1
  Mo  Mo237  1  0.49897168  0.10174638  0.10320080  1
  Mo  Mo238  1  0.79986848  0.62088318  0.19769201  1
  Mo  Mo239  1  0.00741679  0.59432472  0.60150464  1
  Mo  Mo240  1  0.60279240  0.00712937  0.20097667  1
  Mo  Mo241  1  0.50323120  0.49896409  0.69669450  1
  Mo  Mo242  1  0.59441677  0.81086319  0.00087391  1
  Mo  Mo243  1  0.30337048  0.29991968  0.48549578  1
  Mo  Mo244  1  0.69076957  0.69602924  0.69600961  1
  Mo  Mo245  1  0.00258980  0.79967958  0.20221267  1
  Mo  Mo246  1  -0.00665824  0.40794256  0.59733270  1
  Mo  Mo247  1  0.80657156  0.19482721  0.39064825  1
  Mo  Mo248  1  0.60551909  0.60042070  0.79716139  1
  Mo  Mo249  1  0.29463250  0.69816450  0.10771007  1
