# generated using pymatgen
data_HfZrTaTiMo
_symmetry_space_group_name_H-M   'P 1'
_cell_length_a   16.88638658
_cell_length_b   16.89581743
_cell_length_c   16.89191028
_cell_angle_alpha   89.97721316
_cell_angle_beta   90.00486681
_cell_angle_gamma   90.03813617
_symmetry_Int_Tables_number   1
_chemical_formula_structural   HfZrTaTiMo
_chemical_formula_sum   'Hf50 Zr50 Ta50 Ti50 Mo50'
_cell_volume   4819.41771128
_cell_formula_units_Z   50
loop_
 _symmetry_equiv_pos_site_id
 _symmetry_equiv_pos_as_xyz
  1  'x, y, z'
loop_
 _atom_site_type_symbol
 _atom_site_label
 _atom_site_symmetry_multiplicity
 _atom_site_fract_x
 _atom_site_fract_y
 _atom_site_fract_z
 _atom_site_occupancy
  Hf  Hf0  1  0.40368537  0.00060156  0.39301014  1
  Hf  Hf1  1  0.70227831  0.09934185  0.69752606  1
  Hf  Hf2  1  0.30119474  0.50327880  0.49896932  1
  Hf  Hf3  1  0.30626251  0.50997338  0.90807611  1
  Hf  Hf4  1  0.60574088  -0.00116060  0.39770975  1
  Hf  Hf5  1  0.40073743  0.40087389  0.00762486  1
  Hf  Hf6  1  0.78563078  0.41250675  -0.00176234  1
  Hf  Hf7  1  0.39710823  -0.00792644  0.19882215  1
  Hf  Hf8  1  0.09808867  0.29052477  0.10478286  1
  Hf  Hf9  1  0.70215491  0.29577720  0.09701269  1
  Hf  Hf10  1  0.29712441  0.70383973  0.49784286  1
  Hf  Hf11  1  0.09736903  0.30561946  0.31300471  1
  Hf  Hf12  1  0.70642042  0.70401761  0.30445166  1
  Hf  Hf13  1  0.19007506  0.60687509  0.40875784  1
  Hf  Hf14  1  0.19973481  0.61175768  0.79502933  1
  Hf  Hf15  1  0.69384217  0.50861192  0.69177363  1
  Hf  Hf16  1  0.29388817  0.88457975  0.30473909  1
  Hf  Hf17  1  0.39663732  0.79584438  0.79436600  1
  Hf  Hf18  1  0.50171243  0.90671390  0.51023459  1
  Hf  Hf19  1  0.79416754  0.59806279  -0.00572621  1
  Hf  Hf20  1  -0.02728616  -0.00799802  0.80429006  1
  Hf  Hf21  1  0.60205897  0.39810438  0.59548785  1
  Hf  Hf22  1  -0.00677526  0.40347262  0.20331398  1
  Hf  Hf23  1  0.90365922  0.70346883  0.89396884  1
  Hf  Hf24  1  0.09500396  0.09322695  0.49975768  1
  Hf  Hf25  1  0.59702712  0.80107094  0.39816439  1
  Hf  Hf26  1  -0.00309398  -0.00683001  0.60653083  1
  Hf  Hf27  1  0.29610403  0.89696880  0.50069094  1
  Hf  Hf28  1  0.00487224  0.40663502  0.79584347  1
  Hf  Hf29  1  0.69983877  0.70872428  0.10187365  1
  Hf  Hf30  1  0.59570532  -0.00219935  0.79700628  1
  Hf  Hf31  1  0.59663489  0.21257865  0.79162783  1
  Hf  Hf32  1  0.41119122  0.79771649  0.39854351  1
  Hf  Hf33  1  0.19846650  0.40033673  0.79556874  1
  Hf  Hf34  1  0.30797152  0.09973400  0.51354286  1
  Hf  Hf35  1  0.89213308  0.29086728  0.10283906  1
  Hf  Hf36  1  0.20274268  -0.00114572  0.20071827  1
  Hf  Hf37  1  0.00264336  0.59971819  -0.00717869  1
  Hf  Hf38  1  0.60944197  0.59075252  -0.00202366  1
  Hf  Hf39  1  0.31719203  0.30345944  0.52223507  1
  Hf  Hf40  1  0.90601580  0.30222729  0.49163230  1
  Hf  Hf41  1  0.70448683  0.69861893  0.69868434  1
  Hf  Hf42  1  0.10139040  0.09044939  0.71598550  1
  Hf  Hf43  1  0.89287911  0.30210426  0.89913074  1
  Hf  Hf44  1  0.90491050  0.89921589  0.49043983  1
  Hf  Hf45  1  0.71670885  0.30180263  0.49121564  1
  Hf  Hf46  1  0.20232653  -0.01157171  0.00315651  1
  Hf  Hf47  1  0.09980906  0.90145376  0.89195944  1
  Hf  Hf48  1  0.40374293  0.19977848  -0.00364579  1
  Hf  Hf49  1  0.50741275  0.09899328  0.28907072  1
  Zr  Zr50  1  0.59855857  0.20829090  0.59795911  1
  Zr  Zr51  1  0.80547000  0.00092890  0.59693812  1
  Zr  Zr52  1  0.49774747  0.69874821  0.09486457  1
  Zr  Zr53  1  0.69853928  0.10047147  0.89443856  1
  Zr  Zr54  1  0.50450206  0.49378015  0.89462120  1
  Zr  Zr55  1  0.89662982  0.50989553  0.70363103  1
  Zr  Zr56  1  0.70152139  0.69256302  0.50396192  1
  Zr  Zr57  1  0.20106185  0.40252893  0.00154807  1
  Zr  Zr58  1  0.29611049  0.29718873  0.10466590  1
  Zr  Zr59  1  0.71091416  0.29215239  0.29526719  1
  Zr  Zr60  1  -0.00650643  0.60190681  0.40832521  1
  Zr  Zr61  1  0.39788303  0.19957207  0.79626681  1
  Zr  Zr62  1  0.30325414  0.69161464  0.10279424  1
  Zr  Zr63  1  0.59730308  0.79777293  0.60160813  1
  Zr  Zr64  1  0.41765049  0.40306313  0.40224917  1
  Zr  Zr65  1  0.29929295  0.30932897  0.30113622  1
  Zr  Zr66  1  0.10210897  0.70105917  0.10502077  1
  Zr  Zr67  1  0.80644180  -0.00358518  0.20372587  1
  Zr  Zr68  1  0.11127402  0.51370038  0.10644027  1
  Zr  Zr69  1  0.08967691  0.08975481  0.10171406  1
  Zr  Zr70  1  0.39694963  0.61180151  0.79983046  1
  Zr  Zr71  1  0.60342581  0.40226851  0.40111808  1
  Zr  Zr72  1  0.09737786  0.29200941  0.89939159  1
  Zr  Zr73  1  0.89419417  0.29772856  0.69834784  1
  Zr  Zr74  1  0.60415128  0.41007268  0.19282838  1
  Zr  Zr75  1  0.40785484  0.20236689  0.40020128  1
  Zr  Zr76  1  -0.01120126  0.60796338  0.21418919  1
  Zr  Zr77  1  0.80107373  0.59902317  0.20605765  1
  Zr  Zr78  1  0.69888246  0.09558189  0.09468125  1
  Zr  Zr79  1  0.08993034  0.90840987  0.30334843  1
  Zr  Zr80  1  0.30123884  0.10086014  0.09781073  1
  Zr  Zr81  1  0.70778814  0.89642241  0.09214316  1
  Zr  Zr82  1  0.89491231  0.29538353  0.30691138  1
  Zr  Zr83  1  0.20102968  0.20671458  0.41037074  1
  Zr  Zr84  1  -0.00221864  0.40351211  0.00056032  1
  Zr  Zr85  1  0.50495802  0.89743982  0.09307419  1
  Zr  Zr86  1  0.00068255  0.40490609  0.60015843  1
  Zr  Zr87  1  0.19140025  0.39415202  0.60312215  1
  Zr  Zr88  1  0.59995051  0.20011407  0.40104043  1
  Zr  Zr89  1  0.59458101  0.59299484  0.39724683  1
  Zr  Zr90  1  0.29260089  0.09082217  0.89120564  1
  Zr  Zr91  1  0.90267881  0.69988664  0.70351760  1
  Zr  Zr92  1  0.30311293  0.49900122  0.69411623  1
  Zr  Zr93  1  0.10516668  0.49675307  0.30594736  1
  Zr  Zr94  1  0.20460495  0.01719053  0.38802455  1
  Zr  Zr95  1  0.29842121  0.50411215  0.30281597  1
  Zr  Zr96  1  0.81713252  0.00301858  -0.01822973  1
  Zr  Zr97  1  0.89466573  0.71400167  0.09092011  1
  Zr  Zr98  1  0.80420798  0.81923553  0.79763633  1
  Zr  Zr99  1  0.19487276  -0.00983611  0.60896435  1
  Ta  Ta100  1  0.00543272  0.79862103  0.60198156  1
  Ta  Ta101  1  -0.00117323  0.19192542  0.60103526  1
  Ta  Ta102  1  0.50647513  0.09384049  0.09320085  1
  Ta  Ta103  1  0.91065522  0.90253505  0.09782545  1
  Ta  Ta104  1  -0.00810180  0.18556712  -0.00574068  1
  Ta  Ta105  1  -0.00454838  0.79253986  0.39947344  1
  Ta  Ta106  1  0.19720430  0.18715643  0.21640348  1
  Ta  Ta107  1  0.59456570  0.20219680  -0.00505408  1
  Ta  Ta108  1  0.69924327  0.90455431  0.69488170  1
  Ta  Ta109  1  0.90836050  0.09080815  0.30372630  1
  Ta  Ta110  1  0.19775119  0.20056817  0.60897368  1
  Ta  Ta111  1  0.10780980  0.71000591  0.30157065  1
  Ta  Ta112  1  0.50182644  0.50056967  0.70070790  1
  Ta  Ta113  1  0.19043830  0.79684422  0.60597847  1
  Ta  Ta114  1  0.60216911  0.60468588  0.80382103  1
  Ta  Ta115  1  0.80843315  0.80148732  0.59466863  1
  Ta  Ta116  1  0.59565539  0.80145179  0.20847799  1
  Ta  Ta117  1  0.60248330  0.80155469  -0.01040403  1
  Ta  Ta118  1  0.49933579  0.70155212  0.90416875  1
  Ta  Ta119  1  0.80084789  -0.00078680  0.39932488  1
  Ta  Ta120  1  0.70637176  0.89510769  0.30411067  1
  Ta  Ta121  1  -0.00710992  0.19270467  0.80148616  1
  Ta  Ta122  1  0.29882159  0.69776893  0.30037557  1
  Ta  Ta123  1  0.60037262  0.19773288  0.19114237  1
  Ta  Ta124  1  0.39892752  0.61015408  0.60458364  1
  Ta  Ta125  1  0.49770400  0.89644075  0.89797093  1
  Ta  Ta126  1  0.89690846  0.50390405  0.09899460  1
  Ta  Ta127  1  0.50377123  0.30905844  0.89614610  1
  Ta  Ta128  1  0.50494617  0.30292395  0.28413110  1
  Ta  Ta129  1  0.49731176  0.50865390  0.51183909  1
  Ta  Ta130  1  0.39946619  -0.00588896  0.61493458  1
  Ta  Ta131  1  0.40419863  0.59057427  0.20223112  1
  Ta  Ta132  1  0.01038514  0.60550616  0.59488653  1
  Ta  Ta133  1  0.49953143  0.09592646  0.51323393  1
  Ta  Ta134  1  0.20419851  0.80081517  -0.00079207  1
  Ta  Ta135  1  -0.00492047  0.80469855  0.20804888  1
  Ta  Ta136  1  0.48135422  0.31051869  0.69029279  1
  Ta  Ta137  1  -0.00169079  0.19239347  0.20637936  1
  Ta  Ta138  1  0.78399301  0.40158700  0.79549977  1
  Ta  Ta139  1  0.19979089  0.80424936  0.19334084  1
  Ta  Ta140  1  0.40570333  0.20018058  0.19697246  1
  Ta  Ta141  1  0.39912373  -0.00916043  -0.00359425  1
  Ta  Ta142  1  0.09544858  0.28731499  0.70210584  1
  Ta  Ta143  1  0.81040975  0.59758963  0.40285259  1
  Ta  Ta144  1  0.59886559  0.59699753  0.20279656  1
  Ta  Ta145  1  0.30035746  0.89500496  0.89539092  1
  Ta  Ta146  1  0.39492192  0.79788266  0.60926332  1
  Ta  Ta147  1  0.19369110  0.19361489  -0.00437067  1
  Ta  Ta148  1  0.80135045  0.40997595  0.20089014  1
  Ta  Ta149  1  0.79838755  0.40922963  0.59273444  1
  Ti  Ti150  1  0.20386755  0.40462317  0.19583215  1
  Ti  Ti151  1  0.60332510  -0.00986835  0.20247833  1
  Ti  Ti152  1  0.39171300  0.79793141  -0.00520557  1
  Ti  Ti153  1  0.01164822  0.80118933  0.00188511  1
  Ti  Ti154  1  0.80597810  0.17687943  0.40436116  1
  Ti  Ti155  1  0.81520285  0.59763582  0.58412436  1
  Ti  Ti156  1  0.89758265  0.50076640  0.89422087  1
  Ti  Ti157  1  0.90178161  0.09732601  0.10227113  1
  Ti  Ti158  1  0.10553589  0.50505414  0.89836113  1
  Ti  Ti159  1  0.50656392  0.29974801  0.09640795  1
  Ti  Ti160  1  0.70268428  0.89872331  0.50104764  1
  Ti  Ti161  1  0.78832576  0.59438403  0.81070173  1
  Ti  Ti162  1  0.40349258  0.80095554  0.20238292  1
  Ti  Ti163  1  0.00242789  0.19120175  0.40258213  1
  Ti  Ti164  1  0.09036749  0.90144327  0.10096985  1
  Ti  Ti165  1  0.81072183  0.80507969  0.21176172  1
  Ti  Ti166  1  0.50334473  0.89923465  0.70029086  1
  Ti  Ti167  1  0.29713551  0.09756910  0.70282043  1
  Ti  Ti168  1  0.79882302  0.19662173  -0.00712263  1
  Ti  Ti169  1  0.18790202  0.60760671  0.60510561  1
  Ti  Ti170  1  0.68666464  0.31125941  0.89907645  1
  Ti  Ti171  1  0.70620357  0.10091324  0.29157832  1
  Ti  Ti172  1  0.90689127  0.88295839  0.91310748  1
  Ti  Ti173  1  0.39267243  0.39592221  0.79740783  1
  Ti  Ti174  1  0.49356961  0.69136435  0.29747183  1
  Ti  Ti175  1  0.49616376  0.69231944  0.50366285  1
  Ti  Ti176  1  0.50692080  0.69436300  0.69940105  1
  Ti  Ti177  1  0.79236781  0.20862301  0.79872758  1
  Ti  Ti178  1  0.01539932  0.60148289  0.79180091  1
  Ti  Ti179  1  0.80505565  0.19843127  0.59495918  1
  Ti  Ti180  1  0.40065499  -0.00484812  0.79713057  1
  Ti  Ti181  1  0.29150017  0.89920971  0.70777850  1
  Ti  Ti182  1  0.29857424  0.29851502  0.89959215  1
  Ti  Ti183  1  0.69701625  0.09457340  0.50576415  1
  Ti  Ti184  1  0.20483519  0.61253069  -0.00860390  1
  Ti  Ti185  1  0.40380893  0.40617854  0.19566709  1
  Ti  Ti186  1  0.09877068  0.48854435  0.49548627  1
  Ti  Ti187  1  0.70726747  0.49900914  0.30572026  1
  Ti  Ti188  1  0.49824753  0.09842178  0.69362980  1
  Ti  Ti189  1  0.50011042  0.50304564  0.09544477  1
  Ti  Ti190  1  0.19885924  0.79535361  0.79439318  1
  Ti  Ti191  1  0.89018108  0.10214545  0.70635868  1
  Ti  Ti192  1  0.50068229  0.09283750  0.90275291  1
  Ti  Ti193  1  0.59877844  0.79973468  0.80127651  1
  Ti  Ti194  1  0.69625909  0.90442311  0.89912793  1
  Ti  Ti195  1  0.09808100  0.71027347  0.89336716  1
  Ti  Ti196  1  0.70181070  0.71091923  0.89847763  1
  Ti  Ti197  1  0.19979232  0.20159032  0.79944025  1
  Ti  Ti198  1  0.10158626  0.89464833  0.48985566  1
  Ti  Ti199  1  0.09446510  0.08995348  0.89950031  1
  Mo  Mo200  1  0.50742532  0.89918759  0.29528402  1
  Mo  Mo201  1  -0.00087182  0.40107665  0.40510313  1
  Mo  Mo202  1  0.89885794  0.89624517  0.68995444  1
  Mo  Mo203  1  0.40283165  0.41200729  0.60357189  1
  Mo  Mo204  1  0.30362992  0.88932548  0.09656324  1
  Mo  Mo205  1  0.80283798  0.18785510  0.20351934  1
  Mo  Mo206  1  0.10027760  0.51098434  0.69695340  1
  Mo  Mo207  1  0.29463773  0.70610576  0.69139581  1
  Mo  Mo208  1  0.89397735  0.11284979  0.89211284  1
  Mo  Mo209  1  0.09821097  0.70403136  0.70006841  1
  Mo  Mo210  1  0.80104828  0.80160775  0.40366924  1
  Mo  Mo211  1  0.70986403  0.30273431  0.69398690  1
  Mo  Mo212  1  0.20616248  -0.00826269  0.80127851  1
  Mo  Mo213  1  0.79559047  -0.00376143  0.79518567  1
  Mo  Mo214  1  0.80434920  0.41908953  0.40016714  1
  Mo  Mo215  1  0.09422564  0.29020906  0.50570448  1
  Mo  Mo216  1  0.09416692  0.89245213  0.71001408  1
  Mo  Mo217  1  0.90276008  0.49950894  0.49914541  1
  Mo  Mo218  1  0.20774570  0.60802046  0.21032687  1
  Mo  Mo219  1  0.79487692  0.80434774  -0.00789853  1
  Mo  Mo220  1  -0.00475568  -0.00226730  0.20002052  1
  Mo  Mo221  1  0.40541256  0.59950102  0.00417581  1
  Mo  Mo222  1  0.40040090  0.18798269  0.60969416  1
  Mo  Mo223  1  0.69384664  0.49628153  0.88593901  1
  Mo  Mo224  1  -0.00425675  -0.00094696  0.40263669  1
  Mo  Mo225  1  0.70563694  0.50223332  0.49928176  1
  Mo  Mo226  1  0.89810106  0.89832705  0.30229607  1
  Mo  Mo227  1  0.59710210  0.39548236  -0.00002699  1
  Mo  Mo228  1  0.49813368  0.50093636  0.29301909  1
  Mo  Mo229  1  0.08741695  0.10447059  0.30199120  1
  Mo  Mo230  1  0.59736044  0.39732666  0.78876157  1
  Mo  Mo231  1  0.89729092  0.71057275  0.30894849  1
  Mo  Mo232  1  0.59836494  -0.00004882  0.60166460  1
  Mo  Mo233  1  0.90207411  0.10135079  0.49579490  1
  Mo  Mo234  1  0.09876861  0.70891772  0.50314252  1
  Mo  Mo235  1  0.30588715  0.50563001  0.10378527  1
  Mo  Mo236  1  0.19168484  0.79858169  0.40323639  1
  Mo  Mo237  1  0.31318938  0.10846458  0.29354877  1
  Mo  Mo238  1  0.49939844  0.30041582  0.51032173  1
  Mo  Mo239  1  0.29809991  0.70740166  0.90448458  1
  Mo  Mo240  1  0.19507756  0.39909748  0.41486133  1
  Mo  Mo241  1  0.70106151  0.50436907  0.10640510  1
  Mo  Mo242  1  0.90220144  0.70290992  0.50394064  1
  Mo  Mo243  1  -0.00226268  -0.00261875  -0.00223600  1
  Mo  Mo244  1  0.40316873  0.60515835  0.40072095  1
  Mo  Mo245  1  0.29508024  0.29431694  0.70646132  1
  Mo  Mo246  1  0.89805659  0.49445171  0.30526084  1
  Mo  Mo247  1  0.59052568  -0.00225952  -0.01084202  1
  Mo  Mo248  1  0.58960829  0.60102892  0.60528627  1
  Mo  Mo249  1  0.00372424  0.80128426  0.79658763  1
