# generated using pymatgen
data_HfZrTaTiMo
_symmetry_space_group_name_H-M   'P 1'
_cell_length_a   16.89889121
_cell_length_b   16.88694350
_cell_length_c   16.88500056
_cell_angle_alpha   89.99378101
_cell_angle_beta   90.00643965
_cell_angle_gamma   90.06232053
_symmetry_Int_Tables_number   1
_chemical_formula_structural   HfZrTaTiMo
_chemical_formula_sum   'Hf50 Zr50 Ta50 Ti50 Mo50'
_cell_volume   4818.48018590
_cell_formula_units_Z   50
loop_
 _symmetry_equiv_pos_site_id
 _symmetry_equiv_pos_as_xyz
  1  'x, y, z'
loop_
 _atom_site_type_symbol
 _atom_site_label
 _atom_site_symmetry_multiplicity
 _atom_site_fract_x
 _atom_site_fract_y
 _atom_site_fract_z
 _atom_site_occupancy
  Hf  Hf0  1  0.19437842  0.39462455  0.19222530  1
  Hf  Hf1  1  0.29969795  0.49844230  0.09765646  1
  Hf  Hf2  1  0.30829885  0.29773030  0.90109242  1
  Hf  Hf3  1  0.00006806  0.79695277  0.60330198  1
  Hf  Hf4  1  0.10550693  0.10397357  0.09491952  1
  Hf  Hf5  1  0.30457277  0.69445727  0.90098333  1
  Hf  Hf6  1  0.19267577  0.80990161  0.20828956  1
  Hf  Hf7  1  0.80569640  0.00618967  0.80365089  1
  Hf  Hf8  1  0.09968560  0.91234740  0.09054103  1
  Hf  Hf9  1  0.70181744  0.10588996  0.70006820  1
  Hf  Hf10  1  0.70524803  0.89945870  0.91214399  1
  Hf  Hf11  1  0.00414959  0.20963105  -0.01209592  1
  Hf  Hf12  1  0.40380381  0.20339991  0.19472239  1
  Hf  Hf13  1  0.70503839  0.70304372  0.51071824  1
  Hf  Hf14  1  0.50924257  0.90062876  0.90659124  1
  Hf  Hf15  1  0.31062368  0.90964118  0.29854395  1
  Hf  Hf16  1  0.70701216  0.89887467  0.29627394  1
  Hf  Hf17  1  0.71030335  0.89724330  0.51594535  1
  Hf  Hf18  1  0.60006836  0.79470618  0.19560321  1
  Hf  Hf19  1  0.69577824  0.49429868  0.30028686  1
  Hf  Hf20  1  0.50125754  0.49105045  0.29948808  1
  Hf  Hf21  1  0.89935117  0.90705311  0.50724622  1
  Hf  Hf22  1  0.30306916  0.30483966  0.69265782  1
  Hf  Hf23  1  0.09426127  0.09886295  0.50190912  1
  Hf  Hf24  1  0.90303949  0.10073333  0.30666850  1
  Hf  Hf25  1  0.00269549  0.00567782  0.20433231  1
  Hf  Hf26  1  0.50237333  0.69600448  0.50792147  1
  Hf  Hf27  1  0.22486338  0.01500680  0.40839810  1
  Hf  Hf28  1  0.19090168  0.80296645  0.80235347  1
  Hf  Hf29  1  0.39644685  0.80302798  0.40218529  1
  Hf  Hf30  1  0.90163031  0.30391458  0.09239164  1
  Hf  Hf31  1  0.60032137  0.00115668  0.40213758  1
  Hf  Hf32  1  0.90293668  0.89974817  0.70243977  1
  Hf  Hf33  1  0.80961226  0.40879381  -0.01299626  1
  Hf  Hf34  1  0.19308707  0.19991715  0.79772220  1
  Hf  Hf35  1  0.29267582  0.10458024  0.09604897  1
  Hf  Hf36  1  0.30496425  0.69329819  0.70262029  1
  Hf  Hf37  1  0.19627815  0.00266514  0.80206383  1
  Hf  Hf38  1  0.30953900  0.49305046  0.90449437  1
  Hf  Hf39  1  0.69687965  0.29556168  0.89747686  1
  Hf  Hf40  1  0.19579222  0.79993654  -0.00870426  1
  Hf  Hf41  1  0.59223826  0.39793949  0.60282422  1
  Hf  Hf42  1  0.79827227  0.40778388  0.59774128  1
  Hf  Hf43  1  0.70901954  0.89962642  0.09010680  1
  Hf  Hf44  1  -0.00806835  0.40523842  0.19434011  1
  Hf  Hf45  1  0.80496266  0.20148100  0.20305317  1
  Hf  Hf46  1  0.89842464  0.89956163  0.90550471  1
  Hf  Hf47  1  0.70478916  0.30158209  0.70426636  1
  Hf  Hf48  1  0.60207996  0.60246472  0.39870692  1
  Hf  Hf49  1  0.79730461  0.00483342  0.40349790  1
  Zr  Zr50  1  0.19689999  0.59003575  0.80613235  1
  Zr  Zr51  1  0.29217293  0.29746833  0.29879821  1
  Zr  Zr52  1  0.10076656  0.91749428  0.50910360  1
  Zr  Zr53  1  0.58614102  0.20205510  0.60858307  1
  Zr  Zr54  1  0.60216348  0.80149970  0.40115168  1
  Zr  Zr55  1  0.18173024  0.39077978  -0.00335514  1
  Zr  Zr56  1  0.00199573  0.80476955  0.40026314  1
  Zr  Zr57  1  0.09592529  0.69630679  0.29336284  1
  Zr  Zr58  1  0.38741243  0.18743978  0.39865564  1
  Zr  Zr59  1  0.20014448  0.80818146  0.60364731  1
  Zr  Zr60  1  0.59795386  0.41067544  0.78946471  1
  Zr  Zr61  1  -0.01026894  0.58732304  0.58520126  1
  Zr  Zr62  1  0.81661016  0.20205046  0.80259682  1
  Zr  Zr63  1  0.90452298  0.69807058  0.29682488  1
  Zr  Zr64  1  0.39887810  0.80258597  0.80846001  1
  Zr  Zr65  1  0.09243374  0.08524624  0.69271874  1
  Zr  Zr66  1  0.00475348  0.78744339  -0.00822350  1
  Zr  Zr67  1  0.39950874  0.80460404  0.59999316  1
  Zr  Zr68  1  0.49005772  0.90587317  0.70488790  1
  Zr  Zr69  1  0.51158582  0.10246273  0.90034702  1
  Zr  Zr70  1  0.19850730  0.58318395  0.59820867  1
  Zr  Zr71  1  0.30253782  0.69258212  0.50229180  1
  Zr  Zr72  1  0.19322425  0.39442631  0.80034692  1
  Zr  Zr73  1  0.09069958  0.68801668  0.70696119  1
  Zr  Zr74  1  0.09239968  0.50278447  0.30150404  1
  Zr  Zr75  1  0.20560445  0.59464679  0.39692114  1
  Zr  Zr76  1  0.08480597  0.48623378  0.69854522  1
  Zr  Zr77  1  0.29751079  0.90608799  0.09803295  1
  Zr  Zr78  1  0.29145966  0.69971958  0.10450656  1
  Zr  Zr79  1  0.90021920  0.30061183  0.50510354  1
  Zr  Zr80  1  0.69963467  0.50457562  0.09196299  1
  Zr  Zr81  1  0.59916821  0.60730730  0.19422506  1
  Zr  Zr82  1  0.69343934  0.30169288  0.30219893  1
  Zr  Zr83  1  0.40976617  0.60527732  0.00778021  1
  Zr  Zr84  1  0.70251112  0.70053298  0.70558093  1
  Zr  Zr85  1  0.40841044  0.00325664  0.00576862  1
  Zr  Zr86  1  0.89480395  0.90396297  0.09499886  1
  Zr  Zr87  1  0.49454356  0.49180254  0.49592226  1
  Zr  Zr88  1  0.60682039  0.58191103  0.61586010  1
  Zr  Zr89  1  0.08900333  0.51411517  0.09593376  1
  Zr  Zr90  1  0.60470857  -0.00162648  0.79344445  1
  Zr  Zr91  1  0.90202649  0.69700328  0.10047659  1
  Zr  Zr92  1  0.59731108  -0.00053123  0.60119714  1
  Zr  Zr93  1  0.70072640  0.29506575  0.09069283  1
  Zr  Zr94  1  0.10016381  0.30022832  0.30428589  1
  Zr  Zr95  1  0.69853777  0.10025210  0.08944294  1
  Zr  Zr96  1  0.41048936  0.19492129  0.78874200  1
  Zr  Zr97  1  0.00026689  0.20539527  0.40096554  1
  Zr  Zr98  1  0.59508181  0.00263073  0.19402168  1
  Zr  Zr99  1  0.10044780  0.69595974  0.49315037  1
  Ta  Ta100  1  0.40739017  0.79804285  0.19385524  1
  Ta  Ta101  1  0.40908757  0.79768611  0.00503757  1
  Ta  Ta102  1  0.80372329  0.59375945  0.59921664  1
  Ta  Ta103  1  0.90573985  0.30723898  0.70010042  1
  Ta  Ta104  1  0.79565910  0.20309146  0.40408400  1
  Ta  Ta105  1  0.49714420  0.09670486  0.30180429  1
  Ta  Ta106  1  0.80246200  0.40223645  0.39840407  1
  Ta  Ta107  1  0.59621692  0.40102407  -0.00237230  1
  Ta  Ta108  1  0.30414268  0.48649234  0.49908753  1
  Ta  Ta109  1  0.69624264  0.10582325  0.30119668  1
  Ta  Ta110  1  0.40207509  0.60033849  0.20284687  1
  Ta  Ta111  1  0.90079489  0.09758398  0.51064117  1
  Ta  Ta112  1  0.50457989  0.50209136  0.90170256  1
  Ta  Ta113  1  0.49576281  0.90268905  0.29782962  1
  Ta  Ta114  1  0.59522144  0.19700791  0.40217924  1
  Ta  Ta115  1  0.80436792  0.40590422  0.19984306  1
  Ta  Ta116  1  0.29709993  0.91299496  0.70072597  1
  Ta  Ta117  1  0.50620325  0.29978355  0.89740567  1
  Ta  Ta118  1  0.49406947  0.70221538  0.30027520  1
  Ta  Ta119  1  0.69571516  0.50825460  0.89622472  1
  Ta  Ta120  1  0.89919445  0.90338087  0.30124279  1
  Ta  Ta121  1  0.60600277  0.79625497  0.80241474  1
  Ta  Ta122  1  0.40824108  0.20295079  0.00402584  1
  Ta  Ta123  1  0.30070473  0.09928577  0.90314496  1
  Ta  Ta124  1  -0.00685947  0.39134665  0.81375806  1
  Ta  Ta125  1  0.30476759  0.49404599  0.29677230  1
  Ta  Ta126  1  0.49394622  0.09954359  0.49932536  1
  Ta  Ta127  1  0.29895299  0.30203918  0.50421833  1
  Ta  Ta128  1  0.80104333  0.59760845  0.80456874  1
  Ta  Ta129  1  0.50180421  0.49874967  0.09807047  1
  Ta  Ta130  1  0.69882603  0.10477940  0.90548375  1
  Ta  Ta131  1  0.89714407  0.69459048  0.70335961  1
  Ta  Ta132  1  0.49125617  0.29897106  0.49566296  1
  Ta  Ta133  1  0.40351326  0.39481036  0.19294695  1
  Ta  Ta134  1  0.00422991  0.20414649  0.19541298  1
  Ta  Ta135  1  0.20687691  0.81193397  0.40050167  1
  Ta  Ta136  1  0.00402717  0.19977846  0.80189740  1
  Ta  Ta137  1  0.80635620  0.79382398  0.40367148  1
  Ta  Ta138  1  0.39861982  0.59714276  0.39368499  1
  Ta  Ta139  1  0.80543320  0.59554196  0.40459253  1
  Ta  Ta140  1  0.50291119  0.69218852  0.70862369  1
  Ta  Ta141  1  0.58958577  0.20023714  0.19770005  1
  Ta  Ta142  1  0.80679509  0.59058426  0.20214676  1
  Ta  Ta143  1  0.09058513  0.91265670  0.89657542  1
  Ta  Ta144  1  0.51259876  0.69298827  0.89891676  1
  Ta  Ta145  1  0.20015544  0.00907145  0.20967339  1
  Ta  Ta146  1  0.89835889  0.49557188  0.70866627  1
  Ta  Ta147  1  0.70237211  0.10785129  0.50389522  1
  Ta  Ta148  1  0.19962233  0.20098639  0.60011361  1
  Ta  Ta149  1  0.59291831  0.39141756  0.19072713  1
  Ti  Ti150  1  0.39495279  0.39432371  0.39596080  1
  Ti  Ti151  1  0.00196955  0.79308749  0.80493733  1
  Ti  Ti152  1  0.70749670  0.69864981  0.30060776  1
  Ti  Ti153  1  0.09774122  0.91832583  0.31486675  1
  Ti  Ti154  1  -0.00171241  0.01736281  -0.01364230  1
  Ti  Ti155  1  0.50167123  0.30001334  0.30630892  1
  Ti  Ti156  1  0.19184761  0.39543581  0.59738079  1
  Ti  Ti157  1  0.30246760  0.90987744  0.90216232  1
  Ti  Ti158  1  0.20324204  0.59804702  0.20346646  1
  Ti  Ti159  1  0.30719426  0.49075374  0.69477461  1
  Ti  Ti160  1  0.70794241  0.69726222  0.09074721  1
  Ti  Ti161  1  0.89984779  0.30454106  0.30202612  1
  Ti  Ti162  1  0.19716718  0.40200833  0.40580703  1
  Ti  Ti163  1  0.59510967  0.80365310  0.61161504  1
  Ti  Ti164  1  0.49355197  0.90652662  0.49681794  1
  Ti  Ti165  1  0.20407968  0.19889361  0.40861701  1
  Ti  Ti166  1  0.90150849  0.10020504  0.09559247  1
  Ti  Ti167  1  0.18863290  0.60490366  -0.00784608  1
  Ti  Ti168  1  0.09930386  0.30606870  0.50567014  1
  Ti  Ti169  1  0.30259321  0.70198375  0.29749644  1
  Ti  Ti170  1  0.81492010  0.19519799  -0.01095386  1
  Ti  Ti171  1  0.71560471  0.89255732  0.69729838  1
  Ti  Ti172  1  0.80090695  0.78981173  0.81183088  1
  Ti  Ti173  1  0.69775744  0.49352883  0.49198826  1
  Ti  Ti174  1  0.40358363  0.58790258  0.60388674  1
  Ti  Ti175  1  0.09420541  0.69437350  0.10520293  1
  Ti  Ti176  1  0.80169428  0.79532863  0.19994968  1
  Ti  Ti177  1  0.40816836  0.59084276  0.79898166  1
  Ti  Ti178  1  0.40451680  0.00768875  0.19656115  1
  Ti  Ti179  1  0.19316149  0.20351363  -0.00959786  1
  Ti  Ti180  1  0.00396083  0.81108557  0.20057389  1
  Ti  Ti181  1  0.08388422  0.49987125  0.90075078  1
  Ti  Ti182  1  0.50797152  0.89921977  0.09518504  1
  Ti  Ti183  1  -0.01351896  0.59707935  -0.01303870  1
  Ti  Ti184  1  0.80217554  0.00668746  0.19978418  1
  Ti  Ti185  1  0.41019925  0.39928748  0.79265408  1
  Ti  Ti186  1  -0.00736615  0.41023993  0.41034191  1
  Ti  Ti187  1  0.39222749  0.00531074  0.59196517  1
  Ti  Ti188  1  0.80224019  0.20205437  0.59851424  1
  Ti  Ti189  1  0.69311380  0.30013439  0.49554875  1
  Ti  Ti190  1  0.41039725  0.39203867  0.00729198  1
  Ti  Ti191  1  0.10601559  0.10662456  0.30296680  1
  Ti  Ti192  1  0.60231956  0.78515070  0.00159041  1
  Ti  Ti193  1  0.30313095  0.09524750  0.69787954  1
  Ti  Ti194  1  0.00480337  0.20805216  0.60821819  1
  Ti  Ti195  1  0.40043631  0.19886091  0.60110065  1
  Ti  Ti196  1  0.90508507  0.09633313  0.69233689  1
  Ti  Ti197  1  0.29398109  0.29471041  0.09532020  1
  Ti  Ti198  1  -0.01226999  0.59113480  0.40399311  1
  Ti  Ti199  1  0.80405596  0.60447522  -0.01045769  1
  Mo  Mo200  1  0.09681222  0.29403223  0.09939962  1
  Mo  Mo201  1  0.10193717  0.10000761  0.89892404  1
  Mo  Mo202  1  0.90040395  0.30188008  0.89650042  1
  Mo  Mo203  1  0.60140414  0.20324084  0.80132295  1
  Mo  Mo204  1  0.60046055  0.60067286  0.80425048  1
  Mo  Mo205  1  0.48442674  0.50044896  0.70355239  1
  Mo  Mo206  1  0.80993463  0.78895191  0.60339703  1
  Mo  Mo207  1  0.80740886  0.01731146  -0.00341600  1
  Mo  Mo208  1  0.80196500  0.40531104  0.79835865  1
  Mo  Mo209  1  0.89452825  0.49653190  0.49681210  1
  Mo  Mo210  1  0.30063475  0.10855066  0.51919637  1
  Mo  Mo211  1  0.89557726  0.50493840  0.09522432  1
  Mo  Mo212  1  -0.00503605  0.00629657  0.39929503  1
  Mo  Mo213  1  0.20933516  0.00561086  0.60441084  1
  Mo  Mo214  1  0.49186033  0.09748741  0.69353881  1
  Mo  Mo215  1  0.09429833  0.29535128  0.69652304  1
  Mo  Mo216  1  0.09917558  0.48432647  0.49487066  1
  Mo  Mo217  1  0.89467550  0.49720844  0.30283756  1
  Mo  Mo218  1  0.40697812  0.00127203  0.40496752  1
  Mo  Mo219  1  0.80032546  0.01091920  0.60576836  1
  Mo  Mo220  1  0.70081816  0.69858509  0.90342848  1
  Mo  Mo221  1  0.60668370  0.00239741  0.00114472  1
  Mo  Mo222  1  -0.00642188  -0.00138732  0.60506341  1
  Mo  Mo223  1  0.09618984  0.89814368  0.70933310  1
  Mo  Mo224  1  -0.00257247  0.00241336  0.80142431  1
  Mo  Mo225  1  0.50146061  0.30197344  0.09387638  1
  Mo  Mo226  1  0.90541418  0.09976383  0.89665500  1
  Mo  Mo227  1  0.49546644  0.30262656  0.69805734  1
  Mo  Mo228  1  0.59347762  0.20457736  -0.00015655  1
  Mo  Mo229  1  0.60398565  0.59878261  -0.00298501  1
  Mo  Mo230  1  0.79801498  0.78161919  -0.00435675  1
  Mo  Mo231  1  0.50184730  0.10569320  0.10108381  1
  Mo  Mo232  1  0.39022192  0.00453622  0.80300725  1
  Mo  Mo233  1  0.19906984  0.00334657  -0.00983961  1
  Mo  Mo234  1  0.30289886  0.90957090  0.50415655  1
  Mo  Mo235  1  -0.00967144  0.59560082  0.19579819  1
  Mo  Mo236  1  0.19536997  0.19977801  0.19560939  1
  Mo  Mo237  1  0.09478765  0.69094246  0.90091208  1
  Mo  Mo238  1  -0.01011664  0.59456345  0.80650231  1
  Mo  Mo239  1  0.89376941  0.69699455  0.50095129  1
  Mo  Mo240  1  0.09703964  0.29805551  0.89539475  1
  Mo  Mo241  1  0.89823130  0.50328771  0.89722316  1
  Mo  Mo242  1  0.71452779  0.50112088  0.70706056  1
  Mo  Mo243  1  -0.00218237  0.39422996  0.60233386  1
  Mo  Mo244  1  0.39752245  0.39474224  0.59705814  1
  Mo  Mo245  1  0.30274487  0.10022607  0.28426849  1
  Mo  Mo246  1  0.60020446  0.38798735  0.40323877  1
  Mo  Mo247  1  -0.00369276  0.40466047  -0.00524934  1
  Mo  Mo248  1  0.50160346  0.70152775  0.10025947  1
  Mo  Mo249  1  0.89766666  0.69759701  0.89205012  1
