# generated using pymatgen
data_HfZrTaTiMo
_symmetry_space_group_name_H-M   'P 1'
_cell_length_a   16.88690009
_cell_length_b   16.90097209
_cell_length_c   16.88005313
_cell_angle_alpha   90.01934820
_cell_angle_beta   89.99239759
_cell_angle_gamma   89.99501786
_symmetry_Int_Tables_number   1
_chemical_formula_structural   HfZrTaTiMo
_chemical_formula_sum   'Hf50 Zr50 Ta50 Ti50 Mo50'
_cell_volume   4817.65168402
_cell_formula_units_Z   50
loop_
 _symmetry_equiv_pos_site_id
 _symmetry_equiv_pos_as_xyz
  1  'x, y, z'
loop_
 _atom_site_type_symbol
 _atom_site_label
 _atom_site_symmetry_multiplicity
 _atom_site_fract_x
 _atom_site_fract_y
 _atom_site_fract_z
 _atom_site_occupancy
  Hf  Hf0  1  0.09102548  0.71251932  0.10114328  1
  Hf  Hf1  1  0.28968556  0.09434643  0.90786013  1
  Hf  Hf2  1  0.69851704  0.89340064  0.90454490  1
  Hf  Hf3  1  0.09956178  0.49671933  0.29722843  1
  Hf  Hf4  1  0.90539254  0.29735380  0.09820254  1
  Hf  Hf5  1  0.60486118  0.60303125  0.79691363  1
  Hf  Hf6  1  0.11171946  0.31114131  0.09728666  1
  Hf  Hf7  1  -0.00930680  0.40631182  0.59920179  1
  Hf  Hf8  1  0.89629249  0.91160735  0.69882474  1
  Hf  Hf9  1  0.09762807  0.30223140  0.69845007  1
  Hf  Hf10  1  0.89320437  0.69776919  0.89571347  1
  Hf  Hf11  1  0.40274869  0.20070269  0.00159455  1
  Hf  Hf12  1  0.39664098  0.39576620  0.80774438  1
  Hf  Hf13  1  0.40711714  0.80832981  0.19537162  1
  Hf  Hf14  1  0.09940038  0.70038711  0.70368933  1
  Hf  Hf15  1  0.49671387  0.69743682  0.90488616  1
  Hf  Hf16  1  0.19741857  0.19790071  0.80457373  1
  Hf  Hf17  1  0.00155160  -0.00237837  0.20216243  1
  Hf  Hf18  1  0.40020188  0.20247337  0.80839015  1
  Hf  Hf19  1  0.80005901  0.20611190  0.59319126  1
  Hf  Hf20  1  0.20241518  0.80468857  0.59875347  1
  Hf  Hf21  1  0.81353838  -0.00796626  0.00096216  1
  Hf  Hf22  1  0.30181912  0.69800316  0.70516892  1
  Hf  Hf23  1  0.79907809  0.40016180  0.81105357  1
  Hf  Hf24  1  0.50951624  0.50042221  0.49547666  1
  Hf  Hf25  1  0.51327076  0.10638366  0.29690775  1
  Hf  Hf26  1  0.50738936  0.91982180  0.30616761  1
  Hf  Hf27  1  0.49438116  0.49803402  0.90393903  1
  Hf  Hf28  1  0.80590600  -0.00735246  0.20220153  1
  Hf  Hf29  1  -0.00158191  0.59445986  0.00210591  1
  Hf  Hf30  1  0.70636621  0.88887296  0.09832560  1
  Hf  Hf31  1  0.79711014  0.39721449  0.20119216  1
  Hf  Hf32  1  -0.00881099  0.60199476  0.60265284  1
  Hf  Hf33  1  0.40887056  0.80232980  0.40349813  1
  Hf  Hf34  1  0.29869501  0.29783772  0.29093794  1
  Hf  Hf35  1  0.20792842  0.59639686  0.39681435  1
  Hf  Hf36  1  -0.00564531  0.20453437  0.59611797  1
  Hf  Hf37  1  0.30902313  0.90879784  0.49581377  1
  Hf  Hf38  1  0.69934463  0.29884681  0.69988124  1
  Hf  Hf39  1  0.29333435  0.29264484  0.50061221  1
  Hf  Hf40  1  0.09517894  0.30392252  0.90448291  1
  Hf  Hf41  1  0.60421342  0.39749412  0.20115311  1
  Hf  Hf42  1  0.60397259  0.79548487  0.59855700  1
  Hf  Hf43  1  0.09865201  0.50021037  0.49913996  1
  Hf  Hf44  1  0.80546029  0.79773512  0.59716272  1
  Hf  Hf45  1  -0.00479142  0.39136608  0.40339131  1
  Hf  Hf46  1  0.59246907  0.00258561  0.59197216  1
  Hf  Hf47  1  0.08800401  0.70360931  0.29878988  1
  Hf  Hf48  1  0.89530514  0.30144038  0.70670711  1
  Hf  Hf49  1  0.89186464  0.71655164  0.10338096  1
  Zr  Zr50  1  0.80303992  0.59536080  0.00378629  1
  Zr  Zr51  1  0.28296322  0.89874541  0.90878746  1
  Zr  Zr52  1  0.09495924  0.70126854  0.49462524  1
  Zr  Zr53  1  0.19566497  0.59236877  -0.00209581  1
  Zr  Zr54  1  0.40558836  0.00294420  0.18987034  1
  Zr  Zr55  1  0.29361257  0.29870547  0.69419388  1
  Zr  Zr56  1  0.70329795  0.49346611  0.68863504  1
  Zr  Zr57  1  0.69956473  0.10375377  0.70243210  1
  Zr  Zr58  1  0.29841033  0.70999585  0.09479931  1
  Zr  Zr59  1  0.39195749  0.58798621  0.00845906  1
  Zr  Zr60  1  0.10132042  0.10487719  0.49746492  1
  Zr  Zr61  1  0.10321627  0.71574395  0.90710481  1
  Zr  Zr62  1  0.70767420  0.69831163  0.30326297  1
  Zr  Zr63  1  0.69838329  0.10026345  0.48619317  1
  Zr  Zr64  1  0.01577023  0.19957205  0.20301908  1
  Zr  Zr65  1  0.31016168  0.10067123  0.30929863  1
  Zr  Zr66  1  0.70191225  0.50599134  0.89806779  1
  Zr  Zr67  1  0.60731855  0.38496534  -0.00676766  1
  Zr  Zr68  1  0.69699483  0.09964735  0.90847259  1
  Zr  Zr69  1  0.49561261  0.50114351  0.69861747  1
  Zr  Zr70  1  0.90162230  0.10529576  0.09960132  1
  Zr  Zr71  1  0.90832445  0.29686850  0.90082142  1
  Zr  Zr72  1  0.10102905  0.89860044  0.08819510  1
  Zr  Zr73  1  0.40929946  -0.00261916  0.00143140  1
  Zr  Zr74  1  0.90052785  0.29251024  0.30031471  1
  Zr  Zr75  1  -0.00200118  0.00171077  0.59685154  1
  Zr  Zr76  1  0.50728978  0.29289828  0.09970293  1
  Zr  Zr77  1  0.79943885  0.80009941  0.79461882  1
  Zr  Zr78  1  0.89970223  0.10165908  0.48747382  1
  Zr  Zr79  1  0.20274367  0.79983495  0.39949738  1
  Zr  Zr80  1  0.60060338  0.80255879  0.20040434  1
  Zr  Zr81  1  0.70947331  0.69043152  0.49195833  1
  Zr  Zr82  1  0.50603695  0.68385993  0.29993616  1
  Zr  Zr83  1  0.59975048  0.79760484  0.79527573  1
  Zr  Zr84  1  0.39822940  0.39867082  0.39699136  1
  Zr  Zr85  1  0.30349742  0.50036324  0.50692252  1
  Zr  Zr86  1  0.19897503  0.41121878  0.80332351  1
  Zr  Zr87  1  0.69795564  0.29128003  0.30141845  1
  Zr  Zr88  1  0.39971258  0.19528749  0.59364168  1
  Zr  Zr89  1  -0.00449172  0.80753923  0.79884386  1
  Zr  Zr90  1  0.48490413  0.69265072  0.69565969  1
  Zr  Zr91  1  0.19923375  0.59196392  0.19344796  1
  Zr  Zr92  1  0.49622261  0.90114676  0.69788182  1
  Zr  Zr93  1  0.19563217  -0.00110279  0.39834933  1
  Zr  Zr94  1  0.40340256  -0.00107901  0.80600351  1
  Zr  Zr95  1  0.59849644  0.80388988  0.40904315  1
  Zr  Zr96  1  0.10180571  0.90680584  0.70009811  1
  Zr  Zr97  1  0.79826375  0.59712631  0.20355767  1
  Zr  Zr98  1  0.39859839  0.40514843  0.19544244  1
  Zr  Zr99  1  0.30751983  0.69841307  0.29564724  1
  Ta  Ta100  1  0.89635193  0.10380098  0.30213417  1
  Ta  Ta101  1  0.90285267  0.49012718  0.09993148  1
  Ta  Ta102  1  0.49317762  0.09764831  0.48306023  1
  Ta  Ta103  1  0.70445667  0.90624518  0.49711978  1
  Ta  Ta104  1  0.79859347  0.00297530  0.80371844  1
  Ta  Ta105  1  0.59579495  0.38974019  0.80344101  1
  Ta  Ta106  1  0.50806104  0.49845625  0.30278459  1
  Ta  Ta107  1  0.30388229  0.90571583  0.29689056  1
  Ta  Ta108  1  0.90033520  0.49559930  0.30083966  1
  Ta  Ta109  1  0.70069237  0.70298259  0.91036863  1
  Ta  Ta110  1  0.50332830  0.69743610  0.09909486  1
  Ta  Ta111  1  0.50183345  0.29719585  0.69900374  1
  Ta  Ta112  1  0.52005636  0.10024231  0.10199448  1
  Ta  Ta113  1  0.40177795  0.19731300  0.19334714  1
  Ta  Ta114  1  0.60199932  0.60002846  0.00828830  1
  Ta  Ta115  1  0.19645399  0.20390787  0.39607771  1
  Ta  Ta116  1  0.20645470  0.00506379  0.59755285  1
  Ta  Ta117  1  -0.00123690  0.59300322  0.80034312  1
  Ta  Ta118  1  0.10353086  0.29893864  0.50003867  1
  Ta  Ta119  1  -0.00715577  0.59630140  0.19755124  1
  Ta  Ta120  1  0.40951309  0.81006127  0.00129779  1
  Ta  Ta121  1  0.40338530  0.39689561  0.60169846  1
  Ta  Ta122  1  0.29091159  0.90496333  0.09907752  1
  Ta  Ta123  1  -0.00764204  -0.01135275  0.39271684  1
  Ta  Ta124  1  0.70269606  0.10099268  0.29504664  1
  Ta  Ta125  1  0.89723667  0.10620027  0.89665285  1
  Ta  Ta126  1  0.79004653  0.20792640  0.00109781  1
  Ta  Ta127  1  0.31112795  0.69451099  0.50983654  1
  Ta  Ta128  1  0.30474864  0.50928136  0.70264931  1
  Ta  Ta129  1  0.59695696  -0.00027478  0.80408837  1
  Ta  Ta130  1  0.29974868  0.70047614  0.89768352  1
  Ta  Ta131  1  0.70105036  0.91058890  0.69477410  1
  Ta  Ta132  1  0.00558535  0.40218076  0.20001446  1
  Ta  Ta133  1  0.19963917  0.39679803  0.39268859  1
  Ta  Ta134  1  0.50104117  0.29265269  0.30202145  1
  Ta  Ta135  1  0.88638472  0.50785242  0.70122128  1
  Ta  Ta136  1  0.69969433  0.31230490  0.49642246  1
  Ta  Ta137  1  0.39767204  0.80512884  0.80983813  1
  Ta  Ta138  1  0.70490631  0.49359373  0.49754466  1
  Ta  Ta139  1  0.29577012  0.09627456  0.69892231  1
  Ta  Ta140  1  0.60589977  0.60115756  0.59555095  1
  Ta  Ta141  1  0.80129589  0.39534107  0.00078419  1
  Ta  Ta142  1  0.59628937  0.20543896  0.80872458  1
  Ta  Ta143  1  0.59368942  0.20256866  0.59358851  1
  Ta  Ta144  1  0.70025712  0.49480832  0.09823506  1
  Ta  Ta145  1  0.19760055  0.59784114  0.60647903  1
  Ta  Ta146  1  0.19846840  0.80942761  0.20305692  1
  Ta  Ta147  1  -0.01047005  0.80017874  0.59467723  1
  Ta  Ta148  1  0.50098970  0.10537318  0.70290237  1
  Ta  Ta149  1  0.39949159  0.00641846  0.59583240  1
  Ti  Ti150  1  0.80337551  0.20904765  0.40294119  1
  Ti  Ti151  1  -0.01398170  0.81290205  0.20806183  1
  Ti  Ti152  1  0.19611412  0.19639758  0.00053968  1
  Ti  Ti153  1  0.59877854  0.20479262  0.40439514  1
  Ti  Ti154  1  0.39782632  0.58811362  0.19783510  1
  Ti  Ti155  1  0.09206490  0.89708262  0.49707195  1
  Ti  Ti156  1  0.10819981  0.09415047  0.09346790  1
  Ti  Ti157  1  0.69708763  0.10474372  0.10667966  1
  Ti  Ti158  1  0.19919285  0.80700448  0.80147031  1
  Ti  Ti159  1  0.19548865  0.00006552  0.20363108  1
  Ti  Ti160  1  0.50027014  0.29920231  0.49366589  1
  Ti  Ti161  1  -0.00948931  0.59529168  0.39791419  1
  Ti  Ti162  1  0.51001301  0.10290934  0.90690950  1
  Ti  Ti163  1  0.80015288  0.00367196  0.59525338  1
  Ti  Ti164  1  0.29477859  0.31106127  0.91916324  1
  Ti  Ti165  1  0.30082246  0.90566424  0.70217648  1
  Ti  Ti166  1  0.70010034  0.90516058  0.30343448  1
  Ti  Ti167  1  0.39894465  0.59366686  0.39679856  1
  Ti  Ti168  1  0.19453908  0.59342480  0.80348960  1
  Ti  Ti169  1  0.19892593  0.19542504  0.20246167  1
  Ti  Ti170  1  0.29523345  0.30008044  0.09834287  1
  Ti  Ti171  1  0.72269104  0.68149421  0.69649063  1
  Ti  Ti172  1  0.89206231  0.10540597  0.70945351  1
  Ti  Ti173  1  0.40432763  0.80598368  0.59506303  1
  Ti  Ti174  1  0.00582254  0.18755246  0.80162367  1
  Ti  Ti175  1  -0.00004170  0.00687065  0.80930630  1
  Ti  Ti176  1  0.00281271  0.00113954  -0.01202008  1
  Ti  Ti177  1  0.49733300  0.68607302  0.50168021  1
  Ti  Ti178  1  0.50549520  0.49722513  0.09764603  1
  Ti  Ti179  1  -0.00235672  0.41619771  0.79841010  1
  Ti  Ti180  1  0.19637551  0.40925105  0.60431153  1
  Ti  Ti181  1  0.59581067  0.39329144  0.59714265  1
  Ti  Ti182  1  0.89951535  0.70010416  0.49184063  1
  Ti  Ti183  1  0.09532880  0.10310456  0.30861188  1
  Ti  Ti184  1  0.09510593  0.49146627  0.90897359  1
  Ti  Ti185  1  0.09611973  0.89389336  0.30352164  1
  Ti  Ti186  1  0.59617456  -0.01102963  0.00489006  1
  Ti  Ti187  1  -0.02206326  0.82269272  -0.01007092  1
  Ti  Ti188  1  0.69438235  0.49712718  0.31544835  1
  Ti  Ti189  1  0.70038315  0.70376659  0.09712729  1
  Ti  Ti190  1  0.80981581  0.58754472  0.40186210  1
  Ti  Ti191  1  0.90004402  0.70414227  0.30312879  1
  Ti  Ti192  1  0.00804953  0.18992527  -0.00239112  1
  Ti  Ti193  1  0.80418041  -0.00614169  0.39558703  1
  Ti  Ti194  1  0.28509472  0.47686479  0.09468222  1
  Ti  Ti195  1  0.18613073  0.00386390  0.80567549  1
  Ti  Ti196  1  0.29150126  0.09755009  0.10051821  1
  Ti  Ti197  1  0.60557854  0.59339853  0.19575721  1
  Ti  Ti198  1  0.81268102  0.81322535  0.39724708  1
  Ti  Ti199  1  0.10579339  0.10288843  0.69542778  1
  Mo  Mo200  1  0.10716196  0.30011629  0.30069196  1
  Mo  Mo201  1  0.60905882  0.00257164  0.39844002  1
  Mo  Mo202  1  0.30409504  0.49732686  0.29631813  1
  Mo  Mo203  1  0.89821920  0.90029333  0.30112983  1
  Mo  Mo204  1  0.79839348  0.19782776  0.80486895  1
  Mo  Mo205  1  0.70164702  0.29351133  0.89801242  1
  Mo  Mo206  1  0.40016932  0.59640338  0.59760484  1
  Mo  Mo207  1  0.80310810  0.40043421  0.59317093  1
  Mo  Mo208  1  0.30031423  0.10180496  0.50206417  1
  Mo  Mo209  1  0.40327130  0.00252816  0.40183266  1
  Mo  Mo210  1  0.89354326  0.50124273  0.49629184  1
  Mo  Mo211  1  0.59871259  0.79085253  0.00378782  1
  Mo  Mo212  1  0.00434163  0.20092614  0.39887621  1
  Mo  Mo213  1  0.50103601  0.90924146  0.50072288  1
  Mo  Mo214  1  0.60290626  0.59166860  0.40253479  1
  Mo  Mo215  1  0.09348212  0.10254521  0.90162385  1
  Mo  Mo216  1  0.89455326  0.90048099  0.49719584  1
  Mo  Mo217  1  0.19315509  0.00571510  0.00522929  1
  Mo  Mo218  1  0.09907455  0.50566630  0.70220268  1
  Mo  Mo219  1  0.29756282  0.50279985  0.89810456  1
  Mo  Mo220  1  0.09434541  0.91013550  0.89882602  1
  Mo  Mo221  1  0.80011316  0.79931516  -0.00121614  1
  Mo  Mo222  1  0.61357574  0.00359495  0.19779955  1
  Mo  Mo223  1  0.59984117  0.39645205  0.39922206  1
  Mo  Mo224  1  0.79991253  0.40327973  0.40037385  1
  Mo  Mo225  1  0.90377282  0.89914857  0.10176474  1
  Mo  Mo226  1  0.20528450  0.80016649  0.00265337  1
  Mo  Mo227  1  0.60368342  0.19422668  0.00013575  1
  Mo  Mo228  1  0.60477258  0.19902873  0.19853252  1
  Mo  Mo229  1  0.79623822  0.19365723  0.19573320  1
  Mo  Mo230  1  0.89392438  0.30482248  0.49837737  1
  Mo  Mo231  1  0.19470532  0.19319566  0.59974377  1
  Mo  Mo232  1  0.49902924  0.29707669  0.89868494  1
  Mo  Mo233  1  0.70628171  0.29482390  0.09970008  1
  Mo  Mo234  1  0.80486734  0.59765890  0.59209703  1
  Mo  Mo235  1  -0.00987470  0.80331939  0.40124144  1
  Mo  Mo236  1  0.19812377  0.40120384  -0.00143365  1
  Mo  Mo237  1  0.50839698  0.89486677  0.90292117  1
  Mo  Mo238  1  0.38879065  0.60035611  0.80933657  1
  Mo  Mo239  1  0.40212231  0.20187441  0.39590771  1
  Mo  Mo240  1  0.51136828  0.89986832  0.09731406  1
  Mo  Mo241  1  0.80392660  0.59929728  0.79953139  1
  Mo  Mo242  1  0.19980000  0.39800197  0.20067218  1
  Mo  Mo243  1  0.90184707  0.69419825  0.69882351  1
  Mo  Mo244  1  0.90594560  0.49761859  0.89878896  1
  Mo  Mo245  1  0.80106166  0.80118614  0.21034436  1
  Mo  Mo246  1  0.39426037  0.39569131  0.00157827  1
  Mo  Mo247  1  0.09314076  0.49635505  0.10245850  1
  Mo  Mo248  1  -0.00059047  0.40564122  0.00312194  1
  Mo  Mo249  1  0.89778428  0.91081326  0.89403305  1
