# generated using pymatgen
data_HfZrTaTiMo
_symmetry_space_group_name_H-M   'P 1'
_cell_length_a   16.88347841
_cell_length_b   16.87588444
_cell_length_c   16.88680259
_cell_angle_alpha   89.98265967
_cell_angle_beta   90.02485028
_cell_angle_gamma   89.95520116
_symmetry_Int_Tables_number   1
_chemical_formula_structural   HfZrTaTiMo
_chemical_formula_sum   'Hf50 Zr50 Ta50 Ti50 Mo50'
_cell_volume   4811.44695913
_cell_formula_units_Z   50
loop_
 _symmetry_equiv_pos_site_id
 _symmetry_equiv_pos_as_xyz
  1  'x, y, z'
loop_
 _atom_site_type_symbol
 _atom_site_label
 _atom_site_symmetry_multiplicity
 _atom_site_fract_x
 _atom_site_fract_y
 _atom_site_fract_z
 _atom_site_occupancy
  Hf  Hf0  1  0.18670334  0.01706831  -0.01074613  1
  Hf  Hf1  1  0.70053455  0.90025641  0.89219221  1
  Hf  Hf2  1  0.28741138  0.10574631  0.69192421  1
  Hf  Hf3  1  0.00104663  0.39649766  0.80115765  1
  Hf  Hf4  1  0.00062722  0.39464029  0.60465493  1
  Hf  Hf5  1  0.20373088  0.39082083  0.42199448  1
  Hf  Hf6  1  0.89490350  0.09847189  0.29562307  1
  Hf  Hf7  1  0.89980598  0.89785996  0.30009243  1
  Hf  Hf8  1  0.59700530  0.20765441  0.78943165  1
  Hf  Hf9  1  0.59145964  0.39825531  0.60435066  1
  Hf  Hf10  1  0.50784676  0.09058065  0.30635928  1
  Hf  Hf11  1  0.50122602  0.30234493  0.31125260  1
  Hf  Hf12  1  0.59764664  0.59286277  0.00474944  1
  Hf  Hf13  1  0.59583474  0.00821970  0.59853962  1
  Hf  Hf14  1  0.18859350  0.00348501  0.79194639  1
  Hf  Hf15  1  0.48789290  0.50608567  0.70033537  1
  Hf  Hf16  1  0.29175276  0.89984768  0.10127156  1
  Hf  Hf17  1  0.40329054  0.40269192  0.19828728  1
  Hf  Hf18  1  0.08629420  0.68664599  0.10420688  1
  Hf  Hf19  1  0.29514822  0.89547275  0.89360367  1
  Hf  Hf20  1  0.29474890  0.89369115  0.69786900  1
  Hf  Hf21  1  0.70759739  0.09639283  0.70264307  1
  Hf  Hf22  1  0.70115652  0.90676782  0.09117208  1
  Hf  Hf23  1  0.89629983  0.10576084  0.09172395  1
  Hf  Hf24  1  0.51086378  0.89803190  0.49619646  1
  Hf  Hf25  1  0.39986177  -0.00062487  0.40817914  1
  Hf  Hf26  1  0.10275951  0.09093427  0.29715344  1
  Hf  Hf27  1  0.00081787  -0.00070883  0.40880563  1
  Hf  Hf28  1  0.40253580  0.60499915  0.41279561  1
  Hf  Hf29  1  0.00489435  0.40684255  0.19905364  1
  Hf  Hf30  1  0.29333563  0.70527815  0.09950674  1
  Hf  Hf31  1  0.19331425  0.80133242  0.40735660  1
  Hf  Hf32  1  0.70035176  0.50808806  0.30299784  1
  Hf  Hf33  1  0.80386828  0.40307391  0.19856398  1
  Hf  Hf34  1  0.79434000  0.21072993  0.20009591  1
  Hf  Hf35  1  0.89531800  0.10357938  0.89539806  1
  Hf  Hf36  1  0.70004063  0.69625127  0.29752185  1
  Hf  Hf37  1  0.59938662  0.60112149  0.79748364  1
  Hf  Hf38  1  0.61020877  0.19943587  0.20502227  1
  Hf  Hf39  1  0.00523071  0.00256538  0.60644196  1
  Hf  Hf40  1  0.70062986  0.89944476  0.49959622  1
  Hf  Hf41  1  0.10751065  0.10089110  0.50971077  1
  Hf  Hf42  1  0.29010486  0.90092229  0.28957470  1
  Hf  Hf43  1  0.90576003  0.69458658  0.30325059  1
  Hf  Hf44  1  0.40269106  0.00235688  0.60006303  1
  Hf  Hf45  1  0.30056077  0.09047361  0.29536592  1
  Hf  Hf46  1  0.49952344  0.69986872  0.09929471  1
  Hf  Hf47  1  0.20314591  0.23081513  0.58528744  1
  Hf  Hf48  1  0.19743565  0.40230148  -0.01828492  1
  Hf  Hf49  1  0.70005447  0.89578872  0.70822814  1
  Zr  Zr50  1  0.40509505  0.59484437  0.19500405  1
  Zr  Zr51  1  0.10582183  0.89230985  0.10393132  1
  Zr  Zr52  1  0.89126762  0.89878730  0.70607262  1
  Zr  Zr53  1  0.50457229  0.90154957  0.89532158  1
  Zr  Zr54  1  0.60385763  0.40067177  0.19453884  1
  Zr  Zr55  1  0.50887952  0.69833038  0.29744387  1
  Zr  Zr56  1  0.90494507  0.29975976  0.09225772  1
  Zr  Zr57  1  0.49983777  0.49481915  0.89448232  1
  Zr  Zr58  1  0.39275361  0.39726880  0.59588413  1
  Zr  Zr59  1  0.30909855  0.29222601  0.90387765  1
  Zr  Zr60  1  0.40536788  0.19614906  0.20357793  1
  Zr  Zr61  1  0.19149822  0.78745603  -0.01843038  1
  Zr  Zr62  1  0.89847560  0.30335775  0.49724572  1
  Zr  Zr63  1  0.69931520  0.30875453  0.89696683  1
  Zr  Zr64  1  0.29832078  0.50004637  0.30994110  1
  Zr  Zr65  1  0.40757908  0.20336072  0.60016664  1
  Zr  Zr66  1  0.69886340  0.69726381  0.09971712  1
  Zr  Zr67  1  0.18820451  0.20000356  0.81375639  1
  Zr  Zr68  1  0.40772897  0.79288298  0.60040083  1
  Zr  Zr69  1  0.40018570  0.79980363  0.39911138  1
  Zr  Zr70  1  0.30127268  0.10450482  0.09274080  1
  Zr  Zr71  1  0.49639726  0.70184868  0.89858434  1
  Zr  Zr72  1  0.49693948  0.10708124  0.90091745  1
  Zr  Zr73  1  0.40055398  -0.00216233  -0.00349716  1
  Zr  Zr74  1  0.91296134  0.88439203  0.50243352  1
  Zr  Zr75  1  0.89144542  0.89468191  0.88981464  1
  Zr  Zr76  1  0.09400124  0.69979079  0.29767406  1
  Zr  Zr77  1  0.09790340  0.50172013  0.31005628  1
  Zr  Zr78  1  -0.00048822  0.00202583  0.18710486  1
  Zr  Zr79  1  0.19104040  0.59374856  -0.01084586  1
  Zr  Zr80  1  0.70567604  0.49580638  0.89387506  1
  Zr  Zr81  1  0.20310188  0.20320356  0.40018160  1
  Zr  Zr82  1  0.79650915  0.78964742  0.59702154  1
  Zr  Zr83  1  0.02758230  0.19203345  -0.01080940  1
  Zr  Zr84  1  0.09054091  0.71482079  0.51680070  1
  Zr  Zr85  1  -0.00328908  0.59864382  0.61111603  1
  Zr  Zr86  1  0.69620662  0.30223739  0.50484857  1
  Zr  Zr87  1  0.89705490  0.69780213  0.70836583  1
  Zr  Zr88  1  0.29449307  0.49837830  0.09770549  1
  Zr  Zr89  1  0.79593207  0.19444646  0.39822174  1
  Zr  Zr90  1  -0.00872955  0.79391822  -0.00463109  1
  Zr  Zr91  1  0.49797191  0.29248223  0.09018451  1
  Zr  Zr92  1  0.89817626  0.30351664  0.90348908  1
  Zr  Zr93  1  0.80651482  0.19786616  0.60016954  1
  Zr  Zr94  1  0.70656840  0.09665146  0.09482148  1
  Zr  Zr95  1  0.10898707  0.49966581  0.70963640  1
  Zr  Zr96  1  0.19437814  0.20132170  0.19831939  1
  Zr  Zr97  1  0.80066670  0.80096439  0.19623792  1
  Zr  Zr98  1  0.29089159  0.70033988  0.29323085  1
  Zr  Zr99  1  0.10681068  0.30372133  0.09338320  1
  Ta  Ta100  1  0.51042773  0.09342038  0.09378127  1
  Ta  Ta101  1  0.70282280  0.10170608  0.89869402  1
  Ta  Ta102  1  0.00354749  0.00452998  0.79404645  1
  Ta  Ta103  1  0.40234587  0.40533079  0.00050998  1
  Ta  Ta104  1  0.50044046  0.30520100  0.89575847  1
  Ta  Ta105  1  0.60247532  0.19225427  0.40392559  1
  Ta  Ta106  1  0.59959270  0.60043476  0.41081632  1
  Ta  Ta107  1  0.10080856  0.88299310  0.69076028  1
  Ta  Ta108  1  0.00141210  0.20169514  0.78845950  1
  Ta  Ta109  1  0.00235899  0.20306030  0.20412229  1
  Ta  Ta110  1  0.90283954  0.50416610  0.30852621  1
  Ta  Ta111  1  0.80003012  0.40788522  0.00889325  1
  Ta  Ta112  1  0.00190437  -0.00155060  -0.00742446  1
  Ta  Ta113  1  0.19697114  0.60248538  0.41796503  1
  Ta  Ta114  1  0.89743304  0.50599068  0.50134671  1
  Ta  Ta115  1  0.29699963  0.70037919  0.51207317  1
  Ta  Ta116  1  0.69842938  0.69715121  0.70266264  1
  Ta  Ta117  1  0.29023478  0.89761121  0.51078485  1
  Ta  Ta118  1  0.89965121  0.50441960  0.89935736  1
  Ta  Ta119  1  0.39666477  0.79378387  0.79790621  1
  Ta  Ta120  1  0.79836845  0.79605516  0.40026298  1
  Ta  Ta121  1  0.70372136  0.50511977  0.50763744  1
  Ta  Ta122  1  0.50474664  0.89613062  0.70877140  1
  Ta  Ta123  1  0.60543408  0.20230919  -0.00217270  1
  Ta  Ta124  1  0.29522499  0.31062597  0.70819126  1
  Ta  Ta125  1  0.20041477  0.39701880  0.20432509  1
  Ta  Ta126  1  0.60288857  -0.00449894  0.20036287  1
  Ta  Ta127  1  0.79972725  0.40804991  0.40233776  1
  Ta  Ta128  1  0.80473027  0.40546326  0.60397680  1
  Ta  Ta129  1  0.30074293  0.29766757  0.09411462  1
  Ta  Ta130  1  0.50856346  0.50366955  0.30338695  1
  Ta  Ta131  1  0.70170242  0.50155807  0.69771943  1
  Ta  Ta132  1  0.59706173  0.81179354  0.19717414  1
  Ta  Ta133  1  0.59779321  0.80524638  0.00131321  1
  Ta  Ta134  1  0.20227078  0.60266403  0.61082383  1
  Ta  Ta135  1  0.00188676  0.20247013  0.60451852  1
  Ta  Ta136  1  0.81040512  0.59566156  0.19494519  1
  Ta  Ta137  1  0.80051823  0.00061362  0.40357325  1
  Ta  Ta138  1  0.59986607  0.40842310  0.40872877  1
  Ta  Ta139  1  0.00097882  0.19936971  0.40451526  1
  Ta  Ta140  1  0.70360013  0.31225967  0.70343587  1
  Ta  Ta141  1  0.21268677  0.59582455  0.80642623  1
  Ta  Ta142  1  0.80362237  0.20872544  0.79470402  1
  Ta  Ta143  1  0.19624026  -0.00823452  0.40705983  1
  Ta  Ta144  1  0.40779602  0.80931940  0.19502860  1
  Ta  Ta145  1  0.30617532  0.30300091  0.30317316  1
  Ta  Ta146  1  0.90528862  0.30596648  0.30425824  1
  Ta  Ta147  1  0.59692251  0.60536567  0.59830986  1
  Ta  Ta148  1  0.10198760  0.49934825  0.51103104  1
  Ta  Ta149  1  0.09693405  0.89317338  0.29840958  1
  Ti  Ti150  1  0.70106940  0.90769304  0.30324088  1
  Ti  Ti151  1  0.29717615  0.50783580  0.51502887  1
  Ti  Ti152  1  0.59832998  0.79186299  0.60324366  1
  Ti  Ti153  1  0.89949800  0.10017969  0.70201335  1
  Ti  Ti154  1  0.89867456  0.69016644  0.89837090  1
  Ti  Ti155  1  0.39887453  0.20032289  0.79448835  1
  Ti  Ti156  1  0.80213843  0.79138587  -0.00191851  1
  Ti  Ti157  1  0.09672365  0.30226377  0.30682727  1
  Ti  Ti158  1  0.69673344  0.09509883  0.49599131  1
  Ti  Ti159  1  0.39246352  0.00472136  0.79747485  1
  Ti  Ti160  1  0.80915031  0.00633259  0.58951011  1
  Ti  Ti161  1  0.29466308  0.09659322  0.50392974  1
  Ti  Ti162  1  0.70054136  0.50412793  0.10349491  1
  Ti  Ti163  1  0.40090979  0.19377071  0.40805180  1
  Ti  Ti164  1  0.90261742  0.69899500  0.50092712  1
  Ti  Ti165  1  0.19786448  0.78121833  0.79648699  1
  Ti  Ti166  1  0.80242679  0.00070895  -0.00886699  1
  Ti  Ti167  1  0.80050477  0.60235485  0.40806182  1
  Ti  Ti168  1  0.10971822  0.30609978  0.70226020  1
  Ti  Ti169  1  0.18994156  0.58767995  0.19775557  1
  Ti  Ti170  1  0.69946639  0.70563597  0.89715231  1
  Ti  Ti171  1  0.50104580  0.29611355  0.49435888  1
  Ti  Ti172  1  0.49852602  0.69889389  0.70211298  1
  Ti  Ti173  1  0.60628700  0.79582064  0.39900928  1
  Ti  Ti174  1  0.91219946  0.51098041  0.09488175  1
  Ti  Ti175  1  0.69840488  0.69544822  0.50283593  1
  Ti  Ti176  1  0.59877309  0.00603647  0.79965994  1
  Ti  Ti177  1  0.50831325  0.90131337  0.30335743  1
  Ti  Ti178  1  0.40038750  0.80296573  -0.00004919  1
  Ti  Ti179  1  0.39253653  0.59342707  -0.00930546  1
  Ti  Ti180  1  0.08339356  0.68138233  0.88619106  1
  Ti  Ti181  1  0.88992753  0.50028109  0.70667679  1
  Ti  Ti182  1  0.59384386  0.20060253  0.60114467  1
  Ti  Ti183  1  0.40359315  0.40688910  0.40698606  1
  Ti  Ti184  1  -0.00950041  0.79686873  0.19237319  1
  Ti  Ti185  1  0.79705183  0.60040496  0.80139246  1
  Ti  Ti186  1  0.00097570  0.40105136  0.40710794  1
  Ti  Ti187  1  0.89184564  0.90498897  0.09525071  1
  Ti  Ti188  1  0.69955615  0.30922305  0.31174066  1
  Ti  Ti189  1  0.80437808  0.60072915  0.00356398  1
  Ti  Ti190  1  0.00453877  0.79315913  0.79536324  1
  Ti  Ti191  1  0.50029660  0.50768025  0.50535722  1
  Ti  Ti192  1  0.00969890  0.41383911  -0.00546189  1
  Ti  Ti193  1  0.60096317  0.40161825  0.00763478  1
  Ti  Ti194  1  0.41440734  -0.00952591  0.19320761  1
  Ti  Ti195  1  0.39111196  0.40592276  0.80115816  1
  Ti  Ti196  1  0.49733982  0.09959262  0.70274818  1
  Ti  Ti197  1  0.09418753  0.89740750  0.88881594  1
  Ti  Ti198  1  0.30524557  0.69084680  0.70097346  1
  Ti  Ti199  1  0.00371849  0.60014748  0.41146102  1
  Mo  Mo200  1  0.09022408  0.09318696  0.88746540  1
  Mo  Mo201  1  0.09644901  0.49753484  0.09969024  1
  Mo  Mo202  1  0.60494574  0.59545673  0.20121415  1
  Mo  Mo203  1  0.09720284  0.09924220  0.10216120  1
  Mo  Mo204  1  0.09640996  0.11014165  0.69457674  1
  Mo  Mo205  1  0.30806019  0.50084644  0.89419540  1
  Mo  Mo206  1  -0.00700103  0.59286392  0.80376581  1
  Mo  Mo207  1  0.09908658  0.30837389  0.89300869  1
  Mo  Mo208  1  0.78972631  0.20888057  -0.00585841  1
  Mo  Mo209  1  0.60775858  -0.00009335  0.39745736  1
  Mo  Mo210  1  0.29903077  0.50170320  0.70305516  1
  Mo  Mo211  1  0.49463036  0.30515237  0.71112911  1
  Mo  Mo212  1  0.79647621  -0.00288666  0.20468424  1
  Mo  Mo213  1  -0.00627732  0.59245028  0.19739608  1
  Mo  Mo214  1  0.80463436  0.40453412  0.79433478  1
  Mo  Mo215  1  0.60437105  0.00367401  -0.00366206  1
  Mo  Mo216  1  0.10461778  0.90086848  0.50689114  1
  Mo  Mo217  1  0.10500624  0.69754970  0.71167610  1
  Mo  Mo218  1  -0.00277566  0.79993329  0.39690100  1
  Mo  Mo219  1  0.59730556  0.79425236  0.79679555  1
  Mo  Mo220  1  0.39325959  0.60532646  0.79729894  1
  Mo  Mo221  1  0.90300917  0.09863748  0.50108825  1
  Mo  Mo222  1  0.19700847  -0.00875665  0.59895911  1
  Mo  Mo223  1  -0.00720365  0.59562577  -0.00592646  1
  Mo  Mo224  1  0.50632786  0.10286548  0.49858368  1
  Mo  Mo225  1  0.20426652  0.40195414  0.80071925  1
  Mo  Mo226  1  0.80084356  0.01498017  0.79960982  1
  Mo  Mo227  1  0.20342833  0.79277001  0.60888987  1
  Mo  Mo228  1  0.20808681  0.19805509  -0.00289552  1
  Mo  Mo229  1  0.20297856  0.40588149  0.60246152  1
  Mo  Mo230  1  0.19542917  0.79665297  0.20075517  1
  Mo  Mo231  1  0.39898661  0.60260638  0.60210663  1
  Mo  Mo232  1  0.30792352  0.69905642  0.89619801  1
  Mo  Mo233  1  0.09301089  0.50384712  0.89621566  1
  Mo  Mo234  1  0.08506824  0.30505857  0.49954914  1
  Mo  Mo235  1  0.79559518  0.59638459  0.59936329  1
  Mo  Mo236  1  0.89657751  0.69188845  0.09660482  1
  Mo  Mo237  1  0.19304711  -0.00365311  0.20236375  1
  Mo  Mo238  1  0.50884220  0.70092458  0.50291357  1
  Mo  Mo239  1  0.59448478  0.40019490  0.78847723  1
  Mo  Mo240  1  0.70239798  0.30436523  0.08898026  1
  Mo  Mo241  1  -0.00249759  0.79707483  0.61312915  1
  Mo  Mo242  1  0.32180442  0.30237202  0.48797725  1
  Mo  Mo243  1  0.50167122  0.50077780  0.09539525  1
  Mo  Mo244  1  0.89641792  0.29978266  0.70082388  1
  Mo  Mo245  1  0.40733565  0.20134122  -0.00370305  1
  Mo  Mo246  1  0.30419740  0.09864497  0.89036925  1
  Mo  Mo247  1  0.79167281  0.78155533  0.80680275  1
  Mo  Mo248  1  0.70095237  0.08665130  0.29988602  1
  Mo  Mo249  1  0.50413271  0.89995997  0.09903320  1
