# generated using pymatgen
data_HfZrTaTiMo
_symmetry_space_group_name_H-M   'P 1'
_cell_length_a   16.88583433
_cell_length_b   16.88640810
_cell_length_c   16.89042167
_cell_angle_alpha   90.01585393
_cell_angle_beta   90.07393731
_cell_angle_gamma   90.01362438
_symmetry_Int_Tables_number   1
_chemical_formula_structural   HfZrTaTiMo
_chemical_formula_sum   'Hf50 Zr50 Ta50 Ti50 Mo50'
_cell_volume   4816.14891116
_cell_formula_units_Z   50
loop_
 _symmetry_equiv_pos_site_id
 _symmetry_equiv_pos_as_xyz
  1  'x, y, z'
loop_
 _atom_site_type_symbol
 _atom_site_label
 _atom_site_symmetry_multiplicity
 _atom_site_fract_x
 _atom_site_fract_y
 _atom_site_fract_z
 _atom_site_occupancy
  Hf  Hf0  1  0.60194663  0.39661903  0.80319915  1
  Hf  Hf1  1  0.30709390  0.10475091  0.10454665  1
  Hf  Hf2  1  0.79233222  0.41052984  0.59783312  1
  Hf  Hf3  1  0.80024327  0.00433538  0.40810084  1
  Hf  Hf4  1  0.09353602  0.09332818  0.89490440  1
  Hf  Hf5  1  0.49692258  0.50267107  0.69304488  1
  Hf  Hf6  1  0.70259659  0.10370312  0.09944707  1
  Hf  Hf7  1  0.00292269  0.79707431  0.60402030  1
  Hf  Hf8  1  0.49771426  0.09201410  0.49761691  1
  Hf  Hf9  1  0.49374629  0.90133471  0.09567951  1
  Hf  Hf10  1  0.50793730  0.90022652  0.69210259  1
  Hf  Hf11  1  0.58920191  0.19597432  0.20862002  1
  Hf  Hf12  1  0.91184664  0.70666101  0.89534304  1
  Hf  Hf13  1  0.29582976  0.90009983  0.89737445  1
  Hf  Hf14  1  0.29303455  0.30152645  0.48821355  1
  Hf  Hf15  1  0.20429783  0.20712774  0.21386760  1
  Hf  Hf16  1  0.30432450  0.30237671  0.69906217  1
  Hf  Hf17  1  0.69786703  0.91181411  0.10556942  1
  Hf  Hf18  1  0.40331016  0.39963725  0.79834921  1
  Hf  Hf19  1  0.59865051  0.79657110  0.40211677  1
  Hf  Hf20  1  0.19228938  0.40129927  0.60017924  1
  Hf  Hf21  1  0.59894640  0.59864275  0.39735595  1
  Hf  Hf22  1  0.49785383  0.30834880  0.30508764  1
  Hf  Hf23  1  0.49053327  0.70068218  0.49906074  1
  Hf  Hf24  1  0.10370629  0.89480635  0.09151865  1
  Hf  Hf25  1  0.10729981  0.69879725  0.09424274  1
  Hf  Hf26  1  0.70192354  0.70365659  0.29603394  1
  Hf  Hf27  1  0.09075316  0.29736766  0.71087330  1
  Hf  Hf28  1  0.40338898  0.19542871  0.59832525  1
  Hf  Hf29  1  0.70528961  0.30330455  0.30129902  1
  Hf  Hf30  1  0.58977818  0.60878022  0.00617117  1
  Hf  Hf31  1  0.90743752  0.10066146  0.50530740  1
  Hf  Hf32  1  0.01640921  0.61207767  0.39931834  1
  Hf  Hf33  1  0.00108804  0.39724116  0.00027492  1
  Hf  Hf34  1  0.00243573  -0.00313767  0.40428711  1
  Hf  Hf35  1  0.30355158  0.30755601  0.90270367  1
  Hf  Hf36  1  0.80812046  0.00189472  0.20596230  1
  Hf  Hf37  1  0.90108065  0.88777054  0.31502598  1
  Hf  Hf38  1  0.70129973  0.10045380  0.30410781  1
  Hf  Hf39  1  -0.00051600  0.20158221  0.00052282  1
  Hf  Hf40  1  0.11381231  0.49338021  0.09916676  1
  Hf  Hf41  1  0.11150037  0.49639503  0.30573796  1
  Hf  Hf42  1  0.49617868  0.30487183  0.09316297  1
  Hf  Hf43  1  0.09282895  0.08775810  0.69544750  1
  Hf  Hf44  1  0.70508665  0.69906887  0.10247992  1
  Hf  Hf45  1  0.30315884  0.50298881  0.09532306  1
  Hf  Hf46  1  0.80332004  0.39529444  -0.00106156  1
  Hf  Hf47  1  0.60241088  0.01735966  0.79491673  1
  Hf  Hf48  1  0.79241768  0.59550179  0.40743020  1
  Hf  Hf49  1  0.90512436  0.69463831  0.70616013  1
  Zr  Zr50  1  0.49271913  0.49385633  0.91455539  1
  Zr  Zr51  1  0.50517968  0.10031960  0.09763047  1
  Zr  Zr52  1  0.00057881  0.00065761  0.20973647  1
  Zr  Zr53  1  0.89136403  0.28202275  0.88906521  1
  Zr  Zr54  1  0.91155459  0.90309972  0.08828124  1
  Zr  Zr55  1  0.59842799  0.80332364  -0.00436172  1
  Zr  Zr56  1  0.40368850  0.00706931  0.21317648  1
  Zr  Zr57  1  0.60593133  0.00430832  -0.01885270  1
  Zr  Zr58  1  0.79847011  0.81098692  -0.00811417  1
  Zr  Zr59  1  0.39134352  0.40321227  0.20960528  1
  Zr  Zr60  1  0.90220955  0.10329097  0.70791667  1
  Zr  Zr61  1  0.39185701  0.19107490  0.38126563  1
  Zr  Zr62  1  0.61168694  0.60023789  0.58665234  1
  Zr  Zr63  1  0.78755429  0.19070267  0.59209121  1
  Zr  Zr64  1  0.70033447  0.30206779  0.49201497  1
  Zr  Zr65  1  0.81092758  0.59344579  0.00210959  1
  Zr  Zr66  1  0.89764426  0.30199353  0.69816565  1
  Zr  Zr67  1  0.38083427  0.81047067  0.59308437  1
  Zr  Zr68  1  0.39252323  0.80049807  0.79695953  1
  Zr  Zr69  1  0.00723675  0.59831854  0.19906575  1
  Zr  Zr70  1  0.30068886  0.88718032  0.29928235  1
  Zr  Zr71  1  0.19672886  0.20156095  0.00127009  1
  Zr  Zr72  1  0.19422040  0.59700032  0.79637464  1
  Zr  Zr73  1  0.28991777  0.69455454  0.68724927  1
  Zr  Zr74  1  0.69714436  0.50014126  0.90586143  1
  Zr  Zr75  1  0.19255363  0.20337013  0.59338150  1
  Zr  Zr76  1  0.70072468  0.50716790  0.70573720  1
  Zr  Zr77  1  0.69618443  0.90368592  0.50242904  1
  Zr  Zr78  1  0.89784331  0.70059453  0.30599233  1
  Zr  Zr79  1  0.39441668  0.60507178  0.80701709  1
  Zr  Zr80  1  0.30031874  0.30560408  0.09592406  1
  Zr  Zr81  1  0.70283893  0.70116419  0.88869805  1
  Zr  Zr82  1  0.40236537  0.00361253  0.79270107  1
  Zr  Zr83  1  0.20338018  -0.00332070  0.20340489  1
  Zr  Zr84  1  0.90895796  0.50496410  0.49993292  1
  Zr  Zr85  1  0.59107535  0.79898922  0.20043348  1
  Zr  Zr86  1  0.90685449  0.30301342  0.30369840  1
  Zr  Zr87  1  0.59843709  0.19562349  0.40824271  1
  Zr  Zr88  1  0.69447661  0.29599236  0.09036773  1
  Zr  Zr89  1  0.50411986  0.70254252  0.69685178  1
  Zr  Zr90  1  0.20228743  0.19693882  0.80229050  1
  Zr  Zr91  1  0.29149191  0.09171091  0.69786936  1
  Zr  Zr92  1  0.09192100  0.89433052  0.90150628  1
  Zr  Zr93  1  0.10160793  0.89431506  0.50439961  1
  Zr  Zr94  1  0.80336195  0.58970971  0.19988842  1
  Zr  Zr95  1  0.70973197  0.13590308  0.89878308  1
  Zr  Zr96  1  0.00631487  0.79178579  0.20455918  1
  Zr  Zr97  1  0.09383361  0.10070034  0.10600033  1
  Zr  Zr98  1  0.90088447  0.30346488  0.49016483  1
  Zr  Zr99  1  0.79633811  0.79490708  0.60318181  1
  Ta  Ta100  1  0.39280567  -0.00679398  0.40289287  1
  Ta  Ta101  1  0.69682594  0.29371565  0.70653293  1
  Ta  Ta102  1  0.70329854  0.90570618  0.70364928  1
  Ta  Ta103  1  0.49455103  0.50541278  0.29837569  1
  Ta  Ta104  1  0.09563036  0.70045151  0.89582375  1
  Ta  Ta105  1  0.20291645  0.60350357  -0.00805810  1
  Ta  Ta106  1  0.90300985  0.90558432  0.70328765  1
  Ta  Ta107  1  0.90718164  0.70125686  0.50191423  1
  Ta  Ta108  1  0.29617186  0.49599328  0.90630106  1
  Ta  Ta109  1  0.59890370  0.19405801  0.60546925  1
  Ta  Ta110  1  0.38730186  0.59873632  0.39239260  1
  Ta  Ta111  1  0.49436291  0.49960571  0.10134243  1
  Ta  Ta112  1  0.00463125  0.59485527  -0.00161593  1
  Ta  Ta113  1  0.91184860  0.48900195  0.30235890  1
  Ta  Ta114  1  0.39819592  0.00264590  -0.00772825  1
  Ta  Ta115  1  0.30281067  0.70218119  0.09940537  1
  Ta  Ta116  1  0.90647538  0.50444311  0.70261050  1
  Ta  Ta117  1  0.29734366  0.49998630  0.69176880  1
  Ta  Ta118  1  0.49774151  0.90050595  0.49889108  1
  Ta  Ta119  1  0.58970013  0.59951928  0.19756672  1
  Ta  Ta120  1  0.10052719  0.49844982  0.89823619  1
  Ta  Ta121  1  0.80653504  0.00841704  -0.01292441  1
  Ta  Ta122  1  0.80680674  0.19999772  0.20265782  1
  Ta  Ta123  1  0.69095306  0.49376651  0.10111747  1
  Ta  Ta124  1  0.90605269  0.29562364  0.11057769  1
  Ta  Ta125  1  0.09907471  0.90123466  0.70467231  1
  Ta  Ta126  1  0.10239039  0.88913137  0.30868603  1
  Ta  Ta127  1  0.50423628  0.29720329  0.69856327  1
  Ta  Ta128  1  0.10161593  0.10536623  0.31023668  1
  Ta  Ta129  1  0.60386682  0.00969964  0.60137532  1
  Ta  Ta130  1  0.59676195  0.39626865  0.59582208  1
  Ta  Ta131  1  0.40393561  0.19394493  -0.01075172  1
  Ta  Ta132  1  0.39564704  -0.00399107  0.59560089  1
  Ta  Ta133  1  0.90137810  0.10441751  0.09829161  1
  Ta  Ta134  1  0.09938309  0.30676442  0.89760786  1
  Ta  Ta135  1  0.29277487  0.09411104  0.49567453  1
  Ta  Ta136  1  0.00727587  0.40421790  0.59845493  1
  Ta  Ta137  1  0.19728949  0.79742630  0.79448758  1
  Ta  Ta138  1  0.10752221  0.50124991  0.49589496  1
  Ta  Ta139  1  0.10278033  0.09456462  0.50263643  1
  Ta  Ta140  1  0.29148721  0.50373215  0.49717890  1
  Ta  Ta141  1  0.19736541  0.78615282  0.40389924  1
  Ta  Ta142  1  0.39360307  0.40940157  0.39994559  1
  Ta  Ta143  1  0.20494286  0.00054383  -0.00099984  1
  Ta  Ta144  1  0.48663956  0.69614556  0.29697973  1
  Ta  Ta145  1  0.20288745  -0.00266224  0.39823221  1
  Ta  Ta146  1  0.90821766  0.48849021  0.10794823  1
  Ta  Ta147  1  0.51032902  0.29371140  0.90382091  1
  Ta  Ta148  1  0.41172816  0.19429897  0.80016578  1
  Ta  Ta149  1  0.49630672  0.90200859  0.89754366  1
  Ti  Ti150  1  0.39963668  0.79108950  0.19483389  1
  Ti  Ti151  1  0.30407135  0.89364408  0.09340170  1
  Ti  Ti152  1  0.80117874  0.40067278  0.19844486  1
  Ti  Ti153  1  0.48984893  0.71423875  0.90503218  1
  Ti  Ti154  1  0.79694804  0.60305744  0.59522281  1
  Ti  Ti155  1  0.49712538  0.30381515  0.49917116  1
  Ti  Ti156  1  -0.00034207  0.40713162  0.79859208  1
  Ti  Ti157  1  0.90614347  0.70139091  0.09411087  1
  Ti  Ti158  1  0.90697660  0.90066519  0.89710361  1
  Ti  Ti159  1  0.69933606  0.90051926  0.29833404  1
  Ti  Ti160  1  0.59604864  -0.00212728  0.39617346  1
  Ti  Ti161  1  0.21416023  0.60573922  0.21266229  1
  Ti  Ti162  1  0.20280423  0.79045090  0.20486775  1
  Ti  Ti163  1  0.60490630  0.80955196  0.80354184  1
  Ti  Ti164  1  0.40029583  0.40092236  0.59332301  1
  Ti  Ti165  1  0.00534215  0.20750377  0.59422764  1
  Ti  Ti166  1  0.59820282  0.41167179  0.40594815  1
  Ti  Ti167  1  0.39253087  0.59543340  0.59135202  1
  Ti  Ti168  1  0.79705084  0.41351948  0.39851820  1
  Ti  Ti169  1  0.39597519  0.61419268  0.00094287  1
  Ti  Ti170  1  0.29796530  0.09472244  0.89693401  1
  Ti  Ti171  1  0.79563415  0.00217753  0.60462547  1
  Ti  Ti172  1  0.79606757  0.00445198  0.80607482  1
  Ti  Ti173  1  0.20791863  -0.01650136  0.59692888  1
  Ti  Ti174  1  0.28572669  0.69173837  0.49999539  1
  Ti  Ti175  1  0.01138049  0.20341330  0.40710104  1
  Ti  Ti176  1  0.60816114  0.79763176  0.59644215  1
  Ti  Ti177  1  0.01446407  0.59597711  0.60489985  1
  Ti  Ti178  1  0.79519197  0.79560791  0.41322817  1
  Ti  Ti179  1  0.59035774  0.60469450  0.80644328  1
  Ti  Ti180  1  0.80533131  0.80466797  0.19603486  1
  Ti  Ti181  1  0.39082875  0.79594595  0.40265493  1
  Ti  Ti182  1  0.01571529  0.38795207  0.20046668  1
  Ti  Ti183  1  0.90788125  0.50336988  0.89344193  1
  Ti  Ti184  1  0.80551286  0.59663254  0.80115426  1
  Ti  Ti185  1  0.20872352  0.79248818  -0.00730662  1
  Ti  Ti186  1  0.90771327  0.11497785  0.30412729  1
  Ti  Ti187  1  0.69974036  0.70144198  0.70632825  1
  Ti  Ti188  1  0.10597079  0.30188252  0.31723715  1
  Ti  Ti189  1  0.90255453  0.89730186  0.50855980  1
  Ti  Ti190  1  0.59636755  0.40516586  0.19898555  1
  Ti  Ti191  1  0.79783248  0.39918063  0.80211642  1
  Ti  Ti192  1  0.20421984  0.39303939  0.20974380  1
  Ti  Ti193  1  0.49749055  0.89668662  0.30506486  1
  Ti  Ti194  1  -0.00825804  -0.00202114  0.80429449  1
  Ti  Ti195  1  0.80074108  0.81226075  0.79898754  1
  Ti  Ti196  1  0.19784516  0.40629818  0.79721718  1
  Ti  Ti197  1  0.49286635  0.49985787  0.49664956  1
  Ti  Ti198  1  0.69491542  0.49632278  0.29324871  1
  Ti  Ti199  1  0.09727015  0.69891516  0.70232420  1
  Mo  Mo200  1  0.29388804  0.09671678  0.30372696  1
  Mo  Mo201  1  0.00408197  0.79652814  0.41015245  1
  Mo  Mo202  1  0.59865015  -0.00429427  0.21829335  1
  Mo  Mo203  1  0.20428696  0.39976916  0.39980344  1
  Mo  Mo204  1  0.19170087  0.59608563  0.59750727  1
  Mo  Mo205  1  0.49706645  0.10439142  0.89737407  1
  Mo  Mo206  1  0.79652067  0.19986724  0.78398610  1
  Mo  Mo207  1  0.11353976  0.70196046  0.30133812  1
  Mo  Mo208  1  0.09586459  0.30394965  0.49402218  1
  Mo  Mo209  1  0.80664932  0.19399402  0.39427134  1
  Mo  Mo210  1  0.39807057  0.20073718  0.20068748  1
  Mo  Mo211  1  0.69507543  0.49643375  0.49725170  1
  Mo  Mo212  1  -0.00282820  -0.00669536  0.60227362  1
  Mo  Mo213  1  0.00333846  0.79133034  -0.00458917  1
  Mo  Mo214  1  0.70191142  0.09957370  0.70044005  1
  Mo  Mo215  1  0.09988725  0.30409781  0.10377510  1
  Mo  Mo216  1  0.59815335  0.20526294  0.79571130  1
  Mo  Mo217  1  0.29756085  0.50307046  0.30245644  1
  Mo  Mo218  1  0.29562398  0.89851816  0.49479991  1
  Mo  Mo219  1  0.89998185  0.09550720  0.90084975  1
  Mo  Mo220  1  0.59819688  0.40136216  0.00358110  1
  Mo  Mo221  1  0.69704636  0.09498406  0.50033343  1
  Mo  Mo222  1  0.00205642  0.59447779  0.80125046  1
  Mo  Mo223  1  0.09501115  0.49662204  0.70046327  1
  Mo  Mo224  1  0.20609311  0.60203260  0.40079094  1
  Mo  Mo225  1  0.69936115  0.30564518  0.89625954  1
  Mo  Mo226  1  0.30271702  0.69985967  0.29756130  1
  Mo  Mo227  1  0.39505152  0.80463617  0.00122142  1
  Mo  Mo228  1  0.00519589  0.20492327  0.20746981  1
  Mo  Mo229  1  0.29649608  0.30506153  0.30425480  1
  Mo  Mo230  1  0.28416778  0.89979763  0.70004753  1
  Mo  Mo231  1  0.19273170  0.79413616  0.60061402  1
  Mo  Mo232  1  0.50059453  0.10355476  0.69351231  1
  Mo  Mo233  1  0.00003794  0.19872135  0.80283293  1
  Mo  Mo234  1  0.48712285  0.69772738  0.10355945  1
  Mo  Mo235  1  -0.00564846  0.00260140  -0.00427809  1
  Mo  Mo236  1  0.01132425  0.40367070  0.40330586  1
  Mo  Mo237  1  0.19645346  -0.00853170  0.80060901  1
  Mo  Mo238  1  0.70415608  0.90469599  0.88553243  1
  Mo  Mo239  1  0.19483067  0.19435269  0.40097282  1
  Mo  Mo240  1  0.00187468  0.80333962  0.79443008  1
  Mo  Mo241  1  0.70564442  0.70036050  0.49712998  1
  Mo  Mo242  1  0.59424272  0.20309403  -0.00271877  1
  Mo  Mo243  1  0.39882665  0.60294335  0.19835239  1
  Mo  Mo244  1  0.50242762  0.08769405  0.30459993  1
  Mo  Mo245  1  0.19566796  0.40536294  -0.00668853  1
  Mo  Mo246  1  0.10518586  0.69543590  0.50871223  1
  Mo  Mo247  1  0.39978098  0.39658557  -0.00185003  1
  Mo  Mo248  1  0.80922103  0.20200856  0.01581033  1
  Mo  Mo249  1  0.29376635  0.70053729  0.90460118  1
