# generated using pymatgen
data_HfZrTaTiMo
_symmetry_space_group_name_H-M   'P 1'
_cell_length_a   16.88255376
_cell_length_b   16.88532981
_cell_length_c   16.88901063
_cell_angle_alpha   89.98544091
_cell_angle_beta   89.91892167
_cell_angle_gamma   90.02546869
_symmetry_Int_Tables_number   1
_chemical_formula_structural   HfZrTaTiMo
_chemical_formula_sum   'Hf50 Zr50 Ta50 Ti50 Mo50'
_cell_volume   4814.50238631
_cell_formula_units_Z   50
loop_
 _symmetry_equiv_pos_site_id
 _symmetry_equiv_pos_as_xyz
  1  'x, y, z'
loop_
 _atom_site_type_symbol
 _atom_site_label
 _atom_site_symmetry_multiplicity
 _atom_site_fract_x
 _atom_site_fract_y
 _atom_site_fract_z
 _atom_site_occupancy
  Hf  Hf0  1  0.49463522  0.48790754  0.69280360  1
  Hf  Hf1  1  0.80381304  0.19091230  0.19340584  1
  Hf  Hf2  1  0.91126567  0.30188742  0.89164554  1
  Hf  Hf3  1  0.00838481  0.60829303  0.79797934  1
  Hf  Hf4  1  -0.00156339  0.20972854  0.40625151  1
  Hf  Hf5  1  0.79184050  0.59190131  0.01251761  1
  Hf  Hf6  1  0.30423431  0.90683095  0.89869177  1
  Hf  Hf7  1  0.20361327  -0.00396782  0.20160299  1
  Hf  Hf8  1  0.19931721  0.20329883  0.19175242  1
  Hf  Hf9  1  0.49992976  0.30476786  0.09480988  1
  Hf  Hf10  1  0.09516370  0.90044597  0.90003122  1
  Hf  Hf11  1  0.09551756  0.10423745  0.89457871  1
  Hf  Hf12  1  -0.00219329  0.00304747  0.19616273  1
  Hf  Hf13  1  0.10534933  0.70128905  0.50002637  1
  Hf  Hf14  1  0.69819794  0.09162906  0.09471559  1
  Hf  Hf15  1  0.60338191  0.18676974  0.39724051  1
  Hf  Hf16  1  0.00289586  0.39902084  0.40398358  1
  Hf  Hf17  1  0.89722124  0.49341644  0.49672355  1
  Hf  Hf18  1  0.49704128  0.89736043  0.10541572  1
  Hf  Hf19  1  0.30163434  0.09482438  0.30601366  1
  Hf  Hf20  1  0.09640806  0.89367315  0.69537733  1
  Hf  Hf21  1  0.39602398  0.58933005  0.80719202  1
  Hf  Hf22  1  0.20280105  0.59345290  0.79760983  1
  Hf  Hf23  1  0.80120870  0.38740352  0.60604681  1
  Hf  Hf24  1  0.79456626  0.79946044  0.00739132  1
  Hf  Hf25  1  0.12700748  0.12300556  0.49741421  1
  Hf  Hf26  1  0.30747382  0.09190046  0.09347126  1
  Hf  Hf27  1  0.30324542  0.70247218  0.69549908  1
  Hf  Hf28  1  0.49764256  0.30312715  0.90047846  1
  Hf  Hf29  1  0.69716451  0.70716283  0.50553659  1
  Hf  Hf30  1  0.30126652  0.51984123  0.31292654  1
  Hf  Hf31  1  0.30692922  0.69239752  0.48740589  1
  Hf  Hf32  1  0.70098562  0.89976993  0.90338108  1
  Hf  Hf33  1  0.90203932  0.70056630  0.89791083  1
  Hf  Hf34  1  0.40433881  0.41264071  0.20743931  1
  Hf  Hf35  1  0.09894113  0.89789258  0.09506239  1
  Hf  Hf36  1  0.70220953  0.10050064  0.69545410  1
  Hf  Hf37  1  0.60051925  0.39249098  0.79637221  1
  Hf  Hf38  1  0.01061726  0.01102954  0.59709207  1
  Hf  Hf39  1  0.19913291  0.79767315  0.80195013  1
  Hf  Hf40  1  0.39545901  0.79029634  0.00233200  1
  Hf  Hf41  1  0.20438970  0.58817139  0.60157681  1
  Hf  Hf42  1  0.01052103  0.59920677  0.20425090  1
  Hf  Hf43  1  0.68895365  0.70488472  0.29675977  1
  Hf  Hf44  1  0.10197524  0.10726312  0.30121350  1
  Hf  Hf45  1  0.00516896  0.00476804  0.40626151  1
  Hf  Hf46  1  0.79358927  0.59961842  0.39438894  1
  Hf  Hf47  1  0.90603337  0.90597872  0.90786461  1
  Hf  Hf48  1  0.01495093  0.59718529  0.00311558  1
  Hf  Hf49  1  0.90030947  0.31524944  0.28634923  1
  Zr  Zr50  1  0.00694995  0.78691433  0.00307917  1
  Zr  Zr51  1  0.50208036  0.30113870  0.50611697  1
  Zr  Zr52  1  0.58370227  0.81374261  0.40773490  1
  Zr  Zr53  1  0.48933915  0.69576574  0.30570341  1
  Zr  Zr54  1  0.90697057  0.48416639  0.70997478  1
  Zr  Zr55  1  0.19879804  0.40739121  0.00116816  1
  Zr  Zr56  1  0.59467711  -0.00338768  0.79283769  1
  Zr  Zr57  1  0.40503391  0.19236939  0.40097249  1
  Zr  Zr58  1  0.78714178  0.00815307  0.39128802  1
  Zr  Zr59  1  0.29754085  0.10117502  0.89450093  1
  Zr  Zr60  1  0.89029497  0.69680233  0.11554839  1
  Zr  Zr61  1  0.70335990  0.70072997  0.70003340  1
  Zr  Zr62  1  0.90066889  0.89946307  0.29711111  1
  Zr  Zr63  1  0.28570556  0.27900488  0.50348042  1
  Zr  Zr64  1  0.89526077  0.90212877  0.50849125  1
  Zr  Zr65  1  0.81002451  0.60481583  0.61097377  1
  Zr  Zr66  1  0.19994048  0.41486034  0.19890429  1
  Zr  Zr67  1  0.58400574  0.80741698  0.60178279  1
  Zr  Zr68  1  0.00420190  0.59478240  0.60105696  1
  Zr  Zr69  1  0.70617369  0.30468446  0.29847260  1
  Zr  Zr70  1  0.69545017  0.30187799  0.09779417  1
  Zr  Zr71  1  0.40368229  0.19830056  0.20213984  1
  Zr  Zr72  1  0.90270504  0.49479893  0.89547617  1
  Zr  Zr73  1  0.60239492  0.41071043  0.38990295  1
  Zr  Zr74  1  0.80359380  0.20480032  0.40215365  1
  Zr  Zr75  1  0.58701440  0.80080936  0.79556382  1
  Zr  Zr76  1  0.20588117  0.60504560  -0.00423370  1
  Zr  Zr77  1  0.19711350  0.39371604  0.60198616  1
  Zr  Zr78  1  0.79949666  0.39636539  0.00121032  1
  Zr  Zr79  1  -0.00465345  0.20316941  0.00581409  1
  Zr  Zr80  1  0.59185706  0.59721709  0.80230946  1
  Zr  Zr81  1  0.79614717  0.80442041  0.39610944  1
  Zr  Zr82  1  0.49714361  0.50375851  0.50201286  1
  Zr  Zr83  1  0.91008902  0.48933365  0.11133249  1
  Zr  Zr84  1  0.71258303  0.89924677  0.68740118  1
  Zr  Zr85  1  0.30059335  0.10707964  0.70157370  1
  Zr  Zr86  1  0.69753581  0.69787671  0.90163533  1
  Zr  Zr87  1  0.49648256  0.50217137  0.08642162  1
  Zr  Zr88  1  0.80606135  0.00305383  0.80156162  1
  Zr  Zr89  1  0.10576435  0.89602909  0.30241729  1
  Zr  Zr90  1  0.39269010  0.40173964  0.40704247  1
  Zr  Zr91  1  0.80049371  0.20270686  0.79924434  1
  Zr  Zr92  1  0.20743528  0.00165920  0.59904735  1
  Zr  Zr93  1  0.19398460  0.21181989  -0.00009710  1
  Zr  Zr94  1  0.40724132  0.80661782  0.59165760  1
  Zr  Zr95  1  0.30757773  0.89841978  0.10321615  1
  Zr  Zr96  1  0.49044587  0.09686811  0.89338916  1
  Zr  Zr97  1  0.69890904  0.50123132  0.50486641  1
  Zr  Zr98  1  0.49522357  0.08831801  0.09984245  1
  Zr  Zr99  1  0.59770631  0.58388709  0.20893071  1
  Ta  Ta100  1  0.50182200  0.30022249  0.29773730  1
  Ta  Ta101  1  0.30424210  0.70415076  0.29765319  1
  Ta  Ta102  1  0.19755245  0.40047556  0.40389576  1
  Ta  Ta103  1  0.89431759  0.50117964  0.29979648  1
  Ta  Ta104  1  0.59722665  0.19622709  -0.00178098  1
  Ta  Ta105  1  0.00321099  0.79516787  0.20455323  1
  Ta  Ta106  1  0.20737577  0.80182924  0.39786651  1
  Ta  Ta107  1  0.49647696  0.70027067  0.10942926  1
  Ta  Ta108  1  0.79267678  -0.00393852  0.20065357  1
  Ta  Ta109  1  0.80204169  0.20542757  0.60158920  1
  Ta  Ta110  1  0.08795017  0.31272589  0.11212506  1
  Ta  Ta111  1  0.90083937  0.10176677  0.29834851  1
  Ta  Ta112  1  0.69798290  0.90993124  0.50411447  1
  Ta  Ta113  1  0.30643144  0.30741903  0.09883018  1
  Ta  Ta114  1  0.90569427  0.90212320  0.69671654  1
  Ta  Ta115  1  -0.00084151  0.60344904  0.39694500  1
  Ta  Ta116  1  0.00210801  0.79281110  0.39832621  1
  Ta  Ta117  1  0.59697953  0.40377272  0.20033617  1
  Ta  Ta118  1  0.89657247  0.10397417  0.50655424  1
  Ta  Ta119  1  0.49340288  0.10444355  0.69730275  1
  Ta  Ta120  1  0.00178687  0.00367686  0.79394992  1
  Ta  Ta121  1  0.89708340  0.90323030  0.09865402  1
  Ta  Ta122  1  0.10110741  0.70712644  0.69578736  1
  Ta  Ta123  1  0.30624427  0.90137471  0.49185632  1
  Ta  Ta124  1  0.91698681  0.29335093  0.70282755  1
  Ta  Ta125  1  0.90055564  0.70276279  0.49979003  1
  Ta  Ta126  1  0.60126010  0.19833844  0.60097009  1
  Ta  Ta127  1  0.68715108  0.70112537  0.11031384  1
  Ta  Ta128  1  0.49063886  0.29743002  0.69652252  1
  Ta  Ta129  1  0.80148313  0.19738094  -0.00236901  1
  Ta  Ta130  1  0.69845544  0.09995143  0.90537309  1
  Ta  Ta131  1  0.29666782  0.30164920  0.29865093  1
  Ta  Ta132  1  0.59794486  -0.00497516  -0.00250505  1
  Ta  Ta133  1  0.60140865  -0.00333044  0.21342590  1
  Ta  Ta134  1  0.10216267  0.49206313  0.89232891  1
  Ta  Ta135  1  0.11129490  0.69816286  0.30382374  1
  Ta  Ta136  1  0.81310423  0.79865003  0.79384759  1
  Ta  Ta137  1  0.59825891  0.19243890  0.20568164  1
  Ta  Ta138  1  0.90703683  0.10397145  0.69461909  1
  Ta  Ta139  1  0.59133166  0.00318582  0.59608180  1
  Ta  Ta140  1  0.70251783  0.29973188  0.50006926  1
  Ta  Ta141  1  0.69956799  0.49790579  0.70481902  1
  Ta  Ta142  1  0.19747708  -0.00269150  0.79162674  1
  Ta  Ta143  1  0.69457827  0.29454488  0.90240673  1
  Ta  Ta144  1  0.39655019  0.20537489  -0.00249307  1
  Ta  Ta145  1  0.29967724  0.30385371  0.89337576  1
  Ta  Ta146  1  0.10416083  0.89030296  0.49915139  1
  Ta  Ta147  1  0.10251623  0.30308063  0.29940122  1
  Ta  Ta148  1  0.49195166  0.90152288  0.90212540  1
  Ta  Ta149  1  0.69489930  0.49256115  0.90137883  1
  Ti  Ti150  1  0.89820012  0.69761886  0.29811624  1
  Ti  Ti151  1  0.49666520  0.70092823  0.90327598  1
  Ti  Ti152  1  0.20118587  0.39054666  0.79830974  1
  Ti  Ti153  1  0.69290211  0.89840799  0.10492131  1
  Ti  Ti154  1  0.00881127  0.38729445  0.59475885  1
  Ti  Ti155  1  0.79147262  0.80696791  0.20247471  1
  Ti  Ti156  1  0.20357268  0.78909542  -0.00233416  1
  Ti  Ti157  1  0.90348682  0.30893782  0.10530947  1
  Ti  Ti158  1  0.30917541  0.48016554  0.70146485  1
  Ti  Ti159  1  0.70346386  0.09745152  0.50795885  1
  Ti  Ti160  1  0.10486783  0.50237024  0.49312850  1
  Ti  Ti161  1  0.48978109  0.69046580  0.69591986  1
  Ti  Ti162  1  0.39746372  0.19763465  0.59965840  1
  Ti  Ti163  1  0.39326208  0.59101356  0.59612177  1
  Ti  Ti164  1  0.59494118  0.79826280  0.00359244  1
  Ti  Ti165  1  0.19728145  0.00138446  -0.00272818  1
  Ti  Ti166  1  0.49571496  0.09512361  0.50365887  1
  Ti  Ti167  1  0.48755427  0.89532752  0.29398500  1
  Ti  Ti168  1  0.59667778  0.00231130  0.39486296  1
  Ti  Ti169  1  -0.00603954  0.79442035  0.60029895  1
  Ti  Ti170  1  0.01178891  0.40018197  -0.00250693  1
  Ti  Ti171  1  0.20394251  0.60342509  0.19595239  1
  Ti  Ti172  1  0.09719821  0.48733571  0.70567315  1
  Ti  Ti173  1  0.10304587  0.50496105  0.30600721  1
  Ti  Ti174  1  0.49982979  0.49192641  0.90299656  1
  Ti  Ti175  1  0.09603817  0.09741336  0.09357438  1
  Ti  Ti176  1  0.60891693  0.38946144  0.60673347  1
  Ti  Ti177  1  0.20975513  0.79897232  0.20354496  1
  Ti  Ti178  1  0.39888257  -0.00257068  0.60155165  1
  Ti  Ti179  1  0.77926045  0.42533440  0.19872614  1
  Ti  Ti180  1  0.39531149  0.21089016  0.79715949  1
  Ti  Ti181  1  0.38777134  0.40586213  -0.00920072  1
  Ti  Ti182  1  -0.00318027  0.19888376  0.19661310  1
  Ti  Ti183  1  0.21030780  0.80552140  0.59708715  1
  Ti  Ti184  1  0.20598059  -0.00434524  0.40472625  1
  Ti  Ti185  1  0.80190373  0.59946120  0.79959084  1
  Ti  Ti186  1  0.39373642  0.60320479  -0.00358496  1
  Ti  Ti187  1  0.30399470  0.70190654  0.89312450  1
  Ti  Ti188  1  0.90318668  0.09624365  0.90376957  1
  Ti  Ti189  1  0.30635981  0.51064679  0.10061399  1
  Ti  Ti190  1  0.78999715  0.39012709  0.79538424  1
  Ti  Ti191  1  0.89590430  0.08554654  0.08888808  1
  Ti  Ti192  1  0.10094898  0.11529368  0.70583538  1
  Ti  Ti193  1  0.59953100  0.59986342  0.00072777  1
  Ti  Ti194  1  0.59930981  0.20152615  0.79462778  1
  Ti  Ti195  1  0.40583183  -0.00459196  0.39945365  1
  Ti  Ti196  1  0.40215483  0.80837118  0.79062477  1
  Ti  Ti197  1  0.11217911  0.70361864  0.10986217  1
  Ti  Ti198  1  0.59622623  0.60254947  0.60213021  1
  Ti  Ti199  1  0.00757071  0.20792596  0.59599007  1
  Mo  Mo200  1  0.69000337  0.90006340  0.29722055  1
  Mo  Mo201  1  0.19848989  0.20190314  0.61760005  1
  Mo  Mo202  1  0.90753196  0.71148609  0.70041674  1
  Mo  Mo203  1  0.69083585  0.50262690  0.09532321  1
  Mo  Mo204  1  0.80321372  0.40326593  0.40211889  1
  Mo  Mo205  1  0.20283890  0.20761052  0.38316165  1
  Mo  Mo206  1  0.50233167  0.09198941  0.30135623  1
  Mo  Mo207  1  0.69201905  0.29404551  0.69907951  1
  Mo  Mo208  1  0.30637441  0.89715929  0.30550269  1
  Mo  Mo209  1  0.59552365  0.80490147  0.19816844  1
  Mo  Mo210  1  0.10339439  0.30187230  0.89427122  1
  Mo  Mo211  1  0.70012438  0.09785075  0.29235672  1
  Mo  Mo212  1  0.80186895  0.01011443  0.59709203  1
  Mo  Mo213  1  0.39800881  0.39701665  0.80114696  1
  Mo  Mo214  1  0.30302831  0.69693220  0.10958504  1
  Mo  Mo215  1  0.79336601  0.59944240  0.20511509  1
  Mo  Mo216  1  0.39697747  0.79695097  0.20168760  1
  Mo  Mo217  1  0.19488281  0.60134019  0.40070902  1
  Mo  Mo218  1  0.40152305  0.60090402  0.40235448  1
  Mo  Mo219  1  0.29987698  0.90022147  0.69854170  1
  Mo  Mo220  1  0.60102014  0.39926436  -0.00605404  1
  Mo  Mo221  1  0.01806952  0.39054514  0.79781515  1
  Mo  Mo222  1  0.79593393  -0.00053334  0.00482958  1
  Mo  Mo223  1  0.00007153  0.80140141  0.79396955  1
  Mo  Mo224  1  0.49941905  0.68375045  0.50023755  1
  Mo  Mo225  1  0.59621693  0.60460049  0.40710020  1
  Mo  Mo226  1  0.39636645  0.80543875  0.39832091  1
  Mo  Mo227  1  -0.00298249  0.00334097  0.00058326  1
  Mo  Mo228  1  0.19623603  0.20918366  0.80070329  1
  Mo  Mo229  1  0.29636698  0.49996657  0.50277482  1
  Mo  Mo230  1  0.39616692  0.60384865  0.19588283  1
  Mo  Mo231  1  0.40355840  -0.00211328  -0.00993357  1
  Mo  Mo232  1  0.30733747  0.09248680  0.49982903  1
  Mo  Mo233  1  0.10675095  0.69814397  0.89291792  1
  Mo  Mo234  1  0.00046202  0.19504736  0.79736832  1
  Mo  Mo235  1  0.10221041  0.29363670  0.70229505  1
  Mo  Mo236  1  0.30251918  0.29796607  0.70365655  1
  Mo  Mo237  1  0.90105174  0.29869838  0.51064797  1
  Mo  Mo238  1  0.40332752  -0.00464148  0.21583962  1
  Mo  Mo239  1  0.48938086  0.91506846  0.69930243  1
  Mo  Mo240  1  0.80809312  0.80431886  0.59897224  1
  Mo  Mo241  1  0.49712250  0.92129991  0.49717354  1
  Mo  Mo242  1  0.70119197  0.50442212  0.30237139  1
  Mo  Mo243  1  0.10386852  0.50330056  0.09921213  1
  Mo  Mo244  1  0.30042307  0.49391429  0.89540931  1
  Mo  Mo245  1  0.49642095  0.49981844  0.30415811  1
  Mo  Mo246  1  0.09991109  0.30248854  0.49941032  1
  Mo  Mo247  1  0.39556359  -0.00689794  0.78986521  1
  Mo  Mo248  1  0.39172010  0.39169631  0.60406573  1
  Mo  Mo249  1  0.00787368  0.40780584  0.20912286  1
