# generated using pymatgen
data_HfZrTaTiMo
_symmetry_space_group_name_H-M   'P 1'
_cell_length_a   16.89496531
_cell_length_b   16.88111189
_cell_length_c   16.88020250
_cell_angle_alpha   89.95496556
_cell_angle_beta   89.98505657
_cell_angle_gamma   89.95394540
_symmetry_Int_Tables_number   1
_chemical_formula_structural   HfZrTaTiMo
_chemical_formula_sum   'Hf50 Zr50 Ta50 Ti50 Mo50'
_cell_volume   4814.32845002
_cell_formula_units_Z   50
loop_
 _symmetry_equiv_pos_site_id
 _symmetry_equiv_pos_as_xyz
  1  'x, y, z'
loop_
 _atom_site_type_symbol
 _atom_site_label
 _atom_site_symmetry_multiplicity
 _atom_site_fract_x
 _atom_site_fract_y
 _atom_site_fract_z
 _atom_site_occupancy
  Hf  Hf0  1  0.68485416  0.89502530  0.70705421  1
  Hf  Hf1  1  0.29397680  0.28878858  0.49790385  1
  Hf  Hf2  1  0.28828181  0.70027956  0.29623116  1
  Hf  Hf3  1  0.00295778  0.00009118  0.40043783  1
  Hf  Hf4  1  0.20060744  0.19659387  0.80043767  1
  Hf  Hf5  1  0.80686560  0.39657083  0.39866334  1
  Hf  Hf6  1  0.90805508  0.49492784  0.49938826  1
  Hf  Hf7  1  0.19648840  0.39943514  0.60715003  1
  Hf  Hf8  1  0.81572044  0.20085186  0.20019780  1
  Hf  Hf9  1  0.50506656  0.71134257  0.50888119  1
  Hf  Hf10  1  0.89794870  0.10492090  0.69696199  1
  Hf  Hf11  1  0.11325539  0.69771897  0.68952149  1
  Hf  Hf12  1  0.69528567  0.89321867  0.49065912  1
  Hf  Hf13  1  0.57640526  0.79780564  -0.00531657  1
  Hf  Hf14  1  0.90530770  0.89547880  0.29966207  1
  Hf  Hf15  1  0.59829128  0.00231435  -0.01288643  1
  Hf  Hf16  1  0.29967939  0.89913647  0.29229939  1
  Hf  Hf17  1  0.50079346  0.10601551  0.70527563  1
  Hf  Hf18  1  0.70929710  0.10614911  0.08828930  1
  Hf  Hf19  1  0.20832930  0.60031791  0.80818878  1
  Hf  Hf20  1  0.20520084  0.00096285  0.40449784  1
  Hf  Hf21  1  0.29689202  0.49721867  0.49755839  1
  Hf  Hf22  1  0.80189915  0.60432834  0.60997178  1
  Hf  Hf23  1  0.81056590  0.79812588  0.60044483  1
  Hf  Hf24  1  0.70639922  0.10888975  0.49107421  1
  Hf  Hf25  1  0.79582853  0.00113639  0.59800838  1
  Hf  Hf26  1  0.69520811  0.70605079  0.49820623  1
  Hf  Hf27  1  0.50324759  0.70675617  0.30005306  1
  Hf  Hf28  1  0.39847096  0.60105458  0.40006409  1
  Hf  Hf29  1  0.48858776  0.10350277  0.50827506  1
  Hf  Hf30  1  0.30572050  0.70032007  0.69128291  1
  Hf  Hf31  1  0.19703724  0.00584128  0.18973903  1
  Hf  Hf32  1  0.49938851  0.70559193  0.69985694  1
  Hf  Hf33  1  0.49009091  0.30146705  0.50245026  1
  Hf  Hf34  1  0.60151329  0.00591319  0.59716496  1
  Hf  Hf35  1  0.09756009  0.50285287  0.90364717  1
  Hf  Hf36  1  0.49916178  0.90647164  0.29747532  1
  Hf  Hf37  1  0.10349916  0.89373877  0.29622830  1
  Hf  Hf38  1  0.89930017  0.30507669  0.69682709  1
  Hf  Hf39  1  0.49765466  0.90294028  0.69961816  1
  Hf  Hf40  1  0.00413783  0.79272913  0.79396591  1
  Hf  Hf41  1  -0.00085931  0.19791847  0.40002064  1
  Hf  Hf42  1  0.48419517  0.30459119  0.30193956  1
  Hf  Hf43  1  0.70142393  0.69915014  0.89846201  1
  Hf  Hf44  1  0.00386946  -0.01040794  0.01527771  1
  Hf  Hf45  1  0.20685519  0.80198767  0.80086370  1
  Hf  Hf46  1  0.59296991  0.59701314  0.00273455  1
  Hf  Hf47  1  0.60319569  0.59510242  0.39887630  1
  Hf  Hf48  1  0.79103481  0.20788878  0.80257513  1
  Hf  Hf49  1  0.20627843  0.00412652  0.79030024  1
  Zr  Zr50  1  0.61013844  0.39287780  0.79501157  1
  Zr  Zr51  1  0.90231809  0.30180534  0.50178840  1
  Zr  Zr52  1  0.39800313  0.79605840  -0.00143407  1
  Zr  Zr53  1  0.69751809  0.88865954  0.89931621  1
  Zr  Zr54  1  0.50154663  0.09400696  0.10711486  1
  Zr  Zr55  1  0.71270876  0.29760121  0.29599212  1
  Zr  Zr56  1  0.48867540  0.49496869  0.29731155  1
  Zr  Zr57  1  0.28703623  0.69578823  0.10869438  1
  Zr  Zr58  1  0.90701861  0.90714824  0.69555220  1
  Zr  Zr59  1  0.49576667  0.29713485  0.90061069  1
  Zr  Zr60  1  0.00429912  0.60387543  0.59863614  1
  Zr  Zr61  1  0.39253758  0.19304889  0.19607196  1
  Zr  Zr62  1  0.39700271  0.00919322  -0.00256719  1
  Zr  Zr63  1  0.90071845  0.50472311  0.70842543  1
  Zr  Zr64  1  0.10086476  0.90030356  0.90148921  1
  Zr  Zr65  1  0.59637690  0.80329678  0.18695960  1
  Zr  Zr66  1  0.59271749  0.19769749  0.39573404  1
  Zr  Zr67  1  0.00234331  0.39898659  0.19970108  1
  Zr  Zr68  1  0.39838439  0.80367122  0.81414972  1
  Zr  Zr69  1  0.78876711  0.00515483  0.80870678  1
  Zr  Zr70  1  0.90468986  0.50696972  0.90269666  1
  Zr  Zr71  1  0.80978793  0.80334101  0.19265983  1
  Zr  Zr72  1  0.19303127  0.39797260  0.00609479  1
  Zr  Zr73  1  0.89969081  0.30438067  0.90825244  1
  Zr  Zr74  1  0.59458178  0.20684150  0.19302716  1
  Zr  Zr75  1  0.49833835  0.49560072  0.69771039  1
  Zr  Zr76  1  0.71514103  0.50415488  0.28591185  1
  Zr  Zr77  1  0.01020344  0.39631017  0.80055945  1
  Zr  Zr78  1  0.81561467  0.78844683  0.79508068  1
  Zr  Zr79  1  0.39107872  0.80661270  0.40578772  1
  Zr  Zr80  1  0.68983635  0.70426108  0.70359185  1
  Zr  Zr81  1  0.60903982  0.39427407  0.40143952  1
  Zr  Zr82  1  0.00547259  0.00417669  0.79638544  1
  Zr  Zr83  1  0.19456685  0.39922236  0.19735983  1
  Zr  Zr84  1  0.18832829  0.40316448  0.39670076  1
  Zr  Zr85  1  0.49015981  0.49287062  0.90129247  1
  Zr  Zr86  1  0.59775877  0.40004201  0.18814082  1
  Zr  Zr87  1  0.10459873  0.09665134  0.91003320  1
  Zr  Zr88  1  0.29033718  0.69831781  0.50848027  1
  Zr  Zr89  1  0.70715671  0.49122485  0.51348982  1
  Zr  Zr90  1  0.38563480  0.39674716  0.79431786  1
  Zr  Zr91  1  0.49778059  0.48946323  0.50270044  1
  Zr  Zr92  1  0.89525985  0.10159318  0.91060520  1
  Zr  Zr93  1  0.19168979  0.79582601  0.00235393  1
  Zr  Zr94  1  0.60306878  0.39999714  0.00435174  1
  Zr  Zr95  1  0.20704187  0.19277136  0.01083339  1
  Zr  Zr96  1  0.70503380  0.09777553  0.29538970  1
  Zr  Zr97  1  0.70223851  0.70493155  0.30017764  1
  Zr  Zr98  1  0.70702091  0.69961465  0.09489522  1
  Zr  Zr99  1  0.31112031  0.09892276  0.68743652  1
  Ta  Ta100  1  0.90133435  0.50584122  0.10529767  1
  Ta  Ta101  1  0.00044050  0.20393013  0.00656355  1
  Ta  Ta102  1  0.60573903  0.21267748  0.60194121  1
  Ta  Ta103  1  0.29632664  0.30065506  0.90186379  1
  Ta  Ta104  1  0.39786724  0.19772244  -0.00089950  1
  Ta  Ta105  1  0.81100202  0.60360855  0.40003754  1
  Ta  Ta106  1  0.39994061  0.79920505  0.19009917  1
  Ta  Ta107  1  0.09995733  0.10450154  0.29691599  1
  Ta  Ta108  1  0.90633641  0.50461403  0.29674278  1
  Ta  Ta109  1  0.29666752  0.50177309  0.29444254  1
  Ta  Ta110  1  0.10564295  0.10199009  0.50162809  1
  Ta  Ta111  1  0.20203678  0.19935230  0.20167296  1
  Ta  Ta112  1  0.60024443  0.59509355  0.80207017  1
  Ta  Ta113  1  0.59545766  0.00317887  0.39592332  1
  Ta  Ta114  1  0.80545602  -0.00080068  0.39526980  1
  Ta  Ta115  1  0.80582499  -0.00444133  0.19427925  1
  Ta  Ta116  1  0.71745185  0.30052969  0.09419852  1
  Ta  Ta117  1  0.79417603  0.20637718  0.59844364  1
  Ta  Ta118  1  0.69035667  0.10870807  0.70637593  1
  Ta  Ta119  1  0.29487807  0.90275638  0.10043992  1
  Ta  Ta120  1  0.09461742  0.52136482  0.10228636  1
  Ta  Ta121  1  0.90424403  0.10002064  0.10158616  1
  Ta  Ta122  1  0.70031715  0.90018216  0.30260501  1
  Ta  Ta123  1  0.49717747  0.90160507  0.50377203  1
  Ta  Ta124  1  0.09945502  0.29556199  0.49913171  1
  Ta  Ta125  1  0.79101882  0.40245664  0.79854036  1
  Ta  Ta126  1  0.29651658  0.50495782  0.10291125  1
  Ta  Ta127  1  0.48049135  0.49689870  0.09762224  1
  Ta  Ta128  1  0.00382598  0.79992764  0.59430519  1
  Ta  Ta129  1  0.09983530  0.28963741  0.30416458  1
  Ta  Ta130  1  0.59331323  0.59756143  0.18941492  1
  Ta  Ta131  1  0.10057376  0.90087392  0.50141723  1
  Ta  Ta132  1  0.89890562  0.89268748  0.90912853  1
  Ta  Ta133  1  0.00707253  0.79638407  0.19043702  1
  Ta  Ta134  1  -0.00185460  0.79477081  0.00703960  1
  Ta  Ta135  1  0.00691590  0.19918708  0.79930378  1
  Ta  Ta136  1  0.00596159  0.79010939  0.40164627  1
  Ta  Ta137  1  0.00556115  0.19755449  0.60247356  1
  Ta  Ta138  1  0.00424095  0.60415177  0.39706665  1
  Ta  Ta139  1  0.90661620  0.90022428  0.49628401  1
  Ta  Ta140  1  0.89912627  0.10045316  0.50002443  1
  Ta  Ta141  1  0.80383522  0.59930684  0.00046834  1
  Ta  Ta142  1  0.90528619  0.69081475  0.09909526  1
  Ta  Ta143  1  0.39146713  0.19081791  0.39480258  1
  Ta  Ta144  1  0.29418647  0.91237282  0.90776864  1
  Ta  Ta145  1  0.39092243  0.39291902  0.60430121  1
  Ta  Ta146  1  0.10411375  0.29613229  0.70027029  1
  Ta  Ta147  1  0.39259880  0.60342490  -0.00313556  1
  Ta  Ta148  1  0.60222221  0.59297428  0.60630533  1
  Ta  Ta149  1  0.29440339  0.30000585  0.30486855  1
  Ti  Ti150  1  0.09181377  0.10585311  0.10761070  1
  Ti  Ti151  1  0.10762991  0.69997543  0.50185560  1
  Ti  Ti152  1  0.90426078  0.69162791  0.90071133  1
  Ti  Ti153  1  0.20619972  0.81728207  0.59313979  1
  Ti  Ti154  1  0.10582251  0.90559989  0.68790101  1
  Ti  Ti155  1  0.39136996  0.39806776  0.19437663  1
  Ti  Ti156  1  0.29490849  0.50441159  0.69721730  1
  Ti  Ti157  1  0.10576192  0.50324877  0.70773354  1
  Ti  Ti158  1  0.10415687  0.29906046  0.90092724  1
  Ti  Ti159  1  0.60825354  -0.00190405  0.19933475  1
  Ti  Ti160  1  0.29691980  0.49127835  0.90805580  1
  Ti  Ti161  1  0.30514320  0.30323070  0.09708972  1
  Ti  Ti162  1  0.81028340  0.79731047  0.39818673  1
  Ti  Ti163  1  0.29802631  0.09842910  0.29744085  1
  Ti  Ti164  1  0.59346301  0.20171773  -0.00043827  1
  Ti  Ti165  1  0.10303697  0.69708416  0.28804616  1
  Ti  Ti166  1  0.40281250  0.00501831  0.81154709  1
  Ti  Ti167  1  0.70791997  0.50623347  0.89666583  1
  Ti  Ti168  1  0.19366072  0.19361229  0.60341544  1
  Ti  Ti169  1  0.09746866  0.50102361  0.49892297  1
  Ti  Ti170  1  0.29925577  0.09992263  0.50575820  1
  Ti  Ti171  1  0.90583894  0.09748648  0.29671111  1
  Ti  Ti172  1  0.90547694  0.70035996  0.49666558  1
  Ti  Ti173  1  0.80120386  0.40525866  0.00080200  1
  Ti  Ti174  1  0.09320058  0.28894538  0.10872327  1
  Ti  Ti175  1  0.49881346  0.29333084  0.69807201  1
  Ti  Ti176  1  0.70560364  0.89767653  0.09191900  1
  Ti  Ti177  1  0.40163002  0.59378457  0.59851065  1
  Ti  Ti178  1  0.09329873  0.50757310  0.29681270  1
  Ti  Ti179  1  0.09193483  0.69075940  0.90279101  1
  Ti  Ti180  1  0.19133841  0.59871903  0.39735326  1
  Ti  Ti181  1  0.70131553  0.29280215  0.91173694  1
  Ti  Ti182  1  0.71536068  0.50054780  0.10455562  1
  Ti  Ti183  1  0.90086715  0.30229860  0.09845246  1
  Ti  Ti184  1  0.01018027  0.39858030  0.60194704  1
  Ti  Ti185  1  0.00812206  0.00621573  0.59575757  1
  Ti  Ti186  1  0.39477993  0.19471359  0.80951619  1
  Ti  Ti187  1  0.49060492  0.90940349  0.10448594  1
  Ti  Ti188  1  0.39620670  0.60358673  0.81028577  1
  Ti  Ti189  1  0.90930467  0.30373511  0.30029985  1
  Ti  Ti190  1  0.90638846  0.69291047  0.29359977  1
  Ti  Ti191  1  0.00496264  0.40025536  0.00889913  1
  Ti  Ti192  1  0.29732918  0.29220768  0.69891219  1
  Ti  Ti193  1  0.19997069  0.60305661  -0.00059631  1
  Ti  Ti194  1  -0.00149136  -0.00451267  0.19644290  1
  Ti  Ti195  1  0.31157068  0.90652638  0.68626120  1
  Ti  Ti196  1  0.80321748  -0.00649654  0.00356822  1
  Ti  Ti197  1  0.19652062  0.80238482  0.40537044  1
  Ti  Ti198  1  0.40179745  0.60408692  0.19674545  1
  Ti  Ti199  1  0.39817896  0.00536590  0.39946106  1
  Mo  Mo200  1  0.70126480  0.50087871  0.70565636  1
  Mo  Mo201  1  0.49746922  0.91199900  0.89193312  1
  Mo  Mo202  1  -0.00075150  0.60415243  0.00306952  1
  Mo  Mo203  1  0.39901972  -0.00132620  0.59118789  1
  Mo  Mo204  1  0.91373075  0.69745693  0.69906353  1
  Mo  Mo205  1  0.50181110  0.10804637  0.89464683  1
  Mo  Mo206  1  0.81490939  0.19629576  0.39833421  1
  Mo  Mo207  1  0.80632463  0.20356846  0.00416444  1
  Mo  Mo208  1  0.49740221  0.68585368  0.89488968  1
  Mo  Mo209  1  0.19417376  0.59522804  0.20617363  1
  Mo  Mo210  1  0.81329078  0.39911253  0.19320070  1
  Mo  Mo211  1  0.19964158  -0.00246478  0.59577442  1
  Mo  Mo212  1  0.20220924  0.39633845  0.79994370  1
  Mo  Mo213  1  0.20065365  0.00014475  0.00812661  1
  Mo  Mo214  1  0.09977861  0.89385602  0.10514159  1
  Mo  Mo215  1  0.09966057  0.10378887  0.69108171  1
  Mo  Mo216  1  0.00481617  0.40355101  0.39568670  1
  Mo  Mo217  1  0.00228701  0.19899732  0.20019916  1
  Mo  Mo218  1  0.59512709  0.80482631  0.59790196  1
  Mo  Mo219  1  0.09520053  0.69612772  0.10060562  1
  Mo  Mo220  1  0.48434516  0.30468601  0.09508138  1
  Mo  Mo221  1  0.80739252  0.59998969  0.19882024  1
  Mo  Mo222  1  0.49174505  0.09051297  0.30438294  1
  Mo  Mo223  1  0.38356489  0.39554101  0.39710001  1
  Mo  Mo224  1  0.90172856  0.89806457  0.10021346  1
  Mo  Mo225  1  0.39863690  0.20501880  0.60175099  1
  Mo  Mo226  1  0.59294617  0.01187229  0.80565513  1
  Mo  Mo227  1  0.39198599  -0.00410827  0.19963468  1
  Mo  Mo228  1  0.58378049  0.79166990  0.80926145  1
  Mo  Mo229  1  0.29840456  0.09872311  0.10135712  1
  Mo  Mo230  1  0.70512331  0.29863222  0.50479460  1
  Mo  Mo231  1  0.79451653  0.39597951  0.60714872  1
  Mo  Mo232  1  0.70041737  0.30433742  0.69329363  1
  Mo  Mo233  1  0.81503559  0.79587861  -0.00169908  1
  Mo  Mo234  1  0.00030398  0.60499176  0.20485893  1
  Mo  Mo235  1  0.79676012  0.59636989  0.80623629  1
  Mo  Mo236  1  0.59726007  0.81094962  0.39859913  1
  Mo  Mo237  1  0.39608636  0.80992168  0.60016956  1
  Mo  Mo238  1  0.60315742  0.20294914  0.80290205  1
  Mo  Mo239  1  0.49120091  0.68860648  0.10158626  1
  Mo  Mo240  1  0.00920050  0.60745258  0.80118209  1
  Mo  Mo241  1  0.19886997  0.19201588  0.39709900  1
  Mo  Mo242  1  0.30366571  0.10246065  0.89885583  1
  Mo  Mo243  1  0.69214394  0.11482944  0.90085881  1
  Mo  Mo244  1  0.29898495  0.90690188  0.50181371  1
  Mo  Mo245  1  0.38852499  0.39814308  0.00628654  1
  Mo  Mo246  1  0.19488506  0.80156661  0.19742103  1
  Mo  Mo247  1  0.19918109  0.58709861  0.60111197  1
  Mo  Mo248  1  0.29675684  0.69429882  0.90141054  1
  Mo  Mo249  1  0.59973862  0.39215474  0.60577811  1
