# generated using pymatgen
data_HfZrTaTiMo
_symmetry_space_group_name_H-M   'P 1'
_cell_length_a   16.89047771
_cell_length_b   16.88245731
_cell_length_c   16.88386011
_cell_angle_alpha   90.01739962
_cell_angle_beta   89.95048277
_cell_angle_gamma   90.01558958
_symmetry_Int_Tables_number   1
_chemical_formula_structural   HfZrTaTiMo
_chemical_formula_sum   'Hf50 Zr50 Ta50 Ti50 Mo50'
_cell_volume   4814.47726435
_cell_formula_units_Z   50
loop_
 _symmetry_equiv_pos_site_id
 _symmetry_equiv_pos_as_xyz
  1  'x, y, z'
loop_
 _atom_site_type_symbol
 _atom_site_label
 _atom_site_symmetry_multiplicity
 _atom_site_fract_x
 _atom_site_fract_y
 _atom_site_fract_z
 _atom_site_occupancy
  Hf  Hf0  1  0.19706499  0.40446193  -0.00727461  1
  Hf  Hf1  1  0.90925572  0.70609841  0.90472085  1
  Hf  Hf2  1  0.89447447  0.10487288  0.51212488  1
  Hf  Hf3  1  0.59639103  0.59557343  0.39308897  1
  Hf  Hf4  1  0.49734188  0.30890233  0.30020023  1
  Hf  Hf5  1  -0.00169519  0.59607655  0.20911665  1
  Hf  Hf6  1  0.39166354  0.40458714  0.59507927  1
  Hf  Hf7  1  0.20739734  0.59663850  0.59688011  1
  Hf  Hf8  1  0.80165493  0.40055308  0.79838362  1
  Hf  Hf9  1  0.60272140  0.20755610  0.18742657  1
  Hf  Hf10  1  0.40472747  0.01810767  0.59680878  1
  Hf  Hf11  1  0.00448145  0.80293264  0.59054712  1
  Hf  Hf12  1  0.20207527  0.40471345  0.79703476  1
  Hf  Hf13  1  0.50036169  0.30038014  0.69407045  1
  Hf  Hf14  1  0.10511468  0.29378529  0.90156608  1
  Hf  Hf15  1  0.80125354  0.59279660  0.59437615  1
  Hf  Hf16  1  0.39635359  0.80554910  0.80265259  1
  Hf  Hf17  1  0.29968028  0.29289912  0.30261173  1
  Hf  Hf18  1  0.49543618  0.69799309  0.90444952  1
  Hf  Hf19  1  0.40319459  0.19551368  0.17490269  1
  Hf  Hf20  1  0.80188101  0.20159696  0.80071870  1
  Hf  Hf21  1  0.39648815  0.00381768  0.81329471  1
  Hf  Hf22  1  0.19864364  0.39996948  0.59408939  1
  Hf  Hf23  1  0.59324558  0.59309191  0.01199251  1
  Hf  Hf24  1  0.48527497  0.89663115  0.29801003  1
  Hf  Hf25  1  0.10425257  0.70270738  0.29745797  1
  Hf  Hf26  1  0.20134182  0.79984657  0.00362784  1
  Hf  Hf27  1  0.58918524  0.19951182  0.00248086  1
  Hf  Hf28  1  0.80908259  0.59379716  0.20526051  1
  Hf  Hf29  1  0.08919192  0.89494738  0.90136385  1
  Hf  Hf30  1  0.48604996  0.49529202  0.12015357  1
  Hf  Hf31  1  0.70474216  0.89778053  0.29079109  1
  Hf  Hf32  1  0.69185771  0.29985542  0.69817330  1
  Hf  Hf33  1  0.90252444  0.50199952  0.90449383  1
  Hf  Hf34  1  0.40925063  0.18922908  0.80800353  1
  Hf  Hf35  1  0.70364135  0.49439115  0.91006451  1
  Hf  Hf36  1  0.09955399  0.49628751  0.10821504  1
  Hf  Hf37  1  0.60289813  0.00906347  0.40401461  1
  Hf  Hf38  1  0.80145364  0.00392092  0.40043692  1
  Hf  Hf39  1  0.09816940  0.50138021  0.69894544  1
  Hf  Hf40  1  0.81102770  0.40137098  0.59496245  1
  Hf  Hf41  1  0.90594680  0.69766644  0.70758394  1
  Hf  Hf42  1  0.09665854  0.09734268  0.09514787  1
  Hf  Hf43  1  0.81065367  0.80144638  0.39963646  1
  Hf  Hf44  1  0.70585442  0.70159170  0.10583130  1
  Hf  Hf45  1  0.10872035  0.90000211  0.48764961  1
  Hf  Hf46  1  0.69345806  0.49558102  0.69517077  1
  Hf  Hf47  1  0.40452429  0.39617129  -0.00176423  1
  Hf  Hf48  1  0.90448619  0.48634772  0.09870661  1
  Hf  Hf49  1  0.29777065  0.69819703  0.89717182  1
  Zr  Zr50  1  0.29634728  0.49608580  0.11524494  1
  Zr  Zr51  1  0.00033696  -0.00190548  0.19771455  1
  Zr  Zr52  1  0.19395950  0.60224120  0.00257676  1
  Zr  Zr53  1  0.20564177  0.58996415  0.39411557  1
  Zr  Zr54  1  0.29145810  0.30161585  0.09846002  1
  Zr  Zr55  1  0.40078758  0.40369881  0.80314237  1
  Zr  Zr56  1  0.39503107  0.59923911  0.00544155  1
  Zr  Zr57  1  0.39714142  0.02536521  -0.00123190  1
  Zr  Zr58  1  0.59534806  0.01030506  0.80138621  1
  Zr  Zr59  1  -0.00350226  0.20043899  0.00096575  1
  Zr  Zr60  1  0.70455401  0.90494469  0.50662213  1
  Zr  Zr61  1  0.59673449  0.59249664  0.80611406  1
  Zr  Zr62  1  0.90589747  0.68573597  0.48261090  1
  Zr  Zr63  1  0.20701808  -0.00044680  -0.00630002  1
  Zr  Zr64  1  0.49835454  0.69569675  0.69633603  1
  Zr  Zr65  1  0.01218834  0.40452595  0.38396717  1
  Zr  Zr66  1  0.00238646  0.19616641  0.79269106  1
  Zr  Zr67  1  0.00902240  0.20564754  0.60883528  1
  Zr  Zr68  1  0.49406909  0.89859949  0.49799269  1
  Zr  Zr69  1  0.49615528  0.10377485  0.29916604  1
  Zr  Zr70  1  0.40450484  0.19803184  0.42230831  1
  Zr  Zr71  1  0.00160104  -0.00055212  0.60250505  1
  Zr  Zr72  1  0.69990735  0.30244583  0.29970597  1
  Zr  Zr73  1  0.29788357  0.90240595  0.69875399  1
  Zr  Zr74  1  0.90357556  0.29802544  0.28827325  1
  Zr  Zr75  1  0.29642704  0.10412982  0.70312713  1
  Zr  Zr76  1  0.79937027  0.19941400  0.40635995  1
  Zr  Zr77  1  0.71355972  0.69714207  0.30255907  1
  Zr  Zr78  1  0.70226173  0.89981736  0.90861651  1
  Zr  Zr79  1  0.69023112  0.30898122  0.50854544  1
  Zr  Zr80  1  0.60087057  0.80208421  0.80173204  1
  Zr  Zr81  1  0.39749858  0.59219772  0.39558885  1
  Zr  Zr82  1  0.58517018  0.79050284  0.20240225  1
  Zr  Zr83  1  0.80775260  0.40930095  0.39832648  1
  Zr  Zr84  1  0.49429511  0.69432306  0.50415916  1
  Zr  Zr85  1  0.00976384  0.60272389  0.59605571  1
  Zr  Zr86  1  0.90169076  0.90134693  0.70890384  1
  Zr  Zr87  1  0.70611711  0.90560914  0.70098309  1
  Zr  Zr88  1  0.39256794  0.00707691  0.19077896  1
  Zr  Zr89  1  0.19423328  0.20298619  0.60354750  1
  Zr  Zr90  1  0.70547824  0.69983639  0.90840134  1
  Zr  Zr91  1  0.89385476  0.30626206  0.90979975  1
  Zr  Zr92  1  0.80739710  0.79872283  0.59506096  1
  Zr  Zr93  1  0.59707965  0.00382545  0.19136232  1
  Zr  Zr94  1  0.59764767  0.79410582  0.39988886  1
  Zr  Zr95  1  0.60071803  0.19720866  0.40888094  1
  Zr  Zr96  1  0.70242231  0.89338892  0.09723396  1
  Zr  Zr97  1  0.29964572  0.90089565  0.49105669  1
  Zr  Zr98  1  0.10578914  0.10162885  0.48679150  1
  Zr  Zr99  1  -0.00680723  -0.00341342  0.39360224  1
  Ta  Ta100  1  0.89772782  0.09478276  0.90609057  1
  Ta  Ta101  1  0.60215091  0.40263373  0.19790003  1
  Ta  Ta102  1  0.69508112  0.30114711  0.90495294  1
  Ta  Ta103  1  0.70835445  0.10336701  0.09622264  1
  Ta  Ta104  1  0.59569445  0.39644482  0.00781977  1
  Ta  Ta105  1  0.70611927  0.10541239  0.69324376  1
  Ta  Ta106  1  0.00038601  0.80058870  0.39012839  1
  Ta  Ta107  1  0.29155549  0.10073744  0.30196331  1
  Ta  Ta108  1  0.09513847  0.30245456  0.10573649  1
  Ta  Ta109  1  0.00507033  0.40043126  0.80056379  1
  Ta  Ta110  1  0.09474711  0.70402141  0.89873892  1
  Ta  Ta111  1  0.29998630  0.69624325  0.69731837  1
  Ta  Ta112  1  0.49150013  0.89914675  0.09410461  1
  Ta  Ta113  1  0.29288305  0.89745359  0.29431691  1
  Ta  Ta114  1  0.39613522  0.79839226  0.60182268  1
  Ta  Ta115  1  0.71002341  0.10408130  0.28642196  1
  Ta  Ta116  1  0.58604020  0.19049158  0.59665530  1
  Ta  Ta117  1  0.60093777  0.79929541  0.60288569  1
  Ta  Ta118  1  0.19829659  0.59915491  0.79880219  1
  Ta  Ta119  1  0.70449997  0.69800946  0.69886882  1
  Ta  Ta120  1  0.80374617  0.79851268  0.80585255  1
  Ta  Ta121  1  0.80561406  0.00034533  0.19264589  1
  Ta  Ta122  1  0.59814809  0.00839227  0.60086953  1
  Ta  Ta123  1  0.40023576  0.40305837  0.40642229  1
  Ta  Ta124  1  0.80534321  0.00092065  0.00303843  1
  Ta  Ta125  1  0.20008314  0.79924670  0.80086222  1
  Ta  Ta126  1  0.89661376  0.10511855  0.09903507  1
  Ta  Ta127  1  -0.00368525  0.79569464  0.19659507  1
  Ta  Ta128  1  0.30211803  0.29623218  0.70224561  1
  Ta  Ta129  1  0.29793437  0.28738653  0.89993008  1
  Ta  Ta130  1  0.49962648  0.50075085  0.69126682  1
  Ta  Ta131  1  0.90730993  0.49993219  0.70158790  1
  Ta  Ta132  1  0.00692759  0.59690056  0.80587966  1
  Ta  Ta133  1  0.39466557  0.59021060  0.79413516  1
  Ta  Ta134  1  0.39341227  0.80454301  0.00372549  1
  Ta  Ta135  1  0.19486277  -0.00123808  0.60241022  1
  Ta  Ta136  1  0.59276014  0.59629007  0.20777290  1
  Ta  Ta137  1  0.80718234  0.59905523  0.01072246  1
  Ta  Ta138  1  0.89790503  0.89505151  0.28995005  1
  Ta  Ta139  1  0.30145251  0.70057685  0.50181043  1
  Ta  Ta140  1  0.49878349  0.90368928  0.69617625  1
  Ta  Ta141  1  0.29772951  0.89866321  0.10542277  1
  Ta  Ta142  1  0.79814121  0.39465491  0.19191592  1
  Ta  Ta143  1  0.10096843  0.89650769  0.70747636  1
  Ta  Ta144  1  0.19865585  0.79557032  0.60104656  1
  Ta  Ta145  1  0.00020010  0.00508244  0.80351353  1
  Ta  Ta146  1  0.70715268  0.10495717  0.90574158  1
  Ta  Ta147  1  0.19562306  0.19739361  0.19785850  1
  Ta  Ta148  1  0.10699592  0.10228201  0.29981217  1
  Ta  Ta149  1  0.49800238  0.90233329  0.91014081  1
  Ti  Ti150  1  0.80190226  0.00254313  0.80784233  1
  Ti  Ti151  1  0.10773803  0.89779990  0.29343315  1
  Ti  Ti152  1  0.28884896  0.10034311  0.49474345  1
  Ti  Ti153  1  0.50532486  0.49395215  0.50325552  1
  Ti  Ti154  1  0.19968764  0.00128060  0.19677287  1
  Ti  Ti155  1  0.50032320  0.29768587  0.90150882  1
  Ti  Ti156  1  0.59879089  0.19490259  0.80214357  1
  Ti  Ti157  1  0.48401667  0.69970597  0.11089277  1
  Ti  Ti158  1  0.00321264  0.20330046  0.19875876  1
  Ti  Ti159  1  0.00259371  0.20025425  0.39093207  1
  Ti  Ti160  1  0.18359253  0.39333434  0.21863463  1
  Ti  Ti161  1  0.29992257  0.50321109  0.89840683  1
  Ti  Ti162  1  0.10453546  0.69948104  0.48848445  1
  Ti  Ti163  1  0.90344017  0.30301079  0.69580172  1
  Ti  Ti164  1  0.20531048  0.60331566  0.20813498  1
  Ti  Ti165  1  0.39443180  0.00722561  0.39946109  1
  Ti  Ti166  1  0.89685735  0.10536840  0.28920468  1
  Ti  Ti167  1  0.09922052  0.09818186  0.90114039  1
  Ti  Ti168  1  0.69254668  0.49722095  0.49543842  1
  Ti  Ti169  1  0.29682884  0.29633572  0.50036640  1
  Ti  Ti170  1  0.91352058  0.50368535  0.49031606  1
  Ti  Ti171  1  0.59219075  0.40344313  0.80918507  1
  Ti  Ti172  1  0.09858709  0.50168978  0.49115438  1
  Ti  Ti173  1  0.00636084  0.39546911  0.59712440  1
  Ti  Ti174  1  0.90719853  0.89991317  0.90575555  1
  Ti  Ti175  1  0.80181772  0.59942147  0.80132579  1
  Ti  Ti176  1  0.69930770  0.49559062  0.30095943  1
  Ti  Ti177  1  0.58898996  0.79638672  0.00700547  1
  Ti  Ti178  1  0.89046480  0.09705114  0.69854416  1
  Ti  Ti179  1  0.20401081  0.40123504  0.39834883  1
  Ti  Ti180  1  0.29917304  0.70821931  0.11954253  1
  Ti  Ti181  1  0.70274535  0.69379731  0.49862974  1
  Ti  Ti182  1  0.09728414  0.70530222  0.10295272  1
  Ti  Ti183  1  0.19987854  -0.00119126  0.80627330  1
  Ti  Ti184  1  0.00243204  0.60350701  0.00523490  1
  Ti  Ti185  1  0.79681846  0.20922834  0.00915174  1
  Ti  Ti186  1  0.81476269  0.79783213  0.00824760  1
  Ti  Ti187  1  0.59938398  0.00629854  0.00073306  1
  Ti  Ti188  1  0.60271290  0.59989038  0.59647991  1
  Ti  Ti189  1  0.90828696  0.29560921  0.50058043  1
  Ti  Ti190  1  0.09635389  0.89712526  0.09776902  1
  Ti  Ti191  1  0.39347512  0.78714316  0.39012818  1
  Ti  Ti192  1  0.70135901  0.49653820  0.10288584  1
  Ti  Ti193  1  0.20659306  0.79550203  0.39346742  1
  Ti  Ti194  1  0.19149900  0.19780420  0.79362691  1
  Ti  Ti195  1  0.90808341  0.89891816  0.09446230  1
  Ti  Ti196  1  0.10449199  0.29594909  0.48478463  1
  Ti  Ti197  1  0.10080329  0.70609851  0.70803882  1
  Ti  Ti198  1  0.31060460  0.48746660  0.28992305  1
  Ti  Ti199  1  0.00695936  0.39864055  -0.00216546  1
  Mo  Mo200  1  0.51068773  0.09579584  0.09330775  1
  Mo  Mo201  1  0.90661064  0.70162311  0.29636544  1
  Mo  Mo202  1  0.09554837  0.50587770  0.90092246  1
  Mo  Mo203  1  0.70167598  0.30543251  0.09520990  1
  Mo  Mo204  1  0.90510141  0.69932530  0.09778999  1
  Mo  Mo205  1  0.50007975  0.30784859  0.09939996  1
  Mo  Mo206  1  0.27787358  0.11904950  0.90058242  1
  Mo  Mo207  1  0.50164946  0.49573304  0.30145140  1
  Mo  Mo208  1  0.39188656  0.80237514  0.19661608  1
  Mo  Mo209  1  0.10817015  0.49993669  0.29664448  1
  Mo  Mo210  1  0.29978821  0.89304178  0.90338115  1
  Mo  Mo211  1  0.00035647  0.39600944  0.19698587  1
  Mo  Mo212  1  0.90105538  0.30002447  0.10153579  1
  Mo  Mo213  1  0.39555347  0.61015951  0.21089060  1
  Mo  Mo214  1  0.39762553  0.20388990  -0.00737950  1
  Mo  Mo215  1  0.80123475  0.20620170  0.60729742  1
  Mo  Mo216  1  0.50473074  0.10139096  0.70093849  1
  Mo  Mo217  1  0.90751171  0.90324503  0.48885666  1
  Mo  Mo218  1  0.39703774  0.20693490  0.60274712  1
  Mo  Mo219  1  0.59302417  0.41064392  0.39965509  1
  Mo  Mo220  1  0.20462937  -0.00042257  0.38816769  1
  Mo  Mo221  1  0.39555295  0.59601623  0.59969597  1
  Mo  Mo222  1  0.79930152  0.58955816  0.39887630  1
  Mo  Mo223  1  0.29978667  0.49593519  0.49567079  1
  Mo  Mo224  1  0.50231961  0.49668935  0.89808518  1
  Mo  Mo225  1  0.29754580  0.70895009  0.29741101  1
  Mo  Mo226  1  0.10328759  0.29076772  0.29857942  1
  Mo  Mo227  1  0.10492254  0.08093933  0.71145298  1
  Mo  Mo228  1  0.28251611  0.10311283  0.10056639  1
  Mo  Mo229  1  0.89941897  0.49864022  0.29760937  1
  Mo  Mo230  1  -0.00712149  -0.00103430  -0.00279318  1
  Mo  Mo231  1  0.19359341  0.80751159  0.19698672  1
  Mo  Mo232  1  0.49818857  0.30787901  0.50363378  1
  Mo  Mo233  1  0.80179723  0.19878489  0.19004464  1
  Mo  Mo234  1  0.79819489  0.00813925  0.60111151  1
  Mo  Mo235  1  0.19633948  0.19895598  0.00341638  1
  Mo  Mo236  1  0.48810112  0.69462281  0.29555548  1
  Mo  Mo237  1  0.40106246  0.39081645  0.20762234  1
  Mo  Mo238  1  0.00302521  0.80056364  0.00846084  1
  Mo  Mo239  1  0.10220474  0.31293984  0.70494105  1
  Mo  Mo240  1  0.00356215  0.79988526  0.80165033  1
  Mo  Mo241  1  0.00553897  0.59743139  0.39334808  1
  Mo  Mo242  1  0.81701330  0.79916626  0.19513461  1
  Mo  Mo243  1  0.30081532  0.50455336  0.69794239  1
  Mo  Mo244  1  0.59208111  0.40369565  0.59599879  1
  Mo  Mo245  1  0.20256178  0.20268060  0.39630275  1
  Mo  Mo246  1  0.78967195  0.39939072  0.00605380  1
  Mo  Mo247  1  0.50000243  0.09701776  0.50153263  1
  Mo  Mo248  1  0.51481638  0.10090926  0.90045251  1
  Mo  Mo249  1  0.70174074  0.10147229  0.51543521  1
