# generated using pymatgen
data_HfZrTaTiMo
_symmetry_space_group_name_H-M   'P 1'
_cell_length_a   16.89022223
_cell_length_b   16.88879263
_cell_length_c   16.88778909
_cell_angle_alpha   89.98102518
_cell_angle_beta   89.98476773
_cell_angle_gamma   89.99877814
_symmetry_Int_Tables_number   1
_chemical_formula_structural   HfZrTaTiMo
_chemical_formula_sum   'Hf50 Zr50 Ta50 Ti50 Mo50'
_cell_volume   4817.33362337
_cell_formula_units_Z   50
loop_
 _symmetry_equiv_pos_site_id
 _symmetry_equiv_pos_as_xyz
  1  'x, y, z'
loop_
 _atom_site_type_symbol
 _atom_site_label
 _atom_site_symmetry_multiplicity
 _atom_site_fract_x
 _atom_site_fract_y
 _atom_site_fract_z
 _atom_site_occupancy
  Hf  Hf0  1  0.51044458  0.29447080  0.31214345  1
  Hf  Hf1  1  0.19825651  0.59477873  0.79046794  1
  Hf  Hf2  1  0.59784706  -0.00858321  0.59457884  1
  Hf  Hf3  1  0.69352005  0.10091646  0.70036195  1
  Hf  Hf4  1  0.70169857  0.69129760  0.50927110  1
  Hf  Hf5  1  0.28590186  0.71297903  0.09643146  1
  Hf  Hf6  1  0.41019532  0.79836512  0.19952507  1
  Hf  Hf7  1  -0.00620844  0.80136134  -0.00456841  1
  Hf  Hf8  1  0.50933200  0.11058741  0.49863238  1
  Hf  Hf9  1  0.40933584  0.00059266  -0.00871242  1
  Hf  Hf10  1  0.30088584  0.70496690  0.50282351  1
  Hf  Hf11  1  0.20015444  0.40884075  0.61293942  1
  Hf  Hf12  1  0.90292449  0.08924352  0.09435662  1
  Hf  Hf13  1  0.80237047  0.79756585  0.19920040  1
  Hf  Hf14  1  0.70372301  0.69236540  0.90962032  1
  Hf  Hf15  1  0.50708651  0.49512368  0.09612415  1
  Hf  Hf16  1  0.69498160  0.09060368  0.89612276  1
  Hf  Hf17  1  0.39860130  0.60181257  0.39782593  1
  Hf  Hf18  1  0.19044547  0.79674976  0.79617925  1
  Hf  Hf19  1  0.59683522  0.79805276  0.18850539  1
  Hf  Hf20  1  0.11076749  0.30108758  0.89597431  1
  Hf  Hf21  1  0.00402965  0.41040475  0.79071167  1
  Hf  Hf22  1  0.59596211  0.39951167  0.79532344  1
  Hf  Hf23  1  0.40710993  0.20347397  0.81062895  1
  Hf  Hf24  1  0.70504398  0.50090836  0.09214840  1
  Hf  Hf25  1  0.89160937  0.09686857  0.70064861  1
  Hf  Hf26  1  0.79417423  0.20055087  0.39486638  1
  Hf  Hf27  1  0.39890631  0.60530898  0.20019946  1
  Hf  Hf28  1  0.29838422  0.89502026  0.90100853  1
  Hf  Hf29  1  -0.00320672  -0.00511972  0.81625120  1
  Hf  Hf30  1  0.10070141  0.49863761  0.50403347  1
  Hf  Hf31  1  0.80097577  0.00114302  0.20512462  1
  Hf  Hf32  1  -0.00458650  0.20714737  0.59524886  1
  Hf  Hf33  1  0.30851102  0.70212712  0.70169419  1
  Hf  Hf34  1  0.40190035  0.00374406  0.59686871  1
  Hf  Hf35  1  0.80125775  0.20394713  0.80693890  1
  Hf  Hf36  1  0.20198937  0.59970410  0.20038026  1
  Hf  Hf37  1  0.41474159  0.80201811  0.00602061  1
  Hf  Hf38  1  0.60492011  0.60089817  0.79177616  1
  Hf  Hf39  1  0.89758129  0.30781814  0.69330879  1
  Hf  Hf40  1  0.09345385  0.50783652  0.90226587  1
  Hf  Hf41  1  0.49918905  0.49946832  0.90604470  1
  Hf  Hf42  1  0.19596053  -0.00547458  0.80031058  1
  Hf  Hf43  1  0.39779934  0.40086521  0.40535942  1
  Hf  Hf44  1  0.90938762  0.70320635  0.29130141  1
  Hf  Hf45  1  0.80500140  0.80193783  0.40066345  1
  Hf  Hf46  1  0.80028482  0.19752362  -0.00449379  1
  Hf  Hf47  1  0.20831990  0.19408866  0.58811436  1
  Hf  Hf48  1  0.79982545  0.79592792  0.80620929  1
  Hf  Hf49  1  0.50921426  0.49628671  0.50494600  1
  Zr  Zr50  1  0.30088547  0.09434486  0.29763452  1
  Zr  Zr51  1  0.79684896  0.00144618  0.39967863  1
  Zr  Zr52  1  0.10080283  0.30240754  0.09631902  1
  Zr  Zr53  1  0.89512504  0.51086176  0.90640218  1
  Zr  Zr54  1  0.29005868  0.90119402  0.09435704  1
  Zr  Zr55  1  0.89330412  0.49721912  0.50867030  1
  Zr  Zr56  1  0.09259382  0.69350823  0.90342630  1
  Zr  Zr57  1  0.61308108  0.39185506  0.20578688  1
  Zr  Zr58  1  -0.00440517  0.20436990  0.40333062  1
  Zr  Zr59  1  0.40245614  0.19780270  -0.00389057  1
  Zr  Zr60  1  0.69138297  0.90561904  0.29594697  1
  Zr  Zr61  1  0.10134159  0.09810851  0.49170329  1
  Zr  Zr62  1  0.69920589  0.49989074  0.90949108  1
  Zr  Zr63  1  0.88876271  0.69575074  0.69204200  1
  Zr  Zr64  1  0.58887622  -0.00709145  -0.00365181  1
  Zr  Zr65  1  0.30025046  0.89440555  0.49547775  1
  Zr  Zr66  1  0.10541290  0.10882042  0.70796360  1
  Zr  Zr67  1  0.38897924  0.19484333  0.41080835  1
  Zr  Zr68  1  0.89670911  0.89996514  0.69757065  1
  Zr  Zr69  1  0.50325174  0.69403972  0.50398535  1
  Zr  Zr70  1  0.59209407  0.19541631  -0.00251469  1
  Zr  Zr71  1  -0.00580019  0.20038691  0.80764843  1
  Zr  Zr72  1  0.69245402  0.29676388  0.69226892  1
  Zr  Zr73  1  0.89929520  0.30743109  0.09986674  1
  Zr  Zr74  1  -0.00237095  0.61085619  0.40948231  1
  Zr  Zr75  1  0.00929650  0.60090250  0.60801229  1
  Zr  Zr76  1  0.29376564  0.09349361  0.09531446  1
  Zr  Zr77  1  0.49785395  0.70105140  0.69936117  1
  Zr  Zr78  1  0.70095048  0.90163632  0.70387928  1
  Zr  Zr79  1  -0.00473486  0.19671338  -0.01097414  1
  Zr  Zr80  1  0.09748907  0.30243430  0.29584222  1
  Zr  Zr81  1  0.49666179  0.69026030  0.89960907  1
  Zr  Zr82  1  0.00315214  0.79204194  0.59183710  1
  Zr  Zr83  1  0.90354883  0.30623492  0.29183528  1
  Zr  Zr84  1  0.29914160  0.89108450  0.30294107  1
  Zr  Zr85  1  0.29744469  0.30135161  0.29592128  1
  Zr  Zr86  1  0.38674146  0.59115498  0.00801076  1
  Zr  Zr87  1  0.68556056  0.30438117  0.49558979  1
  Zr  Zr88  1  0.40364996  0.19957526  0.19645013  1
  Zr  Zr89  1  0.80198757  0.60166436  0.39776368  1
  Zr  Zr90  1  0.29427900  0.29218459  0.70983838  1
  Zr  Zr91  1  0.50948165  0.50089893  0.30341776  1
  Zr  Zr92  1  0.21798629  0.41199192  -0.00109046  1
  Zr  Zr93  1  0.18528075  -0.00547403  0.20559864  1
  Zr  Zr94  1  0.30404887  0.09655806  0.70919804  1
  Zr  Zr95  1  0.90987485  0.09933294  0.29149639  1
  Zr  Zr96  1  0.60167478  0.80800774  0.41005338  1
  Zr  Zr97  1  0.19755628  0.60579033  0.40078702  1
  Zr  Zr98  1  0.00323143  -0.00047252  0.59767078  1
  Zr  Zr99  1  0.70704081  0.90498617  0.09117820  1
  Ta  Ta100  1  0.80215370  0.19748190  0.58633208  1
  Ta  Ta101  1  0.19520021  0.79734403  0.60267773  1
  Ta  Ta102  1  -0.00082487  0.40666111  0.00131748  1
  Ta  Ta103  1  0.79834460  0.40372777  0.20187604  1
  Ta  Ta104  1  0.51075274  0.09589738  0.30160104  1
  Ta  Ta105  1  0.69367252  0.49649243  0.50013022  1
  Ta  Ta106  1  0.39272359  0.40497735  0.80329145  1
  Ta  Ta107  1  0.00298477  -0.01341259  0.38810181  1
  Ta  Ta108  1  0.50548079  0.30178976  0.50793685  1
  Ta  Ta109  1  0.40154160  0.20188806  0.60052584  1
  Ta  Ta110  1  0.78862042  0.20251807  0.19909867  1
  Ta  Ta111  1  0.09748768  0.09010300  0.09165880  1
  Ta  Ta112  1  0.09308135  0.70267185  0.10116162  1
  Ta  Ta113  1  -0.00215547  0.79766394  0.80023784  1
  Ta  Ta114  1  0.20666288  0.40849119  0.80104502  1
  Ta  Ta115  1  0.19758367  -0.00226669  0.39974378  1
  Ta  Ta116  1  0.70433377  0.49678882  0.68718995  1
  Ta  Ta117  1  0.20072990  0.59886020  0.00324071  1
  Ta  Ta118  1  0.60939563  0.19848105  0.20210929  1
  Ta  Ta119  1  0.79455470  0.00121483  0.58661418  1
  Ta  Ta120  1  0.90750506  0.90245264  0.10034524  1
  Ta  Ta121  1  0.10367830  0.89448430  0.49332058  1
  Ta  Ta122  1  0.20044460  0.40540111  0.19755016  1
  Ta  Ta123  1  0.09314508  0.49838912  0.29712876  1
  Ta  Ta124  1  0.70000812  0.09616503  0.10052064  1
  Ta  Ta125  1  0.60094060  0.80189098  0.80527160  1
  Ta  Ta126  1  0.19755930  0.40243686  0.40003793  1
  Ta  Ta127  1  0.59529007  0.79921895  0.00003371  1
  Ta  Ta128  1  0.90426417  0.49790406  0.29334829  1
  Ta  Ta129  1  0.41006507  0.81271794  0.60011783  1
  Ta  Ta130  1  0.51120787  0.69677049  0.30301921  1
  Ta  Ta131  1  0.79615139  0.40481826  0.79721875  1
  Ta  Ta132  1  0.69837461  0.30976788  0.90541238  1
  Ta  Ta133  1  0.29863677  0.50039913  0.50459965  1
  Ta  Ta134  1  0.79954258  0.59802324  0.20105915  1
  Ta  Ta135  1  0.50223120  0.30552227  0.09950653  1
  Ta  Ta136  1  0.90224698  0.90035736  0.49551065  1
  Ta  Ta137  1  0.39765013  0.39873577  0.60700015  1
  Ta  Ta138  1  0.09579043  0.50435546  0.10131837  1
  Ta  Ta139  1  0.20294428  -0.00652639  0.59732222  1
  Ta  Ta140  1  0.79508655  0.59814802  0.78931121  1
  Ta  Ta141  1  0.40809381  -0.00259548  0.40247196  1
  Ta  Ta142  1  0.09720238  0.70730887  0.29624296  1
  Ta  Ta143  1  0.19598188  0.19974040  0.19223327  1
  Ta  Ta144  1  0.90076965  0.69530507  0.09675659  1
  Ta  Ta145  1  0.10007512  0.30857271  0.50313022  1
  Ta  Ta146  1  0.30412335  0.89752790  0.70103904  1
  Ta  Ta147  1  -0.00339362  0.40167521  0.40539357  1
  Ta  Ta148  1  0.29794672  0.69987045  0.90000211  1
  Ta  Ta149  1  0.29604323  0.49748011  0.30201350  1
  Ti  Ti150  1  0.60574491  0.60423781  0.19782342  1
  Ti  Ti151  1  0.79828006  0.39453702  0.59437470  1
  Ti  Ti152  1  0.49915719  0.31556456  0.91193249  1
  Ti  Ti153  1  0.69995809  0.30321056  0.09044170  1
  Ti  Ti154  1  0.09513052  0.90003913  0.09465402  1
  Ti  Ti155  1  0.10303635  0.89892680  0.91320513  1
  Ti  Ti156  1  0.18586471  0.80406308  0.20414352  1
  Ti  Ti157  1  0.41041980  -0.00776986  0.19818773  1
  Ti  Ti158  1  0.49430066  0.49967957  0.70022980  1
  Ti  Ti159  1  0.50785534  0.09554861  0.11321624  1
  Ti  Ti160  1  0.00191425  0.80075862  0.39981317  1
  Ti  Ti161  1  0.90079101  0.68784275  0.90087649  1
  Ti  Ti162  1  0.09774163  0.10049861  0.29565677  1
  Ti  Ti163  1  0.70006097  0.50052256  0.30799774  1
  Ti  Ti164  1  0.49793847  0.90699521  0.71277600  1
  Ti  Ti165  1  0.50083353  0.29835884  0.69242715  1
  Ti  Ti166  1  0.70440023  0.69370323  0.09223006  1
  Ti  Ti167  1  0.10840762  0.09581026  0.91059533  1
  Ti  Ti168  1  0.00599719  0.19471485  0.19076619  1
  Ti  Ti169  1  0.90192692  0.09378123  0.49585385  1
  Ti  Ti170  1  0.69905452  0.89935037  0.90140990  1
  Ti  Ti171  1  0.69417799  0.69535357  0.30258903  1
  Ti  Ti172  1  0.20147516  0.19987398  0.39934948  1
  Ti  Ti173  1  0.09827521  0.89759777  0.69571220  1
  Ti  Ti174  1  0.50522586  0.09951836  0.70600691  1
  Ti  Ti175  1  0.89327898  0.32016537  0.90232631  1
  Ti  Ti176  1  0.50512709  0.90713040  0.29919417  1
  Ti  Ti177  1  0.29641300  0.30770767  0.50370567  1
  Ti  Ti178  1  0.29452701  0.09608180  0.89745910  1
  Ti  Ti179  1  0.80618608  0.80223346  -0.00350679  1
  Ti  Ti180  1  0.89964495  0.50288669  0.09939378  1
  Ti  Ti181  1  0.29691958  0.71001031  0.30441954  1
  Ti  Ti182  1  0.60428445  0.59808897  0.60906056  1
  Ti  Ti183  1  0.79961238  0.39689768  0.39545091  1
  Ti  Ti184  1  0.79439301  0.80356590  0.59249344  1
  Ti  Ti185  1  0.60312363  0.00120882  0.40336366  1
  Ti  Ti186  1  0.39564309  0.40485091  0.19639507  1
  Ti  Ti187  1  0.69167963  0.10796323  0.50066855  1
  Ti  Ti188  1  0.40526935  0.80443661  0.80351866  1
  Ti  Ti189  1  0.39393003  0.59059060  0.60508713  1
  Ti  Ti190  1  0.80439586  -0.00565765  0.81173239  1
  Ti  Ti191  1  0.10334930  0.29895975  0.70201146  1
  Ti  Ti192  1  0.41394272  0.80360037  0.40075681  1
  Ti  Ti193  1  0.30659141  0.30459950  0.09673667  1
  Ti  Ti194  1  0.59988276  0.80552408  0.60425894  1
  Ti  Ti195  1  0.59291745  0.20454103  0.80659147  1
  Ti  Ti196  1  0.00007324  0.59899096  0.19678021  1
  Ti  Ti197  1  0.89610889  0.50079064  0.69545160  1
  Ti  Ti198  1  0.19691170  0.60524919  0.60597178  1
  Ti  Ti199  1  0.20830334  0.20185388  -0.00276322  1
  Mo  Mo200  1  0.60360545  0.19758024  0.39460718  1
  Mo  Mo201  1  0.69649070  0.70056975  0.69746002  1
  Mo  Mo202  1  0.00284962  -0.00582694  -0.00094686  1
  Mo  Mo203  1  0.09956920  0.50200528  0.70253362  1
  Mo  Mo204  1  0.00140677  0.80223086  0.19287434  1
  Mo  Mo205  1  0.70580640  0.30089917  0.29947962  1
  Mo  Mo206  1  0.60051558  0.39270992  0.00217855  1
  Mo  Mo207  1  0.18917935  0.79880052  0.39975457  1
  Mo  Mo208  1  0.60479968  0.40266426  0.40249379  1
  Mo  Mo209  1  0.40105712  -0.00127674  0.79987860  1
  Mo  Mo210  1  0.00426182  0.39711869  0.60156117  1
  Mo  Mo211  1  -0.00913907  0.60340007  0.79252893  1
  Mo  Mo212  1  0.60720729  0.59980610  0.39633944  1
  Mo  Mo213  1  0.30559778  0.50331288  0.69731868  1
  Mo  Mo214  1  0.18988689  0.79647620  -0.00284397  1
  Mo  Mo215  1  0.60015915  0.60858656  0.01056818  1
  Mo  Mo216  1  0.79406318  0.59418140  0.59984431  1
  Mo  Mo217  1  0.39386099  0.59329067  0.79889697  1
  Mo  Mo218  1  0.10725253  0.70565203  0.49842738  1
  Mo  Mo219  1  0.30261851  0.50566112  0.89198531  1
  Mo  Mo220  1  0.30069289  0.09276507  0.49636122  1
  Mo  Mo221  1  0.09665127  0.89152110  0.30396264  1
  Mo  Mo222  1  0.89647435  0.89337981  0.90504394  1
  Mo  Mo223  1  0.80377110  0.39869049  0.00338757  1
  Mo  Mo224  1  0.40069490  0.39617451  0.00153457  1
  Mo  Mo225  1  0.69203846  0.10364412  0.29720031  1
  Mo  Mo226  1  0.00285542  -0.00748921  0.19852238  1
  Mo  Mo227  1  0.00066049  0.41312940  0.19628147  1
  Mo  Mo228  1  0.89597016  0.70847738  0.49809110  1
  Mo  Mo229  1  -0.00138387  0.60082927  0.01269239  1
  Mo  Mo230  1  0.50160188  0.90375553  0.49814437  1
  Mo  Mo231  1  0.50125936  0.90398102  0.10509669  1
  Mo  Mo232  1  0.91078855  0.89621592  0.29523111  1
  Mo  Mo233  1  0.89676239  0.30654304  0.49973142  1
  Mo  Mo234  1  0.80363959  -0.00436434  -0.00481072  1
  Mo  Mo235  1  0.20430278  0.20081935  0.81864080  1
  Mo  Mo236  1  0.70293459  0.90006404  0.50455808  1
  Mo  Mo237  1  0.80461350  0.60559278  0.00960791  1
  Mo  Mo238  1  0.59854086  0.00475654  0.19890901  1
  Mo  Mo239  1  0.50975162  0.69345367  0.10311072  1
  Mo  Mo240  1  0.89078295  0.08492836  0.90250437  1
  Mo  Mo241  1  0.59404290  0.19782315  0.60453564  1
  Mo  Mo242  1  0.50181554  0.89261368  0.89034295  1
  Mo  Mo243  1  0.59045068  0.40369590  0.60466825  1
  Mo  Mo244  1  0.50176961  0.08884325  0.87679835  1
  Mo  Mo245  1  0.09932336  0.70249341  0.70293503  1
  Mo  Mo246  1  0.29886871  0.49772827  0.11281730  1
  Mo  Mo247  1  0.30513054  0.30686809  0.90232765  1
  Mo  Mo248  1  0.59649734  -0.00755987  0.79817475  1
  Mo  Mo249  1  0.19414146  -0.00285229  -0.00534598  1
