# generated using pymatgen
data_HfZrTaTiMo
_symmetry_space_group_name_H-M   'P 1'
_cell_length_a   16.88427200
_cell_length_b   16.89034935
_cell_length_c   16.87936510
_cell_angle_alpha   90.01818354
_cell_angle_beta   90.00467064
_cell_angle_gamma   89.98408295
_symmetry_Int_Tables_number   1
_chemical_formula_structural   HfZrTaTiMo
_chemical_formula_sum   'Hf50 Zr50 Ta50 Ti50 Mo50'
_cell_volume   4813.67803894
_cell_formula_units_Z   50
loop_
 _symmetry_equiv_pos_site_id
 _symmetry_equiv_pos_as_xyz
  1  'x, y, z'
loop_
 _atom_site_type_symbol
 _atom_site_label
 _atom_site_symmetry_multiplicity
 _atom_site_fract_x
 _atom_site_fract_y
 _atom_site_fract_z
 _atom_site_occupancy
  Hf  Hf0  1  0.49837656  0.90551259  0.49884975  1
  Hf  Hf1  1  0.79974560  0.60388226  0.60763798  1
  Hf  Hf2  1  0.20227002  0.39327660  0.39958025  1
  Hf  Hf3  1  0.69917664  0.30409820  0.09924192  1
  Hf  Hf4  1  0.60483847  0.59890574  0.79740933  1
  Hf  Hf5  1  0.39861129  0.19341073  0.20262837  1
  Hf  Hf6  1  0.79810041  0.80479101  0.61179837  1
  Hf  Hf7  1  0.39148170  0.79850326  -0.00196729  1
  Hf  Hf8  1  0.39678278  0.20156350  0.40576629  1
  Hf  Hf9  1  0.80239255  0.60663679  0.79548499  1
  Hf  Hf10  1  0.59963963  -0.00568547  -0.01623171  1
  Hf  Hf11  1  0.49371159  0.30688701  0.09328099  1
  Hf  Hf12  1  0.70208616  0.89548714  0.09116681  1
  Hf  Hf13  1  0.49807834  0.10741438  0.89213201  1
  Hf  Hf14  1  0.00162168  0.81264994  0.40765184  1
  Hf  Hf15  1  0.60432875  0.80298405  0.19830602  1
  Hf  Hf16  1  0.30047706  0.69692867  0.70984727  1
  Hf  Hf17  1  0.19765205  0.39498764  0.79559698  1
  Hf  Hf18  1  0.30133509  0.50570189  0.70876233  1
  Hf  Hf19  1  0.89914248  0.91093757  0.29678936  1
  Hf  Hf20  1  0.60421212  0.39406783  0.40122788  1
  Hf  Hf21  1  0.81155970  0.40338345  0.20056892  1
  Hf  Hf22  1  0.78649515  -0.01261872  0.80290256  1
  Hf  Hf23  1  0.89492941  0.10590497  0.51378692  1
  Hf  Hf24  1  0.50229880  0.10357004  0.70284957  1
  Hf  Hf25  1  0.80050993  0.81195461  0.40292572  1
  Hf  Hf26  1  0.89461469  0.70915015  0.08913290  1
  Hf  Hf27  1  0.49402002  0.90062646  0.30372539  1
  Hf  Hf28  1  0.70255707  0.50291086  0.08966616  1
  Hf  Hf29  1  0.60361615  0.81772232  0.79887770  1
  Hf  Hf30  1  0.00284480  0.00442721  0.40662060  1
  Hf  Hf31  1  0.20397400  0.60652471  0.00429734  1
  Hf  Hf32  1  0.90033134  0.28358903  0.69562685  1
  Hf  Hf33  1  0.70279444  0.29879610  0.29259499  1
  Hf  Hf34  1  0.59913717  0.59799031  0.19673664  1
  Hf  Hf35  1  0.49686664  0.70405225  0.30015414  1
  Hf  Hf36  1  0.10820794  0.89945974  0.29636176  1
  Hf  Hf37  1  0.70190847  0.70164658  0.90354433  1
  Hf  Hf38  1  0.90812744  0.90667149  0.08595605  1
  Hf  Hf39  1  0.20935055  0.19734839  0.19617290  1
  Hf  Hf40  1  0.91461263  0.08994165  0.90273071  1
  Hf  Hf41  1  0.10022384  0.10118079  0.90374047  1
  Hf  Hf42  1  0.90154997  0.49497491  0.70519743  1
  Hf  Hf43  1  0.50149194  0.49479264  0.49960378  1
  Hf  Hf44  1  0.30214699  0.29464095  0.90945404  1
  Hf  Hf45  1  0.00692683  0.19394932  0.40441581  1
  Hf  Hf46  1  0.80877374  0.58828580  0.40067483  1
  Hf  Hf47  1  0.69616475  0.49334064  0.50874630  1
  Hf  Hf48  1  0.20847918  0.60437661  0.40281554  1
  Hf  Hf49  1  0.60268282  0.60082859  0.39518919  1
  Zr  Zr50  1  0.49661160  0.69277878  0.89875198  1
  Zr  Zr51  1  0.90601331  0.09950511  0.70523498  1
  Zr  Zr52  1  0.38811323  0.19061236  0.00964358  1
  Zr  Zr53  1  0.79822491  0.59992404  0.20494065  1
  Zr  Zr54  1  0.09965812  0.49791706  0.89996681  1
  Zr  Zr55  1  0.49312134  0.69927158  0.70098326  1
  Zr  Zr56  1  0.70880874  0.09535720  0.30654667  1
  Zr  Zr57  1  0.90501992  0.50397944  0.09227089  1
  Zr  Zr58  1  0.69601293  0.91333126  0.49773824  1
  Zr  Zr59  1  0.19503507  0.59767300  0.59697049  1
  Zr  Zr60  1  0.69187423  0.29619874  0.69848133  1
  Zr  Zr61  1  0.39326719  0.00696916  0.19944477  1
  Zr  Zr62  1  0.69855219  0.70316777  0.49820279  1
  Zr  Zr63  1  0.90509178  0.70735418  0.29887733  1
  Zr  Zr64  1  0.29394600  0.90241067  0.70340429  1
  Zr  Zr65  1  0.80006267  0.00167948  0.19198534  1
  Zr  Zr66  1  0.19608859  0.00557419  0.60722675  1
  Zr  Zr67  1  0.80623730  0.39041521  0.59006897  1
  Zr  Zr68  1  0.00045034  0.39278646  0.59250840  1
  Zr  Zr69  1  0.40000840  0.81126284  0.80821447  1
  Zr  Zr70  1  0.07911516  0.50515737  0.48273311  1
  Zr  Zr71  1  0.28925574  0.71160593  0.29703529  1
  Zr  Zr72  1  0.49726006  0.30406218  0.29861149  1
  Zr  Zr73  1  0.29701276  0.09609611  0.49665283  1
  Zr  Zr74  1  0.50112594  0.49568810  0.69624353  1
  Zr  Zr75  1  0.20039840  0.79808244  0.00054654  1
  Zr  Zr76  1  0.39178590  0.80545142  0.19121764  1
  Zr  Zr77  1  0.80403543  0.19741168  0.00241321  1
  Zr  Zr78  1  0.40147381  0.39527604  0.80418531  1
  Zr  Zr79  1  0.91235187  0.29535011  0.29713520  1
  Zr  Zr80  1  0.90829739  0.70039197  0.50399607  1
  Zr  Zr81  1  0.90311084  0.29786304  0.89094647  1
  Zr  Zr82  1  0.69847158  0.09818076  0.09507665  1
  Zr  Zr83  1  0.39184078  0.38668317  0.59350404  1
  Zr  Zr84  1  0.00422215  -0.01248886  0.59869775  1
  Zr  Zr85  1  0.18804709  0.79959241  0.81434559  1
  Zr  Zr86  1  0.78793457  0.18369006  0.80662939  1
  Zr  Zr87  1  0.39433655  0.59857335  0.39605177  1
  Zr  Zr88  1  0.00050208  0.60276285  0.19705115  1
  Zr  Zr89  1  0.59349046  0.19328634  0.40072755  1
  Zr  Zr90  1  0.10242899  0.29110045  0.90249844  1
  Zr  Zr91  1  0.38962218  0.60750005  0.58437164  1
  Zr  Zr92  1  0.19716873  0.39615832  0.60136997  1
  Zr  Zr93  1  0.39042367  0.59680622  0.19357848  1
  Zr  Zr94  1  0.07834217  0.69779746  0.71188447  1
  Zr  Zr95  1  0.10850589  0.50367214  0.29210117  1
  Zr  Zr96  1  0.69314193  0.30522626  0.89754938  1
  Zr  Zr97  1  0.19574256  0.79913444  0.59929303  1
  Zr  Zr98  1  0.21060121  0.18811039  0.79224884  1
  Zr  Zr99  1  0.80166516  0.20806082  0.41129522  1
  Ta  Ta100  1  0.59780651  0.19870568  -0.00229717  1
  Ta  Ta101  1  0.79740144  -0.00402251  0.61026192  1
  Ta  Ta102  1  0.10088262  0.10044168  0.09889384  1
  Ta  Ta103  1  0.80873271  0.40060839  -0.00440062  1
  Ta  Ta104  1  0.39643041  0.59777047  0.00662846  1
  Ta  Ta105  1  0.69937593  0.48784892  0.70313551  1
  Ta  Ta106  1  0.20454271  0.00485213  0.19955951  1
  Ta  Ta107  1  0.20343378  0.39440418  0.01051467  1
  Ta  Ta108  1  0.10202070  0.90837806  0.09705419  1
  Ta  Ta109  1  0.50035579  0.90224695  0.09398457  1
  Ta  Ta110  1  0.81177583  0.20017061  0.19307782  1
  Ta  Ta111  1  0.81203348  0.39813192  0.40597327  1
  Ta  Ta112  1  0.70351817  0.49576757  0.89840006  1
  Ta  Ta113  1  0.39680215  -0.00111391  -0.00459013  1
  Ta  Ta114  1  0.00481738  0.60652173  -0.00652847  1
  Ta  Ta115  1  0.09821233  0.70373136  0.49440641  1
  Ta  Ta116  1  0.30087449  0.30191846  0.30283879  1
  Ta  Ta117  1  0.00818054  0.80034820  -0.00768984  1
  Ta  Ta118  1  0.50284729  0.70147979  0.09504566  1
  Ta  Ta119  1  0.50441586  0.28984267  0.70186140  1
  Ta  Ta120  1  0.30251460  0.49715769  0.90653307  1
  Ta  Ta121  1  0.39918788  0.80700045  0.59717698  1
  Ta  Ta122  1  0.40021286  -0.00156994  0.60532157  1
  Ta  Ta123  1  0.00233681  0.39586809  0.00455999  1
  Ta  Ta124  1  0.60505918  0.60633772  0.60593045  1
  Ta  Ta125  1  0.00796465  0.39309235  0.19356304  1
  Ta  Ta126  1  0.49422714  0.49368673  0.29949617  1
  Ta  Ta127  1  0.50216902  0.70822777  0.49953391  1
  Ta  Ta128  1  0.00626821  0.80525744  0.19078271  1
  Ta  Ta129  1  0.20386179  0.19878509  0.59728193  1
  Ta  Ta130  1  0.59785838  0.80266824  0.60791405  1
  Ta  Ta131  1  0.69667010  0.09850210  0.51430953  1
  Ta  Ta132  1  0.90437422  0.10086674  0.29595600  1
  Ta  Ta133  1  0.59424397  0.80384048  -0.00690311  1
  Ta  Ta134  1  0.20588363  0.00892731  0.00186411  1
  Ta  Ta135  1  0.91285519  0.70523526  0.88621663  1
  Ta  Ta136  1  -0.00024894  0.20391312  0.01284604  1
  Ta  Ta137  1  0.70204052  0.70330234  0.08925142  1
  Ta  Ta138  1  0.39327858  0.40434371  0.19592032  1
  Ta  Ta139  1  0.49644379  0.49754576  0.90817089  1
  Ta  Ta140  1  0.10466379  0.49852337  0.09942860  1
  Ta  Ta141  1  0.59323123  0.00164429  0.20168298  1
  Ta  Ta142  1  0.39574197  0.19450703  0.60079334  1
  Ta  Ta143  1  0.39716193  0.00470411  0.80051910  1
  Ta  Ta144  1  0.10349588  0.70637148  0.30067251  1
  Ta  Ta145  1  0.59469012  0.19298345  0.19621640  1
  Ta  Ta146  1  0.59435745  0.40788817  0.19442967  1
  Ta  Ta147  1  0.60081788  0.80365086  0.39792281  1
  Ta  Ta148  1  0.00184867  0.39515908  0.79747539  1
  Ta  Ta149  1  0.10398162  0.28911198  0.49618239  1
  Ti  Ti150  1  0.70118525  0.90817759  0.30186788  1
  Ti  Ti151  1  -0.00796754  0.59818993  0.60148315  1
  Ti  Ti152  1  0.92565928  0.49285120  0.31751647  1
  Ti  Ti153  1  0.59513849  0.00594606  0.39353317  1
  Ti  Ti154  1  0.19694789  0.01394289  0.39254934  1
  Ti  Ti155  1  0.91149731  0.09822918  0.10118126  1
  Ti  Ti156  1  0.90529327  0.89379775  0.70932066  1
  Ti  Ti157  1  0.00830227  0.00355383  0.19768138  1
  Ti  Ti158  1  0.30465641  0.48642143  0.49100711  1
  Ti  Ti159  1  0.00627502  -0.01252522  0.79887990  1
  Ti  Ti160  1  0.39165090  0.79834116  0.40954350  1
  Ti  Ti161  1  0.59518717  0.40116859  0.80324988  1
  Ti  Ti162  1  0.19637887  0.60378377  0.81161926  1
  Ti  Ti163  1  0.30757088  0.28964582  0.70170678  1
  Ti  Ti164  1  0.40107977  0.01167522  0.39398582  1
  Ti  Ti165  1  0.59575328  0.59802528  0.00192065  1
  Ti  Ti166  1  0.10208793  0.69985429  0.10573453  1
  Ti  Ti167  1  0.50598851  0.09573727  0.50942577  1
  Ti  Ti168  1  0.49680695  0.29789898  0.90092859  1
  Ti  Ti169  1  0.70338780  0.70505522  0.29840998  1
  Ti  Ti170  1  0.11565742  0.90233994  0.49376572  1
  Ti  Ti171  1  0.10040808  0.10652836  0.29280852  1
  Ti  Ti172  1  0.59820959  -0.01028524  0.61739113  1
  Ti  Ti173  1  0.19892388  0.00357902  0.79966053  1
  Ti  Ti174  1  0.09423253  0.91055864  0.90667406  1
  Ti  Ti175  1  0.19990553  0.80306658  0.19006336  1
  Ti  Ti176  1  0.29387557  0.90322018  0.31001693  1
  Ti  Ti177  1  0.80002652  0.80089354  0.79604585  1
  Ti  Ti178  1  0.10303820  0.29577255  0.29799419  1
  Ti  Ti179  1  0.79709178  -0.00147537  -0.01496612  1
  Ti  Ti180  1  0.09296635  0.28632294  0.69941683  1
  Ti  Ti181  1  0.69936324  0.49210237  0.29970853  1
  Ti  Ti182  1  0.50473439  0.29830051  0.51028282  1
  Ti  Ti183  1  0.68661178  0.10088901  0.70065422  1
  Ti  Ti184  1  0.80750850  0.60106955  -0.01082538  1
  Ti  Ti185  1  0.29546741  0.90749277  0.09708452  1
  Ti  Ti186  1  0.90306948  0.49770479  0.89465997  1
  Ti  Ti187  1  0.29758922  0.90348216  0.49305887  1
  Ti  Ti188  1  0.79967013  0.80296647  0.19864749  1
  Ti  Ti189  1  0.09179476  0.10302996  0.70138488  1
  Ti  Ti190  1  0.69183494  0.29070647  0.51252500  1
  Ti  Ti191  1  0.80467541  0.80997726  -0.02021087  1
  Ti  Ti192  1  0.09316695  0.50513961  0.70624073  1
  Ti  Ti193  1  0.50231315  0.09452933  0.09668036  1
  Ti  Ti194  1  0.29440207  0.91248596  0.90089354  1
  Ti  Ti195  1  0.59386124  0.40529705  -0.00000101  1
  Ti  Ti196  1  0.29509640  0.49650148  0.10108223  1
  Ti  Ti197  1  0.00023050  0.80856494  0.60391337  1
  Ti  Ti198  1  0.20579678  0.39713415  0.19758437  1
  Ti  Ti199  1  0.10381219  0.29541845  0.10305370  1
  Mo  Mo200  1  0.19907485  0.19922611  0.39320911  1
  Mo  Mo201  1  0.29789836  0.71607030  0.50087148  1
  Mo  Mo202  1  0.09610779  0.90018039  0.70999857  1
  Mo  Mo203  1  0.00816889  0.00030237  0.00267166  1
  Mo  Mo204  1  0.90302345  0.89747226  0.89739319  1
  Mo  Mo205  1  0.49281625  0.90715042  0.89983379  1
  Mo  Mo206  1  -0.00424984  0.59103262  0.80436439  1
  Mo  Mo207  1  0.59148187  0.19468242  0.59867717  1
  Mo  Mo208  1  0.78455406  0.19188504  0.60390696  1
  Mo  Mo209  1  0.29835565  0.69803181  0.10073129  1
  Mo  Mo210  1  0.39572228  0.59523493  0.81541282  1
  Mo  Mo211  1  0.29718071  0.30655812  0.10602924  1
  Mo  Mo212  1  0.29881891  0.09368606  0.89855344  1
  Mo  Mo213  1  -0.00290801  0.81292428  0.80595211  1
  Mo  Mo214  1  0.90118246  0.49892801  0.49414948  1
  Mo  Mo215  1  0.39650372  0.40561963  0.00378907  1
  Mo  Mo216  1  0.69675546  0.90163513  0.69997200  1
  Mo  Mo217  1  0.30730491  0.09975039  0.70004605  1
  Mo  Mo218  1  0.59610046  0.39475569  0.60193125  1
  Mo  Mo219  1  0.29943115  0.68434956  0.89996335  1
  Mo  Mo220  1  0.19869405  0.60140269  0.19493795  1
  Mo  Mo221  1  0.29592310  0.10067584  0.30398803  1
  Mo  Mo222  1  0.00431091  0.38414004  0.39463486  1
  Mo  Mo223  1  0.49626312  0.90697225  0.69790840  1
  Mo  Mo224  1  0.70279805  0.89522089  0.89880817  1
  Mo  Mo225  1  0.39741705  0.39632458  0.39605041  1
  Mo  Mo226  1  0.50053644  0.09605905  0.30061137  1
  Mo  Mo227  1  0.59583922  0.20254892  0.80473384  1
  Mo  Mo228  1  0.50021673  0.50132407  0.09650010  1
  Mo  Mo229  1  0.01744772  0.19430148  0.59881214  1
  Mo  Mo230  1  0.90680940  0.30251969  0.09936247  1
  Mo  Mo231  1  0.30122472  0.48836986  0.29585334  1
  Mo  Mo232  1  0.29552924  0.29373705  0.50017485  1
  Mo  Mo233  1  0.89349162  0.90855538  0.50624037  1
  Mo  Mo234  1  0.19641703  0.19940950  0.00864107  1
  Mo  Mo235  1  0.90969564  0.29551710  0.50054534  1
  Mo  Mo236  1  0.20015498  0.80647490  0.40394909  1
  Mo  Mo237  1  0.00765373  0.19533024  0.19776530  1
  Mo  Mo238  1  0.09461202  0.69599861  0.90348476  1
  Mo  Mo239  1  0.69749001  0.70402421  0.70219609  1
  Mo  Mo240  1  0.29599279  0.09478549  0.09828922  1
  Mo  Mo241  1  0.80198401  0.40659023  0.80363820  1
  Mo  Mo242  1  0.40013951  0.20182204  0.79760833  1
  Mo  Mo243  1  0.68943623  0.09796766  0.89722861  1
  Mo  Mo244  1  0.90250272  0.70555815  0.70333583  1
  Mo  Mo245  1  0.59747565  0.00063079  0.79772846  1
  Mo  Mo246  1  0.80434113  0.00374804  0.40957996  1
  Mo  Mo247  1  0.00732805  0.19748474  0.79737619  1
  Mo  Mo248  1  0.10528908  0.10179837  0.50221168  1
  Mo  Mo249  1  0.00463053  0.61576963  0.39485447  1
