# generated using pymatgen
data_HfZrTaTiMo
_symmetry_space_group_name_H-M   'P 1'
_cell_length_a   16.87745765
_cell_length_b   16.87480440
_cell_length_c   16.88541000
_cell_angle_alpha   90.03396427
_cell_angle_beta   89.96071661
_cell_angle_gamma   90.01617034
_symmetry_Int_Tables_number   1
_chemical_formula_structural   HfZrTaTiMo
_chemical_formula_sum   'Hf50 Zr50 Ta50 Ti50 Mo50'
_cell_volume   4809.02670828
_cell_formula_units_Z   50
loop_
 _symmetry_equiv_pos_site_id
 _symmetry_equiv_pos_as_xyz
  1  'x, y, z'
loop_
 _atom_site_type_symbol
 _atom_site_label
 _atom_site_symmetry_multiplicity
 _atom_site_fract_x
 _atom_site_fract_y
 _atom_site_fract_z
 _atom_site_occupancy
  Hf  Hf0  1  0.39755792  0.60680912  -0.00352748  1
  Hf  Hf1  1  0.80556777  0.19401085  0.01114087  1
  Hf  Hf2  1  0.18986870  0.59763787  0.60056289  1
  Hf  Hf3  1  0.60109684  0.60688892  -0.00671856  1
  Hf  Hf4  1  0.81201072  0.39359868  0.00682823  1
  Hf  Hf5  1  0.39631248  0.19633475  0.20196529  1
  Hf  Hf6  1  0.49919766  0.29614098  0.30202604  1
  Hf  Hf7  1  0.30468778  0.70768088  0.10409862  1
  Hf  Hf8  1  0.88977965  0.69877469  0.70371148  1
  Hf  Hf9  1  0.09108388  0.49787839  0.30292814  1
  Hf  Hf10  1  0.49410918  0.49481611  0.09676838  1
  Hf  Hf11  1  0.29252112  0.29617859  0.70125133  1
  Hf  Hf12  1  0.00362053  0.60036924  0.79983426  1
  Hf  Hf13  1  0.80639928  0.40150943  0.20162430  1
  Hf  Hf14  1  0.70645780  0.90238325  0.89474819  1
  Hf  Hf15  1  0.40117055  0.19767445  0.79915253  1
  Hf  Hf16  1  0.89909653  0.69733930  0.30498419  1
  Hf  Hf17  1  0.70068340  0.90540921  0.49581119  1
  Hf  Hf18  1  0.50053959  0.09670118  0.49524760  1
  Hf  Hf19  1  0.80318122  0.00148530  0.00361780  1
  Hf  Hf20  1  0.70677941  0.29080309  0.89483981  1
  Hf  Hf21  1  0.29710351  0.10034937  0.09618267  1
  Hf  Hf22  1  0.39490780  0.39663659  0.20262433  1
  Hf  Hf23  1  0.40857912  0.80961993  0.40446997  1
  Hf  Hf24  1  0.19662597  0.00872482  0.60015381  1
  Hf  Hf25  1  0.80752787  0.20386362  0.20002970  1
  Hf  Hf26  1  0.60036186  0.59553389  0.20689149  1
  Hf  Hf27  1  0.90202547  0.10252485  0.88748329  1
  Hf  Hf28  1  0.19530080  0.00720498  0.80369971  1
  Hf  Hf29  1  0.30581514  0.90101436  0.10714432  1
  Hf  Hf30  1  0.90243020  0.90311257  0.10992180  1
  Hf  Hf31  1  0.49408394  0.70506468  0.28991365  1
  Hf  Hf32  1  0.29352652  0.29442182  0.49640473  1
  Hf  Hf33  1  0.90704927  0.09825199  0.29482750  1
  Hf  Hf34  1  0.10629622  0.90361454  0.10053653  1
  Hf  Hf35  1  -0.00770645  0.79460114  0.00040530  1
  Hf  Hf36  1  0.29953847  0.90152504  0.48879045  1
  Hf  Hf37  1  0.70230290  0.50459779  0.50246946  1
  Hf  Hf38  1  0.29480816  0.50083114  0.09208009  1
  Hf  Hf39  1  0.19733545  0.60050484  0.40297746  1
  Hf  Hf40  1  0.60136411  0.39533573  -0.00729438  1
  Hf  Hf41  1  0.70514079  0.30050384  0.69279265  1
  Hf  Hf42  1  0.19193247  0.39258188  0.00178908  1
  Hf  Hf43  1  0.19140386  0.39016829  0.19736860  1
  Hf  Hf44  1  0.10749302  0.69662534  0.09686039  1
  Hf  Hf45  1  0.80118935  0.59682827  0.20426769  1
  Hf  Hf46  1  0.18932422  0.40365358  0.79798036  1
  Hf  Hf47  1  -0.00518742  0.80348052  0.80901502  1
  Hf  Hf48  1  0.81150819  0.60146144  0.00372367  1
  Hf  Hf49  1  -0.00547497  0.79389925  0.60136367  1
  Zr  Zr50  1  0.49778096  0.90368123  0.10288950  1
  Zr  Zr51  1  -0.00320732  0.80140812  0.39928426  1
  Zr  Zr52  1  0.09367525  0.29503734  0.51207169  1
  Zr  Zr53  1  0.90733262  0.50177394  0.31845770  1
  Zr  Zr54  1  0.80132337  0.01103446  0.60367680  1
  Zr  Zr55  1  0.39705269  0.40173135  0.59951403  1
  Zr  Zr56  1  0.60444865  0.20501082  0.40208060  1
  Zr  Zr57  1  0.00331095  -0.00074648  -0.00754928  1
  Zr  Zr58  1  0.00773850  0.00984469  0.40319420  1
  Zr  Zr59  1  0.69580895  0.09970712  0.29684618  1
  Zr  Zr60  1  0.79729625  0.39297343  0.40770539  1
  Zr  Zr61  1  0.40139573  0.19332374  0.60018238  1
  Zr  Zr62  1  0.60534512  0.80276883  0.20207163  1
  Zr  Zr63  1  0.00091547  0.19604381  0.40632689  1
  Zr  Zr64  1  0.49292202  0.29269226  0.09084913  1
  Zr  Zr65  1  0.29289589  0.70373226  0.70720769  1
  Zr  Zr66  1  0.30149502  0.89797508  0.90762779  1
  Zr  Zr67  1  0.09853541  0.89963308  0.49977041  1
  Zr  Zr68  1  0.60005829  0.79805110  0.79578108  1
  Zr  Zr69  1  0.70456591  0.70534446  0.09903924  1
  Zr  Zr70  1  0.09168684  0.29762975  0.89446759  1
  Zr  Zr71  1  0.69892247  0.49688218  0.09663736  1
  Zr  Zr72  1  0.39634072  0.60647949  0.59462324  1
  Zr  Zr73  1  0.70280645  0.69496773  0.50181464  1
  Zr  Zr74  1  0.60446538  0.39934722  0.79582510  1
  Zr  Zr75  1  0.09749715  0.50778683  0.90901314  1
  Zr  Zr76  1  0.09915224  0.89734971  0.70173643  1
  Zr  Zr77  1  0.00267023  0.20357620  0.00740287  1
  Zr  Zr78  1  0.89401671  0.90648820  0.29977386  1
  Zr  Zr79  1  0.40087340  0.60389343  0.80293471  1
  Zr  Zr80  1  0.90381378  0.49520057  0.69856876  1
  Zr  Zr81  1  0.68817538  0.29106267  0.10799203  1
  Zr  Zr82  1  0.40246425  -0.00858263  0.60057413  1
  Zr  Zr83  1  0.19842912  0.00770727  0.39315789  1
  Zr  Zr84  1  0.91625264  0.29632186  0.69452316  1
  Zr  Zr85  1  0.90325862  0.29893774  0.88474457  1
  Zr  Zr86  1  0.19780146  0.79166511  0.59257231  1
  Zr  Zr87  1  0.50550086  0.50257677  0.69329772  1
  Zr  Zr88  1  0.18772993  0.40378584  0.60712477  1
  Zr  Zr89  1  0.29674399  0.49247601  0.30465346  1
  Zr  Zr90  1  0.40567599  0.80502539  0.79240943  1
  Zr  Zr91  1  0.50116767  0.09983575  0.90509299  1
  Zr  Zr92  1  0.29834349  0.71073858  0.29974982  1
  Zr  Zr93  1  0.49286702  0.49373100  0.89958354  1
  Zr  Zr94  1  0.79968161  0.80387810  0.60178928  1
  Zr  Zr95  1  0.69881919  0.91205544  0.70850966  1
  Zr  Zr96  1  0.39891540  0.00130382  0.79342476  1
  Zr  Zr97  1  0.40625634  0.59633025  0.39908180  1
  Zr  Zr98  1  0.69814412  0.09072771  0.88480537  1
  Zr  Zr99  1  0.59954326  0.80029009  0.39848081  1
  Ta  Ta100  1  0.60196940  0.40364085  0.39804506  1
  Ta  Ta101  1  0.59811598  0.40442157  0.21306481  1
  Ta  Ta102  1  0.11221742  0.70001709  0.90229965  1
  Ta  Ta103  1  0.00377292  0.00025666  0.80022229  1
  Ta  Ta104  1  0.60725146  0.39846184  0.59321015  1
  Ta  Ta105  1  0.70183686  0.90731557  0.29782982  1
  Ta  Ta106  1  0.29656396  0.28952690  0.09036489  1
  Ta  Ta107  1  0.50270076  0.29973250  0.69618598  1
  Ta  Ta108  1  0.40135795  0.00372564  0.00193456  1
  Ta  Ta109  1  0.69870151  0.69222239  0.69696169  1
  Ta  Ta110  1  0.20129013  0.00343371  0.20692805  1
  Ta  Ta111  1  0.19643815  0.59805222  0.20019628  1
  Ta  Ta112  1  0.00172363  0.59936219  0.59849798  1
  Ta  Ta113  1  0.30060923  0.29443378  0.90462216  1
  Ta  Ta114  1  0.10857480  0.09980266  0.09871624  1
  Ta  Ta115  1  0.19161087  0.19605291  0.80007195  1
  Ta  Ta116  1  0.91576182  0.09380987  0.11244308  1
  Ta  Ta117  1  0.89547283  0.68435715  0.49521687  1
  Ta  Ta118  1  0.50671229  0.49877127  0.49757080  1
  Ta  Ta119  1  0.80456532  0.20218078  0.40787117  1
  Ta  Ta120  1  0.29482318  0.49515898  0.49945939  1
  Ta  Ta121  1  0.08415007  0.49601398  0.49486914  1
  Ta  Ta122  1  0.59154164  0.80469839  0.60021232  1
  Ta  Ta123  1  0.69736893  0.10145847  0.50153923  1
  Ta  Ta124  1  0.90419200  0.49458286  0.89803649  1
  Ta  Ta125  1  0.60744412  0.59993973  0.79974152  1
  Ta  Ta126  1  0.09710322  0.50494606  0.09890038  1
  Ta  Ta127  1  0.80519510  0.20138247  0.58845253  1
  Ta  Ta128  1  0.60466516  0.59537561  0.38913276  1
  Ta  Ta129  1  0.90951409  0.30234803  0.30516760  1
  Ta  Ta130  1  0.50482342  0.90406638  0.90374919  1
  Ta  Ta131  1  0.09840048  0.69858895  0.29877813  1
  Ta  Ta132  1  0.80018522  0.40421933  0.79463297  1
  Ta  Ta133  1  0.80585634  0.80326409  -0.00286683  1
  Ta  Ta134  1  0.89943926  0.90881252  0.50312705  1
  Ta  Ta135  1  0.59540971  -0.00327181  0.39867931  1
  Ta  Ta136  1  0.29310584  0.10644334  0.91022415  1
  Ta  Ta137  1  0.90851222  0.10022851  0.69647952  1
  Ta  Ta138  1  0.00193923  0.79566291  0.19934882  1
  Ta  Ta139  1  -0.00416680  0.60199506  0.19276268  1
  Ta  Ta140  1  0.50046141  0.71019760  0.90359858  1
  Ta  Ta141  1  0.39732532  0.19553117  0.39855445  1
  Ta  Ta142  1  0.29314001  0.50529647  0.70735282  1
  Ta  Ta143  1  0.10722020  0.89722317  0.90324146  1
  Ta  Ta144  1  0.59878414  0.19848057  0.79068542  1
  Ta  Ta145  1  0.29283106  0.29155231  0.30772481  1
  Ta  Ta146  1  0.49095383  0.91443183  0.29460854  1
  Ta  Ta147  1  0.50217783  0.30315493  0.50048440  1
  Ta  Ta148  1  0.70922393  0.50072283  0.89734668  1
  Ta  Ta149  1  0.60427536  0.80326710  -0.00214825  1
  Ti  Ti150  1  0.49256724  0.71060834  0.09839936  1
  Ti  Ti151  1  0.00989152  0.20646330  0.19779443  1
  Ti  Ti152  1  0.69950740  0.29890539  0.29828530  1
  Ti  Ti153  1  0.19972125  0.80549912  0.20908220  1
  Ti  Ti154  1  0.41056340  0.80430810  0.59645148  1
  Ti  Ti155  1  0.09573999  0.29950791  0.30565426  1
  Ti  Ti156  1  0.19149895  0.18883128  0.39712312  1
  Ti  Ti157  1  0.89734457  0.90720623  0.70815491  1
  Ti  Ti158  1  0.39893380  0.59372048  0.20165377  1
  Ti  Ti159  1  0.29477865  0.49963166  0.90011343  1
  Ti  Ti160  1  0.60546709  0.20099489  0.59979656  1
  Ti  Ti161  1  0.30603549  0.09511328  0.30094058  1
  Ti  Ti162  1  0.70730266  0.70361738  0.89312858  1
  Ti  Ti163  1  0.19526497  0.20045443  0.20323640  1
  Ti  Ti164  1  0.40237134  0.39799540  0.40117874  1
  Ti  Ti165  1  0.29919593  0.70507807  0.49335554  1
  Ti  Ti166  1  -0.00930027  0.60491532  0.00514774  1
  Ti  Ti167  1  0.79347870  0.00518749  0.19526172  1
  Ti  Ti168  1  0.59735192  -0.00285981  0.59991402  1
  Ti  Ti169  1  0.80205233  0.59080562  0.60274202  1
  Ti  Ti170  1  0.09134087  0.10887955  0.69324709  1
  Ti  Ti171  1  0.60138000  -0.00176549  0.00459819  1
  Ti  Ti172  1  0.29379222  0.70396987  0.90108869  1
  Ti  Ti173  1  0.39456061  0.39641709  0.80045114  1
  Ti  Ti174  1  0.29268248  0.89296407  0.69898142  1
  Ti  Ti175  1  0.29820360  0.10302897  0.49674633  1
  Ti  Ti176  1  0.09254282  0.69723231  0.48832503  1
  Ti  Ti177  1  0.79469621  0.59309298  0.79862008  1
  Ti  Ti178  1  0.89027413  0.69992861  0.89417200  1
  Ti  Ti179  1  0.50083436  0.09478695  0.29374961  1
  Ti  Ti180  1  0.59975266  0.19577063  -0.00372906  1
  Ti  Ti181  1  0.19219035  0.39629556  0.40240531  1
  Ti  Ti182  1  0.80110498  0.01138929  0.40528230  1
  Ti  Ti183  1  0.29315442  0.10625624  0.69938455  1
  Ti  Ti184  1  0.70061792  0.90278845  0.10327176  1
  Ti  Ti185  1  0.79690965  0.79845961  0.39813977  1
  Ti  Ti186  1  0.10552865  0.69998190  0.71277566  1
  Ti  Ti187  1  0.80007536  0.79752492  0.20152929  1
  Ti  Ti188  1  0.50267908  0.09837987  0.10610325  1
  Ti  Ti189  1  0.80474413  0.39716164  0.59400591  1
  Ti  Ti190  1  0.68321097  0.09979740  0.10980674  1
  Ti  Ti191  1  0.79541556  0.18947062  0.77989649  1
  Ti  Ti192  1  0.10222664  0.89715295  0.29821016  1
  Ti  Ti193  1  0.20279542  0.80059680  0.00029990  1
  Ti  Ti194  1  0.49149024  0.29654254  0.90022970  1
  Ti  Ti195  1  0.51298918  0.09599346  0.69893259  1
  Ti  Ti196  1  0.51038727  0.69187983  0.50424883  1
  Ti  Ti197  1  -0.00467598  0.39651015  0.01488016  1
  Ti  Ti198  1  0.50770005  0.69672137  0.69402949  1
  Ti  Ti199  1  -0.00161654  0.39600268  0.19177709  1
  Mo  Mo200  1  0.90153014  0.49935649  0.50746839  1
  Mo  Mo201  1  0.80077797  0.79778359  0.80399963  1
  Mo  Mo202  1  0.59469227  0.19974096  0.20166903  1
  Mo  Mo203  1  0.10064544  0.10318222  0.51641186  1
  Mo  Mo204  1  0.59155138  0.00175232  0.79344311  1
  Mo  Mo205  1  0.69516362  0.10610024  0.69252696  1
  Mo  Mo206  1  0.01521714  -0.00064041  0.20164058  1
  Mo  Mo207  1  0.00148996  0.60252278  0.40355759  1
  Mo  Mo208  1  0.10091753  0.29874384  0.10544084  1
  Mo  Mo209  1  0.09577613  0.50606226  0.69784794  1
  Mo  Mo210  1  0.89831454  0.10100971  0.50208686  1
  Mo  Mo211  1  0.50371197  0.90158458  0.69554808  1
  Mo  Mo212  1  0.50334836  0.90500701  0.49893249  1
  Mo  Mo213  1  0.00144343  0.40813018  0.79289663  1
  Mo  Mo214  1  0.89967176  0.30123862  0.50180124  1
  Mo  Mo215  1  0.09588624  0.29214713  0.70331265  1
  Mo  Mo216  1  0.69922944  0.49838671  0.30497788  1
  Mo  Mo217  1  0.20582121  0.60383658  0.00133387  1
  Mo  Mo218  1  0.70618228  0.50139242  0.69816433  1
  Mo  Mo219  1  0.20108449  0.00214003  0.00117178  1
  Mo  Mo220  1  0.91205490  0.49931665  0.09646478  1
  Mo  Mo221  1  0.39762559  0.00835517  0.20170047  1
  Mo  Mo222  1  0.40037637  0.00758902  0.39490211  1
  Mo  Mo223  1  0.38867802  0.39419102  -0.00778627  1
  Mo  Mo224  1  -0.00367715  0.00077765  0.60366323  1
  Mo  Mo225  1  0.20007453  0.60087216  0.80474477  1
  Mo  Mo226  1  0.40643776  0.80089447  -0.00136925  1
  Mo  Mo227  1  0.79677778  0.59892139  0.40150395  1
  Mo  Mo228  1  0.69960063  0.29865685  0.50423281  1
  Mo  Mo229  1  0.60132004  0.60075180  0.60106362  1
  Mo  Mo230  1  0.60075803  0.00250830  0.20143609  1
  Mo  Mo231  1  0.40024605  0.19677930  -0.00105611  1
  Mo  Mo232  1  0.19675605  0.19834753  -0.00194443  1
  Mo  Mo233  1  0.00934286  0.19022029  0.79286206  1
  Mo  Mo234  1  0.90274595  0.70547497  0.10453686  1
  Mo  Mo235  1  -0.00331161  0.40484826  0.59653642  1
  Mo  Mo236  1  0.70751540  0.70210143  0.30378393  1
  Mo  Mo237  1  0.90816834  0.29622789  0.11284234  1
  Mo  Mo238  1  0.30259645  0.90510980  0.29658273  1
  Mo  Mo239  1  0.19866719  0.79713754  0.39260174  1
  Mo  Mo240  1  -0.00167024  0.19207533  0.59765848  1
  Mo  Mo241  1  0.19698223  0.80054548  0.80832121  1
  Mo  Mo242  1  0.89823781  0.90085494  0.89530703  1
  Mo  Mo243  1  0.40024821  0.80937934  0.20298509  1
  Mo  Mo244  1  0.19797725  0.19284459  0.60472381  1
  Mo  Mo245  1  -0.00191372  0.39292187  0.40525381  1
  Mo  Mo246  1  0.49940585  0.49560997  0.30314663  1
  Mo  Mo247  1  0.10310981  0.09698936  0.89984401  1
  Mo  Mo248  1  0.10307662  0.10698083  0.28373810  1
  Mo  Mo249  1  0.81240733  0.00124637  0.79732525  1
