# generated using pymatgen
data_HfZrTaTiMo
_symmetry_space_group_name_H-M   'P 1'
_cell_length_a   16.88063094
_cell_length_b   16.88983445
_cell_length_c   16.88070805
_cell_angle_alpha   90.04099674
_cell_angle_beta   89.96989548
_cell_angle_gamma   89.97911561
_symmetry_Int_Tables_number   1
_chemical_formula_structural   HfZrTaTiMo
_chemical_formula_sum   'Hf50 Zr50 Ta50 Ti50 Mo50'
_cell_volume   4812.87438207
_cell_formula_units_Z   50
loop_
 _symmetry_equiv_pos_site_id
 _symmetry_equiv_pos_as_xyz
  1  'x, y, z'
loop_
 _atom_site_type_symbol
 _atom_site_label
 _atom_site_symmetry_multiplicity
 _atom_site_fract_x
 _atom_site_fract_y
 _atom_site_fract_z
 _atom_site_occupancy
  Hf  Hf0  1  0.10850362  0.69435843  0.09459847  1
  Hf  Hf1  1  0.80122672  0.00845770  0.01118226  1
  Hf  Hf2  1  0.60568070  0.40200878  0.39436033  1
  Hf  Hf3  1  0.60638262  0.40687065  0.80563780  1
  Hf  Hf4  1  0.30124623  0.50040997  0.49915981  1
  Hf  Hf5  1  0.19195257  0.00131463  -0.00083738  1
  Hf  Hf6  1  0.28606312  0.10028123  0.32029668  1
  Hf  Hf7  1  0.60084351  0.80130528  0.59251323  1
  Hf  Hf8  1  0.70589431  0.30034993  0.91031183  1
  Hf  Hf9  1  0.10387443  0.70689562  0.29409752  1
  Hf  Hf10  1  0.59886334  0.20431525  0.79750602  1
  Hf  Hf11  1  0.80500338  0.19977630  0.59572512  1
  Hf  Hf12  1  0.21786615  0.58948394  0.78609252  1
  Hf  Hf13  1  0.09203715  0.29903018  0.89860551  1
  Hf  Hf14  1  0.90277950  0.49859013  0.90460073  1
  Hf  Hf15  1  0.00813030  0.00484507  0.80400004  1
  Hf  Hf16  1  0.09643732  0.30161052  0.69659904  1
  Hf  Hf17  1  0.09887207  0.89175997  0.10242805  1
  Hf  Hf18  1  0.80210256  0.20115656  0.79675944  1
  Hf  Hf19  1  0.90175156  0.10940441  0.89764940  1
  Hf  Hf20  1  0.19946933  0.20818593  0.20083330  1
  Hf  Hf21  1  0.22442084  0.79731450  0.18685147  1
  Hf  Hf22  1  0.00049531  0.00253615  -0.00219244  1
  Hf  Hf23  1  0.60523146  -0.00468265  0.39376844  1
  Hf  Hf24  1  0.40695122  0.59483466  0.00610346  1
  Hf  Hf25  1  0.39537843  0.80387697  0.02086701  1
  Hf  Hf26  1  0.69688077  0.09195652  0.69317445  1
  Hf  Hf27  1  0.48602156  0.89880790  0.67759923  1
  Hf  Hf28  1  0.71324575  0.29088317  0.10622728  1
  Hf  Hf29  1  0.20854761  0.01012867  0.59053557  1
  Hf  Hf30  1  0.70417501  0.70235219  0.70423521  1
  Hf  Hf31  1  0.40399560  0.00078259  0.79845602  1
  Hf  Hf32  1  0.40763689  0.79335135  0.81046312  1
  Hf  Hf33  1  0.60900827  0.39871444  0.20191327  1
  Hf  Hf34  1  0.80060233  0.80753014  0.20620477  1
  Hf  Hf35  1  0.09601877  0.10282775  0.30430571  1
  Hf  Hf36  1  0.19635018  0.40028479  0.19619949  1
  Hf  Hf37  1  0.38906677  0.20388760  0.20124379  1
  Hf  Hf38  1  0.29621640  0.89709641  0.90477050  1
  Hf  Hf39  1  0.10051602  0.89431782  0.69105299  1
  Hf  Hf40  1  0.19992367  0.59915131  0.39550360  1
  Hf  Hf41  1  0.89581469  0.50174648  0.49968590  1
  Hf  Hf42  1  -0.00535113  0.79745220  -0.00251607  1
  Hf  Hf43  1  0.69775186  0.70053038  0.29704545  1
  Hf  Hf44  1  0.89512988  0.90229236  0.70131789  1
  Hf  Hf45  1  0.50116212  0.69833086  0.10806509  1
  Hf  Hf46  1  0.89346594  0.29527753  0.29338164  1
  Hf  Hf47  1  0.30038728  0.10236064  0.90311849  1
  Hf  Hf48  1  0.70218922  0.09614115  0.90396961  1
  Hf  Hf49  1  0.59391185  -0.00977584  0.79996314  1
  Zr  Zr50  1  0.49649416  0.29775371  0.30362282  1
  Zr  Zr51  1  0.40251453  0.00010597  0.41762030  1
  Zr  Zr52  1  0.19023531  0.20585234  0.00758607  1
  Zr  Zr53  1  0.89344500  0.70480827  0.70497121  1
  Zr  Zr54  1  -0.00024749  0.39394244  0.01433554  1
  Zr  Zr55  1  0.79311181  0.59261113  0.81010485  1
  Zr  Zr56  1  -0.00619579  0.60822358  0.59261795  1
  Zr  Zr57  1  0.50779066  0.09856520  0.90825560  1
  Zr  Zr58  1  0.29922951  0.30862744  0.90771235  1
  Zr  Zr59  1  0.70859528  0.30837473  0.69277716  1
  Zr  Zr60  1  0.80483168  0.60831674  0.39683268  1
  Zr  Zr61  1  0.89641506  0.49079383  0.69252239  1
  Zr  Zr62  1  0.59892826  0.60224373  0.59855033  1
  Zr  Zr63  1  0.10955683  0.89345154  0.49040136  1
  Zr  Zr64  1  0.59429441  0.80182899  0.80634892  1
  Zr  Zr65  1  0.50527261  0.11666204  0.50411856  1
  Zr  Zr66  1  0.40513571  0.20261225  0.79873972  1
  Zr  Zr67  1  0.28819547  0.70104297  0.91492238  1
  Zr  Zr68  1  0.09165004  0.50667723  0.29611750  1
  Zr  Zr69  1  0.59820202  0.59222207  0.19872495  1
  Zr  Zr70  1  0.38147150  0.59876965  0.61916001  1
  Zr  Zr71  1  0.88670476  0.89853803  0.89010291  1
  Zr  Zr72  1  0.79758223  0.39692166  0.39233960  1
  Zr  Zr73  1  0.39561589  -0.01321681  0.19517423  1
  Zr  Zr74  1  0.70018164  0.10079341  0.49711376  1
  Zr  Zr75  1  0.10598463  0.69832450  0.69359811  1
  Zr  Zr76  1  0.60303579  0.79959085  0.40001993  1
  Zr  Zr77  1  0.90064276  0.90125187  0.49423050  1
  Zr  Zr78  1  0.40252666  0.20181111  0.00968762  1
  Zr  Zr79  1  0.19840820  -0.00035816  0.19912674  1
  Zr  Zr80  1  0.48596903  0.69412152  0.49781759  1
  Zr  Zr81  1  0.59814578  0.40105348  0.59668129  1
  Zr  Zr82  1  -0.01433732  -0.00089560  0.20238021  1
  Zr  Zr83  1  0.40246604  0.59952482  0.81062619  1
  Zr  Zr84  1  0.19671510  0.00675888  0.80041160  1
  Zr  Zr85  1  0.49451136  0.29959479  0.49809980  1
  Zr  Zr86  1  0.09709507  0.11078385  0.69439741  1
  Zr  Zr87  1  0.30773857  0.88605712  0.51061444  1
  Zr  Zr88  1  0.29861768  0.29628571  0.69611977  1
  Zr  Zr89  1  0.50036718  0.49693420  0.70187853  1
  Zr  Zr90  1  0.69762483  0.70331779  0.09281628  1
  Zr  Zr91  1  0.29326296  0.89245197  0.31618454  1
  Zr  Zr92  1  0.19918967  0.39389103  0.39764511  1
  Zr  Zr93  1  0.51113964  0.09580560  0.10581293  1
  Zr  Zr94  1  0.11048005  0.11214118  0.48876466  1
  Zr  Zr95  1  0.10530639  0.50015764  0.90449179  1
  Zr  Zr96  1  0.29849310  0.89336434  0.69562071  1
  Zr  Zr97  1  0.10098935  0.69323469  0.90079527  1
  Zr  Zr98  1  0.49938879  0.10501235  0.30374532  1
  Zr  Zr99  1  0.48528691  0.50255767  0.30027871  1
  Ta  Ta100  1  -0.00107178  0.39810896  0.39997778  1
  Ta  Ta101  1  0.29175284  0.70012800  0.50016669  1
  Ta  Ta102  1  0.80699362  0.59851589  0.19394116  1
  Ta  Ta103  1  0.09925404  0.89301669  0.30392682  1
  Ta  Ta104  1  0.80708459  0.40698635  0.19371285  1
  Ta  Ta105  1  0.90577347  0.30091754  0.70005627  1
  Ta  Ta106  1  0.90245031  0.09855405  0.69704040  1
  Ta  Ta107  1  0.90236186  0.10092376  0.49112895  1
  Ta  Ta108  1  0.60812046  0.19970909  0.00933620  1
  Ta  Ta109  1  0.09989104  0.49849838  0.69367397  1
  Ta  Ta110  1  -0.00516291  0.20402178  0.19317534  1
  Ta  Ta111  1  0.59830759  0.80910435  0.20069153  1
  Ta  Ta112  1  0.89452054  0.89852217  0.10028451  1
  Ta  Ta113  1  -0.00410238  0.79857879  0.59141941  1
  Ta  Ta114  1  -0.00430094  0.39648906  0.19703665  1
  Ta  Ta115  1  0.40033013  0.40510150  0.80630023  1
  Ta  Ta116  1  0.20357926  0.40384951  0.79980904  1
  Ta  Ta117  1  0.69814547  0.70384270  0.90818309  1
  Ta  Ta118  1  -0.00203975  0.59714635  0.79982075  1
  Ta  Ta119  1  0.19575431  0.40150673  0.59752244  1
  Ta  Ta120  1  0.50621137  0.30317412  0.10134673  1
  Ta  Ta121  1  -0.00299971  -0.00130005  0.39457830  1
  Ta  Ta122  1  0.60109789  0.60044771  0.81374755  1
  Ta  Ta123  1  0.60008998  0.59551231  0.40205334  1
  Ta  Ta124  1  0.48803046  0.49904415  0.49153936  1
  Ta  Ta125  1  0.50765765  0.49759960  0.91103854  1
  Ta  Ta126  1  0.80616589  0.40117429  0.00678448  1
  Ta  Ta127  1  0.70615689  0.50083513  0.50429216  1
  Ta  Ta128  1  0.71023193  0.50285982  0.69082911  1
  Ta  Ta129  1  0.31216310  0.69414382  0.30114899  1
  Ta  Ta130  1  0.49675398  0.89346584  0.29995163  1
  Ta  Ta131  1  0.09306696  0.29653144  0.30229470  1
  Ta  Ta132  1  0.80091251  0.79673889  0.59059761  1
  Ta  Ta133  1  0.60858306  -0.00611495  0.20338665  1
  Ta  Ta134  1  -0.00453551  0.20398721  0.59156630  1
  Ta  Ta135  1  0.09140222  0.10466767  0.10138673  1
  Ta  Ta136  1  0.70683866  0.90259364  0.49938140  1
  Ta  Ta137  1  0.89179276  0.70036295  0.89948575  1
  Ta  Ta138  1  0.80341253  -0.00385306  0.38459471  1
  Ta  Ta139  1  0.21282825  0.59571044  0.19602916  1
  Ta  Ta140  1  0.50630175  0.30737993  0.91104636  1
  Ta  Ta141  1  0.70934367  0.90056867  0.69779599  1
  Ta  Ta142  1  0.40829279  -0.00980509  0.00364973  1
  Ta  Ta143  1  0.69712011  0.90331155  0.09726237  1
  Ta  Ta144  1  0.19430923  0.19942688  0.80293196  1
  Ta  Ta145  1  -0.00087863  0.00472231  0.59138007  1
  Ta  Ta146  1  0.90503663  0.50289910  0.29517224  1
  Ta  Ta147  1  0.70365941  0.50179303  0.09528455  1
  Ta  Ta148  1  0.69529520  0.29346344  0.49677473  1
  Ta  Ta149  1  0.09794084  0.50255316  0.50236473  1
  Ti  Ti150  1  0.70822070  0.69570582  0.50020689  1
  Ti  Ti151  1  0.49275723  0.69790752  0.29795998  1
  Ti  Ti152  1  0.89480406  0.30207512  0.49912678  1
  Ti  Ti153  1  0.29805774  0.09479420  0.09735476  1
  Ti  Ti154  1  0.80256885  0.80411822  0.39564843  1
  Ti  Ti155  1  0.40405163  0.79747592  0.40175361  1
  Ti  Ti156  1  0.29881364  0.31161716  0.09620536  1
  Ti  Ti157  1  -0.00747619  0.60051221  0.00387070  1
  Ti  Ti158  1  0.79748266  0.80316908  -0.00083987  1
  Ti  Ti159  1  0.21339802  0.58338826  0.00761222  1
  Ti  Ti160  1  0.79492517  0.19875942  0.39419927  1
  Ti  Ti161  1  0.90078343  0.29838167  0.89986216  1
  Ti  Ti162  1  0.70114252  0.90277914  0.90080506  1
  Ti  Ti163  1  0.58787261  0.81342511  -0.00216614  1
  Ti  Ti164  1  -0.00727308  0.59899035  0.18909964  1
  Ti  Ti165  1  -0.00592756  0.79578499  0.39796306  1
  Ti  Ti166  1  0.89780837  0.10539314  0.30074583  1
  Ti  Ti167  1  0.39441508  0.39855132  0.60158985  1
  Ti  Ti168  1  0.38174040  0.21058552  0.40137980  1
  Ti  Ti169  1  0.80554373  0.00032889  0.59406088  1
  Ti  Ti170  1  -0.00139795  0.60632341  0.40197891  1
  Ti  Ti171  1  0.70474371  0.10522176  0.29371722  1
  Ti  Ti172  1  0.79956802  0.59616986  0.00194791  1
  Ti  Ti173  1  0.30472023  0.11125609  0.68694779  1
  Ti  Ti174  1  0.79980013  0.40227422  0.80799737  1
  Ti  Ti175  1  0.30861001  0.49777126  0.30075860  1
  Ti  Ti176  1  0.10592221  0.88496103  0.89920185  1
  Ti  Ti177  1  0.00149349  0.39512076  0.58907530  1
  Ti  Ti178  1  0.59433638  -0.00733834  0.58943320  1
  Ti  Ti179  1  0.89515568  0.70160788  0.09624501  1
  Ti  Ti180  1  0.39896963  0.39640575  0.19844751  1
  Ti  Ti181  1  0.30916638  0.49567661  0.10452675  1
  Ti  Ti182  1  0.20280112  0.79404504  0.79590369  1
  Ti  Ti183  1  0.00023487  0.79579812  0.80039780  1
  Ti  Ti184  1  -0.00367627  0.20856017  0.40343375  1
  Ti  Ti185  1  -0.00917132  0.79982847  0.20009745  1
  Ti  Ti186  1  0.29225088  0.29446657  0.50394201  1
  Ti  Ti187  1  0.00057298  0.40353762  0.79881216  1
  Ti  Ti188  1  0.49806481  0.29727184  0.69362746  1
  Ti  Ti189  1  0.79806994  0.00124157  0.20184443  1
  Ti  Ti190  1  0.09995368  0.50157939  0.09900264  1
  Ti  Ti191  1  0.40563833  0.40607949  0.00420300  1
  Ti  Ti192  1  -0.00729170  0.20215002  0.01050945  1
  Ti  Ti193  1  0.70842197  0.50605985  0.29761145  1
  Ti  Ti194  1  0.60942438  0.19866503  0.20315120  1
  Ti  Ti195  1  0.90475951  0.69910640  0.29662668  1
  Ti  Ti196  1  0.49883540  0.10357576  0.68562260  1
  Ti  Ti197  1  0.60479803  0.40382740  0.00763767  1
  Ti  Ti198  1  0.10592221  0.70235841  0.49761305  1
  Ti  Ti199  1  0.50031610  0.69972805  0.70178206  1
  Mo  Mo200  1  0.30560362  0.49304001  0.90562901  1
  Mo  Mo201  1  0.60202388  0.59424383  -0.00228167  1
  Mo  Mo202  1  0.39917129  0.78295958  0.60176505  1
  Mo  Mo203  1  0.78990697  0.80266818  0.80645217  1
  Mo  Mo204  1  0.80289424  0.39458046  0.59034330  1
  Mo  Mo205  1  0.39895305  0.01861322  0.60090571  1
  Mo  Mo206  1  0.70107743  0.49875057  0.91232380  1
  Mo  Mo207  1  0.19830138  0.80261309  0.00232487  1
  Mo  Mo208  1  0.80635611  0.20237269  0.00421455  1
  Mo  Mo209  1  0.29765046  0.71240990  0.69668832  1
  Mo  Mo210  1  0.79448300  0.00143104  0.79420583  1
  Mo  Mo211  1  0.90205143  0.89676775  0.29970657  1
  Mo  Mo212  1  -0.00468334  0.20575969  0.79311157  1
  Mo  Mo213  1  0.40706355  0.79479195  0.20913807  1
  Mo  Mo214  1  0.20060388  0.78854768  0.39551981  1
  Mo  Mo215  1  0.09391285  0.30060827  0.10655277  1
  Mo  Mo216  1  0.19748074  0.21439887  0.39932572  1
  Mo  Mo217  1  0.70229569  0.09813094  0.10762508  1
  Mo  Mo218  1  0.20312134  0.40719044  0.00608372  1
  Mo  Mo219  1  0.09191508  0.30567270  0.49937775  1
  Mo  Mo220  1  0.39647611  0.59565431  0.19964382  1
  Mo  Mo221  1  0.09372984  0.11514667  0.90401522  1
  Mo  Mo222  1  0.49751301  0.90009373  0.90955602  1
  Mo  Mo223  1  0.50302006  0.89762429  0.49668201  1
  Mo  Mo224  1  0.29960184  0.90669659  0.09638284  1
  Mo  Mo225  1  0.19978149  0.20860833  0.59603767  1
  Mo  Mo226  1  0.60498474  -0.00595501  0.00587445  1
  Mo  Mo227  1  0.50231300  0.48663098  0.09939111  1
  Mo  Mo228  1  0.50792352  0.89814702  0.10679501  1
  Mo  Mo229  1  0.61652911  0.20418304  0.38816846  1
  Mo  Mo230  1  0.39725408  0.20544328  0.59846997  1
  Mo  Mo231  1  0.19740458  0.78858082  0.59608608  1
  Mo  Mo232  1  0.30460293  0.68435951  0.10681456  1
  Mo  Mo233  1  0.19428269  -0.00652870  0.40103092  1
  Mo  Mo234  1  0.19451831  0.59459043  0.59455748  1
  Mo  Mo235  1  0.89638251  0.29506265  0.10052198  1
  Mo  Mo236  1  0.90072794  0.70773707  0.49281462  1
  Mo  Mo237  1  0.51184907  0.69637600  0.91342705  1
  Mo  Mo238  1  0.39585022  0.60032825  0.39710972  1
  Mo  Mo239  1  0.59877409  0.20379573  0.60637362  1
  Mo  Mo240  1  0.29622425  0.48228814  0.69828036  1
  Mo  Mo241  1  0.89797834  0.10182166  0.10216446  1
  Mo  Mo242  1  0.79553675  0.60421501  0.59563746  1
  Mo  Mo243  1  0.70310692  0.90151695  0.29825627  1
  Mo  Mo244  1  0.29775431  0.30601362  0.30030669  1
  Mo  Mo245  1  0.89913003  0.50645738  0.10159251  1
  Mo  Mo246  1  0.80559170  0.18372797  0.19788325  1
  Mo  Mo247  1  0.70560921  0.29106629  0.29692620  1
  Mo  Mo248  1  0.30130921  0.11826990  0.50586325  1
  Mo  Mo249  1  0.39122757  0.39799530  0.40283881  1
