# generated using pymatgen
data_HfZrTaTiMo
_symmetry_space_group_name_H-M   'P 1'
_cell_length_a   16.88351699
_cell_length_b   16.89106070
_cell_length_c   16.89393713
_cell_angle_alpha   89.95335475
_cell_angle_beta   89.95676830
_cell_angle_gamma   90.07704256
_symmetry_Int_Tables_number   1
_chemical_formula_structural   HfZrTaTiMo
_chemical_formula_sum   'Hf50 Zr50 Ta50 Ti50 Mo50'
_cell_volume   4817.81428513
_cell_formula_units_Z   50
loop_
 _symmetry_equiv_pos_site_id
 _symmetry_equiv_pos_as_xyz
  1  'x, y, z'
loop_
 _atom_site_type_symbol
 _atom_site_label
 _atom_site_symmetry_multiplicity
 _atom_site_fract_x
 _atom_site_fract_y
 _atom_site_fract_z
 _atom_site_occupancy
  Hf  Hf0  1  0.30442386  0.68977419  0.69517817  1
  Hf  Hf1  1  0.39516512  -0.00648235  0.80575269  1
  Hf  Hf2  1  0.90759977  0.10352675  0.29517367  1
  Hf  Hf3  1  0.48407650  0.30395601  0.49640357  1
  Hf  Hf4  1  0.30911134  0.30655348  0.90159376  1
  Hf  Hf5  1  0.10353032  0.90207208  0.48722504  1
  Hf  Hf6  1  0.40218824  0.19817541  0.00932345  1
  Hf  Hf7  1  0.00679431  0.59552004  0.40356823  1
  Hf  Hf8  1  0.49787214  0.09571278  0.69370816  1
  Hf  Hf9  1  0.59755232  0.40004502  0.38956297  1
  Hf  Hf10  1  0.78289008  0.78646535  0.20054696  1
  Hf  Hf11  1  0.59100449  0.20414791  0.00173928  1
  Hf  Hf12  1  0.69831246  0.10227829  0.89403562  1
  Hf  Hf13  1  0.00002431  0.39956371  0.20842803  1
  Hf  Hf14  1  0.79974940  -0.00733692  0.58963069  1
  Hf  Hf15  1  0.10305230  0.69791844  0.10576936  1
  Hf  Hf16  1  0.90830196  0.09841360  0.10889096  1
  Hf  Hf17  1  0.90023921  0.29136758  0.11304082  1
  Hf  Hf18  1  0.10430341  0.50396399  0.10604624  1
  Hf  Hf19  1  0.79650695  -0.00643483  0.00148679  1
  Hf  Hf20  1  0.39376051  -0.00970644  0.00302799  1
  Hf  Hf21  1  0.10334793  0.90349232  0.11477852  1
  Hf  Hf22  1  0.58995838  0.19700954  0.39214722  1
  Hf  Hf23  1  0.00704828  -0.00561398  0.78737429  1
  Hf  Hf24  1  0.29926728  0.89149081  0.70275434  1
  Hf  Hf25  1  0.91089442  0.09481405  0.49419407  1
  Hf  Hf26  1  0.19452680  0.21273571  0.80433019  1
  Hf  Hf27  1  0.59248298  0.79283715  0.00125330  1
  Hf  Hf28  1  0.11626580  0.50899919  0.89544321  1
  Hf  Hf29  1  0.70459248  0.30440285  0.70231020  1
  Hf  Hf30  1  0.20718161  0.39904489  0.79271849  1
  Hf  Hf31  1  0.59992181  0.00781634  0.40143709  1
  Hf  Hf32  1  0.40410608  0.60667338  0.00057502  1
  Hf  Hf33  1  0.90074137  0.09686062  0.88977154  1
  Hf  Hf34  1  0.01119809  0.20439975  -0.00736234  1
  Hf  Hf35  1  0.89785914  0.50387010  0.30625996  1
  Hf  Hf36  1  0.00364383  0.59421502  0.60155713  1
  Hf  Hf37  1  0.20391953  0.79851111  0.59205974  1
  Hf  Hf38  1  -0.00521002  0.60179406  -0.00969680  1
  Hf  Hf39  1  0.89495676  0.51243103  0.10587954  1
  Hf  Hf40  1  0.60082448  0.63646590  0.20372780  1
  Hf  Hf41  1  0.40333010  0.60465294  0.20441261  1
  Hf  Hf42  1  0.79467522  0.60011874  0.80316868  1
  Hf  Hf43  1  0.50826434  0.50710022  0.10379561  1
  Hf  Hf44  1  0.30677941  0.30295239  0.10746789  1
  Hf  Hf45  1  0.10150793  0.30221258  0.30169778  1
  Hf  Hf46  1  -0.00124598  0.79424254  -0.00384770  1
  Hf  Hf47  1  0.80084895  0.19747883  -0.00037486  1
  Hf  Hf48  1  0.30911929  0.10943553  0.50706924  1
  Hf  Hf49  1  0.68876220  0.89098232  0.30444202  1
  Zr  Zr50  1  0.80341833  0.19756651  0.40360271  1
  Zr  Zr51  1  0.29267711  0.89066645  0.30385817  1
  Zr  Zr52  1  0.88887583  0.30847676  0.88863304  1
  Zr  Zr53  1  0.89139852  0.69277474  0.29967993  1
  Zr  Zr54  1  0.20427442  0.40062760  0.00547490  1
  Zr  Zr55  1  0.01227539  0.80013185  0.61281848  1
  Zr  Zr56  1  -0.00476274  0.79788154  0.20373631  1
  Zr  Zr57  1  0.59734446  0.39966367  0.60123858  1
  Zr  Zr58  1  0.21251109  0.59633314  0.40230660  1
  Zr  Zr59  1  -0.00123879  0.40217433  -0.00410789  1
  Zr  Zr60  1  0.59761730  0.79457574  0.60746418  1
  Zr  Zr61  1  -0.00141597  0.20942528  0.59401813  1
  Zr  Zr62  1  0.10633113  0.10320201  0.69098819  1
  Zr  Zr63  1  0.58076407  0.19780774  0.20099871  1
  Zr  Zr64  1  0.49330140  0.50090359  0.69581409  1
  Zr  Zr65  1  0.10098377  0.31626474  0.49186262  1
  Zr  Zr66  1  0.59715540  -0.00174634  0.79975343  1
  Zr  Zr67  1  0.79630460  -0.00719387  0.20141929  1
  Zr  Zr68  1  0.49744228  0.10418499  0.51269965  1
  Zr  Zr69  1  0.59247311  -0.00372018  -0.00001963  1
  Zr  Zr70  1  0.69667528  0.30605715  0.89402173  1
  Zr  Zr71  1  0.00119553  -0.00467015  -0.00103331  1
  Zr  Zr72  1  0.20259493  0.00201420  0.00098472  1
  Zr  Zr73  1  0.69909647  0.29564719  0.50344921  1
  Zr  Zr74  1  0.79621704  0.80668935  0.41304598  1
  Zr  Zr75  1  0.69763808  0.50403372  0.50345892  1
  Zr  Zr76  1  0.20697503  0.19752691  0.39899155  1
  Zr  Zr77  1  0.29694270  0.10248061  0.89766532  1
  Zr  Zr78  1  0.20296771  0.80516127  -0.00913008  1
  Zr  Zr79  1  0.59777303  0.78915792  0.80194949  1
  Zr  Zr80  1  0.21191432  0.22189793  0.59642549  1
  Zr  Zr81  1  0.00276187  0.21148632  0.79262656  1
  Zr  Zr82  1  0.17531299  0.78165853  0.78906445  1
  Zr  Zr83  1  0.29404596  0.70432201  0.10615862  1
  Zr  Zr84  1  0.69990954  0.30045013  0.10019584  1
  Zr  Zr85  1  -0.00172155  0.80095655  0.40337349  1
  Zr  Zr86  1  0.79898676  0.40283301  0.20732426  1
  Zr  Zr87  1  0.39921582  -0.00081713  0.40339595  1
  Zr  Zr88  1  0.89581525  0.89542585  0.70168626  1
  Zr  Zr89  1  0.89561649  0.69346344  0.50749488  1
  Zr  Zr90  1  0.70677162  0.28963271  0.29184951  1
  Zr  Zr91  1  0.30449595  0.10315094  0.69740268  1
  Zr  Zr92  1  0.01013530  0.61214831  0.79735806  1
  Zr  Zr93  1  0.89350171  0.89011212  0.89092674  1
  Zr  Zr94  1  0.21211008  0.19573979  0.20368433  1
  Zr  Zr95  1  0.00123082  0.40615293  0.79643277  1
  Zr  Zr96  1  0.42193170  0.79285537  0.19035504  1
  Zr  Zr97  1  0.70065393  0.51434491  0.10473051  1
  Zr  Zr98  1  0.39943263  0.60233712  0.39763795  1
  Zr  Zr99  1  0.50001529  0.88864030  0.30923622  1
  Ta  Ta100  1  0.49879389  0.30935130  0.89772969  1
  Ta  Ta101  1  0.80542019  0.39592921  0.40148370  1
  Ta  Ta102  1  0.39740482  0.80053409  -0.00638790  1
  Ta  Ta103  1  0.88781173  0.69246371  0.10102875  1
  Ta  Ta104  1  0.29461196  0.69245896  0.89152099  1
  Ta  Ta105  1  0.20904954  0.59412566  0.20912791  1
  Ta  Ta106  1  0.30892847  0.50331692  0.89697574  1
  Ta  Ta107  1  0.40466616  0.20835787  0.79798932  1
  Ta  Ta108  1  0.20039167  -0.00392901  0.59270964  1
  Ta  Ta109  1  0.69540866  0.90395640  0.69744951  1
  Ta  Ta110  1  0.79989773  0.19814385  0.78645493  1
  Ta  Ta111  1  0.40143353  -0.00070038  0.19693510  1
  Ta  Ta112  1  0.79253942  0.79813291  0.60326839  1
  Ta  Ta113  1  0.60167095  0.60513053  0.79846123  1
  Ta  Ta114  1  0.40527128  0.60145155  0.80177359  1
  Ta  Ta115  1  0.69803257  0.10093598  0.68996281  1
  Ta  Ta116  1  0.89002731  0.49851671  0.70058935  1
  Ta  Ta117  1  0.80083204  0.41326132  -0.00559518  1
  Ta  Ta118  1  0.89693388  0.70137985  0.70284340  1
  Ta  Ta119  1  0.20787083  0.40541377  0.20358298  1
  Ta  Ta120  1  0.10167676  0.29597548  0.10818173  1
  Ta  Ta121  1  0.11026713  0.69669115  0.49591270  1
  Ta  Ta122  1  0.69018105  0.89474593  0.10261405  1
  Ta  Ta123  1  0.90427638  0.90932824  0.30532631  1
  Ta  Ta124  1  0.11357224  0.70266924  0.30203108  1
  Ta  Ta125  1  0.40133591  0.20127723  0.38246874  1
  Ta  Ta126  1  0.40661421  0.40836629  0.00631132  1
  Ta  Ta127  1  0.60244981  0.60797127  -0.01385317  1
  Ta  Ta128  1  -0.00760681  0.40398786  0.60011174  1
  Ta  Ta129  1  0.09483080  0.08917697  0.30063326  1
  Ta  Ta130  1  0.10652096  0.49471034  0.30746085  1
  Ta  Ta131  1  0.89642454  0.09958359  0.69216652  1
  Ta  Ta132  1  0.49734365  0.69192163  0.50675608  1
  Ta  Ta133  1  0.00644725  -0.00366070  0.59287324  1
  Ta  Ta134  1  0.69001109  0.69421879  0.50641892  1
  Ta  Ta135  1  0.50247407  0.49940788  0.89598321  1
  Ta  Ta136  1  0.89430582  0.49772783  0.50173539  1
  Ta  Ta137  1  0.49407743  0.50193835  0.50237167  1
  Ta  Ta138  1  0.09698905  0.89427311  0.88924043  1
  Ta  Ta139  1  0.20734493  0.59358313  0.59346714  1
  Ta  Ta140  1  0.59762325  0.40529905  0.00023832  1
  Ta  Ta141  1  0.49382090  0.89289277  0.89656702  1
  Ta  Ta142  1  0.59436495  0.20275167  0.79442151  1
  Ta  Ta143  1  0.19794249  0.19931304  0.00552120  1
  Ta  Ta144  1  0.09975061  0.09944622  0.11517973  1
  Ta  Ta145  1  0.59001605  -0.00427725  0.19874856  1
  Ta  Ta146  1  0.69801461  0.09920202  0.10739786  1
  Ta  Ta147  1  0.49527472  0.89718326  0.69607444  1
  Ta  Ta148  1  0.29555654  0.89927921  0.11333501  1
  Ta  Ta149  1  0.79790711  -0.00169578  0.40395186  1
  Ti  Ti150  1  0.00135147  0.20602380  0.39960138  1
  Ti  Ti151  1  0.31260220  0.31007915  0.30270503  1
  Ti  Ti152  1  0.38438007  0.39002059  0.60500153  1
  Ti  Ti153  1  0.11134653  0.50086227  0.69272367  1
  Ti  Ti154  1  0.10456885  0.31603108  0.68640275  1
  Ti  Ti155  1  0.69764144  0.51117542  0.29641512  1
  Ti  Ti156  1  0.10275061  0.09580576  0.89709746  1
  Ti  Ti157  1  0.69721541  0.49771697  0.89720936  1
  Ti  Ti158  1  0.00653186  0.60138530  0.20808062  1
  Ti  Ti159  1  0.78857887  0.60060259  0.40050086  1
  Ti  Ti160  1  0.49285372  0.30530166  0.70428764  1
  Ti  Ti161  1  0.21821287  0.40129110  0.40389387  1
  Ti  Ti162  1  0.80886128  0.20470431  0.59946778  1
  Ti  Ti163  1  0.69847686  0.50057517  0.69922173  1
  Ti  Ti164  1  0.50348499  0.50194677  0.29930652  1
  Ti  Ti165  1  0.30842710  0.49193096  0.29777571  1
  Ti  Ti166  1  0.89561999  0.70614818  0.89346181  1
  Ti  Ti167  1  0.49336304  0.69243575  0.69340249  1
  Ti  Ti168  1  0.19818209  -0.01011417  0.79809204  1
  Ti  Ti169  1  0.59521490  0.20594395  0.60711808  1
  Ti  Ti170  1  0.31188018  0.49213980  0.50616312  1
  Ti  Ti171  1  0.40835283  0.40242679  0.19974156  1
  Ti  Ti172  1  0.59722721  0.40425141  0.79936645  1
  Ti  Ti173  1  0.30106166  0.71337946  0.30572540  1
  Ti  Ti174  1  0.49612060  0.09214945  0.10247236  1
  Ti  Ti175  1  0.69919375  0.89550885  0.89690921  1
  Ti  Ti176  1  0.20911529  0.59955174  0.00364393  1
  Ti  Ti177  1  0.59296506  0.39476061  0.20004176  1
  Ti  Ti178  1  0.69510860  0.10156266  0.51081991  1
  Ti  Ti179  1  0.68618144  0.89975099  0.50426417  1
  Ti  Ti180  1  0.10422892  0.49209945  0.49959421  1
  Ti  Ti181  1  0.39627787  0.79671882  0.58987318  1
  Ti  Ti182  1  0.79148484  0.79365982  0.00067641  1
  Ti  Ti183  1  0.20253099  0.00634073  0.40577077  1
  Ti  Ti184  1  0.40046344  0.79236925  0.80518181  1
  Ti  Ti185  1  0.10446387  0.90362446  0.29991417  1
  Ti  Ti186  1  0.30076166  0.08794226  0.29364091  1
  Ti  Ti187  1  0.79334461  0.60312743  0.60833508  1
  Ti  Ti188  1  0.50124139  0.89409674  0.50318139  1
  Ti  Ti189  1  0.70180575  0.09858261  0.29113965  1
  Ti  Ti190  1  0.39443535  -0.01663174  0.59569425  1
  Ti  Ti191  1  0.78516692  0.79008489  0.79330457  1
  Ti  Ti192  1  0.40360360  0.19432595  0.20286487  1
  Ti  Ti193  1  0.59570620  0.60423809  0.39892344  1
  Ti  Ti194  1  0.30510480  0.50049317  0.70120912  1
  Ti  Ti195  1  0.80749891  0.39585385  0.59969425  1
  Ti  Ti196  1  0.79450255  0.00193906  0.79242441  1
  Ti  Ti197  1  0.89612986  0.89317226  0.10530363  1
  Ti  Ti198  1  0.49643167  0.10303368  0.89640150  1
  Ti  Ti199  1  0.79606118  0.60484459  -0.01079553  1
  Mo  Mo200  1  0.30796761  0.30756271  0.49109813  1
  Mo  Mo201  1  0.30027099  0.90053252  0.50000106  1
  Mo  Mo202  1  0.79436565  0.41059145  0.79562555  1
  Mo  Mo203  1  0.50354461  0.70619379  0.32307490  1
  Mo  Mo204  1  0.00953656  0.20101041  0.20606627  1
  Mo  Mo205  1  0.49318273  0.09336848  0.29414255  1
  Mo  Mo206  1  0.10566113  0.90871717  0.69517936  1
  Mo  Mo207  1  0.10597590  0.68104549  0.68393603  1
  Mo  Mo208  1  -0.00735959  0.40398713  0.40400553  1
  Mo  Mo209  1  0.29797062  0.88657332  0.89180766  1
  Mo  Mo210  1  0.20219845  0.79678989  0.40060507  1
  Mo  Mo211  1  0.89310810  0.30532175  0.69283345  1
  Mo  Mo212  1  0.70351911  0.69550039  0.69734394  1
  Mo  Mo213  1  0.40129022  0.40610577  0.39243374  1
  Mo  Mo214  1  0.89048379  0.50392598  0.89597781  1
  Mo  Mo215  1  0.19756112  0.79730397  0.20734087  1
  Mo  Mo216  1  0.49324167  0.69738621  0.89247720  1
  Mo  Mo217  1  0.00306858  -0.00632634  0.20495085  1
  Mo  Mo218  1  0.49663432  0.31187591  0.09898645  1
  Mo  Mo219  1  0.20641292  0.41223599  0.59782035  1
  Mo  Mo220  1  0.39780225  0.79512872  0.41748928  1
  Mo  Mo221  1  0.59695673  0.59945928  0.60366497  1
  Mo  Mo222  1  0.90104892  0.30664008  0.49838545  1
  Mo  Mo223  1  0.00200493  -0.00077360  0.39857375  1
  Mo  Mo224  1  0.60109060  0.80329088  0.19347397  1
  Mo  Mo225  1  0.69267086  0.70190139  0.32481829  1
  Mo  Mo226  1  0.10383187  0.09535645  0.49212892  1
  Mo  Mo227  1  0.90771951  0.29834414  0.30854204  1
  Mo  Mo228  1  0.10532753  0.69627356  0.90970861  1
  Mo  Mo229  1  0.78742272  0.60440702  0.20835733  1
  Mo  Mo230  1  0.30124159  0.09726875  0.10739853  1
  Mo  Mo231  1  0.90310611  0.90446708  0.49839958  1
  Mo  Mo232  1  0.30720576  0.30616106  0.70542984  1
  Mo  Mo233  1  0.40283795  0.40507797  0.80375107  1
  Mo  Mo234  1  0.20949336  0.59321668  0.79410839  1
  Mo  Mo235  1  0.30403646  0.70240107  0.50158611  1
  Mo  Mo236  1  0.39850870  0.59493722  0.59754818  1
  Mo  Mo237  1  0.11023298  0.30286217  0.91122702  1
  Mo  Mo238  1  0.80086964  0.19097193  0.19950049  1
  Mo  Mo239  1  0.20331528  0.00093875  0.20599499  1
  Mo  Mo240  1  0.00070631  0.79342427  0.80118642  1
  Mo  Mo241  1  0.49023691  0.30632830  0.29478727  1
  Mo  Mo242  1  0.60052721  -0.00687789  0.59952388  1
  Mo  Mo243  1  0.59505289  0.79309689  0.41591681  1
  Mo  Mo244  1  0.49685455  0.90036115  0.09558234  1
  Mo  Mo245  1  0.40242188  0.21604855  0.61222583  1
  Mo  Mo246  1  0.50063146  0.69828428  0.08475972  1
  Mo  Mo247  1  0.70266335  0.70177646  0.08310181  1
  Mo  Mo248  1  0.30381173  0.50060528  0.10701673  1
  Mo  Mo249  1  0.70284578  0.70032776  0.89683063  1
