# generated using pymatgen
data_HfZrTaTiMo
_symmetry_space_group_name_H-M   'P 1'
_cell_length_a   16.88297707
_cell_length_b   16.88871674
_cell_length_c   16.89874014
_cell_angle_alpha   90.05745169
_cell_angle_beta   90.03209807
_cell_angle_gamma   89.97717066
_symmetry_Int_Tables_number   1
_chemical_formula_structural   HfZrTaTiMo
_chemical_formula_sum   'Hf50 Zr50 Ta50 Ti50 Mo50'
_cell_volume   4818.36493058
_cell_formula_units_Z   50
loop_
 _symmetry_equiv_pos_site_id
 _symmetry_equiv_pos_as_xyz
  1  'x, y, z'
loop_
 _atom_site_type_symbol
 _atom_site_label
 _atom_site_symmetry_multiplicity
 _atom_site_fract_x
 _atom_site_fract_y
 _atom_site_fract_z
 _atom_site_occupancy
  Hf  Hf0  1  0.39484401  -0.00000016  0.80545486  1
  Hf  Hf1  1  0.20374419  0.79888710  0.59563598  1
  Hf  Hf2  1  0.59526524  0.39866247  0.79726404  1
  Hf  Hf3  1  0.79434533  0.20382084  0.79654430  1
  Hf  Hf4  1  0.20659268  0.39916543  0.78407982  1
  Hf  Hf5  1  0.09936592  0.89592805  0.70121026  1
  Hf  Hf6  1  0.10292317  0.10952177  0.49332022  1
  Hf  Hf7  1  0.70836529  0.09804107  0.49114143  1
  Hf  Hf8  1  0.60868805  0.60739722  0.20456318  1
  Hf  Hf9  1  0.30654612  0.29905728  0.10625364  1
  Hf  Hf10  1  0.89641795  0.90727550  0.49476177  1
  Hf  Hf11  1  0.19623400  0.39841664  0.40553549  1
  Hf  Hf12  1  0.40829146  0.39651951  0.00192577  1
  Hf  Hf13  1  0.29223193  0.89388358  0.12664715  1
  Hf  Hf14  1  -0.00029811  0.00626811  0.60335437  1
  Hf  Hf15  1  0.08717807  0.10475465  0.89535201  1
  Hf  Hf16  1  0.90079303  0.69755885  0.89073995  1
  Hf  Hf17  1  0.20210341  0.00131323  -0.00413776  1
  Hf  Hf18  1  0.30133998  0.50225378  0.30239195  1
  Hf  Hf19  1  0.49015736  0.69342844  0.69220690  1
  Hf  Hf20  1  0.29376216  0.50236902  0.89617477  1
  Hf  Hf21  1  0.30210366  0.50382619  0.50586245  1
  Hf  Hf22  1  0.09078168  0.29736778  0.30954333  1
  Hf  Hf23  1  0.71040805  0.50444408  0.30577275  1
  Hf  Hf24  1  0.39401787  -0.00098753  0.00178199  1
  Hf  Hf25  1  0.70713228  0.89940320  0.48608878  1
  Hf  Hf26  1  0.59780268  0.59619630  0.79779235  1
  Hf  Hf27  1  0.19909883  0.40113814  0.19729319  1
  Hf  Hf28  1  0.49660872  0.70414265  0.10278632  1
  Hf  Hf29  1  0.09205126  0.49820348  0.29913456  1
  Hf  Hf30  1  0.89256581  0.11041761  0.50172897  1
  Hf  Hf31  1  0.32265485  0.69804207  0.50554159  1
  Hf  Hf32  1  0.49610156  0.89361916  0.49084932  1
  Hf  Hf33  1  0.00012586  0.58873633  0.78722051  1
  Hf  Hf34  1  -0.00405453  0.39975770  0.79051705  1
  Hf  Hf35  1  0.08861983  0.89198937  0.88304611  1
  Hf  Hf36  1  0.30404993  0.29243540  0.29877544  1
  Hf  Hf37  1  0.19872319  0.20098764  -0.00146704  1
  Hf  Hf38  1  0.60233337  0.79173543  0.59171521  1
  Hf  Hf39  1  0.70021657  0.09961971  0.91004742  1
  Hf  Hf40  1  0.09514118  0.09961130  0.10224920  1
  Hf  Hf41  1  0.00352135  0.79153266  0.39554307  1
  Hf  Hf42  1  0.41500128  0.19761570  0.00064423  1
  Hf  Hf43  1  0.30118544  0.10509837  0.69798626  1
  Hf  Hf44  1  0.10064266  0.90547524  0.49795289  1
  Hf  Hf45  1  0.39491911  -0.00077579  0.59914917  1
  Hf  Hf46  1  -0.00719011  0.59895139  0.58986977  1
  Hf  Hf47  1  0.60247032  0.19578339  0.60475904  1
  Hf  Hf48  1  0.71373951  0.29373191  0.50583268  1
  Hf  Hf49  1  0.89419043  0.49456009  0.90434888  1
  Zr  Zr50  1  0.11657586  0.90721203  0.29162035  1
  Zr  Zr51  1  -0.00110363  0.79492145  0.00219729  1
  Zr  Zr52  1  0.88922439  0.29908640  0.68090363  1
  Zr  Zr53  1  0.20182957  0.00513445  0.79660980  1
  Zr  Zr54  1  0.40948810  0.39630284  0.40447388  1
  Zr  Zr55  1  0.19395443  0.60329698  0.59612720  1
  Zr  Zr56  1  0.39939895  0.59520202  0.20264672  1
  Zr  Zr57  1  0.58154008  0.00453427  0.01476720  1
  Zr  Zr58  1  0.50620365  0.09792373  0.49336740  1
  Zr  Zr59  1  0.89644294  0.10918998  0.31477305  1
  Zr  Zr60  1  0.30067793  0.10419071  0.11081982  1
  Zr  Zr61  1  0.69297417  0.10923741  0.30231845  1
  Zr  Zr62  1  0.79714766  0.80032143  -0.00441084  1
  Zr  Zr63  1  0.29935210  0.30384103  0.90342024  1
  Zr  Zr64  1  0.39539145  0.59494519  0.00539495  1
  Zr  Zr65  1  0.80027368  0.21044943  0.19906318  1
  Zr  Zr66  1  0.51302686  0.49355758  0.09731831  1
  Zr  Zr67  1  -0.01016073  0.21445256  0.19549695  1
  Zr  Zr68  1  0.79851022  0.79526860  0.20369886  1
  Zr  Zr69  1  0.18981917  0.61142213  0.40196238  1
  Zr  Zr70  1  0.70023234  0.91289591  0.10121442  1
  Zr  Zr71  1  0.79854273  0.80077094  0.59953040  1
  Zr  Zr72  1  0.28906471  0.88429060  0.89352151  1
  Zr  Zr73  1  0.70274029  0.49342397  0.90202721  1
  Zr  Zr74  1  -0.00528304  0.00581293  0.20396233  1
  Zr  Zr75  1  0.40455561  0.18970380  0.39729538  1
  Zr  Zr76  1  0.00526985  0.59599085  0.00303074  1
  Zr  Zr77  1  0.10998236  0.69379354  0.88216502  1
  Zr  Zr78  1  0.69178164  0.91254573  0.89877184  1
  Zr  Zr79  1  0.29808125  0.69132204  0.89191394  1
  Zr  Zr80  1  0.00702760  0.78988696  0.20290560  1
  Zr  Zr81  1  0.79956061  0.80486459  0.80244831  1
  Zr  Zr82  1  0.60519273  -0.00345162  0.60174077  1
  Zr  Zr83  1  0.20039250  0.20485115  0.79759956  1
  Zr  Zr84  1  0.39874057  0.40378731  0.61187163  1
  Zr  Zr85  1  0.60296914  0.80370251  0.20542484  1
  Zr  Zr86  1  0.50420316  0.90052154  0.70545229  1
  Zr  Zr87  1  0.19103690  0.78953221  0.01200053  1
  Zr  Zr88  1  0.60043310  0.20522133  0.80425514  1
  Zr  Zr89  1  0.40895667  0.00661739  0.20989329  1
  Zr  Zr90  1  0.70305794  0.69534788  0.70311697  1
  Zr  Zr91  1  0.60210616  0.59513594  0.58953125  1
  Zr  Zr92  1  0.89380230  0.30155323  0.90119657  1
  Zr  Zr93  1  0.20434008  0.79666184  0.39762335  1
  Zr  Zr94  1  0.71095925  0.49703411  0.09704440  1
  Zr  Zr95  1  0.29523143  0.29503748  0.50330924  1
  Zr  Zr96  1  0.89369408  0.90450499  0.10389163  1
  Zr  Zr97  1  0.60674481  0.39336443  0.20270722  1
  Zr  Zr98  1  0.50775805  0.49848460  0.30864644  1
  Zr  Zr99  1  -0.00754072  -0.00733804  -0.00716814  1
  Ta  Ta100  1  0.40399519  0.20628901  0.80123333  1
  Ta  Ta101  1  -0.00145700  0.20486370  0.79278287  1
  Ta  Ta102  1  0.69663371  0.30140875  0.09199028  1
  Ta  Ta103  1  0.50155844  0.49943730  0.90041684  1
  Ta  Ta104  1  0.50239037  0.30082290  0.69679329  1
  Ta  Ta105  1  0.81331738  0.39563859  0.19895007  1
  Ta  Ta106  1  0.19167196  0.20473827  0.20167966  1
  Ta  Ta107  1  -0.00343056  0.40020984  0.00840801  1
  Ta  Ta108  1  0.21260359  0.00543118  0.39703307  1
  Ta  Ta109  1  0.19839334  0.59251941  0.01485780  1
  Ta  Ta110  1  0.89946312  0.50200854  0.29776956  1
  Ta  Ta111  1  0.09773427  0.30331331  0.68819146  1
  Ta  Ta112  1  0.49414468  0.69773650  0.89773752  1
  Ta  Ta113  1  0.09454817  0.49663023  0.10635848  1
  Ta  Ta114  1  0.69613797  0.10883428  0.09928200  1
  Ta  Ta115  1  0.70240247  0.29985338  0.30879105  1
  Ta  Ta116  1  0.10776879  0.90304068  0.10858745  1
  Ta  Ta117  1  0.88841301  0.10332914  0.08806528  1
  Ta  Ta118  1  0.91117911  0.89907396  0.70929184  1
  Ta  Ta119  1  0.49726582  0.89380501  0.90159356  1
  Ta  Ta120  1  0.69998192  0.49093419  0.68879705  1
  Ta  Ta121  1  0.90243003  0.70061077  0.69721199  1
  Ta  Ta122  1  0.39762203  0.79814683  0.79715209  1
  Ta  Ta123  1  0.20024250  0.20481503  0.60173488  1
  Ta  Ta124  1  0.59522630  0.79581553  0.80582403  1
  Ta  Ta125  1  0.40273522  0.20144667  0.60508215  1
  Ta  Ta126  1  0.10248301  0.49269289  0.68743247  1
  Ta  Ta127  1  0.80165447  0.59965414  0.00349798  1
  Ta  Ta128  1  0.89669316  0.10177518  0.89851392  1
  Ta  Ta129  1  0.70026754  0.30790730  0.68784238  1
  Ta  Ta130  1  0.60279868  0.60573321  -0.00400806  1
  Ta  Ta131  1  0.89537577  0.68833709  0.10491276  1
  Ta  Ta132  1  0.29966475  0.69397531  0.70237669  1
  Ta  Ta133  1  -0.01102023  0.40092728  0.40682773  1
  Ta  Ta134  1  0.40405464  0.39878584  0.79712475  1
  Ta  Ta135  1  0.51288884  0.28718262  0.30138497  1
  Ta  Ta136  1  0.59500491  -0.00570095  0.38566109  1
  Ta  Ta137  1  0.80153839  0.59606174  0.59361422  1
  Ta  Ta138  1  -0.00378655  0.60177288  0.40198629  1
  Ta  Ta139  1  0.50492385  0.09819933  0.89686330  1
  Ta  Ta140  1  -0.00178644  0.59947527  0.20275014  1
  Ta  Ta141  1  0.60959529  0.40013240  0.41341676  1
  Ta  Ta142  1  0.71002076  0.69723715  0.31447158  1
  Ta  Ta143  1  0.80711986  0.39985322  0.40206300  1
  Ta  Ta144  1  0.39775432  0.79984915  0.00232491  1
  Ta  Ta145  1  0.59592799  0.79429926  -0.00297558  1
  Ta  Ta146  1  0.29821132  0.70116960  0.10986921  1
  Ta  Ta147  1  0.09420795  0.30841567  0.90065615  1
  Ta  Ta148  1  0.10268848  0.10901680  0.30727356  1
  Ta  Ta149  1  0.89147179  0.90182752  0.30787878  1
  Ti  Ti150  1  0.49198195  0.88977611  0.10585362  1
  Ti  Ti151  1  0.30348585  0.70550835  0.29254618  1
  Ti  Ti152  1  0.09806750  0.10531701  0.69777503  1
  Ti  Ti153  1  0.40097439  0.58399739  0.78762650  1
  Ti  Ti154  1  0.80922490  -0.00141612  0.80420105  1
  Ti  Ti155  1  0.80174827  -0.00117271  0.61177901  1
  Ti  Ti156  1  0.19442629  0.60421099  0.19795964  1
  Ti  Ti157  1  0.09910343  0.70075710  0.69886977  1
  Ti  Ti158  1  0.10444735  0.49469961  0.89660114  1
  Ti  Ti159  1  0.09421638  0.30603433  0.09794200  1
  Ti  Ti160  1  0.39781269  0.00055914  0.39136269  1
  Ti  Ti161  1  0.69656177  0.30734224  0.91087820  1
  Ti  Ti162  1  0.50985864  0.29821954  0.50361822  1
  Ti  Ti163  1  -0.00045369  0.79541019  0.59580666  1
  Ti  Ti164  1  0.70736935  0.90104098  0.30441435  1
  Ti  Ti165  1  0.29277531  0.10580772  0.29664188  1
  Ti  Ti166  1  0.50113176  0.49893319  0.50734899  1
  Ti  Ti167  1  0.80366690  0.58935439  0.78922753  1
  Ti  Ti168  1  0.79861907  0.20725080  0.00174346  1
  Ti  Ti169  1  0.19604236  0.40593792  0.00681392  1
  Ti  Ti170  1  0.30381223  0.90235990  0.49316105  1
  Ti  Ti171  1  0.70473444  0.69722638  0.09891368  1
  Ti  Ti172  1  0.00251552  0.00286852  0.39701722  1
  Ti  Ti173  1  0.50199518  0.09824630  0.70692342  1
  Ti  Ti174  1  0.60247792  0.60554617  0.41132535  1
  Ti  Ti175  1  0.09616809  0.49378901  0.50192917  1
  Ti  Ti176  1  0.39864760  0.80010051  0.39047904  1
  Ti  Ti177  1  -0.00092885  0.20240752  0.60022097  1
  Ti  Ti178  1  0.89219725  0.70625953  0.49544803  1
  Ti  Ti179  1  0.20541559  0.00068675  0.59790140  1
  Ti  Ti180  1  0.79872654  0.40231684  0.78871215  1
  Ti  Ti181  1  0.89129269  0.69100230  0.30086255  1
  Ti  Ti182  1  0.49537625  0.89349666  0.29891264  1
  Ti  Ti183  1  0.80422545  0.59452636  0.41428950  1
  Ti  Ti184  1  0.41444886  0.60394481  0.40479412  1
  Ti  Ti185  1  0.79741115  0.00835884  0.20404080  1
  Ti  Ti186  1  0.89943604  0.10095171  0.70398433  1
  Ti  Ti187  1  0.09431463  0.29845131  0.50288774  1
  Ti  Ti188  1  0.29652291  0.10441911  0.49881261  1
  Ti  Ti189  1  -0.00545930  0.20851291  -0.00056535  1
  Ti  Ti190  1  0.69762948  0.90372649  0.70839908  1
  Ti  Ti191  1  0.40882595  0.39553549  0.19937945  1
  Ti  Ti192  1  0.70002923  0.09056441  0.70912781  1
  Ti  Ti193  1  0.69968328  0.69479039  0.89897741  1
  Ti  Ti194  1  -0.00943857  0.40418179  0.59201968  1
  Ti  Ti195  1  0.50114961  0.70368840  0.30402048  1
  Ti  Ti196  1  0.60311905  0.79204984  0.39980271  1
  Ti  Ti197  1  0.80502316  0.41694111  0.58528238  1
  Ti  Ti198  1  0.39612382  0.80830788  0.60673800  1
  Ti  Ti199  1  0.59288210  0.00623735  0.20416370  1
  Mo  Mo200  1  0.80540217  0.79520355  0.39657773  1
  Mo  Mo201  1  0.79594433  -0.00309496  0.39154995  1
  Mo  Mo202  1  0.30639187  0.90328364  0.30826314  1
  Mo  Mo203  1  0.90013360  0.90729849  0.88836401  1
  Mo  Mo204  1  0.60350217  0.20722241  0.40298752  1
  Mo  Mo205  1  0.50099562  0.49720473  0.70202218  1
  Mo  Mo206  1  0.19621041  0.59017264  0.78589922  1
  Mo  Mo207  1  0.30467494  0.29691889  0.69729279  1
  Mo  Mo208  1  0.08472715  0.70676389  0.50146761  1
  Mo  Mo209  1  0.90310413  0.49787242  0.10472524  1
  Mo  Mo210  1  0.19347250  0.39686257  0.59745286  1
  Mo  Mo211  1  0.29807900  0.50465085  0.69995905  1
  Mo  Mo212  1  0.31202226  0.10547810  0.89820819  1
  Mo  Mo213  1  0.09833849  0.69059045  0.29987913  1
  Mo  Mo214  1  0.19908972  0.01632945  0.20714831  1
  Mo  Mo215  1  0.59959760  0.20522026  0.00276814  1
  Mo  Mo216  1  0.59537749  -0.00061386  0.80427825  1
  Mo  Mo217  1  0.59861499  0.39778227  0.59769428  1
  Mo  Mo218  1  0.90264209  0.29976347  0.50175877  1
  Mo  Mo219  1  0.40346991  0.59723118  0.60161189  1
  Mo  Mo220  1  -0.00152622  0.21107733  0.40993099  1
  Mo  Mo221  1  0.29001257  0.49728481  0.10476271  1
  Mo  Mo222  1  0.20201615  0.79122463  0.78200537  1
  Mo  Mo223  1  0.50668154  0.10045393  0.29885177  1
  Mo  Mo224  1  0.49875059  0.70320803  0.49188368  1
  Mo  Mo225  1  0.20094509  0.78271187  0.20591446  1
  Mo  Mo226  1  0.89960824  0.50080583  0.49415875  1
  Mo  Mo227  1  0.70272791  0.49784801  0.49653928  1
  Mo  Mo228  1  0.59945509  0.39501185  -0.00602359  1
  Mo  Mo229  1  -0.00480587  0.40484498  0.19849006  1
  Mo  Mo230  1  0.19873641  0.19819058  0.40175640  1
  Mo  Mo231  1  0.80452977  0.60021765  0.20110852  1
  Mo  Mo232  1  0.41203299  0.20183540  0.20162399  1
  Mo  Mo233  1  0.10046261  0.69106810  0.11029013  1
  Mo  Mo234  1  0.70340658  0.69657359  0.48925391  1
  Mo  Mo235  1  -0.00162682  0.78885582  0.78802314  1
  Mo  Mo236  1  0.50584221  0.11169168  0.11002725  1
  Mo  Mo237  1  -0.00733058  0.01291304  0.79286180  1
  Mo  Mo238  1  0.50347472  0.30191639  0.89700349  1
  Mo  Mo239  1  0.80340698  0.21206387  0.40029252  1
  Mo  Mo240  1  0.79456016  0.18408509  0.61132392  1
  Mo  Mo241  1  0.89788984  0.30922002  0.30813171  1
  Mo  Mo242  1  0.89357786  0.50119112  0.69155712  1
  Mo  Mo243  1  0.80071415  0.01108236  -0.00162078  1
  Mo  Mo244  1  0.50745291  0.29514550  0.10544693  1
  Mo  Mo245  1  0.80219759  0.39763345  0.00835014  1
  Mo  Mo246  1  0.60148905  0.20224795  0.19542185  1
  Mo  Mo247  1  0.39993625  0.79813992  0.20860784  1
  Mo  Mo248  1  0.89619369  0.30316006  0.09274722  1
  Mo  Mo249  1  0.29920119  0.89421930  0.69474751  1
