# generated using pymatgen
data_HfZrTaTiMo
_symmetry_space_group_name_H-M   'P 1'
_cell_length_a   16.88266855
_cell_length_b   16.88386447
_cell_length_c   16.87903137
_cell_angle_alpha   89.96687137
_cell_angle_beta   89.97848683
_cell_angle_gamma   90.00925642
_symmetry_Int_Tables_number   1
_chemical_formula_structural   HfZrTaTiMo
_chemical_formula_sum   'Hf50 Zr50 Ta50 Ti50 Mo50'
_cell_volume   4811.27701909
_cell_formula_units_Z   50
loop_
 _symmetry_equiv_pos_site_id
 _symmetry_equiv_pos_as_xyz
  1  'x, y, z'
loop_
 _atom_site_type_symbol
 _atom_site_label
 _atom_site_symmetry_multiplicity
 _atom_site_fract_x
 _atom_site_fract_y
 _atom_site_fract_z
 _atom_site_occupancy
  Hf  Hf0  1  0.31103389  0.50554628  0.09628322  1
  Hf  Hf1  1  0.59964273  0.19503916  -0.00213410  1
  Hf  Hf2  1  0.00442760  -0.00103460  0.19923725  1
  Hf  Hf3  1  0.69582399  0.89979082  0.69902082  1
  Hf  Hf4  1  0.10305341  0.90014122  0.70069325  1
  Hf  Hf5  1  0.20739374  0.19847981  0.19558691  1
  Hf  Hf6  1  0.49896948  0.29909251  0.09455071  1
  Hf  Hf7  1  0.89192892  0.70592123  0.29286506  1
  Hf  Hf8  1  0.70540073  0.30544027  0.09149690  1
  Hf  Hf9  1  0.90555601  0.69998998  0.70295506  1
  Hf  Hf10  1  0.10461364  0.90602020  0.49914873  1
  Hf  Hf11  1  0.20602518  0.79095666  0.00666778  1
  Hf  Hf12  1  0.58359482  0.19554667  0.80640383  1
  Hf  Hf13  1  0.80205116  0.80344182  0.60369623  1
  Hf  Hf14  1  0.19467275  0.60463081  0.00124508  1
  Hf  Hf15  1  0.78760075  -0.00650046  0.39373774  1
  Hf  Hf16  1  0.79741939  0.60231586  0.60093741  1
  Hf  Hf17  1  0.70049493  0.30660072  0.70989234  1
  Hf  Hf18  1  0.39536668  0.38902133  0.20133124  1
  Hf  Hf19  1  0.40391906  0.40061347  0.80251118  1
  Hf  Hf20  1  0.00067067  0.59432070  0.39254370  1
  Hf  Hf21  1  0.60862426  0.59968643  0.39417036  1
  Hf  Hf22  1  0.20140689  0.00576987  0.00776588  1
  Hf  Hf23  1  0.61011595  -0.01118681  0.20554236  1
  Hf  Hf24  1  0.79024917  0.20978052  0.59402497  1
  Hf  Hf25  1  0.40276640  0.78396154  0.01096197  1
  Hf  Hf26  1  0.20609575  0.00766964  0.59716392  1
  Hf  Hf27  1  0.59681844  0.79734063  0.01275763  1
  Hf  Hf28  1  0.49057462  0.90998354  0.91516645  1
  Hf  Hf29  1  0.89659869  0.10201576  0.30298089  1
  Hf  Hf30  1  0.21217622  0.60404190  0.81132640  1
  Hf  Hf31  1  0.39952640  -0.00907085  0.39392235  1
  Hf  Hf32  1  0.50065976  0.70113432  0.28722429  1
  Hf  Hf33  1  0.20352504  0.39804808  0.20428175  1
  Hf  Hf34  1  0.69814398  0.10176837  0.69776540  1
  Hf  Hf35  1  0.58809148  0.38744105  0.59905713  1
  Hf  Hf36  1  0.29572603  0.29828781  0.70875609  1
  Hf  Hf37  1  0.80101231  0.80175212  0.80157697  1
  Hf  Hf38  1  0.19890297  0.60840696  0.19734563  1
  Hf  Hf39  1  0.58924393  0.78963503  0.81287024  1
  Hf  Hf40  1  0.89329202  0.29942409  0.89879307  1
  Hf  Hf41  1  0.89894075  0.90155506  0.90936999  1
  Hf  Hf42  1  0.69978106  0.89856111  0.90974114  1
  Hf  Hf43  1  0.20063015  0.19905066  0.39912288  1
  Hf  Hf44  1  0.70956448  0.48917365  0.50796693  1
  Hf  Hf45  1  0.90059333  0.10035527  0.90764287  1
  Hf  Hf46  1  0.50080152  0.09639320  0.30230969  1
  Hf  Hf47  1  0.40106993  0.39689365  0.59914850  1
  Hf  Hf48  1  0.69482899  0.49353502  0.70942482  1
  Hf  Hf49  1  0.49533746  0.50828849  0.29098392  1
  Zr  Zr50  1  0.49752580  0.88740866  0.69545696  1
  Zr  Zr51  1  0.10811973  0.49353990  0.70990771  1
  Zr  Zr52  1  0.69188842  0.90074807  0.50361587  1
  Zr  Zr53  1  0.00419968  0.40930450  -0.00589475  1
  Zr  Zr54  1  0.90076638  0.29946628  0.09217528  1
  Zr  Zr55  1  0.80400359  0.20168152  0.20031936  1
  Zr  Zr56  1  0.48528371  0.50130256  0.49146258  1
  Zr  Zr57  1  0.69160185  0.49063569  0.90013592  1
  Zr  Zr58  1  0.80162280  0.39684662  0.39059126  1
  Zr  Zr59  1  0.41414479  0.59535177  0.80496145  1
  Zr  Zr60  1  0.00574822  0.19962961  0.20150414  1
  Zr  Zr61  1  0.10961422  0.70275040  0.70199848  1
  Zr  Zr62  1  0.60256648  0.19497904  0.19823992  1
  Zr  Zr63  1  0.10537336  0.70224641  0.50190454  1
  Zr  Zr64  1  0.19769742  0.19681275  0.80927909  1
  Zr  Zr65  1  0.89655440  0.08954575  0.69141648  1
  Zr  Zr66  1  0.00427063  0.59684308  0.82025705  1
  Zr  Zr67  1  0.08379503  0.50624593  0.11518904  1
  Zr  Zr68  1  0.30977923  0.09924362  0.90712394  1
  Zr  Zr69  1  0.10255492  0.30454769  0.30379063  1
  Zr  Zr70  1  0.80690239  0.59526121  0.00286896  1
  Zr  Zr71  1  0.09488713  0.70560477  0.29734706  1
  Zr  Zr72  1  0.00467912  0.59531149  0.59833748  1
  Zr  Zr73  1  0.00825497  0.79674155  0.00587511  1
  Zr  Zr74  1  0.59889933  0.39751087  0.40033947  1
  Zr  Zr75  1  0.59094065  0.59140030  0.60364228  1
  Zr  Zr76  1  0.19879960  0.19998875  0.59390822  1
  Zr  Zr77  1  0.30384332  0.50130924  0.30432206  1
  Zr  Zr78  1  0.89831908  0.50483998  0.28498580  1
  Zr  Zr79  1  0.60506237  0.40031160  0.20113991  1
  Zr  Zr80  1  0.20280203  0.39831561  0.59519751  1
  Zr  Zr81  1  0.89633654  0.48496413  0.70324411  1
  Zr  Zr82  1  0.39243785  0.78290684  0.80656287  1
  Zr  Zr83  1  0.19889381  0.40137541  -0.00447254  1
  Zr  Zr84  1  0.89659898  0.29857442  0.49126473  1
  Zr  Zr85  1  0.00526713  0.20222057  0.59500258  1
  Zr  Zr86  1  0.89528450  0.90076541  0.29608632  1
  Zr  Zr87  1  0.40902850  0.01612608  0.78992068  1
  Zr  Zr88  1  0.50048878  0.50644917  0.09744031  1
  Zr  Zr89  1  0.09218016  0.09506413  0.69991095  1
  Zr  Zr90  1  0.79930427  0.60251316  0.80594994  1
  Zr  Zr91  1  0.58606021  0.00917233  0.60275240  1
  Zr  Zr92  1  0.49974416  0.70661068  0.49667621  1
  Zr  Zr93  1  0.89643656  0.09531432  0.49808394  1
  Zr  Zr94  1  0.60318115  0.20633905  0.40782179  1
  Zr  Zr95  1  0.59356811  0.00728892  0.80648482  1
  Zr  Zr96  1  0.30040138  0.89938609  0.89886700  1
  Zr  Zr97  1  0.20001619  0.59832161  0.39645572  1
  Zr  Zr98  1  0.89692171  0.70366556  0.49173496  1
  Zr  Zr99  1  0.10678757  0.90421145  0.89365365  1
  Ta  Ta100  1  0.00057644  0.81161913  0.39912005  1
  Ta  Ta101  1  -0.00309120  0.80400813  0.79968705  1
  Ta  Ta102  1  0.10391890  0.49361829  0.49590695  1
  Ta  Ta103  1  0.00547646  0.80494660  0.19650212  1
  Ta  Ta104  1  0.30572627  0.89888022  0.10634815  1
  Ta  Ta105  1  0.79500104  -0.00335626  0.00782511  1
  Ta  Ta106  1  0.49647681  0.29508371  0.30115738  1
  Ta  Ta107  1  0.00104686  0.39598917  0.59627345  1
  Ta  Ta108  1  0.69784098  0.69851661  0.90636096  1
  Ta  Ta109  1  0.00156703  0.40353460  0.39513097  1
  Ta  Ta110  1  0.89731473  0.70484685  0.10631603  1
  Ta  Ta111  1  0.30792566  0.70833546  0.29457969  1
  Ta  Ta112  1  0.89289697  0.90049943  0.10186887  1
  Ta  Ta113  1  0.69745014  0.09792451  0.49917929  1
  Ta  Ta114  1  0.60149378  0.80896706  0.38765193  1
  Ta  Ta115  1  0.90019122  0.90808780  0.50500751  1
  Ta  Ta116  1  0.20795180  0.80004579  0.59626489  1
  Ta  Ta117  1  0.80051160  -0.00179283  0.80095345  1
  Ta  Ta118  1  0.20371408  0.80177753  0.19838522  1
  Ta  Ta119  1  0.29969470  0.50357318  0.69888831  1
  Ta  Ta120  1  0.49948345  0.89924849  0.49504726  1
  Ta  Ta121  1  0.30295389  0.70233968  0.49680916  1
  Ta  Ta122  1  0.09557744  0.30648311  0.70903767  1
  Ta  Ta123  1  0.30390079  0.09772095  0.49137975  1
  Ta  Ta124  1  0.68721305  0.70175850  0.70056848  1
  Ta  Ta125  1  0.79931705  0.19622505  0.80214283  1
  Ta  Ta126  1  0.49270289  0.09201514  0.10086671  1
  Ta  Ta127  1  0.90034927  0.49391563  0.50159736  1
  Ta  Ta128  1  0.70105633  0.30087683  0.90112451  1
  Ta  Ta129  1  0.69536794  0.70577006  0.49863768  1
  Ta  Ta130  1  0.39642544  0.00165236  0.59632295  1
  Ta  Ta131  1  0.89902599  0.09641770  0.09388744  1
  Ta  Ta132  1  0.29901981  0.89548240  0.69875093  1
  Ta  Ta133  1  0.49323875  0.10192102  0.49592711  1
  Ta  Ta134  1  0.70072401  0.69970047  0.10367467  1
  Ta  Ta135  1  -0.00195890  0.80891783  0.60120647  1
  Ta  Ta136  1  0.30066112  0.09540902  0.29983408  1
  Ta  Ta137  1  0.30225726  0.89911061  0.49781082  1
  Ta  Ta138  1  0.39700524  0.80009364  0.59603954  1
  Ta  Ta139  1  0.00777282  0.00258649  0.40081076  1
  Ta  Ta140  1  0.20815958  0.80728423  0.39400809  1
  Ta  Ta141  1  0.19522079  0.20185214  0.00114120  1
  Ta  Ta142  1  0.59523353  0.60305518  -0.00041174  1
  Ta  Ta143  1  -0.00240974  0.20146554  0.80172531  1
  Ta  Ta144  1  0.40009596  -0.00582515  0.20557979  1
  Ta  Ta145  1  0.70965590  0.29753640  0.29949901  1
  Ta  Ta146  1  0.70561478  0.09922428  0.90472368  1
  Ta  Ta147  1  0.21030647  0.00595952  0.79210080  1
  Ta  Ta148  1  0.30497000  0.29424402  0.08886274  1
  Ta  Ta149  1  0.70259589  0.70224620  0.29317239  1
  Ti  Ti150  1  0.30424815  0.49974737  0.90415814  1
  Ti  Ti151  1  0.60137143  0.00099986  0.01194464  1
  Ti  Ti152  1  0.40080578  0.80632976  0.39070197  1
  Ti  Ti153  1  0.50288739  0.69671056  0.69562050  1
  Ti  Ti154  1  0.89643630  0.70965435  0.91101990  1
  Ti  Ti155  1  0.09974316  0.10207116  0.09908865  1
  Ti  Ti156  1  0.40609248  0.19883032  -0.00631955  1
  Ti  Ti157  1  0.57893064  0.39763855  0.80576286  1
  Ti  Ti158  1  -0.00950557  0.39460088  0.20506603  1
  Ti  Ti159  1  -0.00089367  0.60332406  0.00438652  1
  Ti  Ti160  1  0.30346254  0.29927811  0.90179712  1
  Ti  Ti161  1  0.30951385  0.09927732  0.10098134  1
  Ti  Ti162  1  0.39641850  0.20398225  0.39654152  1
  Ti  Ti163  1  0.29723915  0.69797117  0.69168640  1
  Ti  Ti164  1  0.39424682  0.38859797  0.39588216  1
  Ti  Ti165  1  0.30093434  0.29997219  0.49205025  1
  Ti  Ti166  1  0.60045958  0.80396505  0.19868684  1
  Ti  Ti167  1  0.41128286  0.40099427  -0.01158884  1
  Ti  Ti168  1  0.29615943  0.50527323  0.50065309  1
  Ti  Ti169  1  0.70508630  0.50261581  0.28778187  1
  Ti  Ti170  1  0.79577430  0.59926653  0.39957246  1
  Ti  Ti171  1  0.80297747  0.40884366  0.00386355  1
  Ti  Ti172  1  0.10667311  0.90052748  0.10550970  1
  Ti  Ti173  1  0.00344884  -0.00143894  0.00793645  1
  Ti  Ti174  1  0.70918032  0.09599699  0.10077065  1
  Ti  Ti175  1  -0.00727244  -0.00511453  0.79744472  1
  Ti  Ti176  1  0.79302715  0.80402283  0.39832241  1
  Ti  Ti177  1  0.70149478  0.10023914  0.30404412  1
  Ti  Ti178  1  0.49422228  0.90031616  0.10890576  1
  Ti  Ti179  1  0.10534445  0.70952630  0.89443318  1
  Ti  Ti180  1  0.78682452  0.81323106  0.19439410  1
  Ti  Ti181  1  0.00522247  0.19851536  0.39776021  1
  Ti  Ti182  1  0.48304505  0.28212541  0.70051317  1
  Ti  Ti183  1  0.09610560  0.09347907  0.89811419  1
  Ti  Ti184  1  0.89911721  0.48792684  0.89346508  1
  Ti  Ti185  1  0.09955946  0.31108275  0.88843740  1
  Ti  Ti186  1  0.39593257  0.19954739  0.20311396  1
  Ti  Ti187  1  0.59116972  0.20534350  0.59484700  1
  Ti  Ti188  1  0.39714522  0.59928408  0.60330913  1
  Ti  Ti189  1  0.69760894  0.50018078  0.10015908  1
  Ti  Ti190  1  0.79823830  0.59746086  0.19008794  1
  Ti  Ti191  1  0.20811869  -0.00226123  0.20331423  1
  Ti  Ti192  1  0.10009769  0.30740164  0.49380106  1
  Ti  Ti193  1  0.89935250  0.30299937  0.70499199  1
  Ti  Ti194  1  0.10887350  0.09170713  0.30514703  1
  Ti  Ti195  1  0.01330076  0.20069976  -0.00533280  1
  Ti  Ti196  1  0.10173682  0.30143881  0.09855821  1
  Ti  Ti197  1  0.31713535  0.11710301  0.69447266  1
  Ti  Ti198  1  0.10806021  0.90385628  0.30184754  1
  Ti  Ti199  1  0.39679537  0.60988260  0.39626709  1
  Mo  Mo200  1  0.50351700  0.69054399  0.91109582  1
  Mo  Mo201  1  0.61159177  0.60391585  0.19493895  1
  Mo  Mo202  1  0.09389112  0.70392481  0.10341426  1
  Mo  Mo203  1  0.59584752  0.00167278  0.40004762  1
  Mo  Mo204  1  0.69814149  0.89286921  0.29800287  1
  Mo  Mo205  1  0.00031966  -0.00676450  0.59308448  1
  Mo  Mo206  1  0.80498783  0.39558518  0.60367090  1
  Mo  Mo207  1  0.30542865  0.29105322  0.30044856  1
  Mo  Mo208  1  0.79753338  0.79799164  0.00700950  1
  Mo  Mo209  1  0.70126617  0.89834759  0.10162725  1
  Mo  Mo210  1  0.50523763  0.69570227  0.10794640  1
  Mo  Mo211  1  0.10187689  0.09652194  0.48966894  1
  Mo  Mo212  1  0.20279272  0.79733574  0.79377016  1
  Mo  Mo213  1  0.80038911  0.40416887  0.19429426  1
  Mo  Mo214  1  0.79102056  0.19632462  0.39800296  1
  Mo  Mo215  1  0.79627218  0.00020450  0.60062752  1
  Mo  Mo216  1  0.48881460  0.29463292  0.49390194  1
  Mo  Mo217  1  0.39842923  0.61368836  0.19323669  1
  Mo  Mo218  1  0.80111015  0.38972398  0.80479766  1
  Mo  Mo219  1  0.90287101  0.29812885  0.30143310  1
  Mo  Mo220  1  0.49134679  0.11480445  0.68189620  1
  Mo  Mo221  1  0.20080148  0.39978662  0.40392191  1
  Mo  Mo222  1  0.09447709  0.49554419  0.30286103  1
  Mo  Mo223  1  0.09990335  0.50344788  0.90173214  1
  Mo  Mo224  1  0.50072018  0.89523013  0.29863322  1
  Mo  Mo225  1  0.40106592  0.80588576  0.20041305  1
  Mo  Mo226  1  0.39730468  0.20192646  0.58227727  1
  Mo  Mo227  1  0.29737347  0.89887777  0.29604222  1
  Mo  Mo228  1  0.69786795  0.29778078  0.50176493  1
  Mo  Mo229  1  0.49596514  0.49924986  0.70153307  1
  Mo  Mo230  1  0.21496588  0.59936849  0.59637498  1
  Mo  Mo231  1  0.40109140  0.60267636  -0.00324104  1
  Mo  Mo232  1  0.59975753  0.40116417  -0.00450030  1
  Mo  Mo233  1  0.89661667  0.50429333  0.10043848  1
  Mo  Mo234  1  0.50251914  0.09767134  0.92267284  1
  Mo  Mo235  1  0.79422157  0.19094197  -0.00311884  1
  Mo  Mo236  1  0.30503453  0.70039640  0.10755425  1
  Mo  Mo237  1  0.50046649  0.30097393  0.90384080  1
  Mo  Mo238  1  0.50393246  0.49718246  0.90399785  1
  Mo  Mo239  1  0.90277578  0.90126518  0.70126405  1
  Mo  Mo240  1  0.40295272  0.20595427  0.81434664  1
  Mo  Mo241  1  0.39840581  -0.00116977  0.01838628  1
  Mo  Mo242  1  0.59393804  0.79369763  0.59426789  1
  Mo  Mo243  1  0.79829046  0.00331936  0.19485459  1
  Mo  Mo244  1  0.59828853  0.60330914  0.80318901  1
  Mo  Mo245  1  0.00092132  0.39299526  0.79969922  1
  Mo  Mo246  1  0.30305613  0.69131809  0.90966471  1
  Mo  Mo247  1  0.20587071  0.40493202  0.80641912  1
  Mo  Mo248  1  0.20280660  0.00129169  0.39509068  1
  Mo  Mo249  1  -0.00672284  0.61343113  0.19477232  1
