# generated using pymatgen
data_HfZrTaTiMo
_symmetry_space_group_name_H-M   'P 1'
_cell_length_a   16.89015550
_cell_length_b   16.88378633
_cell_length_c   16.88916285
_cell_angle_alpha   90.00980467
_cell_angle_beta   89.85772199
_cell_angle_gamma   89.97177505
_symmetry_Int_Tables_number   1
_chemical_formula_structural   HfZrTaTiMo
_chemical_formula_sum   'Hf50 Zr50 Ta50 Ti50 Mo50'
_cell_volume   4816.26329070
_cell_formula_units_Z   50
loop_
 _symmetry_equiv_pos_site_id
 _symmetry_equiv_pos_as_xyz
  1  'x, y, z'
loop_
 _atom_site_type_symbol
 _atom_site_label
 _atom_site_symmetry_multiplicity
 _atom_site_fract_x
 _atom_site_fract_y
 _atom_site_fract_z
 _atom_site_occupancy
  Hf  Hf0  1  0.60005947  0.00556754  0.19612453  1
  Hf  Hf1  1  0.20731540  0.61358924  -0.00896452  1
  Hf  Hf2  1  0.60177030  0.20124061  0.39612999  1
  Hf  Hf3  1  0.19588690  0.00247906  0.40201848  1
  Hf  Hf4  1  0.80008977  0.19553681  0.38930337  1
  Hf  Hf5  1  0.79817170  0.60089276  0.79896292  1
  Hf  Hf6  1  0.09679054  0.68903134  0.30158739  1
  Hf  Hf7  1  0.59985281  0.40231119  0.39138893  1
  Hf  Hf8  1  0.09169401  0.09843781  0.09333866  1
  Hf  Hf9  1  0.80648569  0.59304217  0.00337796  1
  Hf  Hf10  1  0.50123849  0.89968900  0.49842006  1
  Hf  Hf11  1  0.40754676  0.40224378  0.40348229  1
  Hf  Hf12  1  0.30676185  0.28721678  0.09342105  1
  Hf  Hf13  1  0.60318240  0.00142217  0.80232204  1
  Hf  Hf14  1  0.59515734  0.19426935  0.00743841  1
  Hf  Hf15  1  0.10200995  0.89559744  0.49832506  1
  Hf  Hf16  1  0.19647335  0.19233805  0.79670627  1
  Hf  Hf17  1  0.19716037  0.00435354  -0.01844871  1
  Hf  Hf18  1  -0.01805679  0.40803342  0.00372702  1
  Hf  Hf19  1  0.09491503  0.70014171  0.49402180  1
  Hf  Hf20  1  0.88991766  0.29892984  0.90341227  1
  Hf  Hf21  1  0.69890312  0.90123797  0.10179023  1
  Hf  Hf22  1  0.70008706  0.30073535  0.10490632  1
  Hf  Hf23  1  -0.01218246  0.20713438  0.20210775  1
  Hf  Hf24  1  0.69500837  0.69617054  0.90306083  1
  Hf  Hf25  1  0.09823545  0.29850270  0.49786073  1
  Hf  Hf26  1  0.30211286  0.90098467  0.50253088  1
  Hf  Hf27  1  0.30029382  0.49565492  0.89739392  1
  Hf  Hf28  1  0.19569916  0.80676204  0.20049586  1
  Hf  Hf29  1  0.89643701  0.90305438  0.09756614  1
  Hf  Hf30  1  0.89723467  0.69174212  0.49813380  1
  Hf  Hf31  1  0.49522582  0.69957396  0.30329400  1
  Hf  Hf32  1  0.29709368  0.69897868  0.29974511  1
  Hf  Hf33  1  0.39939262  0.20224497  0.60060824  1
  Hf  Hf34  1  0.20285879  0.80336069  -0.00913040  1
  Hf  Hf35  1  0.20039657  0.19592564  0.60744889  1
  Hf  Hf36  1  0.70564643  0.69178696  0.49449578  1
  Hf  Hf37  1  0.60672538  -0.00289731  0.60653395  1
  Hf  Hf38  1  0.31286628  0.91733349  0.09340286  1
  Hf  Hf39  1  0.08914559  0.70021703  0.70531093  1
  Hf  Hf40  1  0.30179310  0.71724261  0.48837485  1
  Hf  Hf41  1  0.20635146  0.59760304  0.59714974  1
  Hf  Hf42  1  0.60881012  0.79670625  0.39581265  1
  Hf  Hf43  1  0.19697110  0.39331743  0.19937166  1
  Hf  Hf44  1  0.61030905  0.80175770  0.79439630  1
  Hf  Hf45  1  0.90313650  0.89295677  0.71695184  1
  Hf  Hf46  1  0.40694677  0.40044694  0.00562742  1
  Hf  Hf47  1  0.20218662  0.60742070  0.80202306  1
  Hf  Hf48  1  0.51171358  0.50326420  0.89776040  1
  Hf  Hf49  1  -0.00643264  0.00248263  0.39464958  1
  Zr  Zr50  1  0.78829722  0.59874944  0.20185703  1
  Zr  Zr51  1  0.31035924  0.70544866  0.69607692  1
  Zr  Zr52  1  0.00807138  0.00075881  0.60581725  1
  Zr  Zr53  1  0.10032770  0.29494234  0.09206664  1
  Zr  Zr54  1  -0.00887893  0.39679060  0.19678210  1
  Zr  Zr55  1  0.89112204  0.89498201  0.49637049  1
  Zr  Zr56  1  0.30648747  0.30012353  0.29522179  1
  Zr  Zr57  1  0.40594960  0.80734030  0.19001098  1
  Zr  Zr58  1  0.31168915  0.09678880  0.29056368  1
  Zr  Zr59  1  0.78998579  0.79896579  0.61339086  1
  Zr  Zr60  1  0.40131424  0.58945448  0.40695353  1
  Zr  Zr61  1  0.19606338  0.80759380  0.61122074  1
  Zr  Zr62  1  0.89160703  0.50064745  0.31119138  1
  Zr  Zr63  1  0.41077019  0.20553234  0.40303832  1
  Zr  Zr64  1  -0.00246655  0.39433805  0.79691992  1
  Zr  Zr65  1  0.40603895  0.39677504  0.79754047  1
  Zr  Zr66  1  0.20557336  0.20733619  0.40083250  1
  Zr  Zr67  1  0.90407499  0.10797437  0.50346130  1
  Zr  Zr68  1  0.90201324  0.29838105  0.50240081  1
  Zr  Zr69  1  0.42049905  0.40597910  0.19070960  1
  Zr  Zr70  1  0.30356421  0.28992728  0.89898216  1
  Zr  Zr71  1  0.89223764  0.69579708  0.31378918  1
  Zr  Zr72  1  0.90121705  0.09992477  0.70290639  1
  Zr  Zr73  1  0.19595942  0.00729424  0.79778693  1
  Zr  Zr74  1  0.09744535  0.69742815  0.10157626  1
  Zr  Zr75  1  0.19407782  0.00130320  0.20225351  1
  Zr  Zr76  1  0.79329259  -0.00483635  0.80204598  1
  Zr  Zr77  1  0.70354983  0.10056725  0.50203363  1
  Zr  Zr78  1  0.89751705  0.09813943  0.09386071  1
  Zr  Zr79  1  0.50484319  0.49719624  0.69216690  1
  Zr  Zr80  1  0.19570557  0.80307608  0.81264998  1
  Zr  Zr81  1  0.09242906  0.11409366  0.30419242  1
  Zr  Zr82  1  0.50546801  0.69466354  0.50875163  1
  Zr  Zr83  1  0.09347661  0.49239081  0.50304859  1
  Zr  Zr84  1  -0.00852002  0.80219118  0.20185823  1
  Zr  Zr85  1  0.80295848  0.79634580  -0.00177962  1
  Zr  Zr86  1  0.49588563  0.89979427  0.70363403  1
  Zr  Zr87  1  0.30624002  0.89283685  0.31282036  1
  Zr  Zr88  1  0.09019197  0.90741745  0.08948420  1
  Zr  Zr89  1  0.10107592  0.49823352  0.90083848  1
  Zr  Zr90  1  0.10246467  0.51003058  0.10166694  1
  Zr  Zr91  1  0.90601721  0.50712708  0.69280655  1
  Zr  Zr92  1  0.79926119  0.40118827  0.80056662  1
  Zr  Zr93  1  0.50188743  0.90674603  0.29894723  1
  Zr  Zr94  1  0.50493284  0.70049381  0.10078406  1
  Zr  Zr95  1  0.09677092  0.50758604  0.29958691  1
  Zr  Zr96  1  0.59233083  0.39713312  0.01154978  1
  Zr  Zr97  1  0.29532738  0.50089176  0.29569270  1
  Zr  Zr98  1  0.80233117  0.39855919  0.60452705  1
  Zr  Zr99  1  0.40026825  0.60366656  0.79979594  1
  Ta  Ta100  1  0.10293722  0.49976292  0.70086137  1
  Ta  Ta101  1  0.79399520  -0.00440000  0.60753540  1
  Ta  Ta102  1  0.79727914  0.19704335  0.20181966  1
  Ta  Ta103  1  0.20326703  0.39773735  -0.00015421  1
  Ta  Ta104  1  0.30455974  0.30147335  0.69940011  1
  Ta  Ta105  1  -0.01451370  0.60714592  -0.00543520  1
  Ta  Ta106  1  0.49724785  0.10631828  0.70609075  1
  Ta  Ta107  1  0.70168141  0.30299713  0.49896487  1
  Ta  Ta108  1  0.50474407  0.09846284  0.50599981  1
  Ta  Ta109  1  0.31808297  0.90672067  0.89340660  1
  Ta  Ta110  1  0.50583541  0.70242949  0.89925626  1
  Ta  Ta111  1  0.69538603  0.70098096  0.10293348  1
  Ta  Ta112  1  0.60775349  0.59170128  0.38915282  1
  Ta  Ta113  1  -0.00398008  0.79917450  0.60478337  1
  Ta  Ta114  1  -0.00462948  0.60081971  0.80968140  1
  Ta  Ta115  1  0.30730956  0.90845023  0.70641296  1
  Ta  Ta116  1  0.60021150  0.58809096  0.20602693  1
  Ta  Ta117  1  0.79601400  0.20148162  0.80090536  1
  Ta  Ta118  1  -0.00850201  -0.00165440  0.21207235  1
  Ta  Ta119  1  0.10046918  0.29791947  0.90235130  1
  Ta  Ta120  1  0.69406739  0.29949384  0.70322879  1
  Ta  Ta121  1  0.00101249  0.39239062  0.39307151  1
  Ta  Ta122  1  0.70441433  0.30661530  0.29410979  1
  Ta  Ta123  1  0.20082409  0.19895144  0.19562759  1
  Ta  Ta124  1  -0.00307514  0.79899579  -0.01264029  1
  Ta  Ta125  1  0.40441854  0.80122569  -0.00357811  1
  Ta  Ta126  1  0.79684885  -0.00030108  -0.00537742  1
  Ta  Ta127  1  0.50065994  0.28826461  0.89672881  1
  Ta  Ta128  1  0.50058456  0.90780853  0.90580159  1
  Ta  Ta129  1  0.70670980  0.90019101  0.30073638  1
  Ta  Ta130  1  0.49887318  0.09896099  0.89827658  1
  Ta  Ta131  1  0.60100771  0.20229774  0.60213418  1
  Ta  Ta132  1  0.40570275  0.00727530  0.40690450  1
  Ta  Ta133  1  0.29909299  0.48890762  0.69323533  1
  Ta  Ta134  1  0.51255809  0.49855863  0.50721920  1
  Ta  Ta135  1  0.20359887  0.59283253  0.40893921  1
  Ta  Ta136  1  0.39673933  0.00917633  0.60392139  1
  Ta  Ta137  1  0.70512798  0.49791634  0.49493803  1
  Ta  Ta138  1  0.69701244  0.49380679  0.90242127  1
  Ta  Ta139  1  0.00309845  0.19939181  0.80128817  1
  Ta  Ta140  1  0.69933515  0.10417459  0.90524750  1
  Ta  Ta141  1  0.41597151  0.19367619  0.18878548  1
  Ta  Ta142  1  0.50819673  0.69453506  0.69390106  1
  Ta  Ta143  1  -0.00586035  0.20061910  -0.00750004  1
  Ta  Ta144  1  0.59607279  0.80619249  0.00169383  1
  Ta  Ta145  1  0.50540816  0.29814873  0.70329593  1
  Ta  Ta146  1  0.89832305  0.09733446  0.89858846  1
  Ta  Ta147  1  0.79919607  0.00825920  0.20800892  1
  Ta  Ta148  1  0.20129114  0.00963514  0.60850943  1
  Ta  Ta149  1  0.40173770  0.60470403  -0.00016711  1
  Ti  Ti150  1  0.40522722  0.80399450  0.60209561  1
  Ti  Ti151  1  -0.00052687  0.80594939  0.39464937  1
  Ti  Ti152  1  0.89250769  0.30403829  0.30384571  1
  Ti  Ti153  1  0.80397028  0.40159858  0.19217843  1
  Ti  Ti154  1  0.69379589  0.30330343  0.90012738  1
  Ti  Ti155  1  0.29939689  0.31506518  0.50481008  1
  Ti  Ti156  1  0.60884818  0.79832116  0.60454656  1
  Ti  Ti157  1  0.60030342  0.59816240  0.00855244  1
  Ti  Ti158  1  0.60627544  0.39661539  0.60031556  1
  Ti  Ti159  1  0.49037751  0.08276811  0.08834477  1
  Ti  Ti160  1  0.60357881  0.19132829  0.19982359  1
  Ti  Ti161  1  0.40578443  0.59391147  0.19431777  1
  Ti  Ti162  1  0.70277678  0.09569240  0.09537296  1
  Ti  Ti163  1  -0.02754884  0.59992753  0.17997183  1
  Ti  Ti164  1  0.89712086  0.50073802  0.49485565  1
  Ti  Ti165  1  0.19860118  0.39588390  0.60529866  1
  Ti  Ti166  1  0.70537043  0.90016478  0.49381928  1
  Ti  Ti167  1  0.60662238  0.00588757  0.39687904  1
  Ti  Ti168  1  0.50076888  0.09803396  0.30006147  1
  Ti  Ti169  1  0.69853926  0.10655496  0.70280856  1
  Ti  Ti170  1  0.40655203  0.79712885  0.80457850  1
  Ti  Ti171  1  0.79138717  0.59806458  0.60660373  1
  Ti  Ti172  1  0.09242500  0.90157076  0.71132863  1
  Ti  Ti173  1  0.69116094  0.49625430  0.70051460  1
  Ti  Ti174  1  0.00142543  0.38915321  0.61264962  1
  Ti  Ti175  1  0.69781165  0.49403260  0.10024031  1
  Ti  Ti176  1  0.79709394  0.00542706  0.39301093  1
  Ti  Ti177  1  0.60523883  0.60218577  0.79114493  1
  Ti  Ti178  1  0.19702711  0.19058335  -0.00934233  1
  Ti  Ti179  1  0.79702978  0.20119884  0.00137832  1
  Ti  Ti180  1  0.79577493  0.20493388  0.60992482  1
  Ti  Ti181  1  0.39382222  0.58839910  0.59377703  1
  Ti  Ti182  1  0.00081743  0.60178513  0.60039618  1
  Ti  Ti183  1  0.50599294  0.30546907  0.51181699  1
  Ti  Ti184  1  0.88798844  0.89713312  0.30326952  1
  Ti  Ti185  1  0.29716616  0.50685456  0.09942764  1
  Ti  Ti186  1  0.70042338  0.89866393  0.90417369  1
  Ti  Ti187  1  0.32178386  0.09910488  0.89638910  1
  Ti  Ti188  1  0.60488121  0.79843944  0.20174193  1
  Ti  Ti189  1  0.01012565  0.20756524  0.62086449  1
  Ti  Ti190  1  0.79547344  0.79278071  0.20426671  1
  Ti  Ti191  1  0.89966542  0.70302056  0.70460168  1
  Ti  Ti192  1  0.09318943  0.10891188  0.50048370  1
  Ti  Ti193  1  0.89774228  0.71047365  0.88793689  1
  Ti  Ti194  1  0.30708007  0.10094783  0.09187514  1
  Ti  Ti195  1  0.51234829  0.30069292  0.28327379  1
  Ti  Ti196  1  0.30322959  0.09905901  0.50072623  1
  Ti  Ti197  1  0.60274574  0.20113953  0.80087992  1
  Ti  Ti198  1  0.30208179  0.69961179  0.10317620  1
  Ti  Ti199  1  0.19661423  0.39245043  0.79534463  1
  Mo  Mo200  1  0.89725543  0.28967888  0.70349741  1
  Mo  Mo201  1  0.88514964  0.29716189  0.09629805  1
  Mo  Mo202  1  0.41276446  0.80656796  0.40780154  1
  Mo  Mo203  1  0.19882842  0.40142031  0.40337083  1
  Mo  Mo204  1  0.70096464  0.89779965  0.70239478  1
  Mo  Mo205  1  0.18510686  0.79831728  0.39178305  1
  Mo  Mo206  1  0.50203483  0.51496406  0.09835439  1
  Mo  Mo207  1  0.60636902  0.40371654  0.20200426  1
  Mo  Mo208  1  0.79295509  0.59195800  0.40319878  1
  Mo  Mo209  1  0.09305817  0.89664900  0.30584598  1
  Mo  Mo210  1  -0.00232730  0.58903483  0.41439403  1
  Mo  Mo211  1  0.40323897  0.00524662  0.79892365  1
  Mo  Mo212  1  0.30622337  0.10111468  0.69919610  1
  Mo  Mo213  1  0.69566785  0.69194469  0.69867262  1
  Mo  Mo214  1  0.79562986  0.80176655  0.39518552  1
  Mo  Mo215  1  0.10468229  0.30280382  0.70393657  1
  Mo  Mo216  1  0.69441917  0.70168574  0.29562664  1
  Mo  Mo217  1  0.50500339  0.28279858  0.10199914  1
  Mo  Mo218  1  0.60269068  -0.00078293  -0.00229887  1
  Mo  Mo219  1  0.09755408  0.30233079  0.30357199  1
  Mo  Mo220  1  0.08519343  0.10315657  0.89953814  1
  Mo  Mo221  1  0.89402475  0.50290421  0.90016783  1
  Mo  Mo222  1  0.09788837  0.10164436  0.70198107  1
  Mo  Mo223  1  0.79760381  0.39515093  0.40226806  1
  Mo  Mo224  1  0.79753820  0.79549452  0.80496890  1
  Mo  Mo225  1  0.40273314  0.39542840  0.59732876  1
  Mo  Mo226  1  0.08501164  0.70156481  0.89995710  1
  Mo  Mo227  1  0.40346259  0.00138360  -0.00571710  1
  Mo  Mo228  1  0.60435095  0.39295178  0.80240967  1
  Mo  Mo229  1  0.89462124  0.10069263  0.29759921  1
  Mo  Mo230  1  0.50331175  0.50295411  0.29874725  1
  Mo  Mo231  1  0.89987585  0.90333990  0.90153872  1
  Mo  Mo232  1  0.31888400  0.71053314  0.90256529  1
  Mo  Mo233  1  0.79002049  0.40200489  0.00019418  1
  Mo  Mo234  1  0.40344459  0.19871898  0.79611645  1
  Mo  Mo235  1  0.89414593  0.70408813  0.09783836  1
  Mo  Mo236  1  0.70033299  0.49028662  0.29768868  1
  Mo  Mo237  1  0.08411334  0.90304160  0.89463315  1
  Mo  Mo238  1  0.69630166  0.09918288  0.29565282  1
  Mo  Mo239  1  -0.00788737  -0.00126021  -0.01203855  1
  Mo  Mo240  1  0.89100144  0.49885660  0.09870464  1
  Mo  Mo241  1  -0.00303696  0.79770396  0.80345063  1
  Mo  Mo242  1  -0.00367186  0.20853848  0.39351268  1
  Mo  Mo243  1  0.29496958  0.48519347  0.50395580  1
  Mo  Mo244  1  0.50659176  0.90398458  0.09299719  1
  Mo  Mo245  1  0.61118209  0.59192291  0.59927427  1
  Mo  Mo246  1  0.00239479  0.00141969  0.80811400  1
  Mo  Mo247  1  0.21658927  0.60388422  0.19354437  1
  Mo  Mo248  1  0.40708457  0.00963194  0.19636779  1
  Mo  Mo249  1  0.40617507  0.19158145  -0.00267806  1
