# generated using pymatgen
data_HfZrTaTiMo
_symmetry_space_group_name_H-M   'P 1'
_cell_length_a   16.88312829
_cell_length_b   16.89059916
_cell_length_c   16.88764776
_cell_angle_alpha   89.98532953
_cell_angle_beta   89.89830803
_cell_angle_gamma   89.98568751
_symmetry_Int_Tables_number   1
_chemical_formula_structural   HfZrTaTiMo
_chemical_formula_sum   'Hf50 Zr50 Ta50 Ti50 Mo50'
_cell_volume   4815.77764443
_cell_formula_units_Z   50
loop_
 _symmetry_equiv_pos_site_id
 _symmetry_equiv_pos_as_xyz
  1  'x, y, z'
loop_
 _atom_site_type_symbol
 _atom_site_label
 _atom_site_symmetry_multiplicity
 _atom_site_fract_x
 _atom_site_fract_y
 _atom_site_fract_z
 _atom_site_occupancy
  Hf  Hf0  1  0.78709341  0.79914978  0.40338763  1
  Hf  Hf1  1  0.00456087  0.79927303  0.40866280  1
  Hf  Hf2  1  0.49881398  0.10679201  0.69421967  1
  Hf  Hf3  1  0.31106273  0.10662184  0.90137611  1
  Hf  Hf4  1  0.19460828  0.20709733  0.79626668  1
  Hf  Hf5  1  0.80510925  -0.01218018  0.00789376  1
  Hf  Hf6  1  0.50243469  0.70355262  0.30253026  1
  Hf  Hf7  1  0.21433008  0.20712602  0.39671892  1
  Hf  Hf8  1  0.79641394  0.79954437  0.80356253  1
  Hf  Hf9  1  0.90692767  0.70643499  0.69749955  1
  Hf  Hf10  1  0.67986097  0.89282273  0.10134587  1
  Hf  Hf11  1  0.30369330  0.70300667  0.09501510  1
  Hf  Hf12  1  0.10184789  0.09237850  0.70158948  1
  Hf  Hf13  1  0.80130582  0.79400653  0.19054327  1
  Hf  Hf14  1  0.30246374  0.50229867  0.88338688  1
  Hf  Hf15  1  0.20759685  0.79911508  0.40876595  1
  Hf  Hf16  1  0.00118690  -0.00005773  0.00451975  1
  Hf  Hf17  1  0.19675827  0.59622329  0.19526294  1
  Hf  Hf18  1  0.69940132  0.69373267  0.70327730  1
  Hf  Hf19  1  0.88892975  0.09846007  0.69746024  1
  Hf  Hf20  1  0.89822155  0.89876777  0.30393545  1
  Hf  Hf21  1  0.59785851  0.00172047  0.58311537  1
  Hf  Hf22  1  0.59553251  0.80390042  0.80924557  1
  Hf  Hf23  1  -0.00011358  0.20911711  0.60636473  1
  Hf  Hf24  1  0.50041374  0.29686667  0.69173561  1
  Hf  Hf25  1  0.79844270  0.20930032  0.80805326  1
  Hf  Hf26  1  0.00366518  0.59137620  0.79139105  1
  Hf  Hf27  1  0.00267617  0.41269361  0.19215468  1
  Hf  Hf28  1  -0.00322290  0.00310814  0.59759639  1
  Hf  Hf29  1  0.69883990  0.68846736  0.90159536  1
  Hf  Hf30  1  0.89928912  0.69410127  0.31016024  1
  Hf  Hf31  1  0.69065505  0.69794724  0.49469775  1
  Hf  Hf32  1  0.09706877  0.89085104  0.70262776  1
  Hf  Hf33  1  0.31453945  0.10379139  0.29361226  1
  Hf  Hf34  1  0.40532844  0.60214658  0.20026972  1
  Hf  Hf35  1  0.59284002  0.20046934  0.81139831  1
  Hf  Hf36  1  0.40527884  0.39642497  0.39593275  1
  Hf  Hf37  1  0.41041277  0.00522830  0.40039515  1
  Hf  Hf38  1  0.10204409  0.50026816  0.31013430  1
  Hf  Hf39  1  0.39727905  -0.00538225  0.58514894  1
  Hf  Hf40  1  0.68940349  0.10782862  0.09982486  1
  Hf  Hf41  1  0.11048328  0.90516500  0.10638484  1
  Hf  Hf42  1  0.09169703  0.29257072  0.10272554  1
  Hf  Hf43  1  0.88698930  0.49512188  0.89243207  1
  Hf  Hf44  1  -0.01117790  0.01681051  0.40019716  1
  Hf  Hf45  1  0.69267955  0.09934412  0.91218106  1
  Hf  Hf46  1  0.79784616  0.21254401  -0.00216260  1
  Hf  Hf47  1  0.67736895  0.89018098  0.29835871  1
  Hf  Hf48  1  0.31678197  0.30051350  0.50834397  1
  Hf  Hf49  1  0.20555216  0.60349224  0.41435642  1
  Zr  Zr50  1  -0.00343379  0.20751464  0.80514105  1
  Zr  Zr51  1  -0.00336603  0.79917876  0.19667504  1
  Zr  Zr52  1  0.11404658  0.09524429  0.29915140  1
  Zr  Zr53  1  0.10822333  0.90766465  0.30242725  1
  Zr  Zr54  1  0.40118656  0.38656172  0.19476288  1
  Zr  Zr55  1  0.30583036  0.50323359  0.08593412  1
  Zr  Zr56  1  0.30667839  0.30289997  0.88897810  1
  Zr  Zr57  1  0.89926821  0.31847998  0.30157980  1
  Zr  Zr58  1  0.88331170  0.89319623  0.52173580  1
  Zr  Zr59  1  0.69644450  0.30407559  0.29056599  1
  Zr  Zr60  1  0.79555153  -0.00083909  0.80570537  1
  Zr  Zr61  1  0.20129736  0.20795822  0.60568907  1
  Zr  Zr62  1  0.71346661  0.90268331  0.67813845  1
  Zr  Zr63  1  0.59852283  -0.00445255  0.80420248  1
  Zr  Zr64  1  0.69003207  0.10821341  0.29099803  1
  Zr  Zr65  1  -0.00331652  0.79305319  0.00375311  1
  Zr  Zr66  1  0.30862000  0.10233491  0.70244504  1
  Zr  Zr67  1  0.30061476  0.90753377  0.29358583  1
  Zr  Zr68  1  0.41279272  -0.00563956  0.80974457  1
  Zr  Zr69  1  0.19090991  0.60083089  -0.00952811  1
  Zr  Zr70  1  0.50743585  0.50489011  0.89273860  1
  Zr  Zr71  1  0.78683536  -0.00116735  0.40734094  1
  Zr  Zr72  1  0.49586142  0.89012919  0.68411052  1
  Zr  Zr73  1  0.20627889  0.20453974  0.00363416  1
  Zr  Zr74  1  0.79806583  0.59314074  0.20107158  1
  Zr  Zr75  1  0.20673011  0.39347863  0.19554456  1
  Zr  Zr76  1  0.90140115  0.69533109  0.50935013  1
  Zr  Zr77  1  0.59916755  0.58436641  0.60023361  1
  Zr  Zr78  1  0.70001149  0.11286568  0.50432720  1
  Zr  Zr79  1  0.79056340  0.40653566  0.60075034  1
  Zr  Zr80  1  0.09832182  0.29880757  0.30632655  1
  Zr  Zr81  1  0.49944268  0.69174942  0.70186638  1
  Zr  Zr82  1  0.79896973  -0.00394763  0.20090218  1
  Zr  Zr83  1  -0.01442026  0.19177287  0.21909683  1
  Zr  Zr84  1  0.89494952  0.10967515  0.10236768  1
  Zr  Zr85  1  0.10332454  0.90376995  0.50765724  1
  Zr  Zr86  1  0.30640410  0.90075147  0.91140864  1
  Zr  Zr87  1  0.19853212  0.79898546  -0.00384409  1
  Zr  Zr88  1  0.69844358  0.29720439  0.49841888  1
  Zr  Zr89  1  0.30456226  0.50278157  0.30401385  1
  Zr  Zr90  1  0.20337516  0.79361313  0.80143622  1
  Zr  Zr91  1  0.90758842  0.89095790  0.89392055  1
  Zr  Zr92  1  0.79742342  0.59155220  0.60119352  1
  Zr  Zr93  1  -0.00392476  0.59987262  0.19440337  1
  Zr  Zr94  1  0.40438272  0.79399169  0.80930422  1
  Zr  Zr95  1  0.09791870  0.30505641  0.50103135  1
  Zr  Zr96  1  0.81774352  0.19514599  0.38393469  1
  Zr  Zr97  1  0.41042977  0.38898346  -0.00375406  1
  Zr  Zr98  1  0.51182629  0.49796196  0.09957251  1
  Zr  Zr99  1  0.10372606  0.49361794  0.88934628  1
  Ta  Ta100  1  0.69817996  0.11107185  0.69204368  1
  Ta  Ta101  1  0.89104874  0.31028455  0.70192527  1
  Ta  Ta102  1  -0.00342600  0.39746278  -0.00356423  1
  Ta  Ta103  1  0.21976830  0.20414971  0.19367259  1
  Ta  Ta104  1  -0.00476531  -0.00015018  0.19735240  1
  Ta  Ta105  1  0.49953073  0.29235229  0.29544748  1
  Ta  Ta106  1  0.09933589  0.69470781  0.51459743  1
  Ta  Ta107  1  0.59502786  0.40143174  0.39532455  1
  Ta  Ta108  1  0.69012943  0.69420643  0.10180090  1
  Ta  Ta109  1  0.00552030  0.59772179  0.40821847  1
  Ta  Ta110  1  0.30251739  0.49698958  0.50798913  1
  Ta  Ta111  1  0.00028639  0.40794455  0.60934529  1
  Ta  Ta112  1  0.69376129  0.89434623  0.91712730  1
  Ta  Ta113  1  0.30145695  0.70062247  0.30049452  1
  Ta  Ta114  1  0.89333704  0.49551523  0.09038647  1
  Ta  Ta115  1  0.10468375  0.69846082  0.30419316  1
  Ta  Ta116  1  0.20374988  0.79474717  0.20087257  1
  Ta  Ta117  1  0.89770040  0.69022947  0.89489387  1
  Ta  Ta118  1  0.10397548  0.10643237  0.49768619  1
  Ta  Ta119  1  0.50195702  0.88281877  0.48984210  1
  Ta  Ta120  1  0.09942357  0.69653627  0.10138557  1
  Ta  Ta121  1  0.39463995  0.59670681  0.60033653  1
  Ta  Ta122  1  0.10117523  0.69436519  0.69424826  1
  Ta  Ta123  1  0.49549927  0.49967750  0.49655521  1
  Ta  Ta124  1  0.49550828  0.11374116  0.09743396  1
  Ta  Ta125  1  0.21887819  0.00464379  0.42013584  1
  Ta  Ta126  1  0.39309712  0.79660212  0.40343628  1
  Ta  Ta127  1  0.90368555  0.49812597  0.49799721  1
  Ta  Ta128  1  0.69558621  0.29940404  0.70050127  1
  Ta  Ta129  1  0.20349625  0.00794806  0.00128337  1
  Ta  Ta130  1  0.69298339  0.31289578  0.90291310  1
  Ta  Ta131  1  0.21140110  0.79155303  0.59849915  1
  Ta  Ta132  1  0.90522557  0.89258591  0.69865120  1
  Ta  Ta133  1  0.20821287  0.40059315  0.40735883  1
  Ta  Ta134  1  0.89934470  0.30512769  0.50251990  1
  Ta  Ta135  1  0.59649391  0.59151343  0.39439138  1
  Ta  Ta136  1  0.19602757  0.39679612  0.00428270  1
  Ta  Ta137  1  -0.00292381  0.59485901  -0.00012036  1
  Ta  Ta138  1  0.39947728  0.80204608  0.19836611  1
  Ta  Ta139  1  0.49482927  0.69725116  0.50047855  1
  Ta  Ta140  1  0.10412728  0.10230454  0.10356549  1
  Ta  Ta141  1  0.69543097  0.49674019  0.09845189  1
  Ta  Ta142  1  0.10042921  0.09826318  0.90330922  1
  Ta  Ta143  1  0.69902334  0.49888413  0.90245878  1
  Ta  Ta144  1  -0.00409395  0.20638460  -0.00662938  1
  Ta  Ta145  1  0.68751329  0.69507056  0.29401341  1
  Ta  Ta146  1  0.20158436  -0.00290833  0.80592547  1
  Ta  Ta147  1  0.89352216  0.30597863  0.10206148  1
  Ta  Ta148  1  0.58800837  0.00445896  0.39866619  1
  Ta  Ta149  1  0.30025102  0.89574925  0.69576590  1
  Ti  Ti150  1  0.40001004  0.60094887  0.40493184  1
  Ti  Ti151  1  0.89431597  0.11310225  0.50925128  1
  Ti  Ti152  1  0.00085085  -0.00024158  0.80264130  1
  Ti  Ti153  1  0.20906307  -0.00171051  0.59876540  1
  Ti  Ti154  1  0.40527451  0.00629486  0.00744897  1
  Ti  Ti155  1  0.49402179  0.12529530  0.50263913  1
  Ti  Ti156  1  0.79245799  0.59153698  0.39723576  1
  Ti  Ti157  1  0.59549795  0.39966046  0.59409386  1
  Ti  Ti158  1  0.90161909  0.09914652  0.90214138  1
  Ti  Ti159  1  0.10021131  0.90227813  0.89656139  1
  Ti  Ti160  1  0.40546391  0.40835053  0.60279272  1
  Ti  Ti161  1  0.10037602  0.50291119  0.51153087  1
  Ti  Ti162  1  0.58271693  0.00120599  -0.00070057  1
  Ti  Ti163  1  0.69302078  0.49670140  0.48867460  1
  Ti  Ti164  1  0.49684324  0.89629646  0.10230623  1
  Ti  Ti165  1  0.58712773  0.20218104  0.39787594  1
  Ti  Ti166  1  0.49760118  0.50261634  0.70429556  1
  Ti  Ti167  1  0.49767525  0.89386017  0.29757755  1
  Ti  Ti168  1  0.58191114  0.00595585  0.20226526  1
  Ti  Ti169  1  0.59704444  0.39729873  0.80010935  1
  Ti  Ti170  1  0.90027381  0.50124950  0.30775013  1
  Ti  Ti171  1  0.79632363  0.39707445  0.00116185  1
  Ti  Ti172  1  0.30617081  0.68705613  0.89261370  1
  Ti  Ti173  1  0.80144968  0.60103360  0.00513094  1
  Ti  Ti174  1  0.79412939  0.40930699  0.39788190  1
  Ti  Ti175  1  0.59245900  0.21136506  0.18992679  1
  Ti  Ti176  1  0.69940584  0.49818461  0.72224622  1
  Ti  Ti177  1  0.58815248  0.79112252  -0.00241475  1
  Ti  Ti178  1  0.50959033  0.49734185  0.29294046  1
  Ti  Ti179  1  0.19972453  0.40348476  0.60865747  1
  Ti  Ti180  1  0.19688671  0.40141170  0.78016566  1
  Ti  Ti181  1  -0.00056699  0.39628721  0.79434256  1
  Ti  Ti182  1  0.41121474  0.79549929  -0.00050240  1
  Ti  Ti183  1  0.80421147  0.79286952  0.00724832  1
  Ti  Ti184  1  0.50702475  0.70050832  0.10542220  1
  Ti  Ti185  1  0.89446536  0.49861302  0.70262020  1
  Ti  Ti186  1  0.20544935  0.59307314  0.61010184  1
  Ti  Ti187  1  0.09938841  0.30530861  0.89836692  1
  Ti  Ti188  1  0.60318273  0.79914635  0.59117391  1
  Ti  Ti189  1  0.79267002  0.40519627  0.19552447  1
  Ti  Ti190  1  0.41204239  0.60975742  -0.00817419  1
  Ti  Ti191  1  0.30208303  0.90560321  0.10265210  1
  Ti  Ti192  1  0.00153844  0.40585061  0.40950290  1
  Ti  Ti193  1  0.40765372  0.39973893  0.79308920  1
  Ti  Ti194  1  0.30874874  0.11351287  0.50330184  1
  Ti  Ti195  1  0.31274960  0.30110499  0.69877452  1
  Ti  Ti196  1  0.59842492  0.60155079  0.00050913  1
  Ti  Ti197  1  0.09181723  0.69898661  0.88807379  1
  Ti  Ti198  1  0.40651663  0.00528950  0.19192778  1
  Ti  Ti199  1  0.30312263  0.69133747  0.70192563  1
  Mo  Mo200  1  0.68615489  0.90011558  0.49359316  1
  Mo  Mo201  1  0.80130868  0.59606482  0.80240099  1
  Mo  Mo202  1  0.69557556  0.49844806  0.29917080  1
  Mo  Mo203  1  0.30757447  0.29680129  0.30235193  1
  Mo  Mo204  1  0.59143663  0.79423935  0.39753248  1
  Mo  Mo205  1  0.60249767  0.59286482  0.80185226  1
  Mo  Mo206  1  0.50186371  0.10597441  0.29066713  1
  Mo  Mo207  1  0.39259122  0.79061887  0.59336674  1
  Mo  Mo208  1  0.50355979  0.89662578  0.92306829  1
  Mo  Mo209  1  0.80209019  0.21096970  0.60787268  1
  Mo  Mo210  1  -0.00189433  0.19847919  0.41174716  1
  Mo  Mo211  1  0.79881140  0.01302231  0.60057975  1
  Mo  Mo212  1  0.89264363  0.08954626  0.29706042  1
  Mo  Mo213  1  0.50265986  0.69545812  0.90506969  1
  Mo  Mo214  1  0.90570656  0.89328785  0.10260525  1
  Mo  Mo215  1  0.59011302  0.79530843  0.19358136  1
  Mo  Mo216  1  0.30674230  0.89393867  0.50429710  1
  Mo  Mo217  1  0.60221404  0.59823560  0.20086482  1
  Mo  Mo218  1  0.40317221  0.20468364  0.59960855  1
  Mo  Mo219  1  0.89742856  0.31093723  0.90164437  1
  Mo  Mo220  1  0.79267494  0.21315146  0.19099325  1
  Mo  Mo221  1  0.30413796  0.49501501  0.69607024  1
  Mo  Mo222  1  0.01177612  0.79858949  0.60498503  1
  Mo  Mo223  1  0.50798984  0.29693356  0.09701694  1
  Mo  Mo224  1  0.00367828  0.58884446  0.60052035  1
  Mo  Mo225  1  0.50454390  0.30220520  0.89593997  1
  Mo  Mo226  1  0.09197061  0.31168763  0.70368318  1
  Mo  Mo227  1  0.60774873  0.39887950  0.00186303  1
  Mo  Mo228  1  0.39921467  0.59697697  0.79260226  1
  Mo  Mo229  1  0.09320284  0.49775324  0.08790927  1
  Mo  Mo230  1  0.49768457  0.10642134  0.91360816  1
  Mo  Mo231  1  0.40636981  0.20807174  0.80233741  1
  Mo  Mo232  1  0.69802248  0.30792840  0.09870628  1
  Mo  Mo233  1  0.10676635  0.49938180  0.69473601  1
  Mo  Mo234  1  0.30258669  0.69251065  0.50609766  1
  Mo  Mo235  1  0.30750424  0.29334245  0.09426336  1
  Mo  Mo236  1  0.40902063  0.20267521  0.39768216  1
  Mo  Mo237  1  0.00301332  0.79173778  0.80023770  1
  Mo  Mo238  1  0.30781509  0.09792567  0.09853401  1
  Mo  Mo239  1  0.60022306  0.20528628  0.60014458  1
  Mo  Mo240  1  0.89453594  0.69217602  0.08751990  1
  Mo  Mo241  1  0.50507372  0.30744160  0.49823282  1
  Mo  Mo242  1  0.79014877  0.78977987  0.60071803  1
  Mo  Mo243  1  0.21083435  0.00841267  0.18397551  1
  Mo  Mo244  1  0.60078046  0.39986382  0.20044185  1
  Mo  Mo245  1  0.40799684  0.20213003  0.00038976  1
  Mo  Mo246  1  0.40486366  0.20139622  0.19467167  1
  Mo  Mo247  1  0.20250873  0.60295723  0.78928481  1
  Mo  Mo248  1  0.79129820  0.39987228  0.79926057  1
  Mo  Mo249  1  0.59560097  0.21196144  0.00148778  1
