# generated using pymatgen
data_HfZrTaTiMo
_symmetry_space_group_name_H-M   'P 1'
_cell_length_a   16.88658686
_cell_length_b   16.88590258
_cell_length_c   16.87649385
_cell_angle_alpha   90.00419555
_cell_angle_beta   89.97114961
_cell_angle_gamma   90.02530769
_symmetry_Int_Tables_number   1
_chemical_formula_structural   HfZrTaTiMo
_chemical_formula_sum   'Hf50 Zr50 Ta50 Ti50 Mo50'
_cell_volume   4812.25114543
_cell_formula_units_Z   50
loop_
 _symmetry_equiv_pos_site_id
 _symmetry_equiv_pos_as_xyz
  1  'x, y, z'
loop_
 _atom_site_type_symbol
 _atom_site_label
 _atom_site_symmetry_multiplicity
 _atom_site_fract_x
 _atom_site_fract_y
 _atom_site_fract_z
 _atom_site_occupancy
  Hf  Hf0  1  0.09882622  0.90898136  0.49125857  1
  Hf  Hf1  1  0.10478460  0.69984032  0.10574831  1
  Hf  Hf2  1  0.00719015  0.21080317  -0.00471338  1
  Hf  Hf3  1  0.20988890  0.80581852  0.00702260  1
  Hf  Hf4  1  0.00341554  0.00194965  0.61089709  1
  Hf  Hf5  1  0.59402017  0.79100428  0.80855364  1
  Hf  Hf6  1  -0.00890987  0.39876386  0.59167992  1
  Hf  Hf7  1  0.31009380  0.29107161  0.09796453  1
  Hf  Hf8  1  -0.00267678  0.60085419  0.80026843  1
  Hf  Hf9  1  0.80671006  0.38832369  0.40399988  1
  Hf  Hf10  1  0.68989865  0.70144855  0.29560721  1
  Hf  Hf11  1  0.29894234  0.29744816  0.90364049  1
  Hf  Hf12  1  0.59960018  0.00599038  0.20336431  1
  Hf  Hf13  1  0.89821044  0.70104564  0.90863002  1
  Hf  Hf14  1  0.40281155  0.80621747  0.39414737  1
  Hf  Hf15  1  0.50880825  0.49660385  0.70224757  1
  Hf  Hf16  1  -0.00226212  0.59666011  0.58963000  1
  Hf  Hf17  1  0.29167794  0.10641334  0.69655212  1
  Hf  Hf18  1  0.38698829  0.39858953  0.39388851  1
  Hf  Hf19  1  0.30556622  0.91439095  0.49729427  1
  Hf  Hf20  1  0.80189853  0.00688735  0.40230696  1
  Hf  Hf21  1  0.09937698  0.09966241  0.29948552  1
  Hf  Hf22  1  0.40392306  0.60147056  0.00112173  1
  Hf  Hf23  1  0.91088041  0.48642960  0.29871955  1
  Hf  Hf24  1  0.40222387  0.00388628  0.00121922  1
  Hf  Hf25  1  0.89825979  0.10866018  0.10075297  1
  Hf  Hf26  1  0.20023507  0.58363010  0.39699375  1
  Hf  Hf27  1  0.88947777  0.49571661  0.89729493  1
  Hf  Hf28  1  0.79590506  0.79673557  0.80848222  1
  Hf  Hf29  1  0.88801866  0.10933530  0.69938539  1
  Hf  Hf30  1  0.49744192  0.11321117  0.10993333  1
  Hf  Hf31  1  0.60215186  0.19828972  -0.00884511  1
  Hf  Hf32  1  0.89216143  0.89978557  0.50649570  1
  Hf  Hf33  1  0.30332608  0.49576089  0.70298273  1
  Hf  Hf34  1  0.20257731  0.60205411  0.80031985  1
  Hf  Hf35  1  0.50129588  0.69782655  0.29904915  1
  Hf  Hf36  1  0.29762364  0.49709235  0.09996444  1
  Hf  Hf37  1  0.10744120  0.10198849  0.10029923  1
  Hf  Hf38  1  0.39999671  0.80029317  0.61014891  1
  Hf  Hf39  1  0.80396236  0.59880813  0.19890451  1
  Hf  Hf40  1  0.30307972  0.10242841  0.50259359  1
  Hf  Hf41  1  0.70048787  0.89778219  0.90769025  1
  Hf  Hf42  1  0.09588992  0.49989309  0.69763602  1
  Hf  Hf43  1  0.78863829  0.60614842  0.00033065  1
  Hf  Hf44  1  0.69573553  0.70463022  0.50258657  1
  Hf  Hf45  1  0.49610245  0.09905863  0.49790231  1
  Hf  Hf46  1  0.89172857  0.70161391  0.69342786  1
  Hf  Hf47  1  0.69980966  0.89873423  0.50507536  1
  Hf  Hf48  1  0.20472254  0.81010321  0.38980635  1
  Hf  Hf49  1  0.81058933  0.60005772  0.40051338  1
  Zr  Zr50  1  0.89268714  0.49471334  0.09362635  1
  Zr  Zr51  1  -0.01401395  0.20440122  0.39525383  1
  Zr  Zr52  1  0.29814837  0.69070712  0.28832166  1
  Zr  Zr53  1  0.50242216  0.10410100  0.69407496  1
  Zr  Zr54  1  0.50141127  0.69976442  0.10451062  1
  Zr  Zr55  1  0.29511546  0.70589044  0.89818301  1
  Zr  Zr56  1  0.21982258  -0.00165904  0.00796173  1
  Zr  Zr57  1  0.30621550  0.69714120  0.49168439  1
  Zr  Zr58  1  0.80206970  0.58880032  0.59054605  1
  Zr  Zr59  1  0.20421689  0.20762435  0.39918807  1
  Zr  Zr60  1  0.10588342  0.69865708  0.49754329  1
  Zr  Zr61  1  0.18405342  0.39060577  0.00980481  1
  Zr  Zr62  1  0.18888516  0.39462568  0.80461831  1
  Zr  Zr63  1  0.20571511  0.20453256  0.20034406  1
  Zr  Zr64  1  0.69481680  0.49359151  0.30022010  1
  Zr  Zr65  1  0.90507492  0.90267771  0.29810415  1
  Zr  Zr66  1  0.19419610  0.39909291  0.58762740  1
  Zr  Zr67  1  0.10329239  0.10047338  0.90035816  1
  Zr  Zr68  1  0.69633793  0.69860153  0.69638272  1
  Zr  Zr69  1  0.70035399  0.89333100  0.10663342  1
  Zr  Zr70  1  0.40853032  0.20021346  0.80530956  1
  Zr  Zr71  1  0.39910222  -0.00165635  0.80595603  1
  Zr  Zr72  1  0.20450064  0.80428697  0.60622739  1
  Zr  Zr73  1  0.39914182  0.60224905  0.60006226  1
  Zr  Zr74  1  0.61255508  0.19941226  0.79669002  1
  Zr  Zr75  1  0.10834522  0.89758249  0.89904005  1
  Zr  Zr76  1  0.79950123  0.00926872  -0.00752608  1
  Zr  Zr77  1  -0.00544695  -0.00013005  0.79817182  1
  Zr  Zr78  1  -0.00871198  0.78702826  0.39411848  1
  Zr  Zr79  1  0.29973931  0.29851436  0.69749256  1
  Zr  Zr80  1  0.39662228  0.80912453  0.00169411  1
  Zr  Zr81  1  0.50208644  0.49700381  0.49610360  1
  Zr  Zr82  1  0.00115566  0.80369770  0.60385185  1
  Zr  Zr83  1  0.49853711  0.29633261  0.29576062  1
  Zr  Zr84  1  0.09957304  0.90334787  0.11177506  1
  Zr  Zr85  1  0.79359732  0.39830525  0.60364056  1
  Zr  Zr86  1  -0.00120737  0.80944844  0.79708339  1
  Zr  Zr87  1  0.40741588  0.60696802  0.80469573  1
  Zr  Zr88  1  0.00971133  0.39000056  0.18143598  1
  Zr  Zr89  1  0.10208890  0.69761411  0.28783962  1
  Zr  Zr90  1  0.50262080  0.90685175  0.50415500  1
  Zr  Zr91  1  0.81641237  0.78389252  0.20311467  1
  Zr  Zr92  1  0.50191939  0.29619890  0.50384332  1
  Zr  Zr93  1  0.70688049  0.11021693  0.10266467  1
  Zr  Zr94  1  0.89818513  0.89744845  0.09855737  1
  Zr  Zr95  1  0.69975500  0.89792637  0.69528452  1
  Zr  Zr96  1  0.00128787  0.39550189  -0.00942322  1
  Zr  Zr97  1  0.69517401  0.48738846  0.09622783  1
  Zr  Zr98  1  0.87788417  0.29997881  0.09013197  1
  Zr  Zr99  1  0.70156388  0.10092366  0.30812606  1
  Ta  Ta100  1  0.20280213  0.00820232  0.39611619  1
  Ta  Ta101  1  0.30131128  0.49412037  0.90450310  1
  Ta  Ta102  1  0.80411450  0.20907608  0.22284498  1
  Ta  Ta103  1  0.59603972  0.59205259  0.19494926  1
  Ta  Ta104  1  0.50348763  0.30677798  0.90111513  1
  Ta  Ta105  1  -0.00193204  0.79730941  0.00622572  1
  Ta  Ta106  1  0.60747596  0.39909763  0.79698342  1
  Ta  Ta107  1  0.59755161  0.79441843  -0.00231324  1
  Ta  Ta108  1  0.09958173  0.70165129  0.90419495  1
  Ta  Ta109  1  0.09684295  0.50496571  0.90249780  1
  Ta  Ta110  1  0.59650721  0.00572998  -0.00301905  1
  Ta  Ta111  1  0.50364208  0.30451158  0.09901211  1
  Ta  Ta112  1  -0.00499956  0.00128296  -0.00113697  1
  Ta  Ta113  1  0.69119732  0.70190186  0.10029221  1
  Ta  Ta114  1  0.09950775  0.49553965  0.29343040  1
  Ta  Ta115  1  -0.00109377  0.58950433  0.40252392  1
  Ta  Ta116  1  0.60403184  0.59285901  0.60128911  1
  Ta  Ta117  1  0.80196865  0.79128994  0.39899602  1
  Ta  Ta118  1  0.10702933  0.70429995  0.70612491  1
  Ta  Ta119  1  0.19824141  0.39867591  0.39613416  1
  Ta  Ta120  1  0.19256600  0.00366827  0.60568398  1
  Ta  Ta121  1  0.09466631  0.30752323  0.30110521  1
  Ta  Ta122  1  0.09894750  0.10478878  0.50395608  1
  Ta  Ta123  1  0.89377442  0.10392257  0.50906939  1
  Ta  Ta124  1  0.39932189  0.80914281  0.20040676  1
  Ta  Ta125  1  0.50463983  0.90142580  0.10420046  1
  Ta  Ta126  1  0.59755096  0.80414424  0.39859446  1
  Ta  Ta127  1  0.19692518  0.59653364  0.00153121  1
  Ta  Ta128  1  0.60720475  0.20968118  0.20648828  1
  Ta  Ta129  1  0.50259962  0.90082305  0.90287829  1
  Ta  Ta130  1  0.50327914  0.90625710  0.29796411  1
  Ta  Ta131  1  0.40160765  0.80108003  0.79891205  1
  Ta  Ta132  1  -0.00409788  0.39272263  0.79632032  1
  Ta  Ta133  1  0.40171877  0.58490757  0.20234200  1
  Ta  Ta134  1  0.20158604  0.60042980  0.60244647  1
  Ta  Ta135  1  0.30997808  0.10188213  0.29412553  1
  Ta  Ta136  1  0.18854427  0.19990329  0.79771058  1
  Ta  Ta137  1  0.40179804  0.39670401  0.59967758  1
  Ta  Ta138  1  0.89452290  0.49709694  0.70606561  1
  Ta  Ta139  1  0.60529301  0.39001223  0.39871840  1
  Ta  Ta140  1  0.50903599  0.50031026  0.90331766  1
  Ta  Ta141  1  0.60357219  0.19678093  0.40066819  1
  Ta  Ta142  1  0.50409043  0.49089932  0.09760045  1
  Ta  Ta143  1  0.60772713  0.01054330  0.60565902  1
  Ta  Ta144  1  0.50733324  0.69775443  0.69814019  1
  Ta  Ta145  1  0.69612150  0.29102466  0.50704758  1
  Ta  Ta146  1  0.39787998  0.39880000  0.20100493  1
  Ta  Ta147  1  0.69798580  0.89536234  0.30171358  1
  Ta  Ta148  1  -0.00428261  0.00943387  0.20131696  1
  Ta  Ta149  1  0.60153276  0.00601309  0.80546558  1
  Ti  Ti150  1  0.29128477  0.89758918  0.71195619  1
  Ti  Ti151  1  0.79057660  0.39895687  0.79316728  1
  Ti  Ti152  1  0.40482634  0.19365534  -0.00489008  1
  Ti  Ti153  1  0.20139595  0.39758467  0.20336170  1
  Ti  Ti154  1  0.29351768  0.10704854  0.90090710  1
  Ti  Ti155  1  0.51038861  0.89899027  0.70101315  1
  Ti  Ti156  1  0.00203035  0.20714652  0.79856205  1
  Ti  Ti157  1  0.69736255  0.30261088  0.09958556  1
  Ti  Ti158  1  0.80421920  0.00692566  0.20702790  1
  Ti  Ti159  1  0.40818552  0.39886044  0.80294917  1
  Ti  Ti160  1  0.09781761  0.90837363  0.29493252  1
  Ti  Ti161  1  0.29808106  0.69474457  0.10963670  1
  Ti  Ti162  1  0.70374220  0.30578368  0.89418258  1
  Ti  Ti163  1  0.30043099  0.49770617  0.50277887  1
  Ti  Ti164  1  0.50579946  0.49266187  0.29542447  1
  Ti  Ti165  1  0.60275715  0.39672165  -0.00690726  1
  Ti  Ti166  1  0.39874073  0.58856781  0.39004956  1
  Ti  Ti167  1  0.79276620  0.38678071  0.21101485  1
  Ti  Ti168  1  0.19526736  0.00091275  0.79339404  1
  Ti  Ti169  1  0.87896941  0.90439786  0.69329674  1
  Ti  Ti170  1  0.09477145  0.29608469  0.49636277  1
  Ti  Ti171  1  0.29978997  0.29465997  0.50458285  1
  Ti  Ti172  1  0.30603297  0.91842246  0.29779592  1
  Ti  Ti173  1  0.89559169  0.89733858  0.90792707  1
  Ti  Ti174  1  0.89089885  0.28607440  0.50811088  1
  Ti  Ti175  1  0.00276369  0.19896580  0.60394548  1
  Ti  Ti176  1  0.89000760  0.30048958  0.88899784  1
  Ti  Ti177  1  0.40231907  0.20587345  0.60299238  1
  Ti  Ti178  1  0.39810611  -0.00405549  0.61405835  1
  Ti  Ti179  1  0.89030784  0.29486269  0.70232622  1
  Ti  Ti180  1  0.70593364  0.10839885  0.51151986  1
  Ti  Ti181  1  0.69147108  0.50371124  0.89594613  1
  Ti  Ti182  1  0.79022602  0.00964609  0.80196564  1
  Ti  Ti183  1  0.69153830  0.49091891  0.49984922  1
  Ti  Ti184  1  0.09800392  0.29353119  0.69372858  1
  Ti  Ti185  1  0.21319299  0.81694940  0.20088722  1
  Ti  Ti186  1  0.40166374  0.00588902  0.19951689  1
  Ti  Ti187  1  0.50749315  0.70078898  0.50263468  1
  Ti  Ti188  1  0.79104497  0.20120060  -0.02021309  1
  Ti  Ti189  1  0.89755436  0.10963980  0.89286075  1
  Ti  Ti190  1  0.39910181  0.19922590  0.39073803  1
  Ti  Ti191  1  0.40589295  0.40045452  -0.00269942  1
  Ti  Ti192  1  0.00255523  0.59906300  0.00656508  1
  Ti  Ti193  1  0.59941256  0.00305098  0.40146875  1
  Ti  Ti194  1  -0.00485145  0.20531031  0.20156898  1
  Ti  Ti195  1  0.59889576  0.59607562  0.40111603  1
  Ti  Ti196  1  -0.00450640  0.00982892  0.39900998  1
  Ti  Ti197  1  0.78735244  0.59878239  0.80024912  1
  Ti  Ti198  1  0.51268202  0.30466250  0.69407261  1
  Ti  Ti199  1  -0.00526794  0.60205622  0.19632023  1
  Mo  Mo200  1  0.70402057  0.10040272  0.69808118  1
  Mo  Mo201  1  0.59598459  0.39554291  0.19819895  1
  Mo  Mo202  1  0.59426290  0.80459973  0.20146328  1
  Mo  Mo203  1  0.80059965  0.20822605  0.80134165  1
  Mo  Mo204  1  0.79838571  0.20100452  0.41097536  1
  Mo  Mo205  1  0.30106225  0.70265386  0.70163615  1
  Mo  Mo206  1  0.80137817  0.80037833  0.59413817  1
  Mo  Mo207  1  0.89625321  0.69853769  0.49531341  1
  Mo  Mo208  1  0.69921892  0.49951954  0.70743748  1
  Mo  Mo209  1  0.69806542  0.29777732  0.30896508  1
  Mo  Mo210  1  0.20588683  0.19735135  -0.00516702  1
  Mo  Mo211  1  0.20023537  0.58297400  0.19480946  1
  Mo  Mo212  1  0.60391832  0.59592817  0.80403886  1
  Mo  Mo213  1  0.60488907  0.19883434  0.59793340  1
  Mo  Mo214  1  0.09911317  0.49465176  0.49237139  1
  Mo  Mo215  1  0.79834208  0.79265044  0.00264457  1
  Mo  Mo216  1  0.69885190  0.30065364  0.69707615  1
  Mo  Mo217  1  0.09679509  0.10707945  0.69877651  1
  Mo  Mo218  1  0.79651031  0.00635651  0.60028397  1
  Mo  Mo219  1  0.90092036  0.10226206  0.29921208  1
  Mo  Mo220  1  0.11226809  0.90335506  0.70240963  1
  Mo  Mo221  1  0.90489532  0.49220885  0.49592911  1
  Mo  Mo222  1  0.30022562  0.30161671  0.29824045  1
  Mo  Mo223  1  0.59122326  0.79545877  0.59764113  1
  Mo  Mo224  1  0.70297444  0.09731806  0.89462008  1
  Mo  Mo225  1  0.20550014  0.00469091  0.20946360  1
  Mo  Mo226  1  0.10782721  0.28858269  0.10521327  1
  Mo  Mo227  1  0.69528860  0.69496201  0.90698868  1
  Mo  Mo228  1  0.09641819  0.29724163  0.89088716  1
  Mo  Mo229  1  0.90198397  0.30109876  0.29919410  1
  Mo  Mo230  1  0.30434408  0.90286513  0.88489414  1
  Mo  Mo231  1  0.50594761  0.09973527  0.90474578  1
  Mo  Mo232  1  0.90738092  0.69005214  0.29820214  1
  Mo  Mo233  1  0.30887072  0.90839146  0.12066860  1
  Mo  Mo234  1  0.59768378  0.59982875  -0.00227798  1
  Mo  Mo235  1  0.29662780  0.49213316  0.29284932  1
  Mo  Mo236  1  0.40344217  0.20217293  0.19984828  1
  Mo  Mo237  1  0.50031952  0.10047108  0.30422830  1
  Mo  Mo238  1  0.00577350  0.39654464  0.40524422  1
  Mo  Mo239  1  0.79521388  0.20213268  0.60540502  1
  Mo  Mo240  1  0.00745128  0.80337854  0.19784811  1
  Mo  Mo241  1  0.30950376  0.10240893  0.10362367  1
  Mo  Mo242  1  0.60181820  0.39814856  0.60146425  1
  Mo  Mo243  1  0.50211551  0.69935553  0.89990771  1
  Mo  Mo244  1  0.91000897  0.69687710  0.09873667  1
  Mo  Mo245  1  0.18876891  0.19963257  0.59851018  1
  Mo  Mo246  1  0.20253819  0.80014619  0.79962206  1
  Mo  Mo247  1  0.78677197  0.39566175  -0.01666804  1
  Mo  Mo248  1  0.40239254  0.00637734  0.38774854  1
  Mo  Mo249  1  0.10108827  0.51020420  0.10138793  1
