# generated using pymatgen
data_HfZrTaTiMo
_symmetry_space_group_name_H-M   'P 1'
_cell_length_a   16.88694618
_cell_length_b   16.87411264
_cell_length_c   16.88509839
_cell_angle_alpha   89.92755198
_cell_angle_beta   89.97034848
_cell_angle_gamma   89.98213864
_symmetry_Int_Tables_number   1
_chemical_formula_structural   HfZrTaTiMo
_chemical_formula_sum   'Hf50 Zr50 Ta50 Ti50 Mo50'
_cell_volume   4811.44175343
_cell_formula_units_Z   50
loop_
 _symmetry_equiv_pos_site_id
 _symmetry_equiv_pos_as_xyz
  1  'x, y, z'
loop_
 _atom_site_type_symbol
 _atom_site_label
 _atom_site_symmetry_multiplicity
 _atom_site_fract_x
 _atom_site_fract_y
 _atom_site_fract_z
 _atom_site_occupancy
  Hf  Hf0  1  0.41135112  0.80489209  0.20594305  1
  Hf  Hf1  1  0.49959402  0.70136222  0.70466751  1
  Hf  Hf2  1  0.69552649  0.29813759  0.89271893  1
  Hf  Hf3  1  0.40116654  0.80923296  0.00265496  1
  Hf  Hf4  1  0.80073408  0.19446003  0.19724741  1
  Hf  Hf5  1  0.30388933  0.11127041  0.70787102  1
  Hf  Hf6  1  0.89319861  0.49811784  0.29384518  1
  Hf  Hf7  1  0.49522228  0.49623830  0.09815719  1
  Hf  Hf8  1  0.19553653  0.00153530  0.20611096  1
  Hf  Hf9  1  0.09409596  0.71682075  0.29416907  1
  Hf  Hf10  1  0.09944128  0.09586645  0.09008835  1
  Hf  Hf11  1  0.39980511  0.00051685  0.19515814  1
  Hf  Hf12  1  0.50025167  0.49941058  0.50102029  1
  Hf  Hf13  1  0.89227531  0.29459240  0.30772880  1
  Hf  Hf14  1  0.20144037  0.60319305  -0.00356082  1
  Hf  Hf15  1  0.00232862  0.60631677  -0.00673599  1
  Hf  Hf16  1  0.60860406  -0.00775449  0.39726291  1
  Hf  Hf17  1  0.38967177  0.21344904  0.19130686  1
  Hf  Hf18  1  0.69848785  0.09542744  0.69029464  1
  Hf  Hf19  1  0.39988126  0.00421550  0.81072046  1
  Hf  Hf20  1  0.90116031  0.70358387  0.29587610  1
  Hf  Hf21  1  0.21960302  0.38270584  0.19551291  1
  Hf  Hf22  1  0.00089397  0.79839832  0.81230005  1
  Hf  Hf23  1  0.30948706  0.48765231  0.30677042  1
  Hf  Hf24  1  0.10960593  0.28878992  0.51178942  1
  Hf  Hf25  1  0.39937886  0.60317365  -0.00353668  1
  Hf  Hf26  1  0.50085733  0.30047012  0.50961829  1
  Hf  Hf27  1  0.79156246  0.79515757  0.59170167  1
  Hf  Hf28  1  0.88973849  0.10116617  0.50374337  1
  Hf  Hf29  1  0.90239868  0.49811005  0.49852479  1
  Hf  Hf30  1  0.00162591  0.39741925  -0.00363287  1
  Hf  Hf31  1  0.29994907  0.70495953  0.49442777  1
  Hf  Hf32  1  0.79090663  0.79614175  0.80347621  1
  Hf  Hf33  1  0.39384424  0.39828988  0.79610442  1
  Hf  Hf34  1  0.79906062  0.39765681  0.60810906  1
  Hf  Hf35  1  0.90104326  0.89201617  0.29926114  1
  Hf  Hf36  1  0.89502481  0.30238030  0.89202390  1
  Hf  Hf37  1  -0.00095011  0.19970365  0.79226413  1
  Hf  Hf38  1  0.70615728  0.51119602  0.10037077  1
  Hf  Hf39  1  0.20517259  0.59855199  0.19535170  1
  Hf  Hf40  1  0.30068361  0.71759164  0.89428344  1
  Hf  Hf41  1  0.19881793  0.60607695  0.59828280  1
  Hf  Hf42  1  0.18906248  0.81502293  0.59588685  1
  Hf  Hf43  1  0.70356183  0.49315660  0.29373255  1
  Hf  Hf44  1  0.50903652  0.90873691  0.09510447  1
  Hf  Hf45  1  -0.00659373  0.38943717  0.60967067  1
  Hf  Hf46  1  0.80220967  0.20023542  0.78924275  1
  Hf  Hf47  1  0.50390554  0.10165131  0.30001750  1
  Hf  Hf48  1  0.19730214  -0.00185833  0.81202393  1
  Hf  Hf49  1  0.50147212  0.29883909  0.89195817  1
  Zr  Zr50  1  0.70837208  0.69685962  0.28877040  1
  Zr  Zr51  1  0.70107835  0.10178328  0.50426024  1
  Zr  Zr52  1  0.50180688  0.50336606  0.69854087  1
  Zr  Zr53  1  0.08493325  0.89909872  0.09981710  1
  Zr  Zr54  1  0.60439808  0.79569840  0.58585374  1
  Zr  Zr55  1  0.50963592  0.89895067  0.70694666  1
  Zr  Zr56  1  0.21419098  0.81670883  0.19340242  1
  Zr  Zr57  1  0.00374927  0.60263335  0.19154505  1
  Zr  Zr58  1  0.30244815  0.49586397  0.49609317  1
  Zr  Zr59  1  0.00125588  0.59867135  0.60190966  1
  Zr  Zr60  1  0.59297897  0.60640393  0.20165136  1
  Zr  Zr61  1  0.00412413  0.39289641  0.19611839  1
  Zr  Zr62  1  0.01077508  -0.00371923  0.59382715  1
  Zr  Zr63  1  0.90210512  0.89319732  0.69127144  1
  Zr  Zr64  1  0.09968280  0.71747612  0.08792673  1
  Zr  Zr65  1  0.79156056  0.60073159  0.40891049  1
  Zr  Zr66  1  0.80329548  -0.00183952  0.79805158  1
  Zr  Zr67  1  0.40549346  0.00526366  0.60521426  1
  Zr  Zr68  1  0.29724695  0.10007795  0.30822684  1
  Zr  Zr69  1  0.89798449  0.69376914  0.70509015  1
  Zr  Zr70  1  0.21173844  0.39399319  -0.01180961  1
  Zr  Zr71  1  0.59821060  0.79902383  0.39194769  1
  Zr  Zr72  1  0.19594512  0.60458787  0.80377355  1
  Zr  Zr73  1  0.10899084  0.49119591  0.49679467  1
  Zr  Zr74  1  0.39869766  0.20165603  0.40640525  1
  Zr  Zr75  1  0.89826719  0.50513527  0.88960904  1
  Zr  Zr76  1  0.70131014  0.30891905  0.10360746  1
  Zr  Zr77  1  0.79894492  0.40205657  -0.00382240  1
  Zr  Zr78  1  0.90911815  0.70737067  0.49578419  1
  Zr  Zr79  1  0.20241555  0.19732020  0.20163460  1
  Zr  Zr80  1  0.09748221  0.49946607  0.70689522  1
  Zr  Zr81  1  0.40447406  0.80419486  0.58704964  1
  Zr  Zr82  1  0.58963437  0.19905232  0.19226236  1
  Zr  Zr83  1  0.30235757  0.89581611  0.71038168  1
  Zr  Zr84  1  0.89939981  0.08875724  0.09806022  1
  Zr  Zr85  1  0.40543139  -0.00292798  0.40498851  1
  Zr  Zr86  1  0.69341719  0.90572022  0.89993580  1
  Zr  Zr87  1  0.70440633  0.89976246  0.09332049  1
  Zr  Zr88  1  0.69919371  0.29857802  0.30158186  1
  Zr  Zr89  1  0.11150441  0.11195417  0.69230971  1
  Zr  Zr90  1  0.69438492  0.09190440  0.10032012  1
  Zr  Zr91  1  0.48845098  0.31622242  0.30379474  1
  Zr  Zr92  1  0.30147960  0.70919949  0.70289078  1
  Zr  Zr93  1  0.00771815  -0.00615936  0.80286624  1
  Zr  Zr94  1  -0.00138009  0.38914743  0.40579429  1
  Zr  Zr95  1  0.78678258  0.59129482  0.60213222  1
  Zr  Zr96  1  0.00308006  0.19344568  0.20547155  1
  Zr  Zr97  1  0.11083423  0.49130041  0.29971068  1
  Zr  Zr98  1  0.10644671  0.29193183  0.08800074  1
  Zr  Zr99  1  0.29932065  0.70407037  0.30071787  1
  Ta  Ta100  1  0.89726729  0.09685240  0.90019727  1
  Ta  Ta101  1  0.00916234  0.60197069  0.39572919  1
  Ta  Ta102  1  0.79933431  0.19617517  -0.00306623  1
  Ta  Ta103  1  0.20971823  -0.00725463  -0.00345510  1
  Ta  Ta104  1  0.39901767  0.60074856  0.60023920  1
  Ta  Ta105  1  0.89439813  0.89406396  0.91662030  1
  Ta  Ta106  1  0.60046504  0.78876202  -0.00079320  1
  Ta  Ta107  1  0.50112139  0.69971852  0.09926318  1
  Ta  Ta108  1  0.30012228  0.09901125  0.09170023  1
  Ta  Ta109  1  0.50030988  0.49794773  0.89972147  1
  Ta  Ta110  1  0.10584210  0.49516466  0.09363431  1
  Ta  Ta111  1  0.59819575  0.40319572  -0.00475174  1
  Ta  Ta112  1  0.40360012  0.19413772  -0.00214836  1
  Ta  Ta113  1  0.40384871  0.60292592  0.80575834  1
  Ta  Ta114  1  0.60859851  0.40216121  0.60389926  1
  Ta  Ta115  1  0.30147286  0.29843750  0.50621141  1
  Ta  Ta116  1  0.00315173  0.00232982  0.40055389  1
  Ta  Ta117  1  0.19612973  0.60940247  0.39747743  1
  Ta  Ta118  1  0.50795225  0.10473718  0.51269486  1
  Ta  Ta119  1  0.60462822  0.40457129  0.79525141  1
  Ta  Ta120  1  0.89475349  0.50452893  0.10030830  1
  Ta  Ta121  1  0.59520275  0.20050242  0.00079195  1
  Ta  Ta122  1  0.20671305  0.39276896  0.61285769  1
  Ta  Ta123  1  0.00186368  0.19184891  0.40801614  1
  Ta  Ta124  1  0.79785318  -0.00976418  0.40120132  1
  Ta  Ta125  1  0.78679321  0.80583897  0.40483326  1
  Ta  Ta126  1  0.50340154  0.90001178  0.90009206  1
  Ta  Ta127  1  0.49652815  0.49779525  0.30414180  1
  Ta  Ta128  1  0.29378421  0.10639330  0.51382781  1
  Ta  Ta129  1  0.60084072  0.59862292  0.80794923  1
  Ta  Ta130  1  0.40731997  0.60705089  0.39541879  1
  Ta  Ta131  1  0.68842271  0.69387305  0.70095586  1
  Ta  Ta132  1  0.18714347  0.00158354  0.40950766  1
  Ta  Ta133  1  0.79343367  0.39482420  0.41372835  1
  Ta  Ta134  1  0.10074777  0.49425163  0.89718145  1
  Ta  Ta135  1  0.50299256  0.10811984  0.89295530  1
  Ta  Ta136  1  0.40097513  0.60148314  0.20124885  1
  Ta  Ta137  1  0.60611314  0.40222242  0.40889170  1
  Ta  Ta138  1  0.60013941  0.80223299  0.19925924  1
  Ta  Ta139  1  0.89474369  0.09602780  0.31053465  1
  Ta  Ta140  1  0.39661452  0.39598933  0.60778328  1
  Ta  Ta141  1  0.69498231  0.10637675  0.89674781  1
  Ta  Ta142  1  0.10976223  0.29351830  0.31228913  1
  Ta  Ta143  1  0.41153951  0.80476452  0.39668402  1
  Ta  Ta144  1  -0.00266077  0.00072903  0.20938652  1
  Ta  Ta145  1  0.20125916  0.39024017  0.79643603  1
  Ta  Ta146  1  -0.00653649  0.19873234  -0.00861366  1
  Ta  Ta147  1  0.09422863  0.71299685  0.69893225  1
  Ta  Ta148  1  0.69445792  0.90239575  0.69353456  1
  Ta  Ta149  1  0.19615752  0.81274529  0.40178607  1
  Ti  Ti150  1  0.89667129  0.30122863  0.09936529  1
  Ti  Ti151  1  0.30037983  0.50516175  0.70172512  1
  Ti  Ti152  1  0.59602999  0.01060619  0.79653329  1
  Ti  Ti153  1  0.10010347  0.10566061  0.90283755  1
  Ti  Ti154  1  0.59133613  0.01285836  -0.00613124  1
  Ti  Ti155  1  0.90494817  0.89607569  0.49726233  1
  Ti  Ti156  1  0.59340547  0.40182353  0.19836322  1
  Ti  Ti157  1  0.09894369  0.88296104  0.92253108  1
  Ti  Ti158  1  0.88879154  0.69964834  0.90800107  1
  Ti  Ti159  1  0.39497688  0.39333231  -0.00469444  1
  Ti  Ti160  1  0.88560866  0.70175693  0.09412877  1
  Ti  Ti161  1  0.59863601  0.20318314  0.60933548  1
  Ti  Ti162  1  -0.00101239  0.39378170  0.79221394  1
  Ti  Ti163  1  0.18675817  0.81048785  0.80609084  1
  Ti  Ti164  1  0.30348066  0.70626870  0.09850059  1
  Ti  Ti165  1  0.60377111  -0.00738802  0.21070972  1
  Ti  Ti166  1  0.08939569  0.89711119  0.30322874  1
  Ti  Ti167  1  0.29933927  0.28725871  0.69943684  1
  Ti  Ti168  1  0.70598480  0.69075871  0.90944663  1
  Ti  Ti169  1  0.79971554  0.00248306  -0.00386661  1
  Ti  Ti170  1  0.79790371  -0.00649275  0.20887486  1
  Ti  Ti171  1  0.30194537  0.50135167  0.89280443  1
  Ti  Ti172  1  0.10323665  0.29419239  0.89104998  1
  Ti  Ti173  1  0.78984831  0.59270368  0.79584206  1
  Ti  Ti174  1  0.00477849  0.60716963  0.80516172  1
  Ti  Ti175  1  0.49923205  0.29198426  0.70308264  1
  Ti  Ti176  1  0.70344194  0.29089800  0.50560863  1
  Ti  Ti177  1  0.30545625  0.28011865  0.88634730  1
  Ti  Ti178  1  0.60209079  0.59823338  0.40228505  1
  Ti  Ti179  1  0.29774513  0.90708139  0.49614187  1
  Ti  Ti180  1  -0.00409697  -0.00237766  -0.00618566  1
  Ti  Ti181  1  0.09394146  0.71224433  0.49411648  1
  Ti  Ti182  1  0.69713766  0.29965742  0.70260224  1
  Ti  Ti183  1  0.70613445  0.10241421  0.30647138  1
  Ti  Ti184  1  0.20997046  0.19231248  -0.01130500  1
  Ti  Ti185  1  0.30687006  0.49405436  0.09960515  1
  Ti  Ti186  1  0.49462962  0.30834097  0.09378016  1
  Ti  Ti187  1  -0.00979733  0.20549560  0.60269774  1
  Ti  Ti188  1  0.79739830  0.80167758  0.18963463  1
  Ti  Ti189  1  0.51027467  0.90983767  0.50336486  1
  Ti  Ti190  1  0.19665897  -0.00089353  0.59776102  1
  Ti  Ti191  1  0.60087925  0.78918056  0.81257869  1
  Ti  Ti192  1  0.19678347  0.19156378  0.40632949  1
  Ti  Ti193  1  0.69874839  0.50068266  0.89872442  1
  Ti  Ti194  1  0.59894475  0.60288508  -0.00462797  1
  Ti  Ti195  1  0.39799928  0.00618796  -0.00406328  1
  Ti  Ti196  1  0.89341937  0.09512195  0.68841006  1
  Ti  Ti197  1  0.60118912  0.20338136  0.40223202  1
  Ti  Ti198  1  0.30220313  0.90408935  0.30967207  1
  Ti  Ti199  1  0.50304876  0.68939071  0.49902551  1
  Mo  Mo200  1  0.60054070  0.20103165  0.79322432  1
  Mo  Mo201  1  0.00237079  0.80627143  0.40141355  1
  Mo  Mo202  1  0.50626867  0.90127136  0.29519005  1
  Mo  Mo203  1  0.59656093  0.59926273  0.60144377  1
  Mo  Mo204  1  0.79832341  -0.01250562  0.59449867  1
  Mo  Mo205  1  0.50527216  0.11033346  0.70359870  1
  Mo  Mo206  1  0.89553075  0.49546654  0.71226667  1
  Mo  Mo207  1  0.10226313  0.70648406  0.89808094  1
  Mo  Mo208  1  0.10194897  0.30032995  0.70323020  1
  Mo  Mo209  1  0.69177438  0.49442812  0.50240975  1
  Mo  Mo210  1  0.39888527  0.40310547  0.18915118  1
  Mo  Mo211  1  0.09683749  0.90309732  0.49535172  1
  Mo  Mo212  1  0.89196007  0.29012522  0.50297989  1
  Mo  Mo213  1  0.10224799  0.89857514  0.69978237  1
  Mo  Mo214  1  0.50027801  0.69624490  0.30037069  1
  Mo  Mo215  1  0.30193821  0.10121629  0.90337344  1
  Mo  Mo216  1  0.40375138  0.20083694  0.80064021  1
  Mo  Mo217  1  0.09335695  0.09851668  0.30948552  1
  Mo  Mo218  1  0.21476198  0.81095098  -0.00264350  1
  Mo  Mo219  1  0.40422983  0.20339935  0.60523926  1
  Mo  Mo220  1  0.70315062  0.90436074  0.50122059  1
  Mo  Mo221  1  0.19777558  0.20374015  0.80586709  1
  Mo  Mo222  1  0.79234608  0.79269805  0.00007216  1
  Mo  Mo223  1  0.80055497  0.20951407  0.60281468  1
  Mo  Mo224  1  0.79929751  0.60213877  -0.00491554  1
  Mo  Mo225  1  0.20818879  0.20382651  0.60322839  1
  Mo  Mo226  1  0.20710219  0.38549832  0.40554366  1
  Mo  Mo227  1  0.69059046  0.69200908  0.49822955  1
  Mo  Mo228  1  0.89785598  0.29887916  0.70104149  1
  Mo  Mo229  1  0.69534370  0.50088578  0.70673004  1
  Mo  Mo230  1  0.49706912  0.09905434  0.09103188  1
  Mo  Mo231  1  0.41674615  0.80222330  0.81151920  1
  Mo  Mo232  1  -0.01661220  0.80688291  0.19230637  1
  Mo  Mo233  1  0.50457362  0.69840548  0.90303379  1
  Mo  Mo234  1  0.29586841  0.30121533  0.32083442  1
  Mo  Mo235  1  -0.02048712  0.79708082  0.00113025  1
  Mo  Mo236  1  0.80672844  0.40064107  0.19921927  1
  Mo  Mo237  1  0.40446616  0.40190597  0.41258465  1
  Mo  Mo238  1  0.30361606  0.90201609  0.90342384  1
  Mo  Mo239  1  0.59981422  0.00063954  0.60019844  1
  Mo  Mo240  1  0.10094981  0.10264756  0.50216018  1
  Mo  Mo241  1  0.79802587  0.19730582  0.40278174  1
  Mo  Mo242  1  0.00398298  0.80139422  0.59864919  1
  Mo  Mo243  1  0.70667777  0.89803682  0.29296179  1
  Mo  Mo244  1  0.30694878  0.91105793  0.09763455  1
  Mo  Mo245  1  0.79306981  0.40584907  0.79159411  1
  Mo  Mo246  1  0.80416201  0.60272448  0.19027703  1
  Mo  Mo247  1  0.30718355  0.29396480  0.07614572  1
  Mo  Mo248  1  0.69825547  0.70187741  0.09327159  1
  Mo  Mo249  1  0.89481397  0.90017944  0.10111176  1
