# generated using pymatgen
data_HfZrTaTiMo
_symmetry_space_group_name_H-M   'P 1'
_cell_length_a   16.88545138
_cell_length_b   16.87217929
_cell_length_c   16.89214984
_cell_angle_alpha   90.01364731
_cell_angle_beta   90.07066488
_cell_angle_gamma   90.00400061
_symmetry_Int_Tables_number   1
_chemical_formula_structural   HfZrTaTiMo
_chemical_formula_sum   'Hf50 Zr50 Ta50 Ti50 Mo50'
_cell_volume   4812.47446372
_cell_formula_units_Z   50
loop_
 _symmetry_equiv_pos_site_id
 _symmetry_equiv_pos_as_xyz
  1  'x, y, z'
loop_
 _atom_site_type_symbol
 _atom_site_label
 _atom_site_symmetry_multiplicity
 _atom_site_fract_x
 _atom_site_fract_y
 _atom_site_fract_z
 _atom_site_occupancy
  Hf  Hf0  1  0.29982112  0.29652521  0.71071966  1
  Hf  Hf1  1  0.09251985  0.50253397  0.49494703  1
  Hf  Hf2  1  0.59977076  0.80105322  0.00073382  1
  Hf  Hf3  1  0.69655573  0.71048604  0.68982956  1
  Hf  Hf4  1  -0.00971310  0.80737718  0.60063386  1
  Hf  Hf5  1  0.40141818  -0.00678565  0.20121709  1
  Hf  Hf6  1  0.20124299  0.21180324  0.20315314  1
  Hf  Hf7  1  0.08792484  0.70103648  0.90627477  1
  Hf  Hf8  1  0.29941895  0.50753222  0.10345840  1
  Hf  Hf9  1  0.50730055  0.29875409  0.09678795  1
  Hf  Hf10  1  0.50760408  0.49365459  0.50101169  1
  Hf  Hf11  1  0.30012720  0.09117019  0.09889311  1
  Hf  Hf12  1  0.59746189  0.80527058  0.81011052  1
  Hf  Hf13  1  0.39934500  0.39805453  0.20566829  1
  Hf  Hf14  1  0.19800107  0.00019150  -0.00684888  1
  Hf  Hf15  1  0.62093513  0.40913186  0.00388821  1
  Hf  Hf16  1  0.50741137  0.09129548  0.30417211  1
  Hf  Hf17  1  0.39891079  0.60439835  0.40239909  1
  Hf  Hf18  1  0.09601648  0.89050708  0.09450250  1
  Hf  Hf19  1  0.29031406  0.87711144  0.51533342  1
  Hf  Hf20  1  0.10155554  0.89896186  0.70377688  1
  Hf  Hf21  1  0.79891398  0.60162625  0.79583674  1
  Hf  Hf22  1  0.39956405  0.60356383  0.59985952  1
  Hf  Hf23  1  0.40540566  0.40703367  0.60695982  1
  Hf  Hf24  1  -0.01156594  0.61134043  0.59925847  1
  Hf  Hf25  1  0.79437868  0.40009044  0.18436782  1
  Hf  Hf26  1  0.80115007  0.80927293  0.00372562  1
  Hf  Hf27  1  0.89993165  0.29450881  0.89591243  1
  Hf  Hf28  1  0.30581033  0.69616075  0.10675179  1
  Hf  Hf29  1  0.89043471  0.89615794  0.30049957  1
  Hf  Hf30  1  0.39875913  0.39901914  -0.00366710  1
  Hf  Hf31  1  0.40041995  0.40499888  0.80179019  1
  Hf  Hf32  1  -0.01061283  0.59402108  0.80091427  1
  Hf  Hf33  1  0.28340572  0.10497388  0.48310784  1
  Hf  Hf34  1  0.60537511  -0.00399158  0.19152259  1
  Hf  Hf35  1  0.20114903  0.40030658  0.38060123  1
  Hf  Hf36  1  0.80450512  0.80134370  0.79639017  1
  Hf  Hf37  1  0.61348409  0.19684197  0.79802110  1
  Hf  Hf38  1  0.60953854  0.60289894  0.80469071  1
  Hf  Hf39  1  0.50703703  0.50578958  0.90532297  1
  Hf  Hf40  1  0.00160801  -0.00825054  0.40758773  1
  Hf  Hf41  1  0.50718846  0.89542731  0.31220309  1
  Hf  Hf42  1  0.39283122  0.00220564  0.60170649  1
  Hf  Hf43  1  0.29664688  0.30411881  0.09679108  1
  Hf  Hf44  1  0.09029466  0.50414120  0.10006451  1
  Hf  Hf45  1  0.79679981  0.20608950  0.00756739  1
  Hf  Hf46  1  0.80947419  0.60272147  0.21104704  1
  Hf  Hf47  1  0.69283325  0.90147159  0.50318165  1
  Hf  Hf48  1  0.50345987  0.50496661  0.29741768  1
  Hf  Hf49  1  0.61391656  0.19879092  0.59974757  1
  Zr  Zr50  1  0.90967706  0.68842510  0.08565072  1
  Zr  Zr51  1  0.20075151  0.20176253  -0.00931857  1
  Zr  Zr52  1  0.60737309  0.60036404  0.19649806  1
  Zr  Zr53  1  0.19902493  0.60227969  0.80305833  1
  Zr  Zr54  1  0.38663010  -0.01290957  0.40110834  1
  Zr  Zr55  1  0.70633421  0.69034423  0.08998603  1
  Zr  Zr56  1  0.61423355  0.19677293  0.19120475  1
  Zr  Zr57  1  0.89161958  0.48500088  0.68442950  1
  Zr  Zr58  1  0.80620423  0.00658196  0.60528819  1
  Zr  Zr59  1  0.19691575  0.19554397  0.61307491  1
  Zr  Zr60  1  0.80099418  0.78877709  0.40906413  1
  Zr  Zr61  1  0.09498763  0.29548175  0.48493590  1
  Zr  Zr62  1  0.39445739  0.20671465  0.38528834  1
  Zr  Zr63  1  -0.01166686  0.78903966  0.19975022  1
  Zr  Zr64  1  0.80187707  0.20435093  0.60154393  1
  Zr  Zr65  1  0.00097206  0.21559603  0.61265169  1
  Zr  Zr66  1  0.70840962  0.49642377  0.30615642  1
  Zr  Zr67  1  0.29779463  0.29839061  0.49516823  1
  Zr  Zr68  1  0.29793497  0.71720678  0.68896508  1
  Zr  Zr69  1  0.50838569  0.08879024  0.49657871  1
  Zr  Zr70  1  0.19040886  0.39333943  0.60679911  1
  Zr  Zr71  1  0.09636735  0.10708692  0.30561643  1
  Zr  Zr72  1  0.50640069  0.29455268  0.89963564  1
  Zr  Zr73  1  0.50685390  0.30067105  0.69849322  1
  Zr  Zr74  1  0.39728385  0.19266047  0.60201111  1
  Zr  Zr75  1  0.70379660  0.91381206  0.90185339  1
  Zr  Zr76  1  0.60217547  0.80251871  0.19229514  1
  Zr  Zr77  1  0.09622272  0.49965490  0.69520500  1
  Zr  Zr78  1  0.89820935  0.10684287  0.29918673  1
  Zr  Zr79  1  0.61062112  0.39206149  0.40323767  1
  Zr  Zr80  1  0.30193266  0.90259502  0.70831737  1
  Zr  Zr81  1  0.20301221  0.79306527  -0.00080279  1
  Zr  Zr82  1  -0.00920336  -0.00424044  0.19452400  1
  Zr  Zr83  1  0.19237760  0.40109108  -0.00851453  1
  Zr  Zr84  1  0.61555657  0.61004453  0.40862714  1
  Zr  Zr85  1  0.69065405  0.91315850  0.69724566  1
  Zr  Zr86  1  0.59969282  0.59658717  0.60292851  1
  Zr  Zr87  1  0.10056521  0.69487056  0.30181068  1
  Zr  Zr88  1  0.90313344  0.11222341  0.71643353  1
  Zr  Zr89  1  0.40142291  0.19869158  0.19969839  1
  Zr  Zr90  1  0.90197377  0.49815754  0.08918900  1
  Zr  Zr91  1  0.90003188  0.29870538  0.29302755  1
  Zr  Zr92  1  0.10531484  0.89464207  0.29589760  1
  Zr  Zr93  1  0.09743507  0.10247077  0.10568832  1
  Zr  Zr94  1  0.29497545  0.49930231  0.49858705  1
  Zr  Zr95  1  0.50704037  0.08898920  0.70801124  1
  Zr  Zr96  1  0.10534214  0.70440184  0.49979636  1
  Zr  Zr97  1  0.61267622  0.19942022  0.39926970  1
  Zr  Zr98  1  0.40257325  0.60079444  0.79414513  1
  Zr  Zr99  1  0.19301537  0.00211279  0.60056684  1
  Ta  Ta100  1  0.39730034  0.19400018  -0.00795182  1
  Ta  Ta101  1  0.79618721  -0.00581632  0.18850912  1
  Ta  Ta102  1  0.09728309  0.10096760  0.71307233  1
  Ta  Ta103  1  -0.00554264  0.40890457  0.38947275  1
  Ta  Ta104  1  0.19500623  0.39445586  0.80800731  1
  Ta  Ta105  1  0.30124901  0.89701631  0.10066469  1
  Ta  Ta106  1  0.79841923  0.20461383  0.40874175  1
  Ta  Ta107  1  0.50427791  0.30220271  0.50160026  1
  Ta  Ta108  1  0.50040784  0.69934068  0.90593432  1
  Ta  Ta109  1  0.90178006  0.90367472  0.90267968  1
  Ta  Ta110  1  0.50390270  0.09247663  0.90422887  1
  Ta  Ta111  1  0.30333717  0.69990033  0.29545342  1
  Ta  Ta112  1  0.50136931  0.71239886  0.50546830  1
  Ta  Ta113  1  0.20068996  0.80441881  0.80944224  1
  Ta  Ta114  1  0.09352961  0.10528425  0.49638204  1
  Ta  Ta115  1  0.70337303  0.49158430  0.69230089  1
  Ta  Ta116  1  -0.00154627  -0.00371617  0.80256326  1
  Ta  Ta117  1  -0.00708959  0.79736544  0.40762840  1
  Ta  Ta118  1  0.08579401  0.30112869  0.29098267  1
  Ta  Ta119  1  0.50103763  0.90137964  0.69971443  1
  Ta  Ta120  1  0.00153427  0.39366817  0.79482475  1
  Ta  Ta121  1  0.20107306  0.00607876  0.81079500  1
  Ta  Ta122  1  0.70534105  0.09900852  0.89913748  1
  Ta  Ta123  1  0.89559889  0.09897112  0.90388996  1
  Ta  Ta124  1  0.08442086  0.30874637  0.10208889  1
  Ta  Ta125  1  0.29699575  0.50316295  0.90093639  1
  Ta  Ta126  1  0.71516668  0.31023484  0.70326661  1
  Ta  Ta127  1  0.89697779  0.69837440  0.90394859  1
  Ta  Ta128  1  0.50272275  0.50733418  0.09959294  1
  Ta  Ta129  1  0.09785220  0.70687245  0.70398467  1
  Ta  Ta130  1  0.20149642  0.60774086  0.59815264  1
  Ta  Ta131  1  0.20176939  0.19575223  0.80950629  1
  Ta  Ta132  1  0.59859511  -0.00245008  0.00131133  1
  Ta  Ta133  1  0.40466183  0.80443194  0.80908688  1
  Ta  Ta134  1  0.50547913  0.89696987  0.50725594  1
  Ta  Ta135  1  -0.00050569  0.00295038  0.60227136  1
  Ta  Ta136  1  0.40006478  0.60169103  -0.00059091  1
  Ta  Ta137  1  0.49707959  0.70271817  0.30069714  1
  Ta  Ta138  1  0.70719170  0.30326751  0.89794450  1
  Ta  Ta139  1  0.89603189  0.49706769  0.49677654  1
  Ta  Ta140  1  -0.00612028  -0.00279110  -0.00181716  1
  Ta  Ta141  1  0.70217599  0.90187483  0.30259489  1
  Ta  Ta142  1  0.50053924  0.71199762  0.69882454  1
  Ta  Ta143  1  0.28286993  0.08868653  0.29526561  1
  Ta  Ta144  1  0.60685584  0.40694334  0.79690516  1
  Ta  Ta145  1  -0.00955428  0.80105835  0.79782521  1
  Ta  Ta146  1  0.39543252  0.79456754  0.40343204  1
  Ta  Ta147  1  0.90816308  0.10887390  0.49566038  1
  Ta  Ta148  1  0.30786552  0.90192293  0.90768248  1
  Ta  Ta149  1  0.40119613  0.39681675  0.39235070  1
  Ti  Ti150  1  0.19333948  0.59709633  0.20603480  1
  Ti  Ti151  1  -0.00199370  0.19716436  0.00280087  1
  Ti  Ti152  1  0.19091936  0.40666412  0.20373723  1
  Ti  Ti153  1  -0.01443303  0.60227294  0.39467379  1
  Ti  Ti154  1  0.09290152  0.69091392  0.09557932  1
  Ti  Ti155  1  0.70197814  0.09069930  0.50000772  1
  Ti  Ti156  1  0.49824530  0.09710453  0.09059027  1
  Ti  Ti157  1  0.90915031  0.30531035  0.09700661  1
  Ti  Ti158  1  0.80285192  0.00505310  0.79842348  1
  Ti  Ti159  1  -0.00637298  0.58736591  0.21909230  1
  Ti  Ti160  1  0.60376426  0.79444744  0.40456017  1
  Ti  Ti161  1  0.09319524  0.89564097  0.90064417  1
  Ti  Ti162  1  0.29156627  0.50059359  0.70230856  1
  Ti  Ti163  1  0.71188380  0.49005333  0.51067215  1
  Ti  Ti164  1  0.60954707  0.40067538  0.19292092  1
  Ti  Ti165  1  0.78789088  0.58176395  -0.01847235  1
  Ti  Ti166  1  0.70536782  0.09113926  0.08861669  1
  Ti  Ti167  1  0.19927909  0.79285331  0.19650843  1
  Ti  Ti168  1  0.80319322  0.39410814  0.40357449  1
  Ti  Ti169  1  0.70306421  0.70785903  0.29867015  1
  Ti  Ti170  1  0.60628240  0.19572451  -0.00115626  1
  Ti  Ti171  1  0.80326702  0.40717612  0.81038027  1
  Ti  Ti172  1  0.79845819  0.19784992  0.19119425  1
  Ti  Ti173  1  0.19676108  0.59814930  -0.00484179  1
  Ti  Ti174  1  0.40405458  0.79924296  0.20278914  1
  Ti  Ti175  1  0.30357897  0.50842781  0.29281656  1
  Ti  Ti176  1  0.80066965  0.00513597  0.40099792  1
  Ti  Ti177  1  0.30546831  0.69972470  0.90097257  1
  Ti  Ti178  1  0.40003870  0.00044477  0.81250443  1
  Ti  Ti179  1  0.51051183  0.30106195  0.29783738  1
  Ti  Ti180  1  0.20237011  0.79645811  0.40025240  1
  Ti  Ti181  1  0.89467090  0.90655256  0.50223481  1
  Ti  Ti182  1  0.79943520  0.80190620  0.19357430  1
  Ti  Ti183  1  0.80069085  0.61237693  0.59086509  1
  Ti  Ti184  1  0.20519335  0.60033321  0.39601556  1
  Ti  Ti185  1  0.70814842  0.09362683  0.30098198  1
  Ti  Ti186  1  0.39148169  0.18988021  0.80983747  1
  Ti  Ti187  1  0.29319275  0.89258518  0.29288589  1
  Ti  Ti188  1  0.80572401  0.60524840  0.40592006  1
  Ti  Ti189  1  -0.00156652  0.40961887  -0.01898042  1
  Ti  Ti190  1  0.09147262  0.29436399  0.89757254  1
  Ti  Ti191  1  0.70825940  0.29671440  0.29508019  1
  Ti  Ti192  1  0.08543182  0.10052353  0.89789190  1
  Ti  Ti193  1  0.81034769  0.79886772  0.60193835  1
  Ti  Ti194  1  0.90354873  0.30882865  0.50232401  1
  Ti  Ti195  1  0.89824475  0.09867963  0.09609868  1
  Ti  Ti196  1  0.49050640  0.90141240  0.09074527  1
  Ti  Ti197  1  0.40349616  0.79910371  -0.00278895  1
  Ti  Ti198  1  0.19209768  -0.01391860  0.40374919  1
  Ti  Ti199  1  0.49559938  0.69231641  0.09958837  1
  Mo  Mo200  1  0.09815404  0.49796478  0.89808052  1
  Mo  Mo201  1  0.09510953  0.50242867  0.29897331  1
  Mo  Mo202  1  -0.00623569  0.39904494  0.59388834  1
  Mo  Mo203  1  0.09862249  0.29658569  0.71685755  1
  Mo  Mo204  1  0.00460353  0.19895526  0.81029585  1
  Mo  Mo205  1  0.89704764  0.49925251  0.30882653  1
  Mo  Mo206  1  0.80403513  0.00724983  0.00273576  1
  Mo  Mo207  1  -0.00317771  0.40393758  0.20169800  1
  Mo  Mo208  1  0.79840744  0.20360768  0.80556298  1
  Mo  Mo209  1  0.59701370  0.80363544  0.60144530  1
  Mo  Mo210  1  0.59815601  0.60227393  -0.00127606  1
  Mo  Mo211  1  0.70207784  0.29587123  0.09637692  1
  Mo  Mo212  1  0.70421361  0.50185842  0.09703799  1
  Mo  Mo213  1  0.60709951  0.39670609  0.60416669  1
  Mo  Mo214  1  0.29950809  0.70114831  0.49392214  1
  Mo  Mo215  1  0.70098247  0.69721330  0.90026376  1
  Mo  Mo216  1  0.18480999  0.79794260  0.60753304  1
  Mo  Mo217  1  0.29291836  0.30753275  0.29341327  1
  Mo  Mo218  1  0.29687179  0.09863202  0.71873275  1
  Mo  Mo219  1  0.80006121  0.39365163  0.59026661  1
  Mo  Mo220  1  0.19165351  0.20259421  0.38630029  1
  Mo  Mo221  1  0.89636289  0.70676506  0.70073206  1
  Mo  Mo222  1  0.90251326  0.90702408  0.70483747  1
  Mo  Mo223  1  0.40527154  0.60358658  0.19913680  1
  Mo  Mo224  1  0.89838789  0.69772220  0.30588013  1
  Mo  Mo225  1  0.89989389  0.49573497  0.89525556  1
  Mo  Mo226  1  0.59707352  0.00347250  0.80765097  1
  Mo  Mo227  1  0.20531265  -0.01251636  0.19771511  1
  Mo  Mo228  1  0.00345662  0.59314197  -0.01412088  1
  Mo  Mo229  1  0.89938953  0.30598015  0.70844243  1
  Mo  Mo230  1  0.40504257  -0.00242014  0.00315544  1
  Mo  Mo231  1  -0.00559025  0.80248461  -0.00755646  1
  Mo  Mo232  1  0.80379808  0.39825536  -0.00586341  1
  Mo  Mo233  1  0.61499887  -0.00510260  0.39763837  1
  Mo  Mo234  1  0.70623177  0.30243308  0.50348966  1
  Mo  Mo235  1  0.09661435  0.89973808  0.49938329  1
  Mo  Mo236  1  0.89874502  0.69563825  0.50150387  1
  Mo  Mo237  1  0.30148192  0.29818877  0.89730765  1
  Mo  Mo238  1  0.51031183  0.50358843  0.70279595  1
  Mo  Mo239  1  0.70223152  0.70405964  0.50665937  1
  Mo  Mo240  1  0.70368270  0.49640242  0.89220392  1
  Mo  Mo241  1  0.30913605  0.09503178  0.90169750  1
  Mo  Mo242  1  0.70070082  0.90366708  0.10164769  1
  Mo  Mo243  1  -0.00588850  0.20645949  0.18562659  1
  Mo  Mo244  1  0.59958690  0.00194883  0.60025986  1
  Mo  Mo245  1  0.70499604  0.10227040  0.70909264  1
  Mo  Mo246  1  0.89665542  0.90176705  0.09604105  1
  Mo  Mo247  1  0.49479929  0.90167554  0.90375970  1
  Mo  Mo248  1  -0.00703339  0.20676831  0.40320115  1
  Mo  Mo249  1  0.41054120  0.80390481  0.60189304  1
