# generated using pymatgen
data_HfZrTaTiMo
_symmetry_space_group_name_H-M   'P 1'
_cell_length_a   16.88674076
_cell_length_b   16.88736853
_cell_length_c   16.88974322
_cell_angle_alpha   90.01903366
_cell_angle_beta   89.96221991
_cell_angle_gamma   90.02945622
_symmetry_Int_Tables_number   1
_chemical_formula_structural   HfZrTaTiMo
_chemical_formula_sum   'Hf50 Zr50 Ta50 Ti50 Mo50'
_cell_volume   4816.49028533
_cell_formula_units_Z   50
loop_
 _symmetry_equiv_pos_site_id
 _symmetry_equiv_pos_as_xyz
  1  'x, y, z'
loop_
 _atom_site_type_symbol
 _atom_site_label
 _atom_site_symmetry_multiplicity
 _atom_site_fract_x
 _atom_site_fract_y
 _atom_site_fract_z
 _atom_site_occupancy
  Hf  Hf0  1  0.49333625  0.29766557  0.90148418  1
  Hf  Hf1  1  0.69507794  0.10687266  0.10040960  1
  Hf  Hf2  1  0.50123881  0.30399853  0.10190323  1
  Hf  Hf3  1  0.39781465  0.00714077  0.59554528  1
  Hf  Hf4  1  0.39820962  0.00067655  0.00174638  1
  Hf  Hf5  1  0.89756113  0.31011468  0.30533008  1
  Hf  Hf6  1  0.59573750  -0.00294528  -0.00479831  1
  Hf  Hf7  1  0.69948132  0.10533337  0.88883682  1
  Hf  Hf8  1  0.51527182  0.71202736  0.10517916  1
  Hf  Hf9  1  0.29767054  0.89587832  0.10480822  1
  Hf  Hf10  1  0.29302803  0.50037884  0.70766560  1
  Hf  Hf11  1  0.81876529  0.60522169  0.80619231  1
  Hf  Hf12  1  0.90494618  0.69197490  0.09790071  1
  Hf  Hf13  1  -0.00035772  0.00382632  0.59890697  1
  Hf  Hf14  1  0.19228308  0.79733516  0.40154495  1
  Hf  Hf15  1  0.89538750  0.10613199  0.50135565  1
  Hf  Hf16  1  0.78283101  0.00506916  0.39971455  1
  Hf  Hf17  1  0.89985917  0.90231598  0.30004793  1
  Hf  Hf18  1  0.70934102  0.70146147  0.70442155  1
  Hf  Hf19  1  0.09645004  0.30448931  0.89557254  1
  Hf  Hf20  1  0.00044535  0.79234298  0.39634538  1
  Hf  Hf21  1  0.10352954  0.10781467  0.69936068  1
  Hf  Hf22  1  0.09774031  0.50316050  0.69417715  1
  Hf  Hf23  1  0.60563554  0.59723349  0.19994292  1
  Hf  Hf24  1  0.39350333  0.19697189  0.00815572  1
  Hf  Hf25  1  0.18747761  0.79358310  0.79873048  1
  Hf  Hf26  1  0.89489981  0.30197044  0.49339509  1
  Hf  Hf27  1  0.50628692  0.49927986  0.70192327  1
  Hf  Hf28  1  0.29798271  0.50127622  0.89963816  1
  Hf  Hf29  1  0.70222411  0.50580070  0.70449385  1
  Hf  Hf30  1  0.21383803  0.19861591  0.19695292  1
  Hf  Hf31  1  0.41202102  0.59843608  -0.00237263  1
  Hf  Hf32  1  0.50183395  0.70511166  0.49115541  1
  Hf  Hf33  1  0.50373600  0.10197825  0.50052613  1
  Hf  Hf34  1  0.60839297  0.80321694  0.59421717  1
  Hf  Hf35  1  0.30164576  0.50224881  0.10497956  1
  Hf  Hf36  1  0.40222293  0.00498722  0.79487324  1
  Hf  Hf37  1  0.30062511  0.30079992  0.70408073  1
  Hf  Hf38  1  0.11107083  0.10242102  0.30729189  1
  Hf  Hf39  1  0.80043774  -0.00080569  0.00067114  1
  Hf  Hf40  1  0.79887836  0.79414511  0.40305729  1
  Hf  Hf41  1  0.59986471  0.00404276  0.20961783  1
  Hf  Hf42  1  0.29775306  0.29372077  0.49700734  1
  Hf  Hf43  1  0.29126511  0.69653380  0.10033114  1
  Hf  Hf44  1  0.90099473  0.90697346  0.49545049  1
  Hf  Hf45  1  0.71523071  0.49456955  0.10010281  1
  Hf  Hf46  1  0.09821135  0.91570282  0.31069686  1
  Hf  Hf47  1  0.10536613  0.89886834  0.67886326  1
  Hf  Hf48  1  0.50446597  0.90016632  0.69676064  1
  Hf  Hf49  1  0.49950844  0.10215309  0.10356393  1
  Zr  Zr50  1  0.50121526  0.29992787  0.70015130  1
  Zr  Zr51  1  0.40087611  0.59836717  0.39697544  1
  Zr  Zr52  1  0.90191128  0.89281130  0.10030536  1
  Zr  Zr53  1  0.79251168  0.19884667  0.21029155  1
  Zr  Zr54  1  0.89534080  0.31799942  0.10006319  1
  Zr  Zr55  1  -0.00214609  0.79330132  0.79424865  1
  Zr  Zr56  1  0.12563614  0.09924808  0.49931926  1
  Zr  Zr57  1  0.70799449  0.70051538  0.90264445  1
  Zr  Zr58  1  0.90412986  0.09981443  0.31416620  1
  Zr  Zr59  1  0.19415845  -0.00202418  0.80205508  1
  Zr  Zr60  1  0.00852374  0.20889154  0.59544588  1
  Zr  Zr61  1  0.49797211  0.48802823  0.49752200  1
  Zr  Zr62  1  0.40999389  0.20115893  0.38972459  1
  Zr  Zr63  1  0.80518733  -0.00259778  0.79366812  1
  Zr  Zr64  1  0.29487993  0.89041331  0.90358651  1
  Zr  Zr65  1  0.27587570  0.90919664  0.50525771  1
  Zr  Zr66  1  0.29115993  0.69271439  0.90050362  1
  Zr  Zr67  1  0.69040042  0.88800451  0.30502184  1
  Zr  Zr68  1  0.49360477  0.89288775  0.29734859  1
  Zr  Zr69  1  0.70425626  0.88953053  0.89508337  1
  Zr  Zr70  1  0.09866889  0.68153498  0.50004339  1
  Zr  Zr71  1  0.79159299  0.40363147  0.59305670  1
  Zr  Zr72  1  0.90341840  0.10033248  0.09216372  1
  Zr  Zr73  1  0.59217461  0.20454312  0.22220480  1
  Zr  Zr74  1  0.40818797  0.79635356  -0.00222479  1
  Zr  Zr75  1  0.39708574  0.79595115  0.59733954  1
  Zr  Zr76  1  0.60353786  0.59895814  -0.00227514  1
  Zr  Zr77  1  0.10772940  0.30779241  0.30435492  1
  Zr  Zr78  1  0.29353576  0.89416604  0.69509103  1
  Zr  Zr79  1  0.00116834  0.00376400  0.19513349  1
  Zr  Zr80  1  0.80058795  0.39907980  0.80572022  1
  Zr  Zr81  1  0.28888781  0.68519061  0.29815655  1
  Zr  Zr82  1  0.90695499  0.88706571  0.90615115  1
  Zr  Zr83  1  0.09205466  0.10487028  0.90377546  1
  Zr  Zr84  1  0.18669050  0.79528609  0.20671593  1
  Zr  Zr85  1  0.00123708  0.20464142  0.20288012  1
  Zr  Zr86  1  0.79692949  0.20839704  -0.01075395  1
  Zr  Zr87  1  0.09165110  0.31089790  0.10075764  1
  Zr  Zr88  1  0.39924681  0.61004049  0.61452837  1
  Zr  Zr89  1  0.09432294  0.89220513  0.08578149  1
  Zr  Zr90  1  0.30009852  0.10906700  0.89323039  1
  Zr  Zr91  1  0.68900273  0.88096995  0.10023803  1
  Zr  Zr92  1  0.40522554  0.77824138  0.78965858  1
  Zr  Zr93  1  0.60641959  0.59877665  0.59311405  1
  Zr  Zr94  1  0.19295347  0.40797261  0.00302316  1
  Zr  Zr95  1  0.29610609  0.49979833  0.50015158  1
  Zr  Zr96  1  0.29791785  0.30519091  0.89773392  1
  Zr  Zr97  1  0.60356065  0.40476768  0.81247509  1
  Zr  Zr98  1  0.90447752  0.49334005  0.10218622  1
  Zr  Zr99  1  0.89811911  0.29895077  0.69898931  1
  Ta  Ta100  1  0.19446504  0.39563034  0.59671702  1
  Ta  Ta101  1  0.39764143  0.20042609  0.20700739  1
  Ta  Ta102  1  0.60408948  0.40084153  -0.00346187  1
  Ta  Ta103  1  -0.00127276  0.79723870  0.58967842  1
  Ta  Ta104  1  0.80116884  0.59889043  0.59038904  1
  Ta  Ta105  1  0.90445545  0.30527500  0.89996485  1
  Ta  Ta106  1  0.29785090  0.49557479  0.29848162  1
  Ta  Ta107  1  0.38958297  0.80293892  0.39971001  1
  Ta  Ta108  1  0.41012102  0.59624395  0.20097527  1
  Ta  Ta109  1  0.80287065  0.79978023  0.59390041  1
  Ta  Ta110  1  0.90023869  0.69156189  0.49907450  1
  Ta  Ta111  1  0.40299850  0.39796095  0.20718466  1
  Ta  Ta112  1  0.80352713  0.60148917  0.20881093  1
  Ta  Ta113  1  0.69571445  0.69709621  0.30211997  1
  Ta  Ta114  1  0.40423910  0.40801047  0.80619028  1
  Ta  Ta115  1  0.00316405  0.59623459  -0.00617211  1
  Ta  Ta116  1  0.90581815  0.50332868  0.49733416  1
  Ta  Ta117  1  0.59911792  0.79547925  0.79823363  1
  Ta  Ta118  1  0.79933049  0.78645628  0.20356070  1
  Ta  Ta119  1  0.19932599  0.00080295  0.00166104  1
  Ta  Ta120  1  0.18387751  0.59895255  0.00377168  1
  Ta  Ta121  1  0.50073221  0.49046065  0.10066344  1
  Ta  Ta122  1  0.09727209  0.49914083  0.49828151  1
  Ta  Ta123  1  0.28831702  0.69522725  0.50360119  1
  Ta  Ta124  1  0.50453073  0.89633849  0.89494454  1
  Ta  Ta125  1  0.70129018  0.49674035  0.30204309  1
  Ta  Ta126  1  0.10741725  0.50461060  0.30377566  1
  Ta  Ta127  1  0.10470179  0.30632579  0.70405600  1
  Ta  Ta128  1  0.30594850  0.30938835  0.10193653  1
  Ta  Ta129  1  -0.00208280  0.40798546  0.79784132  1
  Ta  Ta130  1  0.00111675  0.60105075  0.20997910  1
  Ta  Ta131  1  0.39427250  0.00329281  0.39867977  1
  Ta  Ta132  1  0.60197404  0.20699279  0.59395157  1
  Ta  Ta133  1  -0.00151606  -0.00353236  0.79700769  1
  Ta  Ta134  1  0.90650406  0.50512493  0.69234561  1
  Ta  Ta135  1  0.60078896  -0.00028077  0.79353777  1
  Ta  Ta136  1  0.69972582  0.29246888  0.70386397  1
  Ta  Ta137  1  0.79138947  0.00129011  0.20362482  1
  Ta  Ta138  1  0.10264413  0.09968836  0.09280535  1
  Ta  Ta139  1  0.50641230  0.70342511  0.30204069  1
  Ta  Ta140  1  0.50330776  0.49403680  0.30066134  1
  Ta  Ta141  1  0.59584237  0.00288530  0.40212727  1
  Ta  Ta142  1  0.40372421  0.19964507  0.59680511  1
  Ta  Ta143  1  0.01391781  0.20704814  0.40803668  1
  Ta  Ta144  1  0.50229708  0.10513350  0.89184373  1
  Ta  Ta145  1  0.70035626  0.30982067  0.10045692  1
  Ta  Ta146  1  0.89272441  0.10421208  0.69965370  1
  Ta  Ta147  1  0.60455078  0.59461724  0.39834707  1
  Ta  Ta148  1  0.00052950  0.60262886  0.80392522  1
  Ta  Ta149  1  0.69899153  0.10463555  0.69590393  1
  Ti  Ti150  1  0.89826379  0.49425117  0.30277214  1
  Ti  Ti151  1  0.60789154  -0.00232099  0.59690794  1
  Ti  Ti152  1  -0.00323924  0.20548241  -0.00028614  1
  Ti  Ti153  1  0.09632323  0.69634193  0.10097825  1
  Ti  Ti154  1  0.78080828  0.20243585  0.40135872  1
  Ti  Ti155  1  0.89726249  0.89529055  0.69487712  1
  Ti  Ti156  1  0.78907302  0.20328590  0.59788627  1
  Ti  Ti157  1  0.59987167  0.20585057  0.40161281  1
  Ti  Ti158  1  0.69392608  0.10368721  0.50371546  1
  Ti  Ti159  1  0.50250060  0.89873233  0.49177394  1
  Ti  Ti160  1  0.00352957  0.39885012  0.59408609  1
  Ti  Ti161  1  0.39238011  0.01367204  0.20752771  1
  Ti  Ti162  1  0.09772841  0.49784374  0.89392474  1
  Ti  Ti163  1  0.90291008  0.10264389  0.89359606  1
  Ti  Ti164  1  0.09425145  0.70830150  0.91297159  1
  Ti  Ti165  1  0.41727462  0.60173744  0.80427395  1
  Ti  Ti166  1  0.90107690  0.49722381  0.90963982  1
  Ti  Ti167  1  0.60914313  0.39124439  0.58828072  1
  Ti  Ti168  1  0.39527594  0.79198518  0.20651769  1
  Ti  Ti169  1  0.90391426  0.69707447  0.68731604  1
  Ti  Ti170  1  0.80247740  0.78559967  0.00695341  1
  Ti  Ti171  1  0.59981988  0.39242712  0.40441328  1
  Ti  Ti172  1  0.40046631  0.39436200  0.59844753  1
  Ti  Ti173  1  0.29527438  0.90572184  0.30026562  1
  Ti  Ti174  1  0.09877153  0.69175530  0.68589067  1
  Ti  Ti175  1  0.19887441  0.20501118  0.79831425  1
  Ti  Ti176  1  0.70593007  0.89720264  0.70010467  1
  Ti  Ti177  1  0.60205412  0.20232140  0.79818775  1
  Ti  Ti178  1  0.29491074  0.11095870  0.69095954  1
  Ti  Ti179  1  0.79849666  0.59561421  0.39892066  1
  Ti  Ti180  1  0.30223033  0.30730662  0.30336005  1
  Ti  Ti181  1  -0.00634951  0.20195231  0.79685749  1
  Ti  Ti182  1  0.60154219  0.40051140  0.20392761  1
  Ti  Ti183  1  -0.00173837  0.78783873  0.21024623  1
  Ti  Ti184  1  0.71017051  0.50521437  0.90621003  1
  Ti  Ti185  1  0.20048398  0.40038615  0.40462558  1
  Ti  Ti186  1  0.20368604  0.20002743  0.00853772  1
  Ti  Ti187  1  0.78889290  0.40675757  0.40681471  1
  Ti  Ti188  1  0.70104033  0.69819108  0.49246901  1
  Ti  Ti189  1  0.18648943  0.60452095  0.80210421  1
  Ti  Ti190  1  0.20119997  0.40386673  0.20111816  1
  Ti  Ti191  1  0.50715233  0.10511734  0.69968946  1
  Ti  Ti192  1  -0.00423419  0.59813253  0.39118863  1
  Ti  Ti193  1  0.60310272  0.20790505  -0.00579260  1
  Ti  Ti194  1  0.20665365  0.00761218  0.19572335  1
  Ti  Ti195  1  0.70059635  0.31078168  0.30241754  1
  Ti  Ti196  1  0.09003091  0.49922085  0.11009989  1
  Ti  Ti197  1  0.00662779  0.40156758  0.40405694  1
  Ti  Ti198  1  0.50147888  0.89467054  0.10480910  1
  Ti  Ti199  1  0.79207385  -0.00266560  0.59802850  1
  Mo  Mo200  1  0.40042596  0.39762127  0.39126072  1
  Mo  Mo201  1  0.60238003  0.79372883  0.20511700  1
  Mo  Mo202  1  0.20552447  0.01584777  0.60454897  1
  Mo  Mo203  1  0.70237826  0.50001424  0.49016103  1
  Mo  Mo204  1  0.29701002  0.09727316  0.10432989  1
  Mo  Mo205  1  0.10639429  0.30627955  0.49955180  1
  Mo  Mo206  1  0.59966018  0.80150549  -0.00564839  1
  Mo  Mo207  1  0.09403628  0.90245763  0.90411295  1
  Mo  Mo208  1  0.51136825  0.69948906  0.89718329  1
  Mo  Mo209  1  0.21206409  0.20282048  0.39465424  1
  Mo  Mo210  1  0.19090005  0.79522973  0.00026246  1
  Mo  Mo211  1  0.19855684  0.59089891  0.39878782  1
  Mo  Mo212  1  0.59805845  0.79640780  0.40334894  1
  Mo  Mo213  1  0.18990316  0.59125570  0.19504524  1
  Mo  Mo214  1  0.50203994  0.29971340  0.50096731  1
  Mo  Mo215  1  0.30662602  0.10548115  0.49786425  1
  Mo  Mo216  1  0.79441645  0.40358564  0.21524320  1
  Mo  Mo217  1  0.00692161  0.00682046  0.40983002  1
  Mo  Mo218  1  0.00398444  0.00405876  -0.01110659  1
  Mo  Mo219  1  0.20804024  0.20845088  0.60514489  1
  Mo  Mo220  1  0.69714841  0.29801180  0.90104727  1
  Mo  Mo221  1  0.19197928  0.78268057  0.59824105  1
  Mo  Mo222  1  0.80802964  0.59746379  0.00056752  1
  Mo  Mo223  1  0.50238666  0.31295245  0.30452551  1
  Mo  Mo224  1  0.19546453  0.40453832  0.79627489  1
  Mo  Mo225  1  0.59645280  0.60355596  0.80555100  1
  Mo  Mo226  1  0.90593267  0.69464983  0.90738053  1
  Mo  Mo227  1  0.19686710  0.59173957  0.60042055  1
  Mo  Mo228  1  0.49702512  0.09410790  0.30493128  1
  Mo  Mo229  1  0.79571588  0.39995351  -0.00896891  1
  Mo  Mo230  1  0.69841600  0.90402108  0.50644950  1
  Mo  Mo231  1  0.69651448  0.29797332  0.49620628  1
  Mo  Mo232  1  0.40821965  0.19610943  0.79008556  1
  Mo  Mo233  1  0.21224964  0.00367812  0.39429596  1
  Mo  Mo234  1  0.09402713  0.90582292  0.49772545  1
  Mo  Mo235  1  0.27470372  0.68942189  0.69631409  1
  Mo  Mo236  1  0.30175906  0.09724655  0.30095624  1
  Mo  Mo237  1  0.52025131  0.69580413  0.70333600  1
  Mo  Mo238  1  0.40509577  0.40239139  0.00384793  1
  Mo  Mo239  1  -0.00094320  0.78751232  -0.00112334  1
  Mo  Mo240  1  0.80579646  0.79734589  0.78315843  1
  Mo  Mo241  1  0.69431782  0.10175055  0.30894231  1
  Mo  Mo242  1  0.80240622  0.19920521  0.79462484  1
  Mo  Mo243  1  0.89570711  0.69176214  0.30265050  1
  Mo  Mo244  1  0.71008809  0.69432951  0.10505070  1
  Mo  Mo245  1  0.00031930  0.41316532  0.22143701  1
  Mo  Mo246  1  0.09393768  0.68780811  0.29972264  1
  Mo  Mo247  1  -0.00029812  0.40797789  -0.01575785  1
  Mo  Mo248  1  -0.00710108  0.59829109  0.60019996  1
  Mo  Mo249  1  0.49841692  0.49857185  0.90415495  1
