# generated using pymatgen
data_HfZrTaTiMo
_symmetry_space_group_name_H-M   'P 1'
_cell_length_a   16.88781481
_cell_length_b   16.88673058
_cell_length_c   16.88042286
_cell_angle_alpha   89.96973405
_cell_angle_beta   89.98515994
_cell_angle_gamma   89.94937607
_symmetry_Int_Tables_number   1
_chemical_formula_structural   HfZrTaTiMo
_chemical_formula_sum   'Hf50 Zr50 Ta50 Ti50 Mo50'
_cell_volume   4813.95592129
_cell_formula_units_Z   50
loop_
 _symmetry_equiv_pos_site_id
 _symmetry_equiv_pos_as_xyz
  1  'x, y, z'
loop_
 _atom_site_type_symbol
 _atom_site_label
 _atom_site_symmetry_multiplicity
 _atom_site_fract_x
 _atom_site_fract_y
 _atom_site_fract_z
 _atom_site_occupancy
  Hf  Hf0  1  0.10204949  0.49312738  0.09097111  1
  Hf  Hf1  1  0.09896917  0.30124900  0.08812586  1
  Hf  Hf2  1  0.20150843  0.80816367  0.59793663  1
  Hf  Hf3  1  0.39680171  0.60277842  0.59618767  1
  Hf  Hf4  1  0.60552777  0.19600581  0.79256299  1
  Hf  Hf5  1  0.30188018  0.29300347  0.89470068  1
  Hf  Hf6  1  0.49640413  0.31184655  0.88315731  1
  Hf  Hf7  1  0.09979653  0.69427942  0.69782985  1
  Hf  Hf8  1  0.40092335  0.00374209  0.19650603  1
  Hf  Hf9  1  0.39890088  0.79486618  0.41055527  1
  Hf  Hf10  1  0.89269380  0.29440049  0.09556496  1
  Hf  Hf11  1  0.19013553  0.20187773  0.20412086  1
  Hf  Hf12  1  0.70555618  0.29877159  0.89922170  1
  Hf  Hf13  1  0.00503833  0.39984782  0.40518415  1
  Hf  Hf14  1  0.79667370  0.59664626  0.20564939  1
  Hf  Hf15  1  0.30501849  0.30106355  0.50446770  1
  Hf  Hf16  1  0.89010354  0.29942889  0.50475002  1
  Hf  Hf17  1  0.79466324  0.01057682  0.59540436  1
  Hf  Hf18  1  0.50738806  0.90549563  0.89464047  1
  Hf  Hf19  1  0.40238489  0.79398120  0.60367112  1
  Hf  Hf20  1  0.90137771  0.10880573  0.49114274  1
  Hf  Hf21  1  0.89110277  0.09397664  0.09890605  1
  Hf  Hf22  1  0.50343080  0.69574385  0.10211876  1
  Hf  Hf23  1  0.69399570  0.30411031  0.49800621  1
  Hf  Hf24  1  0.00584657  0.39271428  0.20625753  1
  Hf  Hf25  1  0.30748012  0.10207484  0.70505548  1
  Hf  Hf26  1  0.09372741  0.29556762  0.50174910  1
  Hf  Hf27  1  0.60815793  0.00729299  0.40594892  1
  Hf  Hf28  1  0.30249198  0.29980490  0.30225790  1
  Hf  Hf29  1  0.30217627  0.90489161  0.50221983  1
  Hf  Hf30  1  -0.00293787  0.79692429  0.59295841  1
  Hf  Hf31  1  0.08025045  0.49735345  0.70636956  1
  Hf  Hf32  1  0.39346393  0.59772795  -0.00116588  1
  Hf  Hf33  1  0.80289359  0.79110420  0.19884479  1
  Hf  Hf34  1  0.10556303  0.50729960  0.30643980  1
  Hf  Hf35  1  0.70735504  0.90964675  0.90717818  1
  Hf  Hf36  1  0.20214631  0.59864618  0.19575422  1
  Hf  Hf37  1  0.41089956  0.20468114  0.00287641  1
  Hf  Hf38  1  0.39747841  0.80639161  -0.00128273  1
  Hf  Hf39  1  0.80142880  0.40590212  0.79510244  1
  Hf  Hf40  1  0.20094938  0.60183424  0.80653872  1
  Hf  Hf41  1  0.79818806  0.59535167  0.80244389  1
  Hf  Hf42  1  0.30209285  0.48164410  0.90162394  1
  Hf  Hf43  1  0.88938522  0.49056115  0.30691454  1
  Hf  Hf44  1  0.70779642  0.10104003  0.08486316  1
  Hf  Hf45  1  0.71986683  0.91523710  0.09741802  1
  Hf  Hf46  1  0.20198791  0.60242137  -0.00517920  1
  Hf  Hf47  1  0.60086983  -0.00087269  0.19687117  1
  Hf  Hf48  1  0.80380124  0.59611857  -0.00637201  1
  Hf  Hf49  1  0.69265190  0.68652690  0.09646406  1
  Zr  Zr50  1  0.51045768  0.50496163  0.10325222  1
  Zr  Zr51  1  0.80945319  0.79263431  0.59882045  1
  Zr  Zr52  1  0.50639082  0.69072900  0.30493296  1
  Zr  Zr53  1  0.12359674  0.69354698  0.49242269  1
  Zr  Zr54  1  0.21084994  0.80285014  0.80291445  1
  Zr  Zr55  1  0.60117830  0.81292066  0.00831955  1
  Zr  Zr56  1  0.19694226  0.80403701  0.20236458  1
  Zr  Zr57  1  0.39983328  0.00968027  0.40751032  1
  Zr  Zr58  1  0.00159927  0.19416256  0.20258416  1
  Zr  Zr59  1  0.60094238  0.79221451  0.59863005  1
  Zr  Zr60  1  0.20126046  0.19396511  0.60253405  1
  Zr  Zr61  1  0.39011593  0.59540429  0.20081387  1
  Zr  Zr62  1  0.90014274  0.90524852  0.29665765  1
  Zr  Zr63  1  0.40336830  0.20956056  0.19221037  1
  Zr  Zr64  1  0.30221416  0.10163709  0.89866434  1
  Zr  Zr65  1  0.59631696  0.59774827  0.60473376  1
  Zr  Zr66  1  -0.01352124  0.60415686  -0.00066049  1
  Zr  Zr67  1  0.90959883  0.89311660  0.90536336  1
  Zr  Zr68  1  0.80665493  0.00444394  0.79396170  1
  Zr  Zr69  1  0.60648989  0.01257256  0.79146684  1
  Zr  Zr70  1  0.90350345  0.30985015  0.69249724  1
  Zr  Zr71  1  0.89753917  0.29225786  0.31303165  1
  Zr  Zr72  1  0.39809023  0.80427248  0.19990486  1
  Zr  Zr73  1  0.39457689  0.60380627  0.80406467  1
  Zr  Zr74  1  -0.00772763  0.60339527  0.19776169  1
  Zr  Zr75  1  0.19285215  -0.00394396  0.79955883  1
  Zr  Zr76  1  0.00482967  -0.00279970  0.59803497  1
  Zr  Zr77  1  0.08252535  0.71560970  0.89983716  1
  Zr  Zr78  1  0.19983640  0.39564575  0.60596048  1
  Zr  Zr79  1  0.29018732  0.90864005  0.09549398  1
  Zr  Zr80  1  0.19810015  0.39013659  0.79325738  1
  Zr  Zr81  1  0.50764831  0.30030726  0.69131516  1
  Zr  Zr82  1  0.29122146  0.10360797  0.09357349  1
  Zr  Zr83  1  0.80348609  0.79185825  0.79923593  1
  Zr  Zr84  1  0.28299994  0.69830471  0.32212052  1
  Zr  Zr85  1  0.09193707  0.89741736  0.09526013  1
  Zr  Zr86  1  0.40070499  0.19676056  0.40681212  1
  Zr  Zr87  1  0.88520486  0.49084696  0.51621229  1
  Zr  Zr88  1  0.80739105  0.40678298  -0.00989193  1
  Zr  Zr89  1  0.69764952  0.90068674  0.69289006  1
  Zr  Zr90  1  0.40575270  0.39759600  0.01350427  1
  Zr  Zr91  1  0.49987509  0.90269531  0.30980642  1
  Zr  Zr92  1  0.60592105  0.80461720  0.20478891  1
  Zr  Zr93  1  -0.00695067  0.60354628  0.41060741  1
  Zr  Zr94  1  0.79801192  0.79458031  0.40365803  1
  Zr  Zr95  1  0.60708316  0.20806974  0.19827737  1
  Zr  Zr96  1  0.19047853  0.00826672  0.40930130  1
  Zr  Zr97  1  0.00509768  0.00668895  -0.00596125  1
  Zr  Zr98  1  0.49593047  0.49045944  0.70773122  1
  Zr  Zr99  1  0.50607208  0.69818049  0.90240985  1
  Ta  Ta100  1  0.29542771  0.50094056  0.50022379  1
  Ta  Ta101  1  0.79684199  0.19743742  0.20800745  1
  Ta  Ta102  1  0.50826434  0.30426718  0.30847773  1
  Ta  Ta103  1  -0.00121299  -0.00053613  0.79548766  1
  Ta  Ta104  1  0.90095636  0.10834696  0.69657516  1
  Ta  Ta105  1  0.30263740  0.49363961  0.30613153  1
  Ta  Ta106  1  0.39896912  0.59394311  0.40759575  1
  Ta  Ta107  1  0.70005804  0.49335405  0.09959121  1
  Ta  Ta108  1  0.60599530  0.80023008  0.40819571  1
  Ta  Ta109  1  0.78445731  0.19512546  0.39715202  1
  Ta  Ta110  1  0.29166475  0.70599978  0.09243807  1
  Ta  Ta111  1  0.51075200  0.10029598  0.09348187  1
  Ta  Ta112  1  0.40969007  0.00407869  0.79748307  1
  Ta  Ta113  1  0.79693751  0.19820935  0.79287852  1
  Ta  Ta114  1  0.29036072  0.90735772  0.30550461  1
  Ta  Ta115  1  0.40214392  0.39841073  0.20001455  1
  Ta  Ta116  1  0.60055069  0.20580648  -0.00552455  1
  Ta  Ta117  1  0.41146685  0.00135962  -0.00142198  1
  Ta  Ta118  1  0.19713626  0.19707655  0.40304421  1
  Ta  Ta119  1  0.60787239  0.59334802  0.80639753  1
  Ta  Ta120  1  0.19911159  0.39625500  0.39973861  1
  Ta  Ta121  1  0.50436171  0.10895233  0.29969264  1
  Ta  Ta122  1  0.00170802  0.19523509  0.59962565  1
  Ta  Ta123  1  0.09556967  0.70621039  0.09792342  1
  Ta  Ta124  1  0.20434379  0.39981499  0.20090539  1
  Ta  Ta125  1  0.60296581  0.39578302  0.20082442  1
  Ta  Ta126  1  0.79527015  0.59801318  0.40528956  1
  Ta  Ta127  1  0.18463375  0.01092674  0.20551626  1
  Ta  Ta128  1  0.89891730  0.90465861  0.49468528  1
  Ta  Ta129  1  0.81184938  0.78701938  0.00371800  1
  Ta  Ta130  1  0.19349874  0.20313744  0.79431797  1
  Ta  Ta131  1  -0.00688892  0.59947064  0.59806767  1
  Ta  Ta132  1  0.19601574  0.00279925  0.59923540  1
  Ta  Ta133  1  0.09528708  0.49167290  0.89821631  1
  Ta  Ta134  1  0.69485176  0.49392500  0.49860512  1
  Ta  Ta135  1  0.50165731  0.49372631  0.30790856  1
  Ta  Ta136  1  0.29662020  0.10042636  0.29964517  1
  Ta  Ta137  1  0.00324182  0.00733677  0.20385891  1
  Ta  Ta138  1  0.09688675  0.70633967  0.30354901  1
  Ta  Ta139  1  0.50365466  0.49034449  0.49723545  1
  Ta  Ta140  1  0.50730420  0.90463198  0.50923067  1
  Ta  Ta141  1  0.50069949  0.90393672  0.69731603  1
  Ta  Ta142  1  0.40713145  0.19440818  0.59990156  1
  Ta  Ta143  1  0.50915016  0.30278342  0.50074334  1
  Ta  Ta144  1  0.09511009  0.89941225  0.30432650  1
  Ta  Ta145  1  0.00160270  0.80155218  0.40669940  1
  Ta  Ta146  1  0.60483628  0.79558332  0.79788566  1
  Ta  Ta147  1  0.79725278  0.00698555  0.39837059  1
  Ta  Ta148  1  -0.00156395  0.19721857  -0.00753843  1
  Ta  Ta149  1  0.60116909  0.39951716  -0.00171076  1
  Ti  Ti150  1  0.19643296  0.80509878  -0.01057681  1
  Ti  Ti151  1  0.28612502  0.30742265  0.09175888  1
  Ti  Ti152  1  0.70636893  0.29979973  0.09222562  1
  Ti  Ti153  1  0.10520815  0.50035910  0.51137292  1
  Ti  Ti154  1  0.90199826  0.69967520  0.30652228  1
  Ti  Ti155  1  -0.00652534  0.39883304  -0.00785796  1
  Ti  Ti156  1  0.70700242  0.49819159  0.68444133  1
  Ti  Ti157  1  0.70622728  0.90413182  0.30190261  1
  Ti  Ti158  1  0.08983183  0.10637674  0.31339238  1
  Ti  Ti159  1  0.89145903  0.10606851  0.89975612  1
  Ti  Ti160  1  0.78801168  0.38945052  0.20770554  1
  Ti  Ti161  1  0.70353007  0.30247689  0.68672509  1
  Ti  Ti162  1  0.51092367  0.10372790  0.50360097  1
  Ti  Ti163  1  0.50311596  0.70073751  0.71086612  1
  Ti  Ti164  1  0.50372918  0.10375846  0.89862896  1
  Ti  Ti165  1  0.61276412  0.41042354  0.79999220  1
  Ti  Ti166  1  0.90228126  0.29404690  0.89501132  1
  Ti  Ti167  1  0.92083693  0.50148024  0.87644548  1
  Ti  Ti168  1  0.30401134  0.90816473  0.89842509  1
  Ti  Ti169  1  0.39892724  0.80230771  0.79912754  1
  Ti  Ti170  1  0.09584305  0.89762991  0.70237096  1
  Ti  Ti171  1  0.50785334  0.69164164  0.49269447  1
  Ti  Ti172  1  0.40119550  0.40149745  0.40239770  1
  Ti  Ti173  1  0.29731330  0.49940820  0.69726035  1
  Ti  Ti174  1  0.70154750  0.68525668  0.50210414  1
  Ti  Ti175  1  0.69356189  0.69117589  0.31164344  1
  Ti  Ti176  1  0.40786771  0.00935309  0.60095922  1
  Ti  Ti177  1  0.69849848  0.10088690  0.29705624  1
  Ti  Ti178  1  0.69478954  0.48681475  0.31373635  1
  Ti  Ti179  1  0.90163669  0.68231647  0.70012508  1
  Ti  Ti180  1  0.69981726  0.90296799  0.50168654  1
  Ti  Ti181  1  0.09801991  0.10501658  0.89265366  1
  Ti  Ti182  1  0.18882827  0.19740458  -0.00687455  1
  Ti  Ti183  1  0.70126751  0.69259794  0.69876770  1
  Ti  Ti184  1  0.69586959  0.69913081  0.90550641  1
  Ti  Ti185  1  0.08486116  0.30029135  0.69993474  1
  Ti  Ti186  1  0.09452120  0.30311575  0.89789806  1
  Ti  Ti187  1  0.89846487  0.90488801  0.10100945  1
  Ti  Ti188  1  -0.00213760  0.19695501  0.80035335  1
  Ti  Ti189  1  -0.01071844  0.80429506  0.78611435  1
  Ti  Ti190  1  0.18882909  0.00069423  -0.00790202  1
  Ti  Ti191  1  -0.00010439  0.00114267  0.40129452  1
  Ti  Ti192  1  0.39842711  0.39847108  0.60242854  1
  Ti  Ti193  1  0.09549074  0.10271442  0.70234384  1
  Ti  Ti194  1  0.30989869  0.90856485  0.69856673  1
  Ti  Ti195  1  0.29369018  0.69564014  0.69434030  1
  Ti  Ti196  1  0.60750611  0.58775552  0.21220798  1
  Ti  Ti197  1  -0.00533582  0.79740228  0.19904908  1
  Ti  Ti198  1  0.89522201  0.48975273  0.10905574  1
  Ti  Ti199  1  0.61029560  0.18573325  0.59858377  1
  Mo  Mo200  1  -0.00129173  0.38939023  0.80662958  1
  Mo  Mo201  1  0.80395780  0.00636196  0.21158160  1
  Mo  Mo202  1  0.60170123  0.59515520  0.40292577  1
  Mo  Mo203  1  0.19514474  0.81508444  0.40165243  1
  Mo  Mo204  1  0.89917229  0.50374968  0.69896104  1
  Mo  Mo205  1  0.20286014  0.59258283  0.60394425  1
  Mo  Mo206  1  0.30335301  0.69466925  0.50618184  1
  Mo  Mo207  1  0.59747345  0.00307415  0.59551112  1
  Mo  Mo208  1  0.00385851  0.19732413  0.40332582  1
  Mo  Mo209  1  0.29800107  0.10112416  0.50911149  1
  Mo  Mo210  1  0.80307172  0.20021338  -0.01064130  1
  Mo  Mo211  1  0.79757407  0.20055610  0.60051949  1
  Mo  Mo212  1  0.78961664  0.39984400  0.60336696  1
  Mo  Mo213  1  0.59547428  0.39896433  0.39762098  1
  Mo  Mo214  1  0.19580760  0.39518470  -0.00188853  1
  Mo  Mo215  1  -0.00927926  0.79852386  0.01443348  1
  Mo  Mo216  1  0.89744679  0.70129692  0.89264960  1
  Mo  Mo217  1  0.09634864  0.90003274  0.49608863  1
  Mo  Mo218  1  0.90705876  0.90925920  0.69321001  1
  Mo  Mo219  1  0.31676922  0.29317314  0.70341973  1
  Mo  Mo220  1  -0.00296281  0.60754955  0.79821529  1
  Mo  Mo221  1  0.51513529  0.30129566  0.10328543  1
  Mo  Mo222  1  0.00173304  0.40134481  0.60176276  1
  Mo  Mo223  1  0.20297022  0.58395147  0.40444721  1
  Mo  Mo224  1  0.89692257  0.69946660  0.10667764  1
  Mo  Mo225  1  0.59832012  0.19850783  0.39836847  1
  Mo  Mo226  1  0.89628221  0.09780584  0.30273631  1
  Mo  Mo227  1  0.69548914  0.49694406  0.90202333  1
  Mo  Mo228  1  0.09766766  0.10184573  0.09202702  1
  Mo  Mo229  1  0.80727457  0.00129149  -0.01046618  1
  Mo  Mo230  1  0.89532027  0.69611199  0.50025730  1
  Mo  Mo231  1  0.50728219  0.49647337  0.89856111  1
  Mo  Mo232  1  0.60452130  0.58600302  -0.00959293  1
  Mo  Mo233  1  0.50214623  0.91333246  0.09297015  1
  Mo  Mo234  1  0.39311170  0.39603677  0.78736149  1
  Mo  Mo235  1  0.70621533  0.10954888  0.69119564  1
  Mo  Mo236  1  0.60010309  0.40276967  0.59758340  1
  Mo  Mo237  1  0.78933885  0.39890349  0.40050907  1
  Mo  Mo238  1  0.29944380  0.71285376  0.90370872  1
  Mo  Mo239  1  0.09606738  0.10134581  0.50048623  1
  Mo  Mo240  1  0.79634424  0.59837372  0.60304914  1
  Mo  Mo241  1  0.70061951  0.30159526  0.30222696  1
  Mo  Mo242  1  0.09503672  0.90010787  0.89292826  1
  Mo  Mo243  1  0.60036227  0.01246576  -0.00524565  1
  Mo  Mo244  1  0.40631304  0.19669150  0.79424198  1
  Mo  Mo245  1  0.70588869  0.10773900  0.90103085  1
  Mo  Mo246  1  0.50251739  0.09842114  0.69130704  1
  Mo  Mo247  1  0.69974321  0.10640492  0.49714450  1
  Mo  Mo248  1  0.29550428  0.49348962  0.10492218  1
  Mo  Mo249  1  0.10682226  0.30054060  0.30724100  1
