# generated using pymatgen
data_HfZrTaTiMo
_symmetry_space_group_name_H-M   'P 1'
_cell_length_a   16.89101551
_cell_length_b   16.89122376
_cell_length_c   16.88650030
_cell_angle_alpha   90.01712450
_cell_angle_beta   90.04038031
_cell_angle_gamma   90.04505949
_symmetry_Int_Tables_number   1
_chemical_formula_structural   HfZrTaTiMo
_chemical_formula_sum   'Hf50 Zr50 Ta50 Ti50 Mo50'
_cell_volume   4817.88318961
_cell_formula_units_Z   50
loop_
 _symmetry_equiv_pos_site_id
 _symmetry_equiv_pos_as_xyz
  1  'x, y, z'
loop_
 _atom_site_type_symbol
 _atom_site_label
 _atom_site_symmetry_multiplicity
 _atom_site_fract_x
 _atom_site_fract_y
 _atom_site_fract_z
 _atom_site_occupancy
  Hf  Hf0  1  0.00498161  -0.00202642  0.41266799  1
  Hf  Hf1  1  0.09870236  0.68443538  0.71301449  1
  Hf  Hf2  1  0.00592074  0.20462990  0.59897774  1
  Hf  Hf3  1  0.79566842  0.39351143  0.20349577  1
  Hf  Hf4  1  0.89154072  0.69916632  0.30196288  1
  Hf  Hf5  1  0.80367897  0.20316187  0.40401594  1
  Hf  Hf6  1  0.69843280  0.50197340  0.69349676  1
  Hf  Hf7  1  0.90444852  0.50583893  0.30951099  1
  Hf  Hf8  1  0.39520344  -0.00652093  0.39694772  1
  Hf  Hf9  1  0.60414134  -0.01123564  0.18216401  1
  Hf  Hf10  1  0.78110947  0.80701407  0.19973254  1
  Hf  Hf11  1  0.59246117  0.60444671  0.79264136  1
  Hf  Hf12  1  0.29776578  0.09107999  0.89742453  1
  Hf  Hf13  1  0.10510112  0.09852306  0.70556797  1
  Hf  Hf14  1  0.49343571  0.29414165  0.89595662  1
  Hf  Hf15  1  0.59311506  0.39880984  0.79497254  1
  Hf  Hf16  1  0.50735396  0.29159313  0.29174470  1
  Hf  Hf17  1  0.11389625  0.30096513  0.90477336  1
  Hf  Hf18  1  0.22017614  0.00496872  0.20976376  1
  Hf  Hf19  1  0.79833580  0.81133423  0.79371690  1
  Hf  Hf20  1  0.11837323  0.90456243  0.09732266  1
  Hf  Hf21  1  0.51704927  0.69755603  0.10124219  1
  Hf  Hf22  1  0.11174011  0.90452151  0.90658986  1
  Hf  Hf23  1  0.09601342  0.50228831  0.31041981  1
  Hf  Hf24  1  0.69165305  0.29445582  0.49945700  1
  Hf  Hf25  1  0.49856082  0.09507757  0.29473370  1
  Hf  Hf26  1  0.68828133  0.09443250  0.30814204  1
  Hf  Hf27  1  0.79798142  0.60181588  0.80247107  1
  Hf  Hf28  1  0.58791548  0.61265269  0.59488652  1
  Hf  Hf29  1  0.31004826  0.49130095  0.88627492  1
  Hf  Hf30  1  0.79373439  0.80873093  0.60052228  1
  Hf  Hf31  1  -0.00477345  -0.00652110  0.19205187  1
  Hf  Hf32  1  0.30432861  0.50265808  0.50749305  1
  Hf  Hf33  1  0.19609595  0.20784972  0.60230053  1
  Hf  Hf34  1  0.40367051  0.79292184  0.58787737  1
  Hf  Hf35  1  0.10849177  0.89684760  0.30583378  1
  Hf  Hf36  1  0.20555125  0.60049520  0.20024653  1
  Hf  Hf37  1  0.90602373  0.11111552  0.08793979  1
  Hf  Hf38  1  0.00406356  0.40462270  0.19351100  1
  Hf  Hf39  1  0.79387245  0.60073814  0.40871606  1
  Hf  Hf40  1  0.90359543  0.10081741  0.29981938  1
  Hf  Hf41  1  0.29475346  0.09620966  0.50519235  1
  Hf  Hf42  1  0.80244416  0.19431022  0.60343648  1
  Hf  Hf43  1  0.79627973  0.00408156  0.79636553  1
  Hf  Hf44  1  0.50522698  0.50049812  0.10425274  1
  Hf  Hf45  1  0.58791405  0.19506616  0.60602207  1
  Hf  Hf46  1  0.00414433  0.80357520  0.40990911  1
  Hf  Hf47  1  0.40162982  0.39388410  0.39817449  1
  Hf  Hf48  1  0.59869506  0.40056077  0.39913931  1
  Hf  Hf49  1  0.88857019  0.50947496  0.10819145  1
  Zr  Zr50  1  0.58807364  0.39779543  0.60316708  1
  Zr  Zr51  1  0.79502073  -0.00646662  0.40278260  1
  Zr  Zr52  1  0.00156492  0.41188237  -0.00091071  1
  Zr  Zr53  1  0.89391587  0.89455371  0.30523625  1
  Zr  Zr54  1  0.69162788  0.50734895  0.90462942  1
  Zr  Zr55  1  0.00599399  0.81202841  0.60447612  1
  Zr  Zr56  1  0.39373686  0.19597131  0.39958245  1
  Zr  Zr57  1  0.11167196  0.50954858  0.88275093  1
  Zr  Zr58  1  0.79737032  0.19588338  0.19635539  1
  Zr  Zr59  1  -0.00682025  0.58916610  0.59449384  1
  Zr  Zr60  1  0.19960232  0.79603488  0.60354988  1
  Zr  Zr61  1  0.49549142  0.29467936  0.09730080  1
  Zr  Zr62  1  0.41277032  0.80712805  -0.00191455  1
  Zr  Zr63  1  0.59748648  0.39860132  -0.00589280  1
  Zr  Zr64  1  0.00644418  0.81257152  0.79621302  1
  Zr  Zr65  1  0.10402727  0.69182942  0.50026669  1
  Zr  Zr66  1  0.68994485  0.90176439  0.89770262  1
  Zr  Zr67  1  0.30576376  0.90116692  0.69820106  1
  Zr  Zr68  1  0.49124177  0.50769404  0.50043282  1
  Zr  Zr69  1  0.21937101  0.79963855  0.21344502  1
  Zr  Zr70  1  0.30117143  0.29976743  0.09094553  1
  Zr  Zr71  1  0.10279102  0.29308866  0.09275471  1
  Zr  Zr72  1  0.68691437  0.70770546  0.90694537  1
  Zr  Zr73  1  0.09817977  0.69865197  0.30640225  1
  Zr  Zr74  1  0.79228634  -0.00001871  0.00210806  1
  Zr  Zr75  1  0.20441096  0.58831925  0.00585896  1
  Zr  Zr76  1  0.50661944  0.90145921  0.29893789  1
  Zr  Zr77  1  0.30848381  0.50104536  0.30698358  1
  Zr  Zr78  1  0.91111662  0.30176672  0.30252282  1
  Zr  Zr79  1  0.69588824  0.50851839  0.29546568  1
  Zr  Zr80  1  0.69709223  0.30121319  0.09223789  1
  Zr  Zr81  1  0.89802654  0.29390697  0.70689664  1
  Zr  Zr82  1  0.20173543  0.40418369  0.19504213  1
  Zr  Zr83  1  0.10023488  0.10232689  0.30017963  1
  Zr  Zr84  1  0.79922095  0.39746655  0.81004701  1
  Zr  Zr85  1  0.40111017  0.60841898  0.20551958  1
  Zr  Zr86  1  -0.00398932  0.80677256  0.00492112  1
  Zr  Zr87  1  0.00028444  0.59861404  -0.00083529  1
  Zr  Zr88  1  0.09987365  0.09752139  0.90475344  1
  Zr  Zr89  1  0.11069167  0.70972893  0.09429159  1
  Zr  Zr90  1  0.90239525  0.28139613  0.91340813  1
  Zr  Zr91  1  0.69187069  0.09310334  0.50534780  1
  Zr  Zr92  1  0.19394189  0.39963966  0.60582294  1
  Zr  Zr93  1  0.29981650  0.70128017  0.89872486  1
  Zr  Zr94  1  0.60203662  0.18276938  0.17701005  1
  Zr  Zr95  1  0.80420370  0.40110682  0.59491007  1
  Zr  Zr96  1  0.00176480  0.39948071  0.79913211  1
  Zr  Zr97  1  0.90377618  0.70286404  0.89771298  1
  Zr  Zr98  1  0.89752584  0.69842193  0.69663723  1
  Zr  Zr99  1  0.68998798  0.51481725  0.10683914  1
  Ta  Ta100  1  0.80333396  0.40707024  -0.00256799  1
  Ta  Ta101  1  0.79969668  0.40161050  0.40416565  1
  Ta  Ta102  1  0.89492796  0.70361371  0.49576584  1
  Ta  Ta103  1  0.39699355  0.19196489  0.79874878  1
  Ta  Ta104  1  0.69518395  0.28874438  0.70635776  1
  Ta  Ta105  1  0.19970913  0.39416641  0.40536222  1
  Ta  Ta106  1  0.19997510  0.20418891  0.40089830  1
  Ta  Ta107  1  0.00525989  0.39769015  0.59829793  1
  Ta  Ta108  1  0.00843391  0.20320376  0.41139551  1
  Ta  Ta109  1  0.00213993  -0.00236673  0.60389691  1
  Ta  Ta110  1  0.79486215  0.60997478  0.00487374  1
  Ta  Ta111  1  0.30869504  0.70789936  0.09538465  1
  Ta  Ta112  1  0.40426357  0.59979302  -0.00108785  1
  Ta  Ta113  1  0.59127786  0.00164169  0.80097438  1
  Ta  Ta114  1  0.90596598  0.09847987  0.89755130  1
  Ta  Ta115  1  0.20316884  0.80122734  0.79619660  1
  Ta  Ta116  1  0.89500452  0.89989349  0.50557240  1
  Ta  Ta117  1  0.30179715  0.09576380  0.69882954  1
  Ta  Ta118  1  0.69202187  0.70746587  0.69473276  1
  Ta  Ta119  1  0.60179938  0.80158682  0.40151910  1
  Ta  Ta120  1  0.79324216  -0.00286953  0.19151514  1
  Ta  Ta121  1  0.10180687  0.30038283  0.30441928  1
  Ta  Ta122  1  0.30981293  0.90473865  0.09520240  1
  Ta  Ta123  1  0.10893198  0.09868954  0.09596433  1
  Ta  Ta124  1  0.89962391  0.90823349  0.90184741  1
  Ta  Ta125  1  0.89157452  0.70248182  0.10843303  1
  Ta  Ta126  1  0.50098277  0.70066827  0.89992854  1
  Ta  Ta127  1  0.79802685  0.80429340  0.00854824  1
  Ta  Ta128  1  0.40752020  -0.00367460  0.80395410  1
  Ta  Ta129  1  0.40653559  0.80657149  0.20158311  1
  Ta  Ta130  1  0.09791795  0.49961093  0.49247881  1
  Ta  Ta131  1  0.58724160  0.00939798  -0.00317994  1
  Ta  Ta132  1  0.39805985  0.79659837  0.39638809  1
  Ta  Ta133  1  0.40495436  -0.00203667  0.59472532  1
  Ta  Ta134  1  0.21274865  0.60582486  0.40324403  1
  Ta  Ta135  1  0.47456023  0.50532432  0.70440046  1
  Ta  Ta136  1  0.40312226  0.18631317  -0.00654919  1
  Ta  Ta137  1  0.69056990  0.09571120  0.70083800  1
  Ta  Ta138  1  0.49885788  0.89902427  0.69807609  1
  Ta  Ta139  1  0.30165637  0.90309083  0.90417248  1
  Ta  Ta140  1  0.40312992  0.39848320  0.20237408  1
  Ta  Ta141  1  0.20799021  0.19511298  0.20400304  1
  Ta  Ta142  1  0.39998281  0.19474957  0.60308378  1
  Ta  Ta143  1  -0.00471321  0.80301504  0.19598395  1
  Ta  Ta144  1  0.30665187  0.29737286  0.70277822  1
  Ta  Ta145  1  0.00320684  0.60434316  0.19457082  1
  Ta  Ta146  1  0.29404342  0.89458355  0.49446512  1
  Ta  Ta147  1  0.49144607  0.50607505  0.89455576  1
  Ta  Ta148  1  0.30144676  0.29992470  0.50461196  1
  Ta  Ta149  1  0.90092211  0.50162381  0.70320900  1
  Ti  Ti150  1  0.22494353  0.59905281  0.78202345  1
  Ti  Ti151  1  0.20564651  -0.00186480  0.39904600  1
  Ti  Ti152  1  0.90861899  0.30938120  0.49567202  1
  Ti  Ti153  1  0.50370333  0.09544349  0.49120489  1
  Ti  Ti154  1  0.19318152  -0.00934185  0.60002289  1
  Ti  Ti155  1  0.10068770  0.50265364  0.70041892  1
  Ti  Ti156  1  -0.00280675  -0.00553132  0.79367187  1
  Ti  Ti157  1  0.40144864  0.80211010  0.80015377  1
  Ti  Ti158  1  0.20757238  0.20602815  0.79769470  1
  Ti  Ti159  1  0.20260468  -0.00794490  0.79378477  1
  Ti  Ti160  1  0.59832739  0.61115480  0.40111464  1
  Ti  Ti161  1  0.59100496  0.80189956  0.59253011  1
  Ti  Ti162  1  0.90384700  0.09979539  0.70536760  1
  Ti  Ti163  1  0.48986792  0.70243042  0.70224090  1
  Ti  Ti164  1  0.21243601  0.60077778  0.60366758  1
  Ti  Ti165  1  0.00849791  0.20132571  0.80084565  1
  Ti  Ti166  1  0.60074755  0.81589337  0.01412096  1
  Ti  Ti167  1  0.50773507  0.50367369  0.29386783  1
  Ti  Ti168  1  0.49185852  0.29559476  0.70571726  1
  Ti  Ti169  1  0.49674432  0.29146328  0.49748330  1
  Ti  Ti170  1  0.50973975  0.70471659  0.29907630  1
  Ti  Ti171  1  0.39787277  0.39246660  0.60499924  1
  Ti  Ti172  1  0.40200868  0.61836710  0.40664654  1
  Ti  Ti173  1  0.69393505  0.29085240  0.89804379  1
  Ti  Ti174  1  0.68598643  0.90440567  0.69468983  1
  Ti  Ti175  1  0.79068959  0.18883565  0.80422407  1
  Ti  Ti176  1  0.79748156  0.60153819  0.59544506  1
  Ti  Ti177  1  0.20855903  0.39290942  0.79151715  1
  Ti  Ti178  1  0.00742687  0.20135905  0.19665985  1
  Ti  Ti179  1  0.58723180  -0.00588435  0.59778544  1
  Ti  Ti180  1  0.10599160  0.09784404  0.50208063  1
  Ti  Ti181  1  -0.00307404  -0.00355496  0.00425139  1
  Ti  Ti182  1  0.80516196  -0.00262329  0.60920003  1
  Ti  Ti183  1  0.49444158  0.09309688  0.70229786  1
  Ti  Ti184  1  0.38980849  0.18783930  0.19590573  1
  Ti  Ti185  1  0.78156451  0.18910623  -0.00660040  1
  Ti  Ti186  1  0.21074300  0.19497896  -0.00018797  1
  Ti  Ti187  1  0.29844416  0.29730512  0.29752003  1
  Ti  Ti188  1  0.68991798  0.29440828  0.30148195  1
  Ti  Ti189  1  0.69164896  0.90204043  0.49785863  1
  Ti  Ti190  1  0.10868899  0.70028448  0.89700704  1
  Ti  Ti191  1  0.90087993  0.29595822  0.09210500  1
  Ti  Ti192  1  0.59519888  0.18773665  0.80470229  1
  Ti  Ti193  1  0.30915114  0.49530503  0.09570283  1
  Ti  Ti194  1  0.90207037  0.09606973  0.50468456  1
  Ti  Ti195  1  0.39726538  0.39735130  -0.00628332  1
  Ti  Ti196  1  0.69883622  0.70793755  0.49901518  1
  Ti  Ti197  1  0.69464039  0.50094025  0.50253507  1
  Ti  Ti198  1  0.30688668  0.09059510  0.09320938  1
  Ti  Ti199  1  0.58916336  0.80542275  0.79507840  1
  Mo  Mo200  1  0.00227801  0.39913976  0.40772102  1
  Mo  Mo201  1  0.40124344  -0.00182921  0.19290235  1
  Mo  Mo202  1  0.59384203  -0.00626827  0.40902840  1
  Mo  Mo203  1  0.40086305  0.61106835  0.79950321  1
  Mo  Mo204  1  0.59368216  0.60340011  -0.00747582  1
  Mo  Mo205  1  0.30774230  0.89896927  0.30477854  1
  Mo  Mo206  1  0.69780009  0.70468479  0.10265091  1
  Mo  Mo207  1  0.69431307  0.89921216  0.30397872  1
  Mo  Mo208  1  0.10077531  0.30432539  0.49542306  1
  Mo  Mo209  1  0.59428193  0.19658876  0.40536974  1
  Mo  Mo210  1  0.49707146  0.09717384  0.89627081  1
  Mo  Mo211  1  0.20988585  0.00208476  0.00663406  1
  Mo  Mo212  1  0.79678912  0.61421989  0.20131535  1
  Mo  Mo213  1  0.69135580  0.10264026  0.89454906  1
  Mo  Mo214  1  0.10742067  0.90889562  0.50165760  1
  Mo  Mo215  1  0.48630158  0.09228429  0.09321828  1
  Mo  Mo216  1  0.10584454  0.90946969  0.70375579  1
  Mo  Mo217  1  0.39303267  0.61034583  0.60657517  1
  Mo  Mo218  1  0.59420837  0.39949449  0.20694475  1
  Mo  Mo219  1  0.30349857  0.49609442  0.69766961  1
  Mo  Mo220  1  0.49886148  0.90028378  0.09865687  1
  Mo  Mo221  1  0.30152232  0.29441409  0.89600986  1
  Mo  Mo222  1  -0.00774714  0.59134182  0.79833818  1
  Mo  Mo223  1  0.30035895  0.10422101  0.30317864  1
  Mo  Mo224  1  0.78891460  0.79884188  0.40920189  1
  Mo  Mo225  1  0.21217919  0.80345370  -0.00616886  1
  Mo  Mo226  1  0.60157675  0.61143207  0.21419562  1
  Mo  Mo227  1  0.20942043  0.79847972  0.40613841  1
  Mo  Mo228  1  0.89431437  0.89865031  0.09997092  1
  Mo  Mo229  1  0.89037015  0.50815006  0.90353153  1
  Mo  Mo230  1  0.69651951  0.89963671  0.09453999  1
  Mo  Mo231  1  0.30601093  0.70100860  0.70025216  1
  Mo  Mo232  1  0.50052400  0.89878389  0.50093652  1
  Mo  Mo233  1  0.90004518  0.91260894  0.69843778  1
  Mo  Mo234  1  0.89918480  0.49821746  0.50178691  1
  Mo  Mo235  1  0.40367872  -0.00130846  -0.00304822  1
  Mo  Mo236  1  0.10493054  0.29854841  0.70827721  1
  Mo  Mo237  1  -0.00668513  0.60075989  0.40368808  1
  Mo  Mo238  1  0.40038279  0.38809074  0.79483353  1
  Mo  Mo239  1  0.31003011  0.70275957  0.30410896  1
  Mo  Mo240  1  0.69216099  0.70429887  0.30483147  1
  Mo  Mo241  1  0.00952679  0.19211191  -0.00212855  1
  Mo  Mo242  1  0.10089767  0.50368924  0.10672928  1
  Mo  Mo243  1  0.60177925  0.79993595  0.20457557  1
  Mo  Mo244  1  0.59656589  0.18870733  -0.01356459  1
  Mo  Mo245  1  0.70135963  0.09540991  0.08941502  1
  Mo  Mo246  1  0.21232571  0.39958378  -0.00537610  1
  Mo  Mo247  1  0.50307719  0.70390046  0.48987429  1
  Mo  Mo248  1  0.50101516  0.89831793  0.89366335  1
  Mo  Mo249  1  0.30211767  0.69823406  0.49837469  1
