# generated using pymatgen
data_HfZrTaTiMo
_symmetry_space_group_name_H-M   'P 1'
_cell_length_a   16.88508318
_cell_length_b   16.88986689
_cell_length_c   16.88674427
_cell_angle_alpha   89.97806894
_cell_angle_beta   89.96780132
_cell_angle_gamma   89.97911552
_symmetry_Int_Tables_number   1
_chemical_formula_structural   HfZrTaTiMo
_chemical_formula_sum   'Hf50 Zr50 Ta50 Ti50 Mo50'
_cell_volume   4815.87525175
_cell_formula_units_Z   50
loop_
 _symmetry_equiv_pos_site_id
 _symmetry_equiv_pos_as_xyz
  1  'x, y, z'
loop_
 _atom_site_type_symbol
 _atom_site_label
 _atom_site_symmetry_multiplicity
 _atom_site_fract_x
 _atom_site_fract_y
 _atom_site_fract_z
 _atom_site_occupancy
  Hf  Hf0  1  -0.01133307  -0.00333416  0.59333266  1
  Hf  Hf1  1  0.20255741  0.19739065  0.39768060  1
  Hf  Hf2  1  -0.00446723  -0.01626949  0.01464304  1
  Hf  Hf3  1  0.39578870  0.59656050  0.80113107  1
  Hf  Hf4  1  0.29261067  0.30197506  0.70358608  1
  Hf  Hf5  1  0.29734912  0.29706256  0.10286005  1
  Hf  Hf6  1  0.20602109  0.59265243  0.40499649  1
  Hf  Hf7  1  0.49429586  0.90945337  0.48360703  1
  Hf  Hf8  1  0.49882716  0.70474946  0.48793748  1
  Hf  Hf9  1  0.59268044  0.40287415  0.01203301  1
  Hf  Hf10  1  0.79862547  0.59679434  0.59269682  1
  Hf  Hf11  1  0.60865216  0.00855544  -0.00220281  1
  Hf  Hf12  1  0.49695630  0.90726147  0.90153660  1
  Hf  Hf13  1  0.69584275  0.11255760  0.70162165  1
  Hf  Hf14  1  0.80210295  0.40027752  0.80594241  1
  Hf  Hf15  1  0.00094259  -0.00988332  0.40354505  1
  Hf  Hf16  1  0.80065438  0.58946994  0.20088304  1
  Hf  Hf17  1  0.09724491  0.30566046  0.70234411  1
  Hf  Hf18  1  0.69761479  0.90027606  0.49390755  1
  Hf  Hf19  1  0.69882177  0.90475210  0.69906018  1
  Hf  Hf20  1  -0.00082345  0.60033230  0.60257355  1
  Hf  Hf21  1  -0.00137015  0.79502102  0.60490375  1
  Hf  Hf22  1  0.40257564  0.39797170  0.59678215  1
  Hf  Hf23  1  0.69490666  0.51227507  0.91518001  1
  Hf  Hf24  1  0.49550202  0.90824147  0.10646730  1
  Hf  Hf25  1  0.89107378  0.89988260  0.70429469  1
  Hf  Hf26  1  0.40630741  0.19837837  0.59955723  1
  Hf  Hf27  1  0.69685740  0.69891436  0.70313448  1
  Hf  Hf28  1  0.70102350  0.49484502  0.69655542  1
  Hf  Hf29  1  0.29291343  0.71178742  0.29638777  1
  Hf  Hf30  1  0.19630674  -0.01292558  0.19124885  1
  Hf  Hf31  1  0.19795335  0.80291360  0.01371010  1
  Hf  Hf32  1  0.10368117  0.09263864  0.49674518  1
  Hf  Hf33  1  0.31120699  0.08569198  0.49598378  1
  Hf  Hf34  1  0.79700573  0.79682986  0.19772708  1
  Hf  Hf35  1  0.39136875  0.59304480  0.58556047  1
  Hf  Hf36  1  0.09947711  0.69516756  0.90481261  1
  Hf  Hf37  1  0.00827921  0.80129398  0.39857251  1
  Hf  Hf38  1  0.39484080  0.79326230  0.00770715  1
  Hf  Hf39  1  0.79649895  0.78994195  0.59739378  1
  Hf  Hf40  1  0.40782828  0.39936376  0.80631522  1
  Hf  Hf41  1  0.10833626  0.70288199  0.49635682  1
  Hf  Hf42  1  0.30534516  0.08744788  0.29560422  1
  Hf  Hf43  1  0.69289845  0.29841169  0.11139575  1
  Hf  Hf44  1  0.79085719  0.19555297  0.41012165  1
  Hf  Hf45  1  0.80683162  0.80608722  0.00656682  1
  Hf  Hf46  1  0.60230711  0.18751468  0.21917889  1
  Hf  Hf47  1  0.89825999  0.30223866  0.69844135  1
  Hf  Hf48  1  0.60447008  0.01859329  0.38323153  1
  Hf  Hf49  1  0.89197767  0.70275204  0.48584847  1
  Zr  Zr50  1  0.51246505  0.29726738  0.49135021  1
  Zr  Zr51  1  0.09933713  0.09708533  0.09918646  1
  Zr  Zr52  1  0.10624962  0.49581957  0.09097401  1
  Zr  Zr53  1  0.79963080  0.00289087  0.39988000  1
  Zr  Zr54  1  0.10709179  0.30580675  0.30240969  1
  Zr  Zr55  1  0.70597071  0.90350057  0.89522962  1
  Zr  Zr56  1  0.68986478  0.29231152  0.90164465  1
  Zr  Zr57  1  0.29250432  0.30690577  0.90836076  1
  Zr  Zr58  1  0.19311241  0.19710393  0.81059128  1
  Zr  Zr59  1  0.40011433  0.80132308  0.79984004  1
  Zr  Zr60  1  0.20106879  0.20405270  0.59171378  1
  Zr  Zr61  1  0.80304176  0.20755685  0.21777586  1
  Zr  Zr62  1  0.29055356  0.50145615  0.09973092  1
  Zr  Zr63  1  0.19579921  0.40870155  0.57996624  1
  Zr  Zr64  1  0.00327243  0.59387212  0.40020598  1
  Zr  Zr65  1  0.20220774  0.80420489  0.59732424  1
  Zr  Zr66  1  -0.00828596  0.20198507  0.59045290  1
  Zr  Zr67  1  0.79930308  0.01369770  0.80564723  1
  Zr  Zr68  1  0.79267459  0.59347685  0.39626166  1
  Zr  Zr69  1  0.09621296  0.10171839  0.69933015  1
  Zr  Zr70  1  0.19860533  0.79743736  0.79953317  1
  Zr  Zr71  1  0.79929257  0.40427036  0.00598723  1
  Zr  Zr72  1  0.30609625  0.09387532  0.09197466  1
  Zr  Zr73  1  0.80197965  -0.00603159  0.19786936  1
  Zr  Zr74  1  0.40697923  0.20442972  0.79893326  1
  Zr  Zr75  1  -0.00579134  0.20461511  0.20440216  1
  Zr  Zr76  1  0.59584527  0.80468698  0.59763148  1
  Zr  Zr77  1  0.79749018  0.39867706  0.20377232  1
  Zr  Zr78  1  0.10638277  0.49115195  0.29481757  1
  Zr  Zr79  1  0.69600806  0.68783995  0.09455050  1
  Zr  Zr80  1  -0.00855034  0.20223571  0.40063395  1
  Zr  Zr81  1  0.59480789  0.39685401  0.80289009  1
  Zr  Zr82  1  0.49613579  0.69379721  0.69532511  1
  Zr  Zr83  1  0.89674227  0.09975072  0.09943962  1
  Zr  Zr84  1  0.39779027  0.40543569  0.40335497  1
  Zr  Zr85  1  0.39976299  0.60468204  0.20124918  1
  Zr  Zr86  1  0.20074958  0.00621791  0.80499167  1
  Zr  Zr87  1  0.29349690  0.49105633  0.29167488  1
  Zr  Zr88  1  0.39802308  0.80776255  0.59927045  1
  Zr  Zr89  1  0.60088114  0.80193296  0.00257634  1
  Zr  Zr90  1  0.10606229  0.30269985  0.09309114  1
  Zr  Zr91  1  -0.01554672  0.39438833  0.19774548  1
  Zr  Zr92  1  0.59478382  0.59807422  0.80176578  1
  Zr  Zr93  1  -0.00049054  0.60125489  0.20408346  1
  Zr  Zr94  1  0.29441821  0.49799141  0.70240757  1
  Zr  Zr95  1  0.81077615  0.60229286  0.79844568  1
  Zr  Zr96  1  0.90087089  0.10266134  0.90738486  1
  Zr  Zr97  1  0.51209803  0.11014252  0.89494122  1
  Zr  Zr98  1  0.09926682  0.90387419  0.70101142  1
  Zr  Zr99  1  0.30080959  0.91344549  0.91199132  1
  Ta  Ta100  1  0.50392172  0.49800581  0.68906939  1
  Ta  Ta101  1  0.60254463  0.80025536  0.38928682  1
  Ta  Ta102  1  0.90258586  0.49433163  0.69691069  1
  Ta  Ta103  1  0.50077376  0.69412688  0.91061796  1
  Ta  Ta104  1  0.68610334  0.48968738  0.29982574  1
  Ta  Ta105  1  0.00265232  0.40461951  0.59159404  1
  Ta  Ta106  1  0.09465498  0.89909862  0.90527476  1
  Ta  Ta107  1  0.40439941  0.39934084  0.00678727  1
  Ta  Ta108  1  0.10808004  0.88943105  0.29525854  1
  Ta  Ta109  1  0.50532062  0.30448735  0.30044442  1
  Ta  Ta110  1  -0.00441808  -0.00135339  0.80432350  1
  Ta  Ta111  1  0.90608893  0.08892765  0.30066771  1
  Ta  Ta112  1  0.19258190  0.59890184  0.80030962  1
  Ta  Ta113  1  0.79782224  0.20756939  0.80076985  1
  Ta  Ta114  1  0.00134395  0.79646994  0.00642565  1
  Ta  Ta115  1  0.69917518  0.69966552  0.90287858  1
  Ta  Ta116  1  0.90454655  0.89244568  0.29609421  1
  Ta  Ta117  1  0.31006292  0.89490243  0.29790529  1
  Ta  Ta118  1  0.30555788  0.90974650  0.69950414  1
  Ta  Ta119  1  0.49278310  0.50526028  0.91371489  1
  Ta  Ta120  1  0.91298080  0.50484718  0.90405441  1
  Ta  Ta121  1  0.59474911  0.80150089  0.80194342  1
  Ta  Ta122  1  0.50505966  0.49765980  0.30183162  1
  Ta  Ta123  1  0.29593656  0.68980813  0.90704553  1
  Ta  Ta124  1  0.09767357  0.08730135  0.29627833  1
  Ta  Ta125  1  0.70113164  0.09914402  0.10151747  1
  Ta  Ta126  1  0.59882566  0.79924046  0.20467032  1
  Ta  Ta127  1  0.40700161  0.00863111  0.79247111  1
  Ta  Ta128  1  0.90070832  0.70710237  0.29689474  1
  Ta  Ta129  1  0.49411028  0.90456715  0.29345895  1
  Ta  Ta130  1  0.29180514  0.50326748  0.91086801  1
  Ta  Ta131  1  0.90436901  0.69859598  0.90519857  1
  Ta  Ta132  1  0.39995221  0.59996842  0.39672231  1
  Ta  Ta133  1  0.40809397  0.39682756  0.19657552  1
  Ta  Ta134  1  0.29251054  0.69629887  0.69904288  1
  Ta  Ta135  1  0.40678582  0.19637905  0.39135695  1
  Ta  Ta136  1  0.59935530  0.60048438  0.20546793  1
  Ta  Ta137  1  0.50432963  0.10323175  0.49338398  1
  Ta  Ta138  1  0.49907011  0.70086781  0.10657224  1
  Ta  Ta139  1  0.41186486  0.20604304  0.00172409  1
  Ta  Ta140  1  0.30291660  0.09643107  0.69519094  1
  Ta  Ta141  1  0.90253094  0.89547656  0.90079644  1
  Ta  Ta142  1  -0.00363875  0.79297061  0.80006887  1
  Ta  Ta143  1  0.59563513  0.00880478  0.59901836  1
  Ta  Ta144  1  0.30443342  0.29823375  0.29537600  1
  Ta  Ta145  1  0.00123918  0.40810131  0.80227954  1
  Ta  Ta146  1  0.60530738  0.59654370  0.58516818  1
  Ta  Ta147  1  0.60624584  0.39780113  0.59538523  1
  Ta  Ta148  1  0.90634762  0.69662459  0.10062288  1
  Ta  Ta149  1  0.50034632  0.09619360  0.10695354  1
  Ti  Ti150  1  0.30955509  0.90227357  0.10630032  1
  Ti  Ti151  1  0.00428430  0.20321243  -0.00488866  1
  Ti  Ti152  1  0.89633809  0.10778843  0.69854747  1
  Ti  Ti153  1  0.88765574  0.89344100  0.49495959  1
  Ti  Ti154  1  0.50401862  0.50729710  0.10656644  1
  Ti  Ti155  1  0.79688497  0.01788423  0.58992467  1
  Ti  Ti156  1  0.60034591  0.60402454  0.39644596  1
  Ti  Ti157  1  0.80389019  0.79155221  0.80281895  1
  Ti  Ti158  1  0.90030654  0.48697929  0.31417460  1
  Ti  Ti159  1  0.10839285  0.69592327  0.10930927  1
  Ti  Ti160  1  0.59325163  0.00468991  0.78991037  1
  Ti  Ti161  1  0.39652938  0.60183250  0.00779287  1
  Ti  Ti162  1  0.69440094  0.49089628  0.49096333  1
  Ti  Ti163  1  0.89459331  0.30615960  0.49886844  1
  Ti  Ti164  1  0.20357926  -0.00706210  0.59568708  1
  Ti  Ti165  1  0.69666394  0.90027655  0.29536074  1
  Ti  Ti166  1  0.18830394  0.41207533  0.81143173  1
  Ti  Ti167  1  0.89925654  0.29579568  0.08315003  1
  Ti  Ti168  1  0.29984849  0.30029269  0.48911476  1
  Ti  Ti169  1  0.89835410  0.48872179  0.49776359  1
  Ti  Ti170  1  0.61280468  0.20253815  0.59116314  1
  Ti  Ti171  1  0.69606060  0.90687945  0.10290452  1
  Ti  Ti172  1  0.30265864  0.70841471  0.49071878  1
  Ti  Ti173  1  0.49478220  0.70862660  0.29911259  1
  Ti  Ti174  1  0.30558292  0.89901187  0.48759658  1
  Ti  Ti175  1  0.30912200  0.09751526  0.90748301  1
  Ti  Ti176  1  0.09517902  0.08869443  0.90882702  1
  Ti  Ti177  1  0.90678547  0.50031369  0.09024965  1
  Ti  Ti178  1  0.09744608  0.50134872  0.69932268  1
  Ti  Ti179  1  0.79056833  0.19521953  -0.00423159  1
  Ti  Ti180  1  0.79309859  0.39147535  0.59512127  1
  Ti  Ti181  1  0.19920249  -0.01398372  0.39751918  1
  Ti  Ti182  1  0.50205120  0.29465128  0.10943201  1
  Ti  Ti183  1  0.20004917  0.19403013  0.20376090  1
  Ti  Ti184  1  0.00697947  0.80178602  0.19410597  1
  Ti  Ti185  1  0.90530467  0.30314909  0.90477879  1
  Ti  Ti186  1  0.70206839  0.70099816  0.30432635  1
  Ti  Ti187  1  0.19761709  0.19308124  -0.00636034  1
  Ti  Ti188  1  0.00464232  0.60100981  0.00175155  1
  Ti  Ti189  1  0.19777874  0.59861391  0.59834792  1
  Ti  Ti190  1  -0.00101287  0.20153677  0.80676637  1
  Ti  Ti191  1  0.59790757  0.20002410  0.00693075  1
  Ti  Ti192  1  0.50792404  0.50037323  0.49317208  1
  Ti  Ti193  1  0.41413545  0.00187478  0.60891091  1
  Ti  Ti194  1  0.79006450  0.38867952  0.39822847  1
  Ti  Ti195  1  0.09431199  0.31460146  0.90847835  1
  Ti  Ti196  1  0.80786583  0.60094398  0.00339506  1
  Ti  Ti197  1  0.51677444  0.29435532  0.69704565  1
  Ti  Ti198  1  0.40645445  0.19712703  0.20405803  1
  Ti  Ti199  1  0.00284383  0.60292321  0.79260706  1
  Mo  Mo200  1  0.09837518  0.89111300  0.10362891  1
  Mo  Mo201  1  0.10102524  0.69135607  0.70216789  1
  Mo  Mo202  1  0.90136377  0.69738850  0.70695773  1
  Mo  Mo203  1  0.19883620  0.60559692  -0.00039383  1
  Mo  Mo204  1  0.60270821  0.20285514  0.39880933  1
  Mo  Mo205  1  0.20072393  0.40424476  -0.00449690  1
  Mo  Mo206  1  0.20284458  0.80170966  0.19648777  1
  Mo  Mo207  1  0.79496991  0.80180946  0.38970334  1
  Mo  Mo208  1  -0.00345602  0.39995371  -0.00836022  1
  Mo  Mo209  1  0.79900442  0.20522447  0.60028537  1
  Mo  Mo210  1  0.09786643  0.30664111  0.49334168  1
  Mo  Mo211  1  0.70897133  0.09929490  0.29610954  1
  Mo  Mo212  1  0.00004637  0.39874210  0.41267254  1
  Mo  Mo213  1  0.20139226  0.39332524  0.40121174  1
  Mo  Mo214  1  0.00111621  -0.01203129  0.20782959  1
  Mo  Mo215  1  0.09733471  0.50277678  0.49913236  1
  Mo  Mo216  1  0.10438177  0.70461390  0.29308877  1
  Mo  Mo217  1  0.70346145  0.29933399  0.69504930  1
  Mo  Mo218  1  0.89653718  0.09632253  0.50142982  1
  Mo  Mo219  1  0.11255914  0.89968765  0.49519741  1
  Mo  Mo220  1  0.20970764  0.38627647  0.19666129  1
  Mo  Mo221  1  0.30003398  0.50354914  0.49526115  1
  Mo  Mo222  1  0.89676808  0.31062187  0.32194778  1
  Mo  Mo223  1  0.58737977  0.59924921  0.00913858  1
  Mo  Mo224  1  0.49890589  0.30366760  0.91402590  1
  Mo  Mo225  1  0.40317033  0.00153968  0.39509515  1
  Mo  Mo226  1  0.79878945  -0.00095205  0.00475195  1
  Mo  Mo227  1  0.60288087  0.20539905  0.79095886  1
  Mo  Mo228  1  0.40742729  0.01190260  -0.00007951  1
  Mo  Mo229  1  0.40230570  0.80138619  0.39466810  1
  Mo  Mo230  1  0.49204416  0.10063493  0.29788045  1
  Mo  Mo231  1  0.70246391  0.30147066  0.50482447  1
  Mo  Mo232  1  0.70054765  0.10876329  0.90294296  1
  Mo  Mo233  1  0.20386699  0.80755590  0.39953396  1
  Mo  Mo234  1  0.09703606  0.50542076  0.89615266  1
  Mo  Mo235  1  0.19561476  0.61477781  0.20059507  1
  Mo  Mo236  1  0.69552446  0.10338450  0.50574781  1
  Mo  Mo237  1  0.69327675  0.69833581  0.48730859  1
  Mo  Mo238  1  0.60222524  0.40206217  0.40070447  1
  Mo  Mo239  1  0.40104185  0.00013482  0.19960985  1
  Mo  Mo240  1  0.69026741  0.30327189  0.31267942  1
  Mo  Mo241  1  0.40300873  0.80288541  0.19999009  1
  Mo  Mo242  1  0.50458343  0.10591126  0.69098474  1
  Mo  Mo243  1  0.29895381  0.69772582  0.10239962  1
  Mo  Mo244  1  0.50204052  0.91084298  0.70482660  1
  Mo  Mo245  1  0.19516341  -0.00325001  -0.00024153  1
  Mo  Mo246  1  0.69232550  0.50105172  0.10944688  1
  Mo  Mo247  1  0.90366833  0.88786343  0.10487436  1
  Mo  Mo248  1  0.60396384  -0.00157036  0.19814962  1
  Mo  Mo249  1  0.59273775  0.40196502  0.20286059  1
