# generated using pymatgen
data_HfZrTaTiMo
_symmetry_space_group_name_H-M   'P 1'
_cell_length_a   16.89483847
_cell_length_b   16.89426700
_cell_length_c   16.89193587
_cell_angle_alpha   90.04522752
_cell_angle_beta   90.02424893
_cell_angle_gamma   89.94523977
_symmetry_Int_Tables_number   1
_chemical_formula_structural   HfZrTaTiMo
_chemical_formula_sum   'Hf50 Zr50 Ta50 Ti50 Mo50'
_cell_volume   4821.39206667
_cell_formula_units_Z   50
loop_
 _symmetry_equiv_pos_site_id
 _symmetry_equiv_pos_as_xyz
  1  'x, y, z'
loop_
 _atom_site_type_symbol
 _atom_site_label
 _atom_site_symmetry_multiplicity
 _atom_site_fract_x
 _atom_site_fract_y
 _atom_site_fract_z
 _atom_site_occupancy
  Hf  Hf0  1  0.70174815  0.90057576  0.11279413  1
  Hf  Hf1  1  0.00020792  0.00869049  0.39820401  1
  Hf  Hf2  1  0.20530005  0.39970124  0.39268055  1
  Hf  Hf3  1  0.90303658  0.68451689  0.29692845  1
  Hf  Hf4  1  0.71287978  0.29478085  0.90280361  1
  Hf  Hf5  1  0.09987735  0.89972072  0.50266675  1
  Hf  Hf6  1  0.80437001  0.80039650  0.00899181  1
  Hf  Hf7  1  0.89615655  0.50001685  0.30326504  1
  Hf  Hf8  1  0.00318059  0.79578951  0.20319965  1
  Hf  Hf9  1  0.29582124  0.70172262  0.69529436  1
  Hf  Hf10  1  0.40138516  0.20879870  0.79905168  1
  Hf  Hf11  1  0.69604138  0.09527410  0.29094506  1
  Hf  Hf12  1  0.69930553  0.69917839  0.90752669  1
  Hf  Hf13  1  0.39225743  0.59662878  0.39704311  1
  Hf  Hf14  1  0.09496978  0.90993833  0.29335390  1
  Hf  Hf15  1  0.61030627  0.60701993  0.60317530  1
  Hf  Hf16  1  0.39850156  0.40032893  0.39677981  1
  Hf  Hf17  1  0.20176786  0.39238613  0.20205255  1
  Hf  Hf18  1  0.10432581  0.30093954  0.50294530  1
  Hf  Hf19  1  0.19129910  0.79626131  0.20187303  1
  Hf  Hf20  1  0.10608113  0.50136447  0.89903041  1
  Hf  Hf21  1  0.60549051  0.79454717  0.60195815  1
  Hf  Hf22  1  0.09765337  0.28914193  0.90433539  1
  Hf  Hf23  1  0.20278002  0.00249168  0.59732919  1
  Hf  Hf24  1  0.20476992  0.00612245  0.80094631  1
  Hf  Hf25  1  0.80417675  0.40491622  0.79451111  1
  Hf  Hf26  1  0.39955058  -0.00235432  0.79850327  1
  Hf  Hf27  1  0.29923103  0.90039369  0.30131035  1
  Hf  Hf28  1  0.60861217  0.20346845  0.00463613  1
  Hf  Hf29  1  -0.00516291  0.79789840  0.39899932  1
  Hf  Hf30  1  0.72141417  0.29605829  0.68676671  1
  Hf  Hf31  1  0.49738477  0.30943388  0.09986077  1
  Hf  Hf32  1  0.50350320  0.89633546  0.89970912  1
  Hf  Hf33  1  0.91052389  0.89725180  0.90746397  1
  Hf  Hf34  1  -0.00962058  0.58896310  -0.00972811  1
  Hf  Hf35  1  0.09729724  0.69749358  0.89872843  1
  Hf  Hf36  1  0.70131073  0.09942784  0.50127649  1
  Hf  Hf37  1  0.49655449  0.50386227  0.69534853  1
  Hf  Hf38  1  0.91267712  0.91338470  0.10976099  1
  Hf  Hf39  1  0.10637894  0.30298800  0.69782586  1
  Hf  Hf40  1  0.70311784  0.89727076  0.30225184  1
  Hf  Hf41  1  0.10416580  0.49552762  0.50348425  1
  Hf  Hf42  1  -0.00472223  0.39071703  0.40156069  1
  Hf  Hf43  1  0.90309965  0.50733577  0.11283193  1
  Hf  Hf44  1  0.80244050  0.00759974  0.00468562  1
  Hf  Hf45  1  0.60235557  0.60566170  0.79101940  1
  Hf  Hf46  1  0.59185618  -0.00753464  0.39609807  1
  Hf  Hf47  1  0.48579774  0.89983562  0.49985773  1
  Hf  Hf48  1  0.80069816  0.79441833  0.40679459  1
  Hf  Hf49  1  0.59209576  0.78600528  0.22211491  1
  Zr  Zr50  1  0.20091756  0.20063692  0.39099290  1
  Zr  Zr51  1  0.50040720  0.30487510  0.28494310  1
  Zr  Zr52  1  0.40587924  0.39686885  0.80285691  1
  Zr  Zr53  1  0.49574986  0.09491239  0.50460034  1
  Zr  Zr54  1  -0.00351131  0.60491782  0.59800453  1
  Zr  Zr55  1  0.19893996  0.78958294  0.00400569  1
  Zr  Zr56  1  0.20561162  0.39311540  0.80532636  1
  Zr  Zr57  1  0.19920076  0.60248916  0.59603454  1
  Zr  Zr58  1  0.09712227  0.90928116  0.91871197  1
  Zr  Zr59  1  0.29636440  0.49778244  0.69890053  1
  Zr  Zr60  1  0.09593867  0.89509580  0.69522097  1
  Zr  Zr61  1  0.19969755  0.01088264  0.39772004  1
  Zr  Zr62  1  0.80354647  -0.00483130  0.79619265  1
  Zr  Zr63  1  0.60276970  0.40044023  0.79422217  1
  Zr  Zr64  1  0.88323843  0.29922863  0.51112144  1
  Zr  Zr65  1  0.70335941  0.68964091  0.11071608  1
  Zr  Zr66  1  0.50235803  0.11964052  0.11334373  1
  Zr  Zr67  1  0.29436250  0.90475079  0.10360606  1
  Zr  Zr68  1  -0.00440561  0.00464415  0.80042876  1
  Zr  Zr69  1  0.50175952  0.70690366  0.49131268  1
  Zr  Zr70  1  0.08985914  0.50704280  0.29690382  1
  Zr  Zr71  1  0.70255272  0.29865268  0.30001766  1
  Zr  Zr72  1  0.31496309  0.09277038  0.50232698  1
  Zr  Zr73  1  0.69413400  0.89511330  0.89953163  1
  Zr  Zr74  1  0.59279162  0.21239782  0.79281312  1
  Zr  Zr75  1  0.40438178  0.00449520  0.01473831  1
  Zr  Zr76  1  0.40127101  0.79061381  -0.00048958  1
  Zr  Zr77  1  0.79592337  0.39627112  0.19656098  1
  Zr  Zr78  1  0.69992527  0.50928291  0.90842403  1
  Zr  Zr79  1  0.19986005  0.20297033  0.20197423  1
  Zr  Zr80  1  0.40122560  0.59509998  -0.00083429  1
  Zr  Zr81  1  0.00101618  0.19832789  0.59701840  1
  Zr  Zr82  1  0.50984807  0.50822851  0.49318626  1
  Zr  Zr83  1  0.89824581  0.09545528  0.50317156  1
  Zr  Zr84  1  0.80691078  0.40805179  -0.00129296  1
  Zr  Zr85  1  0.90018412  0.28754465  0.09517953  1
  Zr  Zr86  1  -0.00740993  0.40141322  0.80294064  1
  Zr  Zr87  1  0.70190540  0.10447154  0.88973398  1
  Zr  Zr88  1  0.09427720  0.67564633  0.10315749  1
  Zr  Zr89  1  0.49800925  0.09643697  0.69443019  1
  Zr  Zr90  1  0.20514860  0.39808787  0.00980177  1
  Zr  Zr91  1  0.29883636  0.90429442  0.90582369  1
  Zr  Zr92  1  0.80435019  0.79560314  0.79261330  1
  Zr  Zr93  1  0.57221514  -0.01345662  0.20424933  1
  Zr  Zr94  1  0.59668887  -0.00008539  0.00744192  1
  Zr  Zr95  1  0.29845916  0.68534220  0.10540342  1
  Zr  Zr96  1  0.20091305  0.79739664  0.79940047  1
  Zr  Zr97  1  0.60265326  0.40510951  0.39854134  1
  Zr  Zr98  1  0.09839760  0.10130056  0.69846396  1
  Zr  Zr99  1  0.58953777  0.19984237  0.39934172  1
  Ta  Ta100  1  0.00247472  0.19715885  0.39248717  1
  Ta  Ta101  1  -0.00580037  0.79505082  0.60066374  1
  Ta  Ta102  1  0.60219851  -0.00827271  0.60216153  1
  Ta  Ta103  1  0.30024529  0.50587558  0.90592829  1
  Ta  Ta104  1  0.80062690  0.19498971  0.19752409  1
  Ta  Ta105  1  0.80531986  -0.00637850  0.39704249  1
  Ta  Ta106  1  0.19840766  0.01336611  0.19710017  1
  Ta  Ta107  1  -0.00408913  0.60211616  0.79296512  1
  Ta  Ta108  1  0.38527468  0.20158525  0.20783863  1
  Ta  Ta109  1  0.09901510  0.49917930  0.69936206  1
  Ta  Ta110  1  -0.00270656  0.39842947  -0.00209135  1
  Ta  Ta111  1  -0.00765503  0.40021457  0.60576633  1
  Ta  Ta112  1  0.70171548  0.51306068  0.29655449  1
  Ta  Ta113  1  0.40619503  0.21793956  0.59377537  1
  Ta  Ta114  1  0.20667190  0.19871659  0.00742628  1
  Ta  Ta115  1  0.30789663  0.10539154  0.69519487  1
  Ta  Ta116  1  0.79761761  -0.01151965  0.59980389  1
  Ta  Ta117  1  0.09402349  0.09897908  0.09630616  1
  Ta  Ta118  1  0.39597975  0.20585632  0.39391450  1
  Ta  Ta119  1  0.30234051  0.10411553  0.90637406  1
  Ta  Ta120  1  0.39528793  0.60113996  0.59141287  1
  Ta  Ta121  1  0.50124615  0.68990255  0.11175463  1
  Ta  Ta122  1  0.79634007  0.60886829  0.59849084  1
  Ta  Ta123  1  0.89750850  0.69151934  0.10411148  1
  Ta  Ta124  1  0.59172059  0.79661048  0.01565626  1
  Ta  Ta125  1  0.59427065  0.79071574  0.78822016  1
  Ta  Ta126  1  0.39977285  0.40368725  0.58772250  1
  Ta  Ta127  1  0.80229101  0.79690800  0.59719394  1
  Ta  Ta128  1  0.29664513  0.70924094  0.49524399  1
  Ta  Ta129  1  0.79558896  0.60411338  0.40984947  1
  Ta  Ta130  1  0.80363411  0.59931343  0.79524002  1
  Ta  Ta131  1  0.81017905  0.80050820  0.20979582  1
  Ta  Ta132  1  0.70095615  0.09957381  0.69342194  1
  Ta  Ta133  1  0.40276231  0.78999250  0.79904605  1
  Ta  Ta134  1  0.10532708  0.70841415  0.50133218  1
  Ta  Ta135  1  0.80551785  0.19338506  0.39430140  1
  Ta  Ta136  1  0.21031605  0.19862750  0.80277704  1
  Ta  Ta137  1  0.49736147  0.10494615  0.90071030  1
  Ta  Ta138  1  0.20700352  0.19679630  0.59557932  1
  Ta  Ta139  1  0.89590421  0.50186296  0.69329570  1
  Ta  Ta140  1  0.70350520  0.29893787  0.50121640  1
  Ta  Ta141  1  0.69835221  0.89795170  0.69881964  1
  Ta  Ta142  1  0.29910872  0.30085141  0.69025689  1
  Ta  Ta143  1  0.09059748  0.29308136  0.09792512  1
  Ta  Ta144  1  0.60280036  0.39817757  0.59939922  1
  Ta  Ta145  1  0.59593159  0.21048664  0.59774474  1
  Ta  Ta146  1  0.89748104  0.28704098  0.89881184  1
  Ta  Ta147  1  0.89067625  0.10278114  0.69364629  1
  Ta  Ta148  1  0.29580912  0.69781059  0.29869386  1
  Ta  Ta149  1  0.60712512  0.40919542  0.19049505  1
  Ti  Ti150  1  0.90397038  0.90212741  0.50646406  1
  Ti  Ti151  1  0.39999178  0.79424146  0.60510115  1
  Ti  Ti152  1  0.89424733  0.50043876  0.50242088  1
  Ti  Ti153  1  0.69684772  0.89680514  0.49843799  1
  Ti  Ti154  1  0.40693135  0.00880764  0.37705979  1
  Ti  Ti155  1  0.49499229  0.49630443  0.10423917  1
  Ti  Ti156  1  0.89728692  0.29416950  0.29922001  1
  Ti  Ti157  1  0.29767724  0.30562590  0.50243682  1
  Ti  Ti158  1  -0.00252015  0.79363326  0.79094597  1
  Ti  Ti159  1  0.10501114  0.10179619  0.90657955  1
  Ti  Ti160  1  0.70378380  0.50050672  0.50066402  1
  Ti  Ti161  1  -0.00173942  0.19201305  -0.00201090  1
  Ti  Ti162  1  0.30315278  0.49863801  0.28911310  1
  Ti  Ti163  1  0.31409085  0.30938325  0.10159276  1
  Ti  Ti164  1  0.90426456  0.09941657  0.10512598  1
  Ti  Ti165  1  0.40082221  0.60726298  0.80224300  1
  Ti  Ti166  1  0.50493042  0.69831745  0.90087862  1
  Ti  Ti167  1  0.40228033  0.59605969  0.20447431  1
  Ti  Ti168  1  0.19910257  0.59246279  0.20412196  1
  Ti  Ti169  1  0.20152332  0.60249597  0.39746282  1
  Ti  Ti170  1  0.49798057  0.89538580  0.69794795  1
  Ti  Ti171  1  0.39606084  0.19945312  0.00463414  1
  Ti  Ti172  1  0.79691934  0.40172913  0.40252210  1
  Ti  Ti173  1  -0.00640668  0.20056592  0.79533078  1
  Ti  Ti174  1  0.39429323  0.00924704  0.20421578  1
  Ti  Ti175  1  0.70372259  0.10092978  0.10956178  1
  Ti  Ti176  1  0.89710103  0.10812452  0.89994357  1
  Ti  Ti177  1  0.09849495  0.49550241  0.10055802  1
  Ti  Ti178  1  0.30119246  0.89056165  0.50096785  1
  Ti  Ti179  1  0.00338741  0.19608616  0.20976372  1
  Ti  Ti180  1  0.89842615  0.69794111  0.90323168  1
  Ti  Ti181  1  0.50837678  0.50710391  0.29059129  1
  Ti  Ti182  1  0.00146752  0.60567701  0.40985616  1
  Ti  Ti183  1  0.00343797  0.79622535  0.01347428  1
  Ti  Ti184  1  0.40163672  0.79516913  0.38718497  1
  Ti  Ti185  1  0.49692347  0.30634601  0.91637875  1
  Ti  Ti186  1  0.60653835  0.40342996  0.00755885  1
  Ti  Ti187  1  0.60854316  0.62298667  0.38432470  1
  Ti  Ti188  1  0.19623798  0.79504268  0.39407525  1
  Ti  Ti189  1  0.40387805  0.79940727  0.20324860  1
  Ti  Ti190  1  0.59250155  0.59894947  0.00840069  1
  Ti  Ti191  1  0.59737794  -0.00183824  0.79420941  1
  Ti  Ti192  1  0.89981926  0.69909294  0.69666181  1
  Ti  Ti193  1  0.70416560  0.51237585  0.10255021  1
  Ti  Ti194  1  0.19854947  0.60456906  0.79886973  1
  Ti  Ti195  1  0.89749081  0.09157974  0.28982116  1
  Ti  Ti196  1  0.00338093  0.39007256  0.20086247  1
  Ti  Ti197  1  0.50112184  0.49607067  0.90451035  1
  Ti  Ti198  1  0.30626593  0.30097249  0.90983277  1
  Ti  Ti199  1  0.30214974  0.89635294  0.69207551  1
  Mo  Mo200  1  0.20037200  0.58960304  -0.00275934  1
  Mo  Mo201  1  0.00419253  0.00964932  0.20103984  1
  Mo  Mo202  1  0.70291732  0.70297355  0.49841903  1
  Mo  Mo203  1  0.80396491  0.19047620  0.00509408  1
  Mo  Mo204  1  0.90042910  0.89913184  0.68963219  1
  Mo  Mo205  1  0.48688891  0.89127955  0.30527511  1
  Mo  Mo206  1  0.69965934  0.29673571  0.09985781  1
  Mo  Mo207  1  0.29848259  0.10515845  0.09941993  1
  Mo  Mo208  1  -0.00124617  0.01622705  0.00098982  1
  Mo  Mo209  1  0.90065816  0.29743900  0.70127184  1
  Mo  Mo210  1  0.79781242  0.41813458  0.59504636  1
  Mo  Mo211  1  0.10480460  0.69265184  0.30990033  1
  Mo  Mo212  1  0.50241885  0.30588462  0.49943926  1
  Mo  Mo213  1  0.79310999  0.18718893  0.59584899  1
  Mo  Mo214  1  0.59606689  0.59346334  0.20205635  1
  Mo  Mo215  1  0.48621220  0.69407824  0.29847708  1
  Mo  Mo216  1  -0.00829937  -0.00625729  0.59911646  1
  Mo  Mo217  1  0.61180548  0.21043712  0.19493527  1
  Mo  Mo218  1  0.39827408  -0.01867694  0.60996962  1
  Mo  Mo219  1  0.49324102  0.88243534  0.10863701  1
  Mo  Mo220  1  0.48777393  0.69911830  0.69773167  1
  Mo  Mo221  1  0.09383292  0.69915483  0.70157863  1
  Mo  Mo222  1  0.29978427  0.68647421  0.89012452  1
  Mo  Mo223  1  0.08660376  0.29888486  0.29469958  1
  Mo  Mo224  1  0.49306429  0.10930609  0.29913899  1
  Mo  Mo225  1  0.70573900  0.50291837  0.69225237  1
  Mo  Mo226  1  0.90259408  0.69805189  0.50072288  1
  Mo  Mo227  1  0.81048671  0.19859667  0.79278248  1
  Mo  Mo228  1  0.30248423  0.49812016  0.10683759  1
  Mo  Mo229  1  0.80824964  0.00202922  0.20340976  1
  Mo  Mo230  1  0.30228560  0.09945076  0.29731159  1
  Mo  Mo231  1  0.71030276  0.69857203  0.30382079  1
  Mo  Mo232  1  0.39979002  0.41124903  0.19807353  1
  Mo  Mo233  1  0.79661256  0.60126504  0.20630946  1
  Mo  Mo234  1  0.19631719  0.01626617  0.00438498  1
  Mo  Mo235  1  0.80595357  0.60525360  -0.00192503  1
  Mo  Mo236  1  0.00138084  0.59543595  0.20156268  1
  Mo  Mo237  1  0.71061283  0.70335977  0.70090789  1
  Mo  Mo238  1  0.09872975  0.10443569  0.49893890  1
  Mo  Mo239  1  0.29915736  0.50389473  0.49576304  1
  Mo  Mo240  1  0.49563061  0.31045784  0.68660583  1
  Mo  Mo241  1  0.90119348  0.50393672  0.89075696  1
  Mo  Mo242  1  0.40216198  0.40371892  -0.00014259  1
  Mo  Mo243  1  0.30547705  0.30573517  0.29960602  1
  Mo  Mo244  1  0.89822820  0.90506358  0.30016044  1
  Mo  Mo245  1  0.20302066  0.80201672  0.59241173  1
  Mo  Mo246  1  0.20424963  0.39824918  0.59797090  1
  Mo  Mo247  1  0.09484530  0.10422977  0.29352937  1
  Mo  Mo248  1  0.59953396  0.79879176  0.40275161  1
  Mo  Mo249  1  0.09705344  0.91676496  0.10257765  1
