# generated using pymatgen
data_HfZrTaTiMo
_symmetry_space_group_name_H-M   'P 1'
_cell_length_a   16.88206075
_cell_length_b   16.88254284
_cell_length_c   16.89051063
_cell_angle_alpha   89.99848883
_cell_angle_beta   90.03593260
_cell_angle_gamma   90.02289939
_symmetry_Int_Tables_number   1
_chemical_formula_structural   HfZrTaTiMo
_chemical_formula_sum   'Hf50 Zr50 Ta50 Ti50 Mo50'
_cell_volume   4813.99880766
_cell_formula_units_Z   50
loop_
 _symmetry_equiv_pos_site_id
 _symmetry_equiv_pos_as_xyz
  1  'x, y, z'
loop_
 _atom_site_type_symbol
 _atom_site_label
 _atom_site_symmetry_multiplicity
 _atom_site_fract_x
 _atom_site_fract_y
 _atom_site_fract_z
 _atom_site_occupancy
  Hf  Hf0  1  0.69021622  0.09620010  0.89198607  1
  Hf  Hf1  1  0.69683865  0.70230260  0.90531574  1
  Hf  Hf2  1  0.69238498  0.09909219  0.69842850  1
  Hf  Hf3  1  0.50348771  0.10197609  0.70442138  1
  Hf  Hf4  1  0.59136854  0.40017262  0.79795730  1
  Hf  Hf5  1  0.90423409  0.29834962  0.90322840  1
  Hf  Hf6  1  0.60214556  0.80215897  0.39099072  1
  Hf  Hf7  1  0.20462699  0.80772620  0.59824051  1
  Hf  Hf8  1  0.20075436  0.79692222  0.39418303  1
  Hf  Hf9  1  0.89306999  0.49666082  0.89445272  1
  Hf  Hf10  1  0.30360768  0.49859806  0.50454544  1
  Hf  Hf11  1  0.59265982  0.00548279  0.19899577  1
  Hf  Hf12  1  0.90606636  0.29487006  0.50674082  1
  Hf  Hf13  1  0.59483788  -0.00555729  -0.00443281  1
  Hf  Hf14  1  0.00735447  0.40083659  0.20410622  1
  Hf  Hf15  1  0.60101784  0.59431371  0.40755912  1
  Hf  Hf16  1  0.20996806  0.00763499  0.60794380  1
  Hf  Hf17  1  0.88947589  0.70107665  0.28291327  1
  Hf  Hf18  1  0.11558280  0.49512472  0.69621092  1
  Hf  Hf19  1  0.50487252  0.89710693  0.49592971  1
  Hf  Hf20  1  0.89521901  0.09936763  0.29280955  1
  Hf  Hf21  1  0.39658489  0.39843475  0.20169159  1
  Hf  Hf22  1  0.10121252  0.70205963  0.69813625  1
  Hf  Hf23  1  0.69578150  0.70805523  0.50773910  1
  Hf  Hf24  1  0.30312579  0.29653235  0.29845771  1
  Hf  Hf25  1  0.90468546  0.29664123  0.29681206  1
  Hf  Hf26  1  0.49513543  0.29970709  0.51234990  1
  Hf  Hf27  1  0.40801538  0.59828825  0.79963822  1
  Hf  Hf28  1  0.19919011  0.19204106  -0.00948089  1
  Hf  Hf29  1  0.49660006  0.29542941  0.09805533  1
  Hf  Hf30  1  0.50049202  0.49875439  0.09920284  1
  Hf  Hf31  1  0.10055247  0.90121040  0.09956142  1
  Hf  Hf32  1  0.39495744  0.00684412  0.00690453  1
  Hf  Hf33  1  0.00007636  0.79199500  0.00272829  1
  Hf  Hf34  1  0.20593349  0.59911380  0.80214260  1
  Hf  Hf35  1  0.69205635  0.30232601  0.90235009  1
  Hf  Hf36  1  0.00082104  -0.00536785  0.39876105  1
  Hf  Hf37  1  0.60361817  0.40348636  0.59730152  1
  Hf  Hf38  1  0.59954310  0.80385658  0.20501073  1
  Hf  Hf39  1  0.90691112  0.90802993  0.70002002  1
  Hf  Hf40  1  0.69519725  0.90709003  0.69517613  1
  Hf  Hf41  1  -0.00101588  0.59602153  0.19726674  1
  Hf  Hf42  1  0.00025907  0.59486395  0.59817743  1
  Hf  Hf43  1  0.40361246  0.79849056  0.60882551  1
  Hf  Hf44  1  0.80595288  0.59340620  0.40262140  1
  Hf  Hf45  1  0.90580602  0.09748783  0.09193322  1
  Hf  Hf46  1  0.79874342  0.80802814  0.39547162  1
  Hf  Hf47  1  0.70863980  0.49862952  0.71215651  1
  Hf  Hf48  1  0.30347804  0.70284788  0.90505607  1
  Hf  Hf49  1  0.49457871  0.69819022  0.49670235  1
  Zr  Zr50  1  0.00159861  0.59400723  0.39859683  1
  Zr  Zr51  1  0.40250480  0.79386241  0.79488036  1
  Zr  Zr52  1  0.90229556  0.91157089  0.90794474  1
  Zr  Zr53  1  0.59976598  0.39191601  0.20460567  1
  Zr  Zr54  1  0.88950999  0.90055981  0.09891575  1
  Zr  Zr55  1  0.19660493  -0.00068918  0.40325264  1
  Zr  Zr56  1  0.80453998  0.60198826  0.00839343  1
  Zr  Zr57  1  0.90078707  0.91028786  0.51254243  1
  Zr  Zr58  1  0.09564653  0.28913821  0.09531230  1
  Zr  Zr59  1  0.09469987  0.91012470  0.70309204  1
  Zr  Zr60  1  0.60229003  0.40098447  0.40738623  1
  Zr  Zr61  1  0.70432465  0.50727300  0.28951385  1
  Zr  Zr62  1  0.30399841  0.90343208  0.90247478  1
  Zr  Zr63  1  0.49457282  0.88790541  0.09322249  1
  Zr  Zr64  1  0.39914763  0.59508271  -0.00368713  1
  Zr  Zr65  1  0.38911081  0.19548239  0.61023839  1
  Zr  Zr66  1  0.48814776  0.50934607  0.30321430  1
  Zr  Zr67  1  0.80111597  0.40202751  0.40763234  1
  Zr  Zr68  1  0.20385411  0.80479325  0.00311430  1
  Zr  Zr69  1  0.89767298  0.30592496  0.70844763  1
  Zr  Zr70  1  0.09740538  0.10459110  0.28817137  1
  Zr  Zr71  1  0.70785889  0.70753990  0.10538840  1
  Zr  Zr72  1  0.89901215  0.69966256  0.89812066  1
  Zr  Zr73  1  0.00845935  0.80324197  0.39540810  1
  Zr  Zr74  1  0.49458391  0.10003554  0.88933194  1
  Zr  Zr75  1  0.30791984  0.90014675  0.49089136  1
  Zr  Zr76  1  0.79555637  0.80929847  0.80572464  1
  Zr  Zr77  1  0.78713017  0.20436813  0.19734653  1
  Zr  Zr78  1  0.10988568  0.69543300  0.10535826  1
  Zr  Zr79  1  0.19393327  0.39686879  0.39618416  1
  Zr  Zr80  1  0.00586268  0.20716688  0.39860702  1
  Zr  Zr81  1  0.69830312  0.69575727  0.69994582  1
  Zr  Zr82  1  0.90586664  0.71244608  0.50587275  1
  Zr  Zr83  1  0.20599840  0.38900842  0.80891325  1
  Zr  Zr84  1  0.49778294  0.69813511  0.09838769  1
  Zr  Zr85  1  0.90572736  0.29121583  0.09725413  1
  Zr  Zr86  1  0.60071181  0.20461992  0.39303748  1
  Zr  Zr87  1  0.79270436  0.39885220  0.00655133  1
  Zr  Zr88  1  0.80336217  0.19463079  0.80018689  1
  Zr  Zr89  1  0.08689920  0.10157986  0.51879341  1
  Zr  Zr90  1  0.50226310  0.10156732  0.50049351  1
  Zr  Zr91  1  0.70341597  0.09190013  0.09812498  1
  Zr  Zr92  1  -0.00795624  0.41140209  0.60282622  1
  Zr  Zr93  1  0.90593788  0.70711226  0.70232685  1
  Zr  Zr94  1  0.39841468  0.00262994  0.19750760  1
  Zr  Zr95  1  0.70058069  0.09631027  0.50392262  1
  Zr  Zr96  1  0.80789553  0.58483791  0.59471734  1
  Zr  Zr97  1  0.20088951  0.19902589  0.40841002  1
  Zr  Zr98  1  0.59023455  0.79575585  0.79917208  1
  Zr  Zr99  1  0.39318961  0.00087664  0.60517682  1
  Ta  Ta100  1  0.29983940  0.30460250  0.50807371  1
  Ta  Ta101  1  0.00396010  0.00068324  0.19428856  1
  Ta  Ta102  1  0.69824715  0.90616548  0.50192745  1
  Ta  Ta103  1  0.80035463  0.00288268  0.80082527  1
  Ta  Ta104  1  0.49225178  0.49345570  0.69428387  1
  Ta  Ta105  1  0.00681689  0.40388629  0.80310255  1
  Ta  Ta106  1  0.59378485  0.59240713  0.59954232  1
  Ta  Ta107  1  0.10221345  0.69644260  0.89756942  1
  Ta  Ta108  1  0.79857297  0.20192155  0.60080383  1
  Ta  Ta109  1  0.29550927  0.49613546  0.09962349  1
  Ta  Ta110  1  0.49762781  0.29958387  0.90497993  1
  Ta  Ta111  1  0.20538022  0.19720369  0.61079304  1
  Ta  Ta112  1  0.29693577  0.69073357  0.69050380  1
  Ta  Ta113  1  0.48978534  0.69444278  0.29570944  1
  Ta  Ta114  1  0.19940531  0.20171432  0.19702584  1
  Ta  Ta115  1  0.19952775  0.39775508  0.19947661  1
  Ta  Ta116  1  0.69607077  0.50421643  0.89776967  1
  Ta  Ta117  1  0.30187832  0.69200675  0.49933924  1
  Ta  Ta118  1  0.10377751  0.50119131  0.90395935  1
  Ta  Ta119  1  0.70566413  0.89781564  0.09215185  1
  Ta  Ta120  1  0.39401443  0.39535546  -0.00584998  1
  Ta  Ta121  1  0.79584557  0.19490755  -0.00451442  1
  Ta  Ta122  1  0.20344372  0.00361167  0.18995848  1
  Ta  Ta123  1  0.20309279  0.19804033  0.79938188  1
  Ta  Ta124  1  0.39803780  0.20132552  0.40081351  1
  Ta  Ta125  1  0.00609444  0.40682110  -0.00162150  1
  Ta  Ta126  1  0.38783217  0.79834230  0.20202144  1
  Ta  Ta127  1  0.89689327  0.09994826  0.50923389  1
  Ta  Ta128  1  0.00338342  0.59637858  0.00064344  1
  Ta  Ta129  1  0.00341578  0.59244316  0.79979966  1
  Ta  Ta130  1  0.59961195  -0.00080944  0.38829665  1
  Ta  Ta131  1  0.30373180  0.49703738  0.69213361  1
  Ta  Ta132  1  0.09702667  0.10055215  0.70972982  1
  Ta  Ta133  1  0.40025235  0.39572714  0.80148434  1
  Ta  Ta134  1  0.90219721  0.49926636  0.10205722  1
  Ta  Ta135  1  0.70000689  0.30046979  0.69827161  1
  Ta  Ta136  1  0.19978595  0.00607163  0.00027046  1
  Ta  Ta137  1  0.30084919  0.10374453  0.29683647  1
  Ta  Ta138  1  0.10304998  0.30285796  0.52058708  1
  Ta  Ta139  1  0.19858356  0.60137633  0.39991954  1
  Ta  Ta140  1  0.39414253  0.19890852  -0.00175850  1
  Ta  Ta141  1  0.29830494  0.29918305  0.09705797  1
  Ta  Ta142  1  0.80285794  0.40390904  0.19873364  1
  Ta  Ta143  1  0.20192793  0.80613325  0.79835593  1
  Ta  Ta144  1  0.79546550  0.20165537  0.40608542  1
  Ta  Ta145  1  0.10326099  0.89925864  0.28715743  1
  Ta  Ta146  1  0.10728788  0.50240031  0.29754259  1
  Ta  Ta147  1  0.70928271  0.90970008  0.28896889  1
  Ta  Ta148  1  0.09787715  0.29279044  0.70094074  1
  Ta  Ta149  1  0.39552003  0.79523317  0.38874913  1
  Ti  Ti150  1  0.01162288  0.80673031  0.81263865  1
  Ti  Ti151  1  0.58781297  0.60142745  0.79838801  1
  Ti  Ti152  1  0.39022171  0.21260565  0.80209620  1
  Ti  Ti153  1  0.40535244  0.39763645  0.40290612  1
  Ti  Ti154  1  0.30453970  0.68742270  0.29986497  1
  Ti  Ti155  1  0.10701078  0.69992638  0.50637059  1
  Ti  Ti156  1  0.79622506  0.80750256  0.60230042  1
  Ti  Ti157  1  0.40637230  0.59575375  0.59872932  1
  Ti  Ti158  1  0.59825985  0.60068005  -0.00339509  1
  Ti  Ti159  1  0.59251595  0.19186293  0.00363442  1
  Ti  Ti160  1  0.90418161  0.09711140  0.90384808  1
  Ti  Ti161  1  0.49734174  0.89164035  0.90262888  1
  Ti  Ti162  1  0.40053358  0.00892303  0.39576538  1
  Ti  Ti163  1  0.48951605  0.11171081  0.29404711  1
  Ti  Ti164  1  0.70269787  0.30144546  0.30154966  1
  Ti  Ti165  1  0.79886934  0.00147199  0.39907864  1
  Ti  Ti166  1  0.10750918  0.49819027  0.09640183  1
  Ti  Ti167  1  0.70325581  0.09587283  0.29857251  1
  Ti  Ti168  1  0.30471867  0.69506586  0.10342248  1
  Ti  Ti169  1  0.29830422  0.90736787  0.29671338  1
  Ti  Ti170  1  0.00422921  0.19273292  0.80601724  1
  Ti  Ti171  1  0.49144203  0.89950209  0.30112698  1
  Ti  Ti172  1  0.90913396  0.09590467  0.69243457  1
  Ti  Ti173  1  0.59147373  0.21361984  0.79243905  1
  Ti  Ti174  1  0.59660548  -0.00108676  0.59520622  1
  Ti  Ti175  1  0.68889729  0.30004945  0.09338098  1
  Ti  Ti176  1  0.89596895  0.90456657  0.28744899  1
  Ti  Ti177  1  0.00537099  0.40352508  0.39844376  1
  Ti  Ti178  1  0.59290497  0.19947024  0.20228193  1
  Ti  Ti179  1  0.59974554  0.60368162  0.19967646  1
  Ti  Ti180  1  0.50769208  0.90451197  0.69879910  1
  Ti  Ti181  1  0.21094639  0.80353241  0.20078393  1
  Ti  Ti182  1  0.01897673  0.00862778  -0.00727449  1
  Ti  Ti183  1  0.79940930  0.40251589  0.59590153  1
  Ti  Ti184  1  0.29911980  0.09688716  0.88903081  1
  Ti  Ti185  1  0.69432935  0.50102642  0.09853394  1
  Ti  Ti186  1  0.70532924  0.69912594  0.29320606  1
  Ti  Ti187  1  0.50532888  0.49427167  0.90516886  1
  Ti  Ti188  1  0.30131603  0.11005979  0.10623399  1
  Ti  Ti189  1  0.29812646  0.30865394  0.69547839  1
  Ti  Ti190  1  0.10993624  0.49765467  0.50313163  1
  Ti  Ti191  1  0.30047206  0.50462993  0.30244391  1
  Ti  Ti192  1  0.20109285  0.39439748  -0.00131348  1
  Ti  Ti193  1  0.29839633  0.49417699  0.90272830  1
  Ti  Ti194  1  0.39320349  -0.00755161  0.79037549  1
  Ti  Ti195  1  0.20031467  0.59676211  -0.00056973  1
  Ti  Ti196  1  0.09430253  0.29560626  0.90037097  1
  Ti  Ti197  1  -0.00304840  0.79935823  0.19605611  1
  Ti  Ti198  1  0.20632269  0.59307831  0.20188235  1
  Ti  Ti199  1  0.10524794  0.69939742  0.29153232  1
  Mo  Mo200  1  0.90702349  0.49090401  0.48990108  1
  Mo  Mo201  1  0.79288049  0.39915328  0.80383491  1
  Mo  Mo202  1  0.59466041  0.40632318  -0.00332405  1
  Mo  Mo203  1  0.39235860  0.60241276  0.39953087  1
  Mo  Mo204  1  0.70279688  0.50109035  0.50770814  1
  Mo  Mo205  1  0.09772872  0.89796320  0.50233150  1
  Mo  Mo206  1  0.20259899  0.39360900  0.60168175  1
  Mo  Mo207  1  0.01539654  0.80657517  0.59239434  1
  Mo  Mo208  1  0.00020420  0.00461237  0.60551858  1
  Mo  Mo209  1  0.39997292  0.79648640  0.00434252  1
  Mo  Mo210  1  0.80108944  0.00711450  0.60509285  1
  Mo  Mo211  1  0.80441104  0.59690708  0.80235752  1
  Mo  Mo212  1  0.29636686  0.09921156  0.72008285  1
  Mo  Mo213  1  0.49940683  0.68625509  0.69128997  1
  Mo  Mo214  1  0.60505899  0.20855804  0.60621078  1
  Mo  Mo215  1  0.30373789  0.29597232  0.90270983  1
  Mo  Mo216  1  0.10036702  0.09739266  0.89431624  1
  Mo  Mo217  1  0.10288669  0.90314491  0.89925853  1
  Mo  Mo218  1  0.69944813  0.90468174  0.90146576  1
  Mo  Mo219  1  0.49648761  0.30105476  0.70687899  1
  Mo  Mo220  1  0.10429483  0.30457895  0.29360582  1
  Mo  Mo221  1  0.90273426  0.69681290  0.09966080  1
  Mo  Mo222  1  0.49410227  0.29386584  0.30192965  1
  Mo  Mo223  1  0.59378155  -0.01153069  0.79976636  1
  Mo  Mo224  1  0.49830570  0.11124503  0.09957406  1
  Mo  Mo225  1  0.20302007  0.60133919  0.59463794  1
  Mo  Mo226  1  0.29720597  0.89892842  0.70869879  1
  Mo  Mo227  1  0.80308083  0.00054964  0.20084299  1
  Mo  Mo228  1  0.89745660  0.50004716  0.71658268  1
  Mo  Mo229  1  0.39911802  0.39955414  0.60593753  1
  Mo  Mo230  1  0.00139343  0.19358454  -0.01130382  1
  Mo  Mo231  1  0.70548906  0.29555673  0.51020271  1
  Mo  Mo232  1  0.50555003  0.69869608  0.90690658  1
  Mo  Mo233  1  0.30065197  0.10724749  0.48932693  1
  Mo  Mo234  1  0.80273450  0.59138231  0.19627254  1
  Mo  Mo235  1  0.79833380  0.80482114  0.20067318  1
  Mo  Mo236  1  0.38597312  0.60045346  0.19936600  1
  Mo  Mo237  1  0.49375617  0.49910123  0.50420336  1
  Mo  Mo238  1  0.90549837  0.49487915  0.29521762  1
  Mo  Mo239  1  0.10281190  0.09682739  0.09474889  1
  Mo  Mo240  1  0.59748224  0.80152314  0.59710077  1
  Mo  Mo241  1  0.29684060  0.90004112  0.10500546  1
  Mo  Mo242  1  0.60008430  0.80084352  -0.00661756  1
  Mo  Mo243  1  0.79159076  0.00249956  -0.01134334  1
  Mo  Mo244  1  -0.00236014  0.20069048  0.61268814  1
  Mo  Mo245  1  -0.00118111  0.01104118  0.80477261  1
  Mo  Mo246  1  0.19646820  0.00333040  0.80803929  1
  Mo  Mo247  1  0.39560321  0.20058646  0.19861881  1
  Mo  Mo248  1  0.79661350  0.80504905  0.00241282  1
  Mo  Mo249  1  0.00620440  0.19616547  0.19479391  1
