# generated using pymatgen
data_HfZrTaTiMo
_symmetry_space_group_name_H-M   'P 1'
_cell_length_a   16.88285749
_cell_length_b   16.88458887
_cell_length_c   16.89075089
_cell_angle_alpha   89.96607609
_cell_angle_beta   90.01113953
_cell_angle_gamma   89.96664722
_symmetry_Int_Tables_number   1
_chemical_formula_structural   HfZrTaTiMo
_chemical_formula_sum   'Hf50 Zr50 Ta50 Ti50 Mo50'
_cell_volume   4814.87751534
_cell_formula_units_Z   50
loop_
 _symmetry_equiv_pos_site_id
 _symmetry_equiv_pos_as_xyz
  1  'x, y, z'
loop_
 _atom_site_type_symbol
 _atom_site_label
 _atom_site_symmetry_multiplicity
 _atom_site_fract_x
 _atom_site_fract_y
 _atom_site_fract_z
 _atom_site_occupancy
  Hf  Hf0  1  0.59683788  0.19516233  0.38746660  1
  Hf  Hf1  1  0.40222901  0.60030369  0.61251769  1
  Hf  Hf2  1  0.39583779  0.79961134  0.38926704  1
  Hf  Hf3  1  0.68983409  0.89501902  0.29114479  1
  Hf  Hf4  1  0.89546415  0.90217363  0.09351993  1
  Hf  Hf5  1  0.77939445  -0.01138052  0.60451221  1
  Hf  Hf6  1  0.59606705  0.00341222  0.60545104  1
  Hf  Hf7  1  0.80020760  0.80119525  0.39566105  1
  Hf  Hf8  1  0.60879535  -0.00391232  0.79152645  1
  Hf  Hf9  1  0.89823423  0.89401108  0.50068288  1
  Hf  Hf10  1  0.70798911  0.69700499  0.09234184  1
  Hf  Hf11  1  0.89380600  0.90323901  0.89936426  1
  Hf  Hf12  1  0.60253370  0.59042634  0.19627595  1
  Hf  Hf13  1  0.70594254  0.69626493  0.29175445  1
  Hf  Hf14  1  0.79493542  0.20830443  0.38377785  1
  Hf  Hf15  1  0.89916046  0.50582506  0.10151040  1
  Hf  Hf16  1  0.10286644  0.10309985  0.10160746  1
  Hf  Hf17  1  0.10057830  0.49235918  0.91018699  1
  Hf  Hf18  1  0.50115754  0.90035112  0.10504730  1
  Hf  Hf19  1  0.20133887  0.18949595  0.59300109  1
  Hf  Hf20  1  0.50161718  0.89943444  0.48787424  1
  Hf  Hf21  1  0.59670345  0.20023514  0.61146295  1
  Hf  Hf22  1  0.00125450  0.20571790  0.20305856  1
  Hf  Hf23  1  0.40162097  0.41910981  0.38835863  1
  Hf  Hf24  1  0.20879048  0.59900405  0.00061587  1
  Hf  Hf25  1  0.49821157  0.70354227  0.49203365  1
  Hf  Hf26  1  0.09800769  0.50480445  0.29357938  1
  Hf  Hf27  1  0.30464356  0.89480876  0.89524727  1
  Hf  Hf28  1  0.79569281  0.00517578  0.19987075  1
  Hf  Hf29  1  0.89519394  0.89666392  0.70612577  1
  Hf  Hf30  1  0.20568615  0.79787966  0.79340772  1
  Hf  Hf31  1  0.10157221  0.90361771  0.70294849  1
  Hf  Hf32  1  0.20456026  0.79591734  0.39508651  1
  Hf  Hf33  1  0.10238270  0.90884858  0.09772804  1
  Hf  Hf34  1  -0.00384321  0.80041727  0.20057268  1
  Hf  Hf35  1  0.50100293  0.69747937  0.90383497  1
  Hf  Hf36  1  0.69850617  0.30179983  0.90481445  1
  Hf  Hf37  1  0.20114709  0.19518540  0.80895471  1
  Hf  Hf38  1  0.20472811  0.80256828  0.00103697  1
  Hf  Hf39  1  0.00459617  0.60212277  0.79756741  1
  Hf  Hf40  1  0.79985857  0.39488142  0.60821477  1
  Hf  Hf41  1  0.90161520  0.49518171  0.70087037  1
  Hf  Hf42  1  0.30273709  0.90333330  0.49833700  1
  Hf  Hf43  1  0.69654665  0.50558116  0.90909941  1
  Hf  Hf44  1  0.38974893  0.00583370  0.79025212  1
  Hf  Hf45  1  0.89131762  0.10611740  0.50139098  1
  Hf  Hf46  1  0.10414872  0.69971056  0.90137266  1
  Hf  Hf47  1  0.59635309  0.59566019  0.38694271  1
  Hf  Hf48  1  0.39418712  0.80173996  0.61157337  1
  Hf  Hf49  1  0.09700440  0.09538592  0.70746097  1
  Zr  Zr50  1  0.09824619  0.30382048  0.69499824  1
  Zr  Zr51  1  0.70033488  0.10593746  0.50210229  1
  Zr  Zr52  1  0.30034305  0.30069770  0.69853623  1
  Zr  Zr53  1  0.79656836  0.60392795  0.59920103  1
  Zr  Zr54  1  0.49995745  0.30045971  0.10071725  1
  Zr  Zr55  1  0.10655564  0.89630158  0.50074793  1
  Zr  Zr56  1  0.89993577  0.51340690  0.29764252  1
  Zr  Zr57  1  0.60083771  0.00307067  0.39681084  1
  Zr  Zr58  1  0.50371975  0.28873607  0.89172056  1
  Zr  Zr59  1  0.00014366  0.19314381  0.82064866  1
  Zr  Zr60  1  0.50198194  0.10481115  0.89849668  1
  Zr  Zr61  1  0.40406224  0.00942071  0.60024383  1
  Zr  Zr62  1  0.29947728  0.30308777  0.90422478  1
  Zr  Zr63  1  0.09909017  0.49274460  0.10000164  1
  Zr  Zr64  1  0.40725870  0.40711083  0.79483402  1
  Zr  Zr65  1  0.60179169  0.61057431  0.60964869  1
  Zr  Zr66  1  0.30639418  0.30362443  0.49696268  1
  Zr  Zr67  1  0.10674433  0.69578401  0.50192806  1
  Zr  Zr68  1  0.30523418  0.68336245  0.29687578  1
  Zr  Zr69  1  0.00544461  0.00811609  0.40265873  1
  Zr  Zr70  1  0.70176171  0.30102026  0.50082618  1
  Zr  Zr71  1  0.00944205  0.59463269  0.59844493  1
  Zr  Zr72  1  0.00381649  0.79696263  0.80186191  1
  Zr  Zr73  1  0.10676178  0.90991545  0.29791678  1
  Zr  Zr74  1  0.40511101  0.40586288  -0.00264479  1
  Zr  Zr75  1  0.60856459  0.81237905  0.60759577  1
  Zr  Zr76  1  0.09702847  0.69629747  0.10516228  1
  Zr  Zr77  1  0.89980206  0.49872601  0.91180534  1
  Zr  Zr78  1  0.49197083  0.30012969  0.28794005  1
  Zr  Zr79  1  0.29552120  0.30194601  0.28888445  1
  Zr  Zr80  1  0.19886643  0.19784338  0.39995333  1
  Zr  Zr81  1  0.59539302  0.39449624  0.61587826  1
  Zr  Zr82  1  0.39381498  0.00690557  0.00028351  1
  Zr  Zr83  1  0.70054744  0.10362484  0.89975940  1
  Zr  Zr84  1  0.70300393  0.50179842  0.50058600  1
  Zr  Zr85  1  0.49827134  0.50568696  0.50085438  1
  Zr  Zr86  1  0.89130185  0.70390901  0.70043712  1
  Zr  Zr87  1  0.38891144  0.18682397  0.19446853  1
  Zr  Zr88  1  0.50603890  0.09429517  0.10590927  1
  Zr  Zr89  1  0.49994251  0.89098578  0.89605692  1
  Zr  Zr90  1  0.49431769  0.29709198  0.49269259  1
  Zr  Zr91  1  0.60853836  0.40348799  0.37901881  1
  Zr  Zr92  1  -0.00236316  0.38872583  0.20781062  1
  Zr  Zr93  1  0.79598689  0.20395329  0.19609584  1
  Zr  Zr94  1  0.20780743  0.80034093  0.20207347  1
  Zr  Zr95  1  0.90205313  0.09920992  0.30034754  1
  Zr  Zr96  1  0.00096114  0.39174049  0.80591299  1
  Zr  Zr97  1  0.00386601  0.00235111  0.59505158  1
  Zr  Zr98  1  0.89826916  0.09557555  0.70677453  1
  Zr  Zr99  1  0.19344169  0.40371444  0.39673189  1
  Ta  Ta100  1  0.89979850  0.70007176  0.49571431  1
  Ta  Ta101  1  0.49702736  0.90056294  0.29119066  1
  Ta  Ta102  1  0.70038617  0.50150880  0.71454070  1
  Ta  Ta103  1  0.69954271  0.70679504  0.71975721  1
  Ta  Ta104  1  0.79979422  0.39506257  0.80253612  1
  Ta  Ta105  1  0.29883149  0.50211334  0.89784472  1
  Ta  Ta106  1  0.31279821  0.69364397  0.09874978  1
  Ta  Ta107  1  0.69527094  0.70904937  0.48872146  1
  Ta  Ta108  1  0.89852279  0.29531891  0.91421097  1
  Ta  Ta109  1  0.49846486  0.69626658  0.09750807  1
  Ta  Ta110  1  0.10920426  0.10330490  0.29288062  1
  Ta  Ta111  1  0.70107209  0.70028330  0.90544369  1
  Ta  Ta112  1  0.88963335  0.70347829  0.91031005  1
  Ta  Ta113  1  0.29761516  0.49200723  0.10191835  1
  Ta  Ta114  1  0.19725290  0.40338204  0.80433108  1
  Ta  Ta115  1  -0.00238565  0.39866722  0.40225490  1
  Ta  Ta116  1  0.00003738  0.01138783  -0.01124422  1
  Ta  Ta117  1  0.79150332  -0.00487238  0.39770517  1
  Ta  Ta118  1  0.00036015  0.19972784  0.59331392  1
  Ta  Ta119  1  0.30999584  0.69600542  0.89691589  1
  Ta  Ta120  1  0.30189025  0.68999206  0.50311595  1
  Ta  Ta121  1  0.90069184  0.30119603  0.50173173  1
  Ta  Ta122  1  0.49796002  0.69979328  0.29206547  1
  Ta  Ta123  1  0.90152148  0.90204056  0.29917889  1
  Ta  Ta124  1  0.69721684  0.30622628  0.09847813  1
  Ta  Ta125  1  0.79379235  0.39935309  0.20518486  1
  Ta  Ta126  1  0.79884205  0.59938189  0.80730387  1
  Ta  Ta127  1  0.40329909  0.40296583  0.60633649  1
  Ta  Ta128  1  0.60207155  0.79809142  0.00208853  1
  Ta  Ta129  1  -0.00229338  0.00404565  0.19528125  1
  Ta  Ta130  1  0.40208235  0.19339342  0.60110237  1
  Ta  Ta131  1  0.00390604  0.79163081  0.60251271  1
  Ta  Ta132  1  0.29994469  0.50679285  0.50569313  1
  Ta  Ta133  1  0.21116356  0.00654178  0.60371262  1
  Ta  Ta134  1  0.09504414  0.68991024  0.30123066  1
  Ta  Ta135  1  0.80083276  0.20623051  0.79958060  1
  Ta  Ta136  1  0.80525562  0.39842905  0.38896034  1
  Ta  Ta137  1  0.20346162  0.00868203  -0.00696256  1
  Ta  Ta138  1  0.60893797  -0.00668438  -0.00044644  1
  Ta  Ta139  1  0.19746886  0.19734130  -0.00113530  1
  Ta  Ta140  1  0.00466362  0.20911999  0.39908158  1
  Ta  Ta141  1  0.09370906  0.30661438  0.50375028  1
  Ta  Ta142  1  0.30104844  0.90943535  0.10657562  1
  Ta  Ta143  1  0.89794230  0.30175206  0.09348509  1
  Ta  Ta144  1  0.20079311  0.59225715  0.40394657  1
  Ta  Ta145  1  -0.00138459  0.80356350  -0.00144544  1
  Ta  Ta146  1  0.60654772  0.19834778  0.00779936  1
  Ta  Ta147  1  0.28921011  0.30453209  0.10077413  1
  Ta  Ta148  1  0.70053874  0.89582734  0.09745682  1
  Ta  Ta149  1  0.20002818  0.59666868  0.79507722  1
  Ti  Ti150  1  0.20502753  0.01280472  0.41071168  1
  Ti  Ti151  1  0.49159151  0.08655456  0.29676150  1
  Ti  Ti152  1  0.10437833  0.30096831  0.09488808  1
  Ti  Ti153  1  0.29283232  0.49983719  0.69908102  1
  Ti  Ti154  1  0.29617395  0.09281880  0.29533855  1
  Ti  Ti155  1  0.09799346  0.91000860  0.89629738  1
  Ti  Ti156  1  0.79478883  0.00427482  0.80062225  1
  Ti  Ti157  1  0.80678932  0.79955257  0.19901706  1
  Ti  Ti158  1  0.50065883  0.50027856  0.09760415  1
  Ti  Ti159  1  -0.00271689  0.60899759  0.00180554  1
  Ti  Ti160  1  0.29693842  0.49850345  0.28758523  1
  Ti  Ti161  1  0.79884800  0.39884363  0.00488651  1
  Ti  Ti162  1  0.29672237  0.69296560  0.70280221  1
  Ti  Ti163  1  0.38927504  0.19349337  0.00127157  1
  Ti  Ti164  1  0.79579081  0.20338879  0.61524578  1
  Ti  Ti165  1  0.70594303  0.88878228  0.90091146  1
  Ti  Ti166  1  0.39964240  0.59665064  0.80133859  1
  Ti  Ti167  1  0.49648439  0.89072256  0.71230826  1
  Ti  Ti168  1  0.30517814  0.91835206  0.29568470  1
  Ti  Ti169  1  0.59536031  0.40607482  0.00134246  1
  Ti  Ti170  1  0.59978429  0.39713149  0.79959705  1
  Ti  Ti171  1  0.10385401  0.49582847  0.69454060  1
  Ti  Ti172  1  0.69472181  0.09478583  0.10038953  1
  Ti  Ti173  1  0.20596400  0.00553082  0.80296893  1
  Ti  Ti174  1  0.39875357  0.79795269  0.00619166  1
  Ti  Ti175  1  0.90375661  0.49502110  0.50060845  1
  Ti  Ti176  1  0.70751047  0.50404084  0.09607815  1
  Ti  Ti177  1  0.89332021  0.69710990  0.09707679  1
  Ti  Ti178  1  0.79756545  0.00590301  -0.00115320  1
  Ti  Ti179  1  0.49878728  0.11646619  0.71591172  1
  Ti  Ti180  1  0.90418011  0.69380392  0.29816400  1
  Ti  Ti181  1  0.60952999  0.19407038  0.20480409  1
  Ti  Ti182  1  0.59923537  0.59930601  0.80734131  1
  Ti  Ti183  1  0.59574079  0.79243246  0.19393332  1
  Ti  Ti184  1  0.78981621  0.80034581  0.59716399  1
  Ti  Ti185  1  0.79911816  0.19692623  0.00310171  1
  Ti  Ti186  1  0.50344667  0.70967083  0.71820065  1
  Ti  Ti187  1  0.20161271  0.59833244  0.19578128  1
  Ti  Ti188  1  0.90565933  0.29752145  0.69931345  1
  Ti  Ti189  1  0.00335318  0.59668576  0.40748458  1
  Ti  Ti190  1  0.39742724  0.79995922  0.19781739  1
  Ti  Ti191  1  0.79933067  0.59921643  0.40113815  1
  Ti  Ti192  1  0.90554998  0.10603647  0.08944646  1
  Ti  Ti193  1  0.40430278  0.59240165  -0.00151426  1
  Ti  Ti194  1  0.19739414  0.40902614  0.59448924  1
  Ti  Ti195  1  0.60447011  0.40807695  0.19834089  1
  Ti  Ti196  1  0.20339990  0.79598612  0.60676779  1
  Ti  Ti197  1  0.40565862  0.58848523  0.19753305  1
  Ti  Ti198  1  0.50792103  0.50521044  0.70816035  1
  Ti  Ti199  1  -0.00032974  0.79601709  0.39776703  1
  Mo  Mo200  1  -0.00397782  0.61047985  0.19874643  1
  Mo  Mo201  1  0.09745381  0.29888501  0.30432781  1
  Mo  Mo202  1  0.29485125  0.90278162  0.69767646  1
  Mo  Mo203  1  0.20496762  0.00786996  0.19548805  1
  Mo  Mo204  1  0.29876426  0.10376554  0.90099677  1
  Mo  Mo205  1  0.59567743  0.59802512  0.00525847  1
  Mo  Mo206  1  0.60994663  0.20320254  0.79619755  1
  Mo  Mo207  1  0.39707082  0.79139426  0.79499731  1
  Mo  Mo208  1  -0.00068009  0.38719622  0.00504748  1
  Mo  Mo209  1  0.70285544  0.10653680  0.70542595  1
  Mo  Mo210  1  0.00044066  0.19973229  0.00611148  1
  Mo  Mo211  1  0.30627525  0.09858891  0.49429484  1
  Mo  Mo212  1  0.60053189  0.79822304  0.80856143  1
  Mo  Mo213  1  0.19659303  0.20246252  0.19740361  1
  Mo  Mo214  1  0.80014562  0.60123900  0.00064141  1
  Mo  Mo215  1  0.79927393  0.80261978  0.00198555  1
  Mo  Mo216  1  -0.00358691  0.39672620  0.59417415  1
  Mo  Mo217  1  0.09908417  0.29978998  0.91706131  1
  Mo  Mo218  1  0.39908910  0.17890206  0.40111330  1
  Mo  Mo219  1  0.49745788  0.29663470  0.70186018  1
  Mo  Mo220  1  0.69549758  0.09594596  0.29173059  1
  Mo  Mo221  1  0.39547125  0.59884122  0.39605311  1
  Mo  Mo222  1  0.60120897  -0.00126839  0.19661189  1
  Mo  Mo223  1  0.50513743  0.50737486  0.89832725  1
  Mo  Mo224  1  0.10230625  0.49586080  0.49924172  1
  Mo  Mo225  1  0.11115450  0.69783690  0.69783638  1
  Mo  Mo226  1  0.20670340  0.59329359  0.60439143  1
  Mo  Mo227  1  0.20086284  0.39612761  -0.00150521  1
  Mo  Mo228  1  0.80179465  0.59988285  0.19711738  1
  Mo  Mo229  1  0.39557993  0.40924205  0.19324436  1
  Mo  Mo230  1  0.89044010  0.10059697  0.90748388  1
  Mo  Mo231  1  0.29924662  0.10286470  0.70175329  1
  Mo  Mo232  1  0.39660040  -0.00360235  0.20217868  1
  Mo  Mo233  1  0.59547843  0.79448023  0.38615937  1
  Mo  Mo234  1  0.10214127  0.10695073  0.49751495  1
  Mo  Mo235  1  0.70956303  0.50178259  0.29319449  1
  Mo  Mo236  1  0.70535711  0.89118493  0.71797500  1
  Mo  Mo237  1  0.29049852  0.10242870  0.09923121  1
  Mo  Mo238  1  0.69643910  0.30469771  0.28718847  1
  Mo  Mo239  1  0.79508973  0.79679984  0.80976839  1
  Mo  Mo240  1  -0.00017840  -0.00203628  0.81146886  1
  Mo  Mo241  1  0.10298186  0.09555016  0.90438554  1
  Mo  Mo242  1  0.39427843  0.19802699  0.79212154  1
  Mo  Mo243  1  0.49445108  0.50283511  0.28531134  1
  Mo  Mo244  1  0.19776908  0.39785103  0.19609751  1
  Mo  Mo245  1  0.69820688  0.89207056  0.48885671  1
  Mo  Mo246  1  0.89915834  0.30438875  0.30325467  1
  Mo  Mo247  1  0.49339546  0.10345453  0.49230311  1
  Mo  Mo248  1  0.39841999  0.00081136  0.39236303  1
  Mo  Mo249  1  0.70159030  0.30198334  0.71210485  1
