# generated using pymatgen
data_HfZrTaTiMo
_symmetry_space_group_name_H-M   'P 1'
_cell_length_a   16.88518202
_cell_length_b   16.87347024
_cell_length_c   16.87065475
_cell_angle_alpha   90.10135074
_cell_angle_beta   89.95912837
_cell_angle_gamma   90.04907307
_symmetry_Int_Tables_number   1
_chemical_formula_structural   HfZrTaTiMo
_chemical_formula_sum   'Hf50 Zr50 Ta50 Ti50 Mo50'
_cell_volume   4806.63501202
_cell_formula_units_Z   50
loop_
 _symmetry_equiv_pos_site_id
 _symmetry_equiv_pos_as_xyz
  1  'x, y, z'
loop_
 _atom_site_type_symbol
 _atom_site_label
 _atom_site_symmetry_multiplicity
 _atom_site_fract_x
 _atom_site_fract_y
 _atom_site_fract_z
 _atom_site_occupancy
  Hf  Hf0  1  0.49132692  0.09650675  0.69752393  1
  Hf  Hf1  1  0.29868726  0.90583619  0.90075708  1
  Hf  Hf2  1  0.40344256  -0.00469171  0.39514349  1
  Hf  Hf3  1  0.79266284  0.20351895  0.20487677  1
  Hf  Hf4  1  0.19643852  0.20211183  0.20223389  1
  Hf  Hf5  1  0.90472353  0.49898077  0.29977628  1
  Hf  Hf6  1  0.49967765  0.89360112  0.09440191  1
  Hf  Hf7  1  0.18971066  -0.00082811  0.39482493  1
  Hf  Hf8  1  0.00307741  0.60470416  -0.00215593  1
  Hf  Hf9  1  0.79861386  0.59832357  0.00139192  1
  Hf  Hf10  1  0.59200109  0.59656567  0.40406518  1
  Hf  Hf11  1  -0.00019677  0.39592889  -0.00367428  1
  Hf  Hf12  1  0.50102348  0.10347227  0.50254293  1
  Hf  Hf13  1  0.70995306  0.48127076  0.69413198  1
  Hf  Hf14  1  0.39698489  0.80069889  0.79823672  1
  Hf  Hf15  1  0.60022998  0.59615333  0.59975033  1
  Hf  Hf16  1  0.40614088  0.59738877  0.20129648  1
  Hf  Hf17  1  0.40655891  -0.00188202  0.20188005  1
  Hf  Hf18  1  0.60469202  0.19779049  0.79282480  1
  Hf  Hf19  1  0.30408132  0.70796809  0.50001310  1
  Hf  Hf20  1  0.50090511  0.70182890  0.70154540  1
  Hf  Hf21  1  0.29974483  0.30355600  0.09420010  1
  Hf  Hf22  1  0.29553213  0.30734567  0.49232155  1
  Hf  Hf23  1  0.30089725  0.10260272  0.29794018  1
  Hf  Hf24  1  0.69947341  0.49100971  0.50280514  1
  Hf  Hf25  1  0.49432095  0.49670937  0.90299094  1
  Hf  Hf26  1  0.50868296  0.30216019  0.30757280  1
  Hf  Hf27  1  0.08850676  0.29936755  0.70854084  1
  Hf  Hf28  1  0.30225254  0.31009179  0.90883500  1
  Hf  Hf29  1  0.18833807  0.79504604  0.00170643  1
  Hf  Hf30  1  0.70886555  0.30786063  0.89247140  1
  Hf  Hf31  1  0.79687525  0.58808483  0.79975488  1
  Hf  Hf32  1  0.90234303  0.29390872  0.09746107  1
  Hf  Hf33  1  -0.00146905  0.80350205  0.20054997  1
  Hf  Hf34  1  0.29978496  0.49414867  0.29726460  1
  Hf  Hf35  1  0.30005651  0.10444858  0.09489535  1
  Hf  Hf36  1  0.79944733  0.20161509  0.78737821  1
  Hf  Hf37  1  0.19608982  0.59872526  -0.00467871  1
  Hf  Hf38  1  0.80628893  0.81225374  0.80535767  1
  Hf  Hf39  1  0.29702968  0.49310881  0.08841172  1
  Hf  Hf40  1  0.00296242  0.79933705  0.80648152  1
  Hf  Hf41  1  0.18292656  0.19462925  0.40369791  1
  Hf  Hf42  1  0.60107742  0.40026027  0.00511040  1
  Hf  Hf43  1  0.29253776  0.70067094  0.29133671  1
  Hf  Hf44  1  0.90649994  0.10835302  0.49886836  1
  Hf  Hf45  1  0.19583261  0.79930183  0.79964561  1
  Hf  Hf46  1  0.49553471  0.89615910  0.50715788  1
  Hf  Hf47  1  0.69328822  0.69628608  0.10718218  1
  Hf  Hf48  1  0.79683905  0.20453847  0.40495892  1
  Hf  Hf49  1  0.69637007  0.10174370  0.30527665  1
  Zr  Zr50  1  0.89980585  0.69566444  0.70537672  1
  Zr  Zr51  1  0.60077994  0.19258849  -0.00352910  1
  Zr  Zr52  1  0.00626586  0.00027973  0.79758511  1
  Zr  Zr53  1  -0.00499435  0.60300419  0.40727534  1
  Zr  Zr54  1  0.29923198  0.88973887  0.10052793  1
  Zr  Zr55  1  0.10287588  0.89318146  0.49615663  1
  Zr  Zr56  1  0.29846745  0.50308348  0.70450425  1
  Zr  Zr57  1  0.79343408  0.39440274  0.20115967  1
  Zr  Zr58  1  0.60432698  0.80269112  -0.00628998  1
  Zr  Zr59  1  0.20566372  0.59475517  0.39935287  1
  Zr  Zr60  1  0.40065412  0.40254389  0.59559775  1
  Zr  Zr61  1  0.60750460  0.00832422  0.59833408  1
  Zr  Zr62  1  0.70338278  0.89049656  0.49211865  1
  Zr  Zr63  1  0.69571409  0.70252869  0.89405676  1
  Zr  Zr64  1  0.79802442  0.00924644  0.60852677  1
  Zr  Zr65  1  0.80372661  0.80060769  0.20832428  1
  Zr  Zr66  1  0.60035658  0.00383868  0.19616750  1
  Zr  Zr67  1  0.30239951  0.09129622  0.50857689  1
  Zr  Zr68  1  0.40610117  0.00643923  -0.00124596  1
  Zr  Zr69  1  0.10224005  0.49766585  0.49896379  1
  Zr  Zr70  1  -0.00362982  0.40114303  0.60210098  1
  Zr  Zr71  1  0.80149950  0.60844465  0.40591484  1
  Zr  Zr72  1  0.71176694  0.90638098  0.09308669  1
  Zr  Zr73  1  0.19516967  0.20317556  0.60176833  1
  Zr  Zr74  1  0.90139267  0.50017692  0.10370806  1
  Zr  Zr75  1  0.18580442  -0.00766477  0.19941074  1
  Zr  Zr76  1  0.59985685  0.20557462  0.18760685  1
  Zr  Zr77  1  0.89419430  0.09668139  0.10040035  1
  Zr  Zr78  1  0.40241829  0.20617944  0.40384805  1
  Zr  Zr79  1  0.70878298  0.07504002  0.88319234  1
  Zr  Zr80  1  0.69775923  0.70303073  0.70172403  1
  Zr  Zr81  1  0.90026382  0.48738337  0.88831186  1
  Zr  Zr82  1  0.59935632  0.80937071  0.21539602  1
  Zr  Zr83  1  0.80150973  0.39206210  0.39974704  1
  Zr  Zr84  1  0.69144086  0.50444247  0.29749401  1
  Zr  Zr85  1  0.89713786  0.89929953  0.49674489  1
  Zr  Zr86  1  0.19930205  0.39950733  0.60515864  1
  Zr  Zr87  1  0.10520971  0.70323702  0.50205975  1
  Zr  Zr88  1  0.41166910  0.39778352  0.19449112  1
  Zr  Zr89  1  0.41329415  0.79692566  0.38633815  1
  Zr  Zr90  1  0.49811409  0.30134862  0.70413662  1
  Zr  Zr91  1  0.90260388  0.09995640  0.89833092  1
  Zr  Zr92  1  0.91499943  0.11725872  0.69289626  1
  Zr  Zr93  1  0.30306736  0.69351620  0.90087695  1
  Zr  Zr94  1  0.09277115  0.10383672  0.09986591  1
  Zr  Zr95  1  0.19177978  0.00185649  0.60781264  1
  Zr  Zr96  1  0.68959393  0.91357708  0.72603409  1
  Zr  Zr97  1  0.30018655  0.69732537  0.69262466  1
  Zr  Zr98  1  -0.00051313  0.79555835  0.00408225  1
  Zr  Zr99  1  -0.00495216  0.79943662  0.60673619  1
  Ta  Ta100  1  0.80359072  0.61000660  0.20198164  1
  Ta  Ta101  1  0.69511071  0.30479003  0.50650230  1
  Ta  Ta102  1  0.30113355  0.89247949  0.50148049  1
  Ta  Ta103  1  0.90221728  0.10106442  0.30156969  1
  Ta  Ta104  1  0.00534995  -0.00311773  0.00290867  1
  Ta  Ta105  1  0.40212811  0.59466800  0.80058392  1
  Ta  Ta106  1  0.29409620  0.89149268  0.30189946  1
  Ta  Ta107  1  0.00536812  0.00547719  0.39310794  1
  Ta  Ta108  1  0.10306279  0.68766929  0.70086219  1
  Ta  Ta109  1  0.50224840  0.69625487  0.89768245  1
  Ta  Ta110  1  0.80860491  0.59861256  0.59628929  1
  Ta  Ta111  1  0.39421306  0.20912937  0.60425559  1
  Ta  Ta112  1  0.00144554  0.39148732  0.40342476  1
  Ta  Ta113  1  0.19261103  0.00473093  -0.00256472  1
  Ta  Ta114  1  0.19460322  0.39878109  0.20153581  1
  Ta  Ta115  1  0.90049846  0.69503048  0.89954674  1
  Ta  Ta116  1  0.50303738  0.70511454  0.50421050  1
  Ta  Ta117  1  0.19200040  0.20150121  -0.00913145  1
  Ta  Ta118  1  0.59850363  0.00257613  -0.00694272  1
  Ta  Ta119  1  0.59913756  -0.00720291  0.39479206  1
  Ta  Ta120  1  0.40910479  0.20046920  0.19444717  1
  Ta  Ta121  1  0.40593610  0.59333898  0.40208921  1
  Ta  Ta122  1  0.29879628  0.10624106  0.89823053  1
  Ta  Ta123  1  0.30142436  0.10263502  0.70700705  1
  Ta  Ta124  1  0.49572544  0.30312909  0.90117657  1
  Ta  Ta125  1  0.00565941  0.39633957  0.20358315  1
  Ta  Ta126  1  0.90921869  0.29274659  0.30278468  1
  Ta  Ta127  1  -0.00132450  -0.00780893  0.20728524  1
  Ta  Ta128  1  0.09746463  0.30014157  0.30109935  1
  Ta  Ta129  1  0.00381091  0.20174253  -0.01063905  1
  Ta  Ta130  1  0.89909936  0.90518489  0.09817691  1
  Ta  Ta131  1  0.59976579  0.39981619  0.19891697  1
  Ta  Ta132  1  0.10225578  0.49833348  0.10347011  1
  Ta  Ta133  1  0.49510949  0.90179333  0.69869252  1
  Ta  Ta134  1  0.10245114  0.49242420  0.89728093  1
  Ta  Ta135  1  0.50625977  0.90026802  0.88907589  1
  Ta  Ta136  1  0.29888174  0.30345470  0.30004774  1
  Ta  Ta137  1  0.19862296  0.20272518  0.80377492  1
  Ta  Ta138  1  0.10485845  0.69119955  0.11473520  1
  Ta  Ta139  1  0.50460056  0.10387901  0.30152867  1
  Ta  Ta140  1  0.40504285  0.59344136  0.58943118  1
  Ta  Ta141  1  0.60267115  0.40082343  0.80051924  1
  Ta  Ta142  1  0.19929486  0.40014119  0.80287509  1
  Ta  Ta143  1  0.10326036  0.70134562  0.29913539  1
  Ta  Ta144  1  0.50256507  0.69401317  0.09676650  1
  Ta  Ta145  1  0.41198620  0.40954725  0.40460818  1
  Ta  Ta146  1  0.60124725  0.80252233  0.60366187  1
  Ta  Ta147  1  0.10119539  0.30267450  0.09746375  1
  Ta  Ta148  1  0.10242033  0.90519029  0.90185989  1
  Ta  Ta149  1  -0.00406091  0.59440017  0.60530708  1
  Ti  Ti150  1  0.69682083  0.50588609  0.10641572  1
  Ti  Ti151  1  0.70959047  0.09402912  0.09062097  1
  Ti  Ti152  1  0.79230642  0.20888094  0.59914402  1
  Ti  Ti153  1  0.89419380  0.90304535  0.30995472  1
  Ti  Ti154  1  0.49410162  0.10283183  0.89258404  1
  Ti  Ti155  1  0.19726519  0.00875743  0.80162268  1
  Ti  Ti156  1  0.50021480  0.49874992  0.70206129  1
  Ti  Ti157  1  0.39955126  0.59825957  -0.00083464  1
  Ti  Ti158  1  0.79754104  0.40429333  -0.00384192  1
  Ti  Ti159  1  0.60674089  0.20224010  0.60119853  1
  Ti  Ti160  1  0.60404493  0.59490692  -0.00423907  1
  Ti  Ti161  1  0.60596656  0.20340788  0.41083515  1
  Ti  Ti162  1  0.59045520  0.39460155  0.59681274  1
  Ti  Ti163  1  0.00478489  0.00138187  0.59842138  1
  Ti  Ti164  1  0.39123692  0.20693511  0.79911627  1
  Ti  Ti165  1  0.80106288  0.20039059  -0.00770805  1
  Ti  Ti166  1  0.09909680  0.50320356  0.29311503  1
  Ti  Ti167  1  0.20096035  0.59240756  0.59940644  1
  Ti  Ti168  1  0.19567031  0.59444801  0.80453052  1
  Ti  Ti169  1  0.69671008  0.70618857  0.31010036  1
  Ti  Ti170  1  0.51104471  0.69310435  0.29510325  1
  Ti  Ti171  1  0.00343802  0.19839154  0.20623578  1
  Ti  Ti172  1  0.70410720  0.30030232  0.09187816  1
  Ti  Ti173  1  0.09629209  0.30211729  0.89598600  1
  Ti  Ti174  1  -0.00362389  0.60528838  0.20030480  1
  Ti  Ti175  1  0.79527548  0.00592825  0.40210276  1
  Ti  Ti176  1  0.39427619  0.40292897  0.80116692  1
  Ti  Ti177  1  0.60143248  0.58758239  0.80281132  1
  Ti  Ti178  1  0.89916206  0.30949354  0.70522726  1
  Ti  Ti179  1  0.19379999  0.39880752  0.39542456  1
  Ti  Ti180  1  0.89689317  0.90840847  0.90703719  1
  Ti  Ti181  1  0.40219455  0.79235011  -0.00317399  1
  Ti  Ti182  1  0.80059449  -0.00173562  0.20987385  1
  Ti  Ti183  1  0.89502793  0.49252255  0.50551939  1
  Ti  Ti184  1  0.80206307  0.80219293  0.60633332  1
  Ti  Ti185  1  0.00596496  0.58996056  0.79564275  1
  Ti  Ti186  1  0.29882147  0.69741495  0.10479055  1
  Ti  Ti187  1  0.39545232  0.00209707  0.79923190  1
  Ti  Ti188  1  0.09463502  0.11260773  0.70335685  1
  Ti  Ti189  1  0.18824924  0.80535036  0.20155534  1
  Ti  Ti190  1  -0.00250019  0.80006582  0.39673068  1
  Ti  Ti191  1  0.70176859  0.70747609  0.50084369  1
  Ti  Ti192  1  0.90105310  0.70283218  0.30564960  1
  Ti  Ti193  1  0.80589395  0.79765737  -0.00154091  1
  Ti  Ti194  1  0.09926819  0.89901196  0.70237697  1
  Ti  Ti195  1  0.20066462  0.80300675  0.60803131  1
  Ti  Ti196  1  0.40653258  0.79679776  0.20078747  1
  Ti  Ti197  1  0.50652364  0.50625190  0.09968880  1
  Ti  Ti198  1  0.41059864  0.20289643  0.00410337  1
  Ti  Ti199  1  0.30767940  0.90750199  0.68995959  1
  Mo  Mo200  1  0.50635294  0.30016247  0.50425875  1
  Mo  Mo201  1  0.08689681  0.09845501  0.50438500  1
  Mo  Mo202  1  0.39250076  -0.00099635  0.60222369  1
  Mo  Mo203  1  0.69750569  0.30173189  0.69145712  1
  Mo  Mo204  1  0.69068865  0.30136455  0.30760204  1
  Mo  Mo205  1  0.00620100  0.20953305  0.58601637  1
  Mo  Mo206  1  0.09362439  0.89332155  0.30093985  1
  Mo  Mo207  1  0.09563874  0.69038599  0.88956995  1
  Mo  Mo208  1  0.10517301  0.10087117  0.89802489  1
  Mo  Mo209  1  0.50158149  0.29958305  0.09398260  1
  Mo  Mo210  1  0.80196660  0.39309394  0.79260079  1
  Mo  Mo211  1  0.49909118  0.10192802  0.09620453  1
  Mo  Mo212  1  0.60430951  0.79388529  0.40357756  1
  Mo  Mo213  1  0.59941351  0.60017139  0.19966022  1
  Mo  Mo214  1  0.70061864  0.90255233  0.90265896  1
  Mo  Mo215  1  -0.00155814  0.20101802  0.39778979  1
  Mo  Mo216  1  0.29976149  0.49762209  0.89818467  1
  Mo  Mo217  1  0.00152962  0.20924695  0.81024436  1
  Mo  Mo218  1  0.89858207  0.29673749  0.89851111  1
  Mo  Mo219  1  0.80633713  0.39091847  0.59776852  1
  Mo  Mo220  1  0.90180167  0.49747955  0.69659830  1
  Mo  Mo221  1  0.08761326  0.10369279  0.29867308  1
  Mo  Mo222  1  0.69576054  0.49418199  0.89725875  1
  Mo  Mo223  1  0.09374095  0.89908498  0.09779391  1
  Mo  Mo224  1  0.09514981  0.29994371  0.49360216  1
  Mo  Mo225  1  0.29811416  0.29625809  0.71202523  1
  Mo  Mo226  1  0.89487111  0.70394800  0.50470122  1
  Mo  Mo227  1  0.10003362  0.50343851  0.70729462  1
  Mo  Mo228  1  0.89981456  0.29748636  0.50316916  1
  Mo  Mo229  1  0.30398407  0.50147903  0.49474547  1
  Mo  Mo230  1  0.80521896  -0.00544280  -0.00349606  1
  Mo  Mo231  1  0.41056784  0.40147792  -0.00022561  1
  Mo  Mo232  1  0.57812099  0.00655019  0.80237813  1
  Mo  Mo233  1  0.69838842  0.10840392  0.49809656  1
  Mo  Mo234  1  0.90208649  0.90663716  0.69965562  1
  Mo  Mo235  1  0.50164831  0.90168981  0.30050255  1
  Mo  Mo236  1  0.18977455  0.39812170  -0.00171236  1
  Mo  Mo237  1  0.59156683  0.80475438  0.79846650  1
  Mo  Mo238  1  0.80409260  0.79503785  0.39821399  1
  Mo  Mo239  1  0.50139298  0.49896721  0.30105926  1
  Mo  Mo240  1  0.20156539  0.80181988  0.39198951  1
  Mo  Mo241  1  0.82119923  -0.00238458  0.79470974  1
  Mo  Mo242  1  0.00147701  0.39965102  0.80017622  1
  Mo  Mo243  1  0.70688418  0.90668893  0.30925200  1
  Mo  Mo244  1  0.69972482  0.10581947  0.69553013  1
  Mo  Mo245  1  0.50288232  0.49965558  0.50076986  1
  Mo  Mo246  1  0.59846695  0.39529771  0.40310662  1
  Mo  Mo247  1  0.40212129  0.80142563  0.60058879  1
  Mo  Mo248  1  0.89938037  0.70068421  0.10082776  1
  Mo  Mo249  1  0.19766287  0.59411535  0.19752544  1
