# generated using pymatgen
data_HfZrTaTiMo
_symmetry_space_group_name_H-M   'P 1'
_cell_length_a   16.87855152
_cell_length_b   16.88146389
_cell_length_c   16.88887350
_cell_angle_alpha   90.00819742
_cell_angle_beta   89.99856655
_cell_angle_gamma   89.99430754
_symmetry_Int_Tables_number   1
_chemical_formula_structural   HfZrTaTiMo
_chemical_formula_sum   'Hf50 Zr50 Ta50 Ti50 Mo50'
_cell_volume   4812.22531734
_cell_formula_units_Z   50
loop_
 _symmetry_equiv_pos_site_id
 _symmetry_equiv_pos_as_xyz
  1  'x, y, z'
loop_
 _atom_site_type_symbol
 _atom_site_label
 _atom_site_symmetry_multiplicity
 _atom_site_fract_x
 _atom_site_fract_y
 _atom_site_fract_z
 _atom_site_occupancy
  Hf  Hf0  1  0.40426747  0.60433313  0.40671648  1
  Hf  Hf1  1  0.78945334  0.80352428  0.80170308  1
  Hf  Hf2  1  0.38906918  0.19554083  0.59513200  1
  Hf  Hf3  1  0.70486363  0.69820520  0.90049955  1
  Hf  Hf4  1  0.09970193  0.90850630  0.69280554  1
  Hf  Hf5  1  0.60414311  0.19354837  0.20361450  1
  Hf  Hf6  1  0.40866842  0.40221698  0.40806534  1
  Hf  Hf7  1  0.19460377  0.59830198  0.78971771  1
  Hf  Hf8  1  0.20660534  -0.00280374  0.00061111  1
  Hf  Hf9  1  0.89486563  0.11353343  0.90194581  1
  Hf  Hf10  1  0.09734564  0.49991114  0.30940918  1
  Hf  Hf11  1  0.61075296  0.00203084  0.39318088  1
  Hf  Hf12  1  0.01034197  0.59694876  0.60580600  1
  Hf  Hf13  1  0.00228587  0.80569086  0.59119066  1
  Hf  Hf14  1  0.90384701  0.68894231  0.49416139  1
  Hf  Hf15  1  0.90576713  0.69743225  0.30189842  1
  Hf  Hf16  1  0.59582146  0.59774678  0.78981183  1
  Hf  Hf17  1  0.80203346  -0.00069540  0.40685495  1
  Hf  Hf18  1  0.60166644  0.00011186  0.59615510  1
  Hf  Hf19  1  0.30707881  0.69914073  0.09913280  1
  Hf  Hf20  1  0.60531866  0.40578980  0.20484019  1
  Hf  Hf21  1  0.60901131  0.00155280  0.19819198  1
  Hf  Hf22  1  0.09499824  0.10859999  0.89721878  1
  Hf  Hf23  1  0.10285248  0.08938125  0.51028299  1
  Hf  Hf24  1  0.60717762  0.19074796  0.40045058  1
  Hf  Hf25  1  0.39712085  0.79652685  0.58951796  1
  Hf  Hf26  1  0.39945937  0.59842557  0.20929429  1
  Hf  Hf27  1  0.89135971  0.89715796  0.90751142  1
  Hf  Hf28  1  0.50023566  0.89822767  0.49491770  1
  Hf  Hf29  1  0.70770987  0.50380462  0.89060320  1
  Hf  Hf30  1  0.49706504  0.31055528  0.90186361  1
  Hf  Hf31  1  -0.00501059  0.39724466  0.20507353  1
  Hf  Hf32  1  0.89754568  0.90681581  0.69821169  1
  Hf  Hf33  1  0.09991353  0.89475776  0.89038622  1
  Hf  Hf34  1  0.70028621  0.10894380  0.90324536  1
  Hf  Hf35  1  0.40594236  0.20309190  0.20604664  1
  Hf  Hf36  1  -0.00368417  0.20150717  0.40755449  1
  Hf  Hf37  1  0.40260933  0.80356966  -0.00932425  1
  Hf  Hf38  1  0.29425822  0.31529080  0.90038375  1
  Hf  Hf39  1  0.80655595  0.39946477  0.21088604  1
  Hf  Hf40  1  0.39372952  0.20159205  0.79619492  1
  Hf  Hf41  1  0.09801326  0.10717063  0.10800466  1
  Hf  Hf42  1  0.79742414  0.19283641  0.19537019  1
  Hf  Hf43  1  0.79172903  -0.00115163  0.80193273  1
  Hf  Hf44  1  0.81628714  0.40343591  -0.01255680  1
  Hf  Hf45  1  0.10101510  0.29925006  0.29960069  1
  Hf  Hf46  1  0.29627586  0.30358211  0.30621446  1
  Hf  Hf47  1  0.29233602  0.50347392  0.51093304  1
  Hf  Hf48  1  0.51367863  0.28981367  0.50325559  1
  Hf  Hf49  1  0.20173241  -0.00852519  0.20654213  1
  Zr  Zr50  1  0.50200389  0.29453656  0.69743752  1
  Zr  Zr51  1  0.79721935  0.58691440  0.20526965  1
  Zr  Zr52  1  0.10200088  0.69198990  0.10076513  1
  Zr  Zr53  1  0.09391014  0.88809867  0.11180405  1
  Zr  Zr54  1  0.49712054  0.89475589  0.69933734  1
  Zr  Zr55  1  -0.00466077  0.00333645  0.00776257  1
  Zr  Zr56  1  0.59238836  0.60178956  -0.00447502  1
  Zr  Zr57  1  0.39863012  0.40588185  0.20318348  1
  Zr  Zr58  1  0.80115390  0.80567275  0.59392467  1
  Zr  Zr59  1  -0.00366075  0.40277449  0.79633360  1
  Zr  Zr60  1  0.89782787  0.69971965  0.10475912  1
  Zr  Zr61  1  0.21204305  0.59413198  0.20300145  1
  Zr  Zr62  1  0.60877558  0.40635709  0.60238510  1
  Zr  Zr63  1  0.60409174  0.79734648  0.40035616  1
  Zr  Zr64  1  0.70221646  0.10562330  0.69799053  1
  Zr  Zr65  1  0.09406866  0.70377038  0.29999130  1
  Zr  Zr66  1  0.30135799  0.10264719  0.10157484  1
  Zr  Zr67  1  0.19510751  0.19931451  0.40981782  1
  Zr  Zr68  1  0.70231913  0.30586316  0.31327788  1
  Zr  Zr69  1  0.21095187  0.80612516  -0.00338016  1
  Zr  Zr70  1  0.60202679  0.80576158  -0.00909426  1
  Zr  Zr71  1  0.10734077  0.49653987  0.09086604  1
  Zr  Zr72  1  0.90263633  0.29411808  0.09150997  1
  Zr  Zr73  1  0.69840785  0.50334472  0.49665923  1
  Zr  Zr74  1  0.10600792  0.49285385  0.90665567  1
  Zr  Zr75  1  0.69740297  0.49387413  0.08735857  1
  Zr  Zr76  1  0.49754467  0.09583108  0.69827317  1
  Zr  Zr77  1  0.10698282  0.69622425  0.89974084  1
  Zr  Zr78  1  0.29774255  0.89270355  0.70537246  1
  Zr  Zr79  1  0.90051286  0.49909913  0.69478206  1
  Zr  Zr80  1  0.69937201  0.69514459  0.50051453  1
  Zr  Zr81  1  0.50258924  0.89106729  0.10881051  1
  Zr  Zr82  1  0.19649557  0.20563874  0.79302831  1
  Zr  Zr83  1  0.89422394  0.69794475  0.70280901  1
  Zr  Zr84  1  0.19916018  0.00202437  0.80146870  1
  Zr  Zr85  1  0.80583691  0.19712706  0.40297547  1
  Zr  Zr86  1  -0.00619807  -0.00200276  0.40719840  1
  Zr  Zr87  1  0.89878899  0.11372189  0.70164847  1
  Zr  Zr88  1  0.40325461  0.40343613  0.59786085  1
  Zr  Zr89  1  0.50825742  0.31059585  0.09309529  1
  Zr  Zr90  1  -0.00717135  0.79079971  -0.00389882  1
  Zr  Zr91  1  0.29395554  0.09665850  0.30939443  1
  Zr  Zr92  1  0.79593534  0.00467318  0.20460349  1
  Zr  Zr93  1  0.20398812  0.60588952  0.39909634  1
  Zr  Zr94  1  0.59790673  0.40864857  0.79017225  1
  Zr  Zr95  1  0.69911580  0.30133603  0.90245494  1
  Zr  Zr96  1  0.29748106  0.50245510  0.90529563  1
  Zr  Zr97  1  0.40063549  -0.00435147  0.20642688  1
  Zr  Zr98  1  0.79147095  0.00935070  0.01693995  1
  Zr  Zr99  1  0.39661382  0.20317816  0.00043900  1
  Ta  Ta100  1  0.79990316  0.39672859  0.60025148  1
  Ta  Ta101  1  0.60308034  0.59994589  0.20330319  1
  Ta  Ta102  1  0.39033040  -0.00317967  0.59181668  1
  Ta  Ta103  1  0.60288327  -0.00600808  0.80802520  1
  Ta  Ta104  1  0.49400795  0.70095022  0.88735637  1
  Ta  Ta105  1  0.19493584  0.20390611  0.60100312  1
  Ta  Ta106  1  -0.01224183  0.59002214  -0.01039100  1
  Ta  Ta107  1  0.00217825  0.80609142  0.40657879  1
  Ta  Ta108  1  0.49622603  0.50429090  0.09715212  1
  Ta  Ta109  1  0.90226302  0.89169318  0.29782452  1
  Ta  Ta110  1  -0.00618481  0.40161429  0.40644900  1
  Ta  Ta111  1  0.19921367  0.80484565  0.59037183  1
  Ta  Ta112  1  0.89491614  0.89095052  0.10987646  1
  Ta  Ta113  1  0.29252174  0.30350289  0.50389899  1
  Ta  Ta114  1  0.19853243  0.20552765  -0.00029178  1
  Ta  Ta115  1  0.59727202  0.19706542  0.80158330  1
  Ta  Ta116  1  0.09864679  0.49736763  0.50811983  1
  Ta  Ta117  1  0.49946604  0.09666783  0.89994173  1
  Ta  Ta118  1  0.69906705  0.70230722  0.10229075  1
  Ta  Ta119  1  0.08978166  0.30341648  0.69314554  1
  Ta  Ta120  1  0.90261302  0.30572676  0.50797839  1
  Ta  Ta121  1  0.50158330  0.09567364  0.09326790  1
  Ta  Ta122  1  0.29539085  0.50598121  0.69197987  1
  Ta  Ta123  1  0.51108454  0.50686530  0.30825500  1
  Ta  Ta124  1  0.60057202  0.80119166  0.79658330  1
  Ta  Ta125  1  0.21449731  0.79933003  0.21557579  1
  Ta  Ta126  1  0.49635929  0.09582995  0.49850615  1
  Ta  Ta127  1  0.40130532  0.59847884  0.79180038  1
  Ta  Ta128  1  0.59964262  -0.00231844  -0.00254658  1
  Ta  Ta129  1  -0.00398447  0.00531559  0.79986465  1
  Ta  Ta130  1  0.39984225  0.19777012  0.40539105  1
  Ta  Ta131  1  0.29225697  0.09377454  0.69364657  1
  Ta  Ta132  1  0.80452785  0.58741948  0.39320667  1
  Ta  Ta133  1  0.30066473  0.69791639  0.69489821  1
  Ta  Ta134  1  0.39289458  0.79521026  0.39757052  1
  Ta  Ta135  1  0.50242570  0.70087857  0.10801562  1
  Ta  Ta136  1  0.30334648  0.70430881  0.88490918  1
  Ta  Ta137  1  0.40130323  -0.00613492  -0.00673029  1
  Ta  Ta138  1  0.09876755  0.09581044  0.30000762  1
  Ta  Ta139  1  -0.00576897  0.00024686  0.20435880  1
  Ta  Ta140  1  0.69234750  0.69701208  0.69202402  1
  Ta  Ta141  1  0.80060342  0.39760500  0.78714928  1
  Ta  Ta142  1  0.09441599  0.30257676  0.90271537  1
  Ta  Ta143  1  0.49801534  0.89036017  0.29974073  1
  Ta  Ta144  1  0.50430927  0.70358934  0.29656945  1
  Ta  Ta145  1  0.10286760  0.69851409  0.49774922  1
  Ta  Ta146  1  0.90286109  0.29255654  0.88894895  1
  Ta  Ta147  1  0.00037535  0.59860006  0.80099269  1
  Ta  Ta148  1  0.30216806  0.09964002  0.89848740  1
  Ta  Ta149  1  0.10076400  0.90028210  0.30686335  1
  Ti  Ti150  1  0.29276347  0.09053585  0.50093677  1
  Ti  Ti151  1  0.10736998  0.71105481  0.69848300  1
  Ti  Ti152  1  0.90689564  0.49579079  0.09401386  1
  Ti  Ti153  1  0.39939379  0.60250413  -0.00329885  1
  Ti  Ti154  1  0.81050009  0.40315312  0.40420386  1
  Ti  Ti155  1  -0.01408700  0.00009755  0.59206164  1
  Ti  Ti156  1  -0.00427888  0.58767223  0.20146198  1
  Ti  Ti157  1  0.39083836  -0.00857075  0.40298397  1
  Ti  Ti158  1  0.70119872  0.29002706  0.69766354  1
  Ti  Ti159  1  0.70080292  0.88896560  0.29525888  1
  Ti  Ti160  1  0.49283898  0.51715887  0.67996123  1
  Ti  Ti161  1  0.80131670  0.21040233  0.59582590  1
  Ti  Ti162  1  0.39586064  -0.00076350  0.80386421  1
  Ti  Ti163  1  0.49279737  0.49668656  0.90540854  1
  Ti  Ti164  1  0.29214111  0.30953805  0.69218564  1
  Ti  Ti165  1  0.09434621  0.10103879  0.69514243  1
  Ti  Ti166  1  -0.00099795  0.20596922  0.59746839  1
  Ti  Ti167  1  0.70210449  0.29982056  0.08860260  1
  Ti  Ti168  1  0.19064127  0.39675677  0.41354814  1
  Ti  Ti169  1  0.30913812  0.89390839  0.10773552  1
  Ti  Ti170  1  0.80387672  0.80150424  0.40021707  1
  Ti  Ti171  1  0.69800112  0.69410142  0.30084904  1
  Ti  Ti172  1  0.79826218  0.59184444  0.59910139  1
  Ti  Ti173  1  0.51010209  0.69108474  0.50681974  1
  Ti  Ti174  1  0.39856755  0.41138181  0.78939324  1
  Ti  Ti175  1  0.20169552  0.20534649  0.19742557  1
  Ti  Ti176  1  0.20669003  0.80807119  0.40342187  1
  Ti  Ti177  1  0.69483671  0.89811791  0.69192005  1
  Ti  Ti178  1  0.70483938  0.88517902  0.09833506  1
  Ti  Ti179  1  0.49578434  0.09396250  0.30715451  1
  Ti  Ti180  1  0.80777351  0.59865938  -0.00190852  1
  Ti  Ti181  1  0.29824090  0.49250995  0.31222974  1
  Ti  Ti182  1  0.90320791  0.09925714  0.29841075  1
  Ti  Ti183  1  0.29866575  0.31066964  0.09582747  1
  Ti  Ti184  1  0.70506567  0.10501960  0.51088844  1
  Ti  Ti185  1  0.00147568  0.20280396  0.00186993  1
  Ti  Ti186  1  0.50381151  0.30226391  0.30787971  1
  Ti  Ti187  1  0.59846465  0.19692487  0.00195990  1
  Ti  Ti188  1  0.89210980  0.69411080  0.89420018  1
  Ti  Ti189  1  0.19264338  0.40337263  0.78651702  1
  Ti  Ti190  1  -0.00666782  0.20027954  0.20596444  1
  Ti  Ti191  1  0.20541487  0.40369728  0.19415468  1
  Ti  Ti192  1  0.10142832  0.30369373  0.09477647  1
  Ti  Ti193  1  -0.00298126  0.79727511  0.79731944  1
  Ti  Ti194  1  0.49666976  0.89944276  0.88912831  1
  Ti  Ti195  1  0.49915797  0.70274688  0.69281871  1
  Ti  Ti196  1  0.29293340  0.69755545  0.50585208  1
  Ti  Ti197  1  0.79682653  0.79448364  0.20388071  1
  Ti  Ti198  1  0.70142766  0.89833360  0.50510931  1
  Ti  Ti199  1  0.60057134  0.40594446  0.40513678  1
  Mo  Mo200  1  0.60093932  0.60228454  0.39476726  1
  Mo  Mo201  1  0.59596373  0.40594539  -0.00065046  1
  Mo  Mo202  1  0.10344347  0.49556653  0.69678170  1
  Mo  Mo203  1  0.70397500  0.09595354  0.30121489  1
  Mo  Mo204  1  0.00188513  0.39555353  -0.00439123  1
  Mo  Mo205  1  0.09620469  0.30538164  0.50760829  1
  Mo  Mo206  1  0.40350418  0.79172533  0.79560460  1
  Mo  Mo207  1  0.00008248  0.39867448  0.59591789  1
  Mo  Mo208  1  0.00013206  0.59490256  0.40829792  1
  Mo  Mo209  1  0.29777139  0.90013172  0.49704347  1
  Mo  Mo210  1  0.89675356  0.30019846  0.69513776  1
  Mo  Mo211  1  0.69550184  0.90094551  0.90324352  1
  Mo  Mo212  1  0.00015532  0.80564800  0.20981719  1
  Mo  Mo213  1  0.39835949  0.60774372  0.59984599  1
  Mo  Mo214  1  0.20164232  0.79583331  0.79003664  1
  Mo  Mo215  1  0.50605066  0.51164992  0.49903821  1
  Mo  Mo216  1  0.70925107  0.50924688  0.69614242  1
  Mo  Mo217  1  0.90541392  0.49866581  0.30878894  1
  Mo  Mo218  1  0.21509765  0.60686266  -0.00382154  1
  Mo  Mo219  1  0.30693590  0.70506794  0.30560217  1
  Mo  Mo220  1  0.79754899  0.60105405  0.79270634  1
  Mo  Mo221  1  0.79844778  0.00146800  0.59455418  1
  Mo  Mo222  1  0.59612105  0.60269744  0.59951527  1
  Mo  Mo223  1  0.80015798  0.20673860  0.00176489  1
  Mo  Mo224  1  0.89538035  0.89861666  0.49508949  1
  Mo  Mo225  1  0.19705278  0.60823827  0.60035365  1
  Mo  Mo226  1  0.30105428  0.89570883  0.30889091  1
  Mo  Mo227  1  0.89909162  0.50342719  0.89180180  1
  Mo  Mo228  1  0.40280453  0.79476304  0.20720596  1
  Mo  Mo229  1  0.39768774  0.41090486  0.00479629  1
  Mo  Mo230  1  0.19665502  -0.00910345  0.40363207  1
  Mo  Mo231  1  0.90091038  0.49720577  0.50042849  1
  Mo  Mo232  1  0.90474569  0.30046113  0.30886623  1
  Mo  Mo233  1  0.00131985  0.20354532  0.79422690  1
  Mo  Mo234  1  0.60760579  0.19556821  0.59627823  1
  Mo  Mo235  1  0.30819983  0.90178625  0.89488653  1
  Mo  Mo236  1  0.68715120  0.10964121  0.09412575  1
  Mo  Mo237  1  0.30520989  0.50013231  0.09084445  1
  Mo  Mo238  1  0.10536844  0.89868572  0.49750241  1
  Mo  Mo239  1  0.69916335  0.50041297  0.30770136  1
  Mo  Mo240  1  0.70847105  0.30315334  0.50504442  1
  Mo  Mo241  1  0.19402019  0.39790145  0.60449403  1
  Mo  Mo242  1  0.20250789  0.00196356  0.59900065  1
  Mo  Mo243  1  0.19993183  0.38811339  0.00848360  1
  Mo  Mo244  1  0.59886951  0.79861866  0.60214924  1
  Mo  Mo245  1  0.60920502  0.79414018  0.20425545  1
  Mo  Mo246  1  0.91144555  0.10302478  0.10595946  1
  Mo  Mo247  1  0.79715596  0.79505762  0.00666119  1
  Mo  Mo248  1  0.79606342  0.21106031  0.79782529  1
  Mo  Mo249  1  0.89694726  0.10249434  0.51404560  1
