# generated using pymatgen
data_HfZrTaTiMo
_symmetry_space_group_name_H-M   'P 1'
_cell_length_a   16.87708394
_cell_length_b   16.89417107
_cell_length_c   16.88704705
_cell_angle_alpha   90.00001931
_cell_angle_beta   89.90175083
_cell_angle_gamma   89.94166330
_symmetry_Int_Tables_number   1
_chemical_formula_structural   HfZrTaTiMo
_chemical_formula_sum   'Hf50 Zr50 Ta50 Ti50 Mo50'
_cell_volume   4814.89862507
_cell_formula_units_Z   50
loop_
 _symmetry_equiv_pos_site_id
 _symmetry_equiv_pos_as_xyz
  1  'x, y, z'
loop_
 _atom_site_type_symbol
 _atom_site_label
 _atom_site_symmetry_multiplicity
 _atom_site_fract_x
 _atom_site_fract_y
 _atom_site_fract_z
 _atom_site_occupancy
  Hf  Hf0  1  0.59791330  -0.00687492  0.60573617  1
  Hf  Hf1  1  0.59903446  0.59980368  0.59501909  1
  Hf  Hf2  1  0.71153273  0.10446925  0.91210380  1
  Hf  Hf3  1  0.71097251  0.68926113  0.29646759  1
  Hf  Hf4  1  0.69343862  0.29990880  0.49125340  1
  Hf  Hf5  1  0.29348974  0.89404013  0.70540331  1
  Hf  Hf6  1  0.90334211  0.31239083  0.50405039  1
  Hf  Hf7  1  0.41095846  0.78573940  -0.00428328  1
  Hf  Hf8  1  0.69934104  0.10053579  0.29477911  1
  Hf  Hf9  1  0.90173408  0.71074691  0.70499869  1
  Hf  Hf10  1  0.30632104  0.29483919  0.90278429  1
  Hf  Hf11  1  0.50697859  0.09698257  0.89650556  1
  Hf  Hf12  1  0.89342840  0.50888550  0.30173350  1
  Hf  Hf13  1  0.39120006  0.79831188  0.40716914  1
  Hf  Hf14  1  0.88991308  0.70318450  0.91164067  1
  Hf  Hf15  1  0.69138241  0.49563641  0.70845588  1
  Hf  Hf16  1  0.49798127  0.09735523  0.50078684  1
  Hf  Hf17  1  0.49047027  0.49918315  0.70693014  1
  Hf  Hf18  1  0.80865113  0.00550641  0.60165139  1
  Hf  Hf19  1  0.00890742  0.00367759  0.41372986  1
  Hf  Hf20  1  0.29807786  0.50424561  0.29527574  1
  Hf  Hf21  1  0.40392008  -0.00597024  -0.00609046  1
  Hf  Hf22  1  0.20339210  0.80254477  0.40821596  1
  Hf  Hf23  1  0.20401121  0.19705882  0.18950768  1
  Hf  Hf24  1  0.59489204  0.40030660  0.59755033  1
  Hf  Hf25  1  0.59050598  0.60645929  0.80901619  1
  Hf  Hf26  1  0.80228174  0.19872562  0.40053477  1
  Hf  Hf27  1  0.20073356  0.60797750  0.79462721  1
  Hf  Hf28  1  0.80921417  0.79344454  0.39598683  1
  Hf  Hf29  1  0.60687249  0.78970606  0.19241618  1
  Hf  Hf30  1  0.58457972  0.61507481  0.00789724  1
  Hf  Hf31  1  0.38955061  0.60783283  0.59459664  1
  Hf  Hf32  1  0.29367007  0.69147605  0.09821281  1
  Hf  Hf33  1  0.70992556  0.90297299  0.49497382  1
  Hf  Hf34  1  0.51138915  0.89442363  0.09290204  1
  Hf  Hf35  1  0.29944377  0.29420411  0.49209615  1
  Hf  Hf36  1  0.91483517  0.88660118  0.50345926  1
  Hf  Hf37  1  0.40635965  -0.00960151  0.79897678  1
  Hf  Hf38  1  0.19707627  0.00669346  0.18708392  1
  Hf  Hf39  1  0.39044367  0.39562746  0.59263798  1
  Hf  Hf40  1  0.00441959  0.00201348  0.00437349  1
  Hf  Hf41  1  -0.00005528  0.40290379  0.00054073  1
  Hf  Hf42  1  0.40844032  0.19765425  0.38874306  1
  Hf  Hf43  1  0.30260467  0.90901782  0.30141108  1
  Hf  Hf44  1  0.60159900  -0.00518172  0.39079693  1
  Hf  Hf45  1  0.79802117  0.40008015  0.60423521  1
  Hf  Hf46  1  0.80218467  0.39235699  0.80172848  1
  Hf  Hf47  1  -0.00381034  0.60649152  0.59820592  1
  Hf  Hf48  1  0.40010749  0.79327153  0.80126829  1
  Hf  Hf49  1  0.79814323  0.39450056  -0.00214402  1
  Zr  Zr50  1  0.88478375  0.10284900  0.09737388  1
  Zr  Zr51  1  0.10765995  0.09816041  0.30210351  1
  Zr  Zr52  1  0.19743106  0.18985722  -0.00287922  1
  Zr  Zr53  1  0.39528078  0.80363608  0.59479036  1
  Zr  Zr54  1  -0.00196552  0.20178555  0.40587466  1
  Zr  Zr55  1  0.09624973  0.89523572  0.70511398  1
  Zr  Zr56  1  0.48950561  0.28870282  0.70129013  1
  Zr  Zr57  1  0.10672812  0.29822612  0.30814801  1
  Zr  Zr58  1  0.30644769  0.50232580  0.90213498  1
  Zr  Zr59  1  0.09098368  0.70902790  0.49829384  1
  Zr  Zr60  1  0.60484357  0.19682365  0.79854302  1
  Zr  Zr61  1  0.00570171  0.00640725  0.59865144  1
  Zr  Zr62  1  0.49875186  0.70322945  0.70035958  1
  Zr  Zr63  1  -0.00656780  0.19823295  0.59581093  1
  Zr  Zr64  1  0.10292312  0.51799823  0.30693808  1
  Zr  Zr65  1  0.08744363  0.30655026  0.69352362  1
  Zr  Zr66  1  0.60141890  0.80141227  0.39701997  1
  Zr  Zr67  1  0.09989589  0.89689258  0.30088877  1
  Zr  Zr68  1  0.79169301  0.39701619  0.20653958  1
  Zr  Zr69  1  0.69863279  0.71427826  0.90391212  1
  Zr  Zr70  1  0.00478814  0.60035449  0.80475972  1
  Zr  Zr71  1  0.80054168  0.59271208  0.80291453  1
  Zr  Zr72  1  0.29729979  0.89327095  0.09599681  1
  Zr  Zr73  1  -0.00102487  0.40501856  0.20050126  1
  Zr  Zr74  1  0.69131678  0.49529264  0.09884090  1
  Zr  Zr75  1  0.80087620  0.19812748  0.60929357  1
  Zr  Zr76  1  0.59932315  0.20130078  0.01150136  1
  Zr  Zr77  1  0.19624609  0.40443608  0.19239277  1
  Zr  Zr78  1  0.00205947  0.19940550  0.19423128  1
  Zr  Zr79  1  0.88848510  0.51550075  0.09729071  1
  Zr  Zr80  1  0.20541924  0.00208469  0.59863435  1
  Zr  Zr81  1  -0.00712058  0.39918098  0.80680408  1
  Zr  Zr82  1  0.19674376  0.00631314  -0.00139041  1
  Zr  Zr83  1  0.19892132  0.39565406  0.79641823  1
  Zr  Zr84  1  -0.00641379  0.80213670  0.01137910  1
  Zr  Zr85  1  0.70082471  0.70884888  0.70481163  1
  Zr  Zr86  1  0.90481258  0.90079061  0.30172301  1
  Zr  Zr87  1  0.50665725  0.29785184  0.48617456  1
  Zr  Zr88  1  0.40165252  0.79090223  0.20271392  1
  Zr  Zr89  1  0.49447824  0.49463795  0.90307811  1
  Zr  Zr90  1  0.20759941  0.21059845  0.60607474  1
  Zr  Zr91  1  0.89585336  0.09328696  0.29602304  1
  Zr  Zr92  1  0.41106917  0.00392231  0.20092333  1
  Zr  Zr93  1  0.30518666  0.30303058  0.29259734  1
  Zr  Zr94  1  0.80258611  0.60063324  0.59514708  1
  Zr  Zr95  1  0.49667545  0.69040248  0.30692085  1
  Zr  Zr96  1  0.79824987  0.00447964  0.80107297  1
  Zr  Zr97  1  0.20274301  0.00962585  0.80671525  1
  Zr  Zr98  1  0.59560115  0.59563468  0.19941705  1
  Zr  Zr99  1  0.29296544  0.49959469  0.69348556  1
  Ta  Ta100  1  0.79212114  -0.01515831  0.19873771  1
  Ta  Ta101  1  0.69821221  0.49904393  0.48905798  1
  Ta  Ta102  1  -0.00456624  0.79280731  0.19981899  1
  Ta  Ta103  1  0.30246841  0.49935300  0.09649540  1
  Ta  Ta104  1  0.91499125  0.10335032  0.72174877  1
  Ta  Ta105  1  0.49673423  0.09750139  0.69855289  1
  Ta  Ta106  1  0.10085052  0.50355456  0.50196755  1
  Ta  Ta107  1  0.30760067  0.30259607  0.09624804  1
  Ta  Ta108  1  0.31708637  0.10541932  0.09876708  1
  Ta  Ta109  1  0.81029228  0.79568164  0.19266775  1
  Ta  Ta110  1  0.40145694  0.59385883  0.19564910  1
  Ta  Ta111  1  0.49704895  0.50261302  0.49042708  1
  Ta  Ta112  1  0.31602446  0.11212023  0.70149808  1
  Ta  Ta113  1  0.09844282  0.29595236  0.90154543  1
  Ta  Ta114  1  0.69206231  0.30340313  0.90406372  1
  Ta  Ta115  1  0.10214957  0.89257586  0.89899346  1
  Ta  Ta116  1  0.69942143  0.89602665  0.70759762  1
  Ta  Ta117  1  0.10015242  0.30042530  0.09053530  1
  Ta  Ta118  1  0.28917660  0.88505587  0.90183198  1
  Ta  Ta119  1  0.70379648  0.88954222  0.09123566  1
  Ta  Ta120  1  0.89955667  0.90157656  0.89762382  1
  Ta  Ta121  1  0.80158344  0.80106040  0.59984168  1
  Ta  Ta122  1  0.68827835  0.49329471  0.90719026  1
  Ta  Ta123  1  0.69799373  0.09802162  0.49450271  1
  Ta  Ta124  1  0.00390100  0.40559197  0.40432502  1
  Ta  Ta125  1  0.41248025  0.20456742  0.19587288  1
  Ta  Ta126  1  0.89996887  0.10327703  0.90241546  1
  Ta  Ta127  1  0.90332538  0.89891900  0.70782744  1
  Ta  Ta128  1  0.67894881  0.29621788  0.30489671  1
  Ta  Ta129  1  0.70092608  0.89760214  0.89999342  1
  Ta  Ta130  1  0.89592432  0.29674370  0.09725359  1
  Ta  Ta131  1  0.59910135  0.80612837  0.59686827  1
  Ta  Ta132  1  0.10550558  0.70653016  0.90717590  1
  Ta  Ta133  1  0.70002741  0.70026985  0.49836210  1
  Ta  Ta134  1  0.40507917  0.40582805  0.38962909  1
  Ta  Ta135  1  0.19591129  0.59705048  -0.00082706  1
  Ta  Ta136  1  0.10358516  0.69839744  0.10238800  1
  Ta  Ta137  1  -0.00469098  0.61237477  0.19860586  1
  Ta  Ta138  1  0.20904286  -0.00037765  0.41183822  1
  Ta  Ta139  1  0.20261481  0.20234345  0.79838558  1
  Ta  Ta140  1  0.90861135  0.49168368  0.69477182  1
  Ta  Ta141  1  0.52075702  0.89025494  0.89463781  1
  Ta  Ta142  1  0.09841205  0.10621885  0.70740511  1
  Ta  Ta143  1  -0.00119016  0.19921229  -0.00000260  1
  Ta  Ta144  1  0.09900155  0.49917045  0.68606247  1
  Ta  Ta145  1  0.12032880  0.11657371  0.49776419  1
  Ta  Ta146  1  0.50134977  0.30366926  0.90095281  1
  Ta  Ta147  1  0.60236894  0.19299447  0.59969027  1
  Ta  Ta148  1  0.19872909  0.40265159  0.40659584  1
  Ta  Ta149  1  0.30493546  0.09971991  0.30136795  1
  Ti  Ti150  1  0.49377957  0.90623865  0.49449357  1
  Ti  Ti151  1  0.80193566  0.20549150  0.79795761  1
  Ti  Ti152  1  0.69810054  0.49971622  0.30457470  1
  Ti  Ti153  1  0.10246574  0.50983586  0.10104326  1
  Ti  Ti154  1  0.08406381  0.10522482  0.88737412  1
  Ti  Ti155  1  0.58473958  0.40229182  0.21284600  1
  Ti  Ti156  1  0.49116179  0.49414645  0.09934255  1
  Ti  Ti157  1  0.89816025  0.28481159  0.90410289  1
  Ti  Ti158  1  0.20053698  0.61093764  0.59511225  1
  Ti  Ti159  1  -0.00003852  -0.00581524  0.18639012  1
  Ti  Ti160  1  0.50140146  0.30786137  0.10553399  1
  Ti  Ti161  1  0.80396269  -0.01044653  0.00594967  1
  Ti  Ti162  1  0.10068123  0.69940920  0.30101270  1
  Ti  Ti163  1  0.39169425  0.59991630  0.40299395  1
  Ti  Ti164  1  0.19711099  0.40179885  0.00032600  1
  Ti  Ti165  1  0.10264836  0.50208124  0.90165761  1
  Ti  Ti166  1  0.80586296  0.60458869  0.40689238  1
  Ti  Ti167  1  0.10512319  0.88938913  0.09898092  1
  Ti  Ti168  1  0.29129413  0.50332764  0.49419429  1
  Ti  Ti169  1  -0.01066841  0.61285391  0.40100928  1
  Ti  Ti170  1  0.50274015  0.69794732  0.49674752  1
  Ti  Ti171  1  0.90239850  0.49934040  0.49791260  1
  Ti  Ti172  1  0.79754651  0.40064916  0.39686374  1
  Ti  Ti173  1  0.19728306  0.79471639  0.20233227  1
  Ti  Ti174  1  0.69252903  0.30184389  0.70476704  1
  Ti  Ti175  1  0.00159825  0.80005287  0.80810510  1
  Ti  Ti176  1  0.28594260  0.68654404  0.30080045  1
  Ti  Ti177  1  0.31378797  0.10576339  0.89662003  1
  Ti  Ti178  1  0.10204749  0.70986766  0.70051661  1
  Ti  Ti179  1  0.40264577  0.39632062  0.00581333  1
  Ti  Ti180  1  0.69208539  0.30154810  0.10433497  1
  Ti  Ti181  1  0.49877462  0.89899035  0.29924187  1
  Ti  Ti182  1  0.60929066  -0.01079386  0.19976947  1
  Ti  Ti183  1  0.39336453  0.38967586  0.79513277  1
  Ti  Ti184  1  0.20376687  0.80021044  0.59405746  1
  Ti  Ti185  1  0.79188437  0.20890450  0.19917949  1
  Ti  Ti186  1  0.51210360  0.10587986  0.29316998  1
  Ti  Ti187  1  0.39893230  -0.00549536  0.60148713  1
  Ti  Ti188  1  0.00335040  0.60425891  0.00335682  1
  Ti  Ti189  1  0.41008541  0.19961806  0.00458547  1
  Ti  Ti190  1  0.29828749  0.69576602  0.90147042  1
  Ti  Ti191  1  0.89889047  0.30406938  0.29987014  1
  Ti  Ti192  1  0.31038372  0.10070996  0.49778362  1
  Ti  Ti193  1  0.69532295  0.09555693  0.70244292  1
  Ti  Ti194  1  0.72221683  0.69554697  0.09003320  1
  Ti  Ti195  1  0.59897228  0.59437478  0.40001641  1
  Ti  Ti196  1  0.89479417  0.50732541  0.90739109  1
  Ti  Ti197  1  0.69972753  0.09911020  0.10509614  1
  Ti  Ti198  1  0.60891950  -0.00245754  0.00078488  1
  Ti  Ti199  1  0.50979517  0.09646706  0.10455590  1
  Mo  Mo200  1  0.50347866  0.30321506  0.29296196  1
  Mo  Mo201  1  0.28950827  0.70181425  0.69720458  1
  Mo  Mo202  1  0.89749887  0.90106861  0.10202850  1
  Mo  Mo203  1  -0.00195065  0.40884811  0.59376777  1
  Mo  Mo204  1  0.19921246  0.79256673  0.80501325  1
  Mo  Mo205  1  0.40082404  0.19689449  0.80501605  1
  Mo  Mo206  1  0.39324057  0.60904199  0.80240950  1
  Mo  Mo207  1  0.70322915  0.89443198  0.28922254  1
  Mo  Mo208  1  0.59351006  0.39434690  0.00481435  1
  Mo  Mo209  1  0.79662097  0.20688409  0.00407279  1
  Mo  Mo210  1  0.49579272  0.69831873  0.89690928  1
  Mo  Mo211  1  0.60186827  0.18808961  0.39784402  1
  Mo  Mo212  1  0.80261508  0.80841175  0.00199552  1
  Mo  Mo213  1  0.00108042  -0.00114815  0.80941692  1
  Mo  Mo214  1  0.89687279  0.70128373  0.49991340  1
  Mo  Mo215  1  0.40458068  0.40205599  0.19306597  1
  Mo  Mo216  1  0.40375206  0.00118074  0.39778102  1
  Mo  Mo217  1  0.59997719  0.80495670  0.79582940  1
  Mo  Mo218  1  0.10404963  0.30992221  0.49863689  1
  Mo  Mo219  1  0.88370747  0.08796819  0.49164988  1
  Mo  Mo220  1  0.79981175  0.60325405  0.19991686  1
  Mo  Mo221  1  0.29235379  0.69402465  0.49909730  1
  Mo  Mo222  1  0.30084355  0.29716221  0.70230206  1
  Mo  Mo223  1  0.49299811  0.50086586  0.30401481  1
  Mo  Mo224  1  0.09073293  0.10455815  0.09753590  1
  Mo  Mo225  1  0.59849290  0.41460734  0.39203973  1
  Mo  Mo226  1  0.39440749  0.59616604  0.00281107  1
  Mo  Mo227  1  -0.00056071  0.80127525  0.61092233  1
  Mo  Mo228  1  0.90424914  0.69710398  0.29961506  1
  Mo  Mo229  1  0.89963569  0.69886596  0.10183083  1
  Mo  Mo230  1  0.00468510  0.79569883  0.39222863  1
  Mo  Mo231  1  0.59793675  0.20316219  0.19845872  1
  Mo  Mo232  1  0.48957756  0.69552266  0.10290245  1
  Mo  Mo233  1  0.60445284  0.79719652  0.00088383  1
  Mo  Mo234  1  0.80016288  -0.00146838  0.39879286  1
  Mo  Mo235  1  0.19662168  0.60386013  0.19601732  1
  Mo  Mo236  1  0.30328575  0.90696180  0.50333285  1
  Mo  Mo237  1  0.19663550  0.79334241  -0.00113877  1
  Mo  Mo238  1  0.79021522  0.59452539  -0.00287995  1
  Mo  Mo239  1  0.50517191  0.90201235  0.70046348  1
  Mo  Mo240  1  -0.00061059  0.20443529  0.80625620  1
  Mo  Mo241  1  0.60354234  -0.00214807  0.79731924  1
  Mo  Mo242  1  0.19519618  0.40295696  0.58846085  1
  Mo  Mo243  1  0.89384068  0.29753007  0.70361658  1
  Mo  Mo244  1  0.10618028  0.89993967  0.50346771  1
  Mo  Mo245  1  0.20092237  0.60126651  0.40341295  1
  Mo  Mo246  1  0.21177765  0.19674553  0.39955924  1
  Mo  Mo247  1  0.40317837  0.19503026  0.59766636  1
  Mo  Mo248  1  0.59792967  0.39475574  0.80615913  1
  Mo  Mo249  1  0.80341238  0.81120645  0.80167001  1
