# generated using pymatgen
data_HfZrTaTiMo
_symmetry_space_group_name_H-M   'P 1'
_cell_length_a   16.88315749
_cell_length_b   16.86630849
_cell_length_c   16.89713085
_cell_angle_alpha   90.00963527
_cell_angle_beta   90.07209102
_cell_angle_gamma   89.98378803
_symmetry_Int_Tables_number   1
_chemical_formula_structural   HfZrTaTiMo
_chemical_formula_sum   'Hf50 Zr50 Ta50 Ti50 Mo50'
_cell_volume   4811.56448923
_cell_formula_units_Z   50
loop_
 _symmetry_equiv_pos_site_id
 _symmetry_equiv_pos_as_xyz
  1  'x, y, z'
loop_
 _atom_site_type_symbol
 _atom_site_label
 _atom_site_symmetry_multiplicity
 _atom_site_fract_x
 _atom_site_fract_y
 _atom_site_fract_z
 _atom_site_occupancy
  Hf  Hf0  1  0.59292750  0.61901267  0.40715904  1
  Hf  Hf1  1  0.69615847  0.71064104  0.70384368  1
  Hf  Hf2  1  0.29555074  0.09837413  0.69041007  1
  Hf  Hf3  1  0.09780795  0.30103988  0.68987046  1
  Hf  Hf4  1  0.60378932  0.40387608  0.60182171  1
  Hf  Hf5  1  0.41676855  0.41196647  0.17893172  1
  Hf  Hf6  1  -0.00975227  0.39930032  0.80107919  1
  Hf  Hf7  1  0.00430539  0.00870169  0.39671724  1
  Hf  Hf8  1  0.60049894  0.40877831  0.40814588  1
  Hf  Hf9  1  0.70747119  0.89957515  0.71275121  1
  Hf  Hf10  1  0.40022714  0.40761969  0.40827715  1
  Hf  Hf11  1  -0.00505875  0.00063085  0.20636170  1
  Hf  Hf12  1  0.80693654  0.80760083  0.20290332  1
  Hf  Hf13  1  -0.00628738  0.40207795  0.20065963  1
  Hf  Hf14  1  0.51533885  0.09250678  0.69618640  1
  Hf  Hf15  1  0.70480558  0.30350005  0.30211889  1
  Hf  Hf16  1  0.89220974  0.10406550  0.30119312  1
  Hf  Hf17  1  0.40430112  0.60320661  0.40652836  1
  Hf  Hf18  1  0.09752662  0.69636624  0.70211078  1
  Hf  Hf19  1  0.39921882  -0.00883424  0.78622551  1
  Hf  Hf20  1  0.10109683  0.49107346  0.50406500  1
  Hf  Hf21  1  0.09525609  0.49510372  0.30018661  1
  Hf  Hf22  1  0.89694814  0.70423636  0.70516273  1
  Hf  Hf23  1  0.40825336  0.58612600  0.01242775  1
  Hf  Hf24  1  0.69298194  0.48648922  0.89880733  1
  Hf  Hf25  1  0.30264579  0.30469794  0.09051752  1
  Hf  Hf26  1  -0.00169720  0.19803913  0.80590774  1
  Hf  Hf27  1  0.30524597  0.89810035  0.09559903  1
  Hf  Hf28  1  0.29146344  0.09361645  0.49686238  1
  Hf  Hf29  1  -0.00684820  0.80590924  -0.00192671  1
  Hf  Hf30  1  0.10086402  0.70144758  0.29962235  1
  Hf  Hf31  1  0.89226862  0.10623382  0.09638122  1
  Hf  Hf32  1  0.31113676  0.09202303  0.90397834  1
  Hf  Hf33  1  0.09333264  0.10073590  0.10127026  1
  Hf  Hf34  1  0.40094753  0.80425688  0.60280572  1
  Hf  Hf35  1  0.09783937  0.30422516  0.09447399  1
  Hf  Hf36  1  0.79541247  0.60026978  -0.00001686  1
  Hf  Hf37  1  0.50932367  0.09918164  0.49690879  1
  Hf  Hf38  1  0.20953801  0.59417686  0.40625643  1
  Hf  Hf39  1  0.40573449  0.20228518  0.59812831  1
  Hf  Hf40  1  0.30881421  0.30615046  0.90199222  1
  Hf  Hf41  1  0.18496771  -0.00365515  -0.00966221  1
  Hf  Hf42  1  0.49722693  0.48910202  0.89602335  1
  Hf  Hf43  1  0.70637674  0.50209038  0.30498119  1
  Hf  Hf44  1  0.70425102  0.30014570  0.09558417  1
  Hf  Hf45  1  0.50252848  0.09745029  0.91203023  1
  Hf  Hf46  1  0.89154567  0.30457857  0.09418005  1
  Hf  Hf47  1  0.39213297  0.20256951  0.39767791  1
  Hf  Hf48  1  0.89189152  0.50186118  0.68846919  1
  Hf  Hf49  1  0.30648763  0.69767105  0.90181169  1
  Zr  Zr50  1  0.11154723  0.31946385  0.89675175  1
  Zr  Zr51  1  0.30236757  0.30872917  0.28967236  1
  Zr  Zr52  1  0.60129205  0.60143213  0.60410689  1
  Zr  Zr53  1  0.40323570  -0.00368408  0.20793382  1
  Zr  Zr54  1  0.09852862  0.89011813  0.30664232  1
  Zr  Zr55  1  0.19179601  0.18495334  0.80206338  1
  Zr  Zr56  1  0.50277891  0.29810833  0.90437577  1
  Zr  Zr57  1  0.79928863  0.00449610  -0.01074772  1
  Zr  Zr58  1  0.50577507  0.30266589  0.30107476  1
  Zr  Zr59  1  -0.00134291  0.59044016  0.81087877  1
  Zr  Zr60  1  0.41176617  0.79299012  0.40058158  1
  Zr  Zr61  1  0.60274064  0.60189573  0.19643236  1
  Zr  Zr62  1  0.30485455  0.50502893  0.28144563  1
  Zr  Zr63  1  0.19150520  0.79675560  -0.00492994  1
  Zr  Zr64  1  0.30142644  0.69429335  0.10025976  1
  Zr  Zr65  1  0.00147017  0.20529267  0.21223185  1
  Zr  Zr66  1  -0.00584756  0.59552697  0.39741007  1
  Zr  Zr67  1  0.20189376  0.00754129  0.21575191  1
  Zr  Zr68  1  0.69525656  0.29160243  0.70353893  1
  Zr  Zr69  1  0.40028372  0.40694562  0.59975465  1
  Zr  Zr70  1  0.30946965  0.89486906  0.90506750  1
  Zr  Zr71  1  0.52238999  0.89264759  0.70044161  1
  Zr  Zr72  1  0.79921503  0.18737190  0.80925996  1
  Zr  Zr73  1  0.09149504  0.69585700  0.09792309  1
  Zr  Zr74  1  -0.00883722  0.38932422  0.58413838  1
  Zr  Zr75  1  0.39516021  -0.00175806  0.39617527  1
  Zr  Zr76  1  0.29877260  0.69934827  0.29418225  1
  Zr  Zr77  1  0.80117532  -0.00137657  0.58809631  1
  Zr  Zr78  1  0.79404241  0.39658277  0.59646808  1
  Zr  Zr79  1  0.60133359  0.80465784  0.20042692  1
  Zr  Zr80  1  0.10164178  0.70087800  0.49864147  1
  Zr  Zr81  1  0.20378488  0.39523551  0.40589362  1
  Zr  Zr82  1  0.30914715  0.09866132  0.09411746  1
  Zr  Zr83  1  0.00125649  0.80547536  0.60125986  1
  Zr  Zr84  1  0.70785754  0.70822998  0.31222424  1
  Zr  Zr85  1  -0.00090768  -0.00395743  0.59708090  1
  Zr  Zr86  1  0.29635964  0.48794300  0.89798022  1
  Zr  Zr87  1  0.10653505  0.49356975  0.69680690  1
  Zr  Zr88  1  0.19136856  -0.01139817  0.60712468  1
  Zr  Zr89  1  0.79625957  0.81004095  -0.00094472  1
  Zr  Zr90  1  0.79849358  0.80451155  0.59264882  1
  Zr  Zr91  1  0.51362831  0.10034885  0.30181332  1
  Zr  Zr92  1  0.50196409  0.70083283  0.70896845  1
  Zr  Zr93  1  0.49954173  0.70319087  0.90147470  1
  Zr  Zr94  1  0.50480797  0.89412355  0.90864355  1
  Zr  Zr95  1  0.79159396  0.59369819  0.79751006  1
  Zr  Zr96  1  0.28952257  0.31230820  0.70441326  1
  Zr  Zr97  1  0.40545550  0.19725767  0.79217841  1
  Zr  Zr98  1  0.19422750  0.19566048  -0.00424755  1
  Zr  Zr99  1  0.00263203  0.00581397  0.80243638  1
  Ta  Ta100  1  0.59375914  0.40313520  0.01330476  1
  Ta  Ta101  1  0.89409494  0.49977045  0.09930147  1
  Ta  Ta102  1  0.79487703  0.20102296  0.20246057  1
  Ta  Ta103  1  0.69641404  0.30046685  0.90836075  1
  Ta  Ta104  1  0.60338119  0.20105185  0.19779389  1
  Ta  Ta105  1  -0.01049546  0.59856870  0.19866586  1
  Ta  Ta106  1  0.70097971  0.70390904  0.09617936  1
  Ta  Ta107  1  0.20110924  0.80355408  0.19764380  1
  Ta  Ta108  1  0.00571827  0.20750536  0.40592718  1
  Ta  Ta109  1  0.71161412  0.51761132  0.50062761  1
  Ta  Ta110  1  0.19410699  0.19628758  0.39370402  1
  Ta  Ta111  1  0.61407467  -0.00507444  0.58887440  1
  Ta  Ta112  1  0.20097993  0.20069389  0.20840982  1
  Ta  Ta113  1  0.89647142  0.28676095  0.69559484  1
  Ta  Ta114  1  0.51073576  0.89867526  0.49744671  1
  Ta  Ta115  1  0.19407018  -0.00910710  0.79626506  1
  Ta  Ta116  1  0.10617903  0.89294539  0.48706458  1
  Ta  Ta117  1  0.20176900  0.80103841  0.60667712  1
  Ta  Ta118  1  0.69761589  0.28974407  0.49399047  1
  Ta  Ta119  1  0.80175605  -0.00047476  0.39871610  1
  Ta  Ta120  1  0.50194560  0.70605212  0.09619194  1
  Ta  Ta121  1  0.60445350  0.59975003  0.00141480  1
  Ta  Ta122  1  0.29995911  0.70174948  0.50927745  1
  Ta  Ta123  1  0.70435027  0.90887914  0.30100928  1
  Ta  Ta124  1  0.40627937  0.80173079  0.20472941  1
  Ta  Ta125  1  0.89994695  0.90853927  0.10457903  1
  Ta  Ta126  1  0.40218615  0.19633708  0.19949821  1
  Ta  Ta127  1  0.51673895  0.89955926  0.30768996  1
  Ta  Ta128  1  0.89056399  0.49571594  0.30041040  1
  Ta  Ta129  1  0.19757881  0.80042002  0.79522808  1
  Ta  Ta130  1  0.88864229  0.69984722  0.49102751  1
  Ta  Ta131  1  -0.00304415  0.41054014  -0.00533269  1
  Ta  Ta132  1  0.89644738  0.09913782  0.69687666  1
  Ta  Ta133  1  0.29377684  0.89520330  0.49675304  1
  Ta  Ta134  1  0.69377634  0.70988128  0.90012636  1
  Ta  Ta135  1  0.50662040  0.10102532  0.09685164  1
  Ta  Ta136  1  0.79780526  0.39493910  0.79703113  1
  Ta  Ta137  1  0.50185465  0.50851295  0.29558419  1
  Ta  Ta138  1  0.80477120  0.60396418  0.20014536  1
  Ta  Ta139  1  0.29764357  0.69770096  0.70238402  1
  Ta  Ta140  1  0.89904938  0.69831357  0.09749323  1
  Ta  Ta141  1  -0.00485194  -0.00107523  -0.00640085  1
  Ta  Ta142  1  0.60219697  0.40207647  0.19578667  1
  Ta  Ta143  1  0.09335360  0.89996160  0.10547642  1
  Ta  Ta144  1  0.88711304  0.30162689  0.90812347  1
  Ta  Ta145  1  0.40389963  -0.00915683  0.59650875  1
  Ta  Ta146  1  0.89757064  0.90005756  0.71516151  1
  Ta  Ta147  1  0.20026279  0.60013540  0.80238200  1
  Ta  Ta148  1  0.89712321  0.70299155  0.89913729  1
  Ta  Ta149  1  0.90640134  0.89111305  0.47757809  1
  Ti  Ti150  1  0.39932469  0.60001570  0.60281176  1
  Ti  Ti151  1  0.89103975  0.49588781  0.90801154  1
  Ti  Ti152  1  0.09740481  0.30624743  0.30716563  1
  Ti  Ti153  1  0.50567067  0.30598760  0.70865723  1
  Ti  Ti154  1  0.60895375  0.19364138  0.59479482  1
  Ti  Ti155  1  0.60753916  -0.00457854  0.00508825  1
  Ti  Ti156  1  0.60361894  0.59412778  0.80104019  1
  Ti  Ti157  1  0.90054495  0.70485574  0.30574894  1
  Ti  Ti158  1  0.61546222  0.00160635  0.81258063  1
  Ti  Ti159  1  0.70383855  0.09211548  0.69912772  1
  Ti  Ti160  1  0.89271166  0.89911950  0.88755511  1
  Ti  Ti161  1  0.89580364  0.28792333  0.49623868  1
  Ti  Ti162  1  0.80303787  0.40032870  0.40897573  1
  Ti  Ti163  1  0.09181184  0.10604149  0.68840365  1
  Ti  Ti164  1  0.60617609  0.00224734  0.19736789  1
  Ti  Ti165  1  0.79617551  0.19240272  0.59581746  1
  Ti  Ti166  1  0.09073185  0.89153197  0.88982589  1
  Ti  Ti167  1  0.39285781  0.59117621  0.79195149  1
  Ti  Ti168  1  0.70853843  0.49444727  0.10377862  1
  Ti  Ti169  1  0.69891868  0.10466750  0.10044666  1
  Ti  Ti170  1  0.19003357  0.20534207  0.58837992  1
  Ti  Ti171  1  0.10076969  0.10279192  0.49870696  1
  Ti  Ti172  1  0.70309142  0.90701863  0.10360251  1
  Ti  Ti173  1  -0.00643884  0.80061586  0.20181560  1
  Ti  Ti174  1  0.09056483  0.69681103  0.89842250  1
  Ti  Ti175  1  0.29101645  0.89225514  0.31122760  1
  Ti  Ti176  1  0.21312244  0.59328303  0.60359076  1
  Ti  Ti177  1  0.09119405  0.50279879  0.09156550  1
  Ti  Ti178  1  0.51063384  0.29321838  0.49717456  1
  Ti  Ti179  1  0.70010193  0.88699406  0.48441274  1
  Ti  Ti180  1  -0.00260380  0.19627617  -0.01402265  1
  Ti  Ti181  1  0.50171048  0.50797535  0.50473210  1
  Ti  Ti182  1  0.60280705  0.19546923  0.80402989  1
  Ti  Ti183  1  0.29186325  0.30103335  0.50741192  1
  Ti  Ti184  1  0.19315949  0.40143010  0.19286291  1
  Ti  Ti185  1  0.50193793  0.49265646  0.71097324  1
  Ti  Ti186  1  -0.00785838  0.60162193  0.59403570  1
  Ti  Ti187  1  0.19034305  0.59657535  0.19253066  1
  Ti  Ti188  1  0.69473722  0.10937559  0.91430649  1
  Ti  Ti189  1  0.90283788  0.10613200  0.50139363  1
  Ti  Ti190  1  0.89282559  0.30547829  0.30717112  1
  Ti  Ti191  1  0.70189973  0.10018534  0.29822405  1
  Ti  Ti192  1  0.61525975  0.00321267  0.40476477  1
  Ti  Ti193  1  0.28991716  0.49515331  0.09239544  1
  Ti  Ti194  1  0.18843396  0.59194035  -0.00899321  1
  Ti  Ti195  1  0.50050510  0.90123153  0.09656863  1
  Ti  Ti196  1  0.39363147  0.80285218  0.79157244  1
  Ti  Ti197  1  0.79477295  0.19299210  0.40361770  1
  Ti  Ti198  1  0.89187535  0.50794677  0.49447849  1
  Ti  Ti199  1  0.49988724  0.28806956  0.09250894  1
  Mo  Mo200  1  0.49864405  0.70612261  0.51352345  1
  Mo  Mo201  1  0.09554578  0.09066680  0.90168895  1
  Mo  Mo202  1  0.89657233  0.90271454  0.29885852  1
  Mo  Mo203  1  0.80278348  0.60373843  0.39856674  1
  Mo  Mo204  1  0.09884798  0.50624534  0.90385527  1
  Mo  Mo205  1  0.80108315  0.00451023  0.80128281  1
  Mo  Mo206  1  0.41444869  -0.00395320  0.00787646  1
  Mo  Mo207  1  0.69920349  0.49829646  0.70158596  1
  Mo  Mo208  1  -0.00638194  0.19434878  0.59514592  1
  Mo  Mo209  1  0.20359105  0.39911182  0.59708429  1
  Mo  Mo210  1  0.19960916  0.41156564  0.79554390  1
  Mo  Mo211  1  0.80163436  0.80546511  0.39574336  1
  Mo  Mo212  1  0.51383897  0.50631361  0.09923774  1
  Mo  Mo213  1  -0.00049705  0.79804229  0.80552456  1
  Mo  Mo214  1  0.70106752  0.70497082  0.50347556  1
  Mo  Mo215  1  0.79550811  0.20020378  0.00170419  1
  Mo  Mo216  1  0.70436818  0.10218925  0.49502097  1
  Mo  Mo217  1  0.60237663  0.39472596  0.79630699  1
  Mo  Mo218  1  -0.01077735  0.59872559  0.00074461  1
  Mo  Mo219  1  0.19260787  0.41037401  0.00640691  1
  Mo  Mo220  1  0.30385707  0.50559862  0.51282283  1
  Mo  Mo221  1  0.60214900  0.80423390  0.39985691  1
  Mo  Mo222  1  0.40586792  0.79702861  0.01225012  1
  Mo  Mo223  1  0.41073618  0.60457204  0.19823769  1
  Mo  Mo224  1  0.29370983  0.89581285  0.69759441  1
  Mo  Mo225  1  0.79768738  0.40375669  -0.00298350  1
  Mo  Mo226  1  0.30182085  0.50824714  0.70253973  1
  Mo  Mo227  1  0.40473103  0.39739648  0.00537553  1
  Mo  Mo228  1  0.60711629  0.80426787  0.81513088  1
  Mo  Mo229  1  0.09914655  0.10901708  0.30502208  1
  Mo  Mo230  1  0.79279975  0.00432154  0.20000701  1
  Mo  Mo231  1  0.60318007  0.19939342  0.00712652  1
  Mo  Mo232  1  0.60439764  0.80169111  0.00897399  1
  Mo  Mo233  1  0.69633330  0.90358265  0.90084032  1
  Mo  Mo234  1  0.90143233  0.10471181  0.90283117  1
  Mo  Mo235  1  0.49812034  0.70313948  0.28932593  1
  Mo  Mo236  1  0.09662192  0.89100509  0.70837139  1
  Mo  Mo237  1  -0.00473923  0.79503121  0.39532686  1
  Mo  Mo238  1  -0.01442104  0.39211020  0.39786246  1
  Mo  Mo239  1  0.40521363  0.40204648  0.79268900  1
  Mo  Mo240  1  0.29573944  0.10797091  0.30040993  1
  Mo  Mo241  1  0.10119004  0.29410325  0.49657699  1
  Mo  Mo242  1  0.19743359  0.00053344  0.40461899  1
  Mo  Mo243  1  0.60352773  0.79963334  0.58463307  1
  Mo  Mo244  1  0.79944166  0.60678749  0.59484218  1
  Mo  Mo245  1  0.40569377  0.19686812  0.00740714  1
  Mo  Mo246  1  0.79977044  0.40302649  0.20144689  1
  Mo  Mo247  1  0.20756705  0.79536890  0.40445932  1
  Mo  Mo248  1  0.80199008  0.80164605  0.80708129  1
  Mo  Mo249  1  0.60927790  0.19983421  0.39833304  1
