# generated using pymatgen
data_HfZrTaTiMo
_symmetry_space_group_name_H-M   'P 1'
_cell_length_a   16.89451306
_cell_length_b   16.86245266
_cell_length_c   16.88079688
_cell_angle_alpha   89.91737869
_cell_angle_beta   90.04055228
_cell_angle_gamma   90.02379088
_symmetry_Int_Tables_number   1
_chemical_formula_structural   HfZrTaTiMo
_chemical_formula_sum   'Hf50 Zr50 Ta50 Ti50 Mo50'
_cell_volume   4809.04420157
_cell_formula_units_Z   50
loop_
 _symmetry_equiv_pos_site_id
 _symmetry_equiv_pos_as_xyz
  1  'x, y, z'
loop_
 _atom_site_type_symbol
 _atom_site_label
 _atom_site_symmetry_multiplicity
 _atom_site_fract_x
 _atom_site_fract_y
 _atom_site_fract_z
 _atom_site_occupancy
  Hf  Hf0  1  0.40390038  0.00112547  0.80720408  1
  Hf  Hf1  1  0.89273682  0.90762519  0.10045355  1
  Hf  Hf2  1  0.69719552  0.10131942  0.29653132  1
  Hf  Hf3  1  0.50296833  0.70602273  0.89823876  1
  Hf  Hf4  1  0.49873044  0.90370469  0.29758654  1
  Hf  Hf5  1  0.60865381  0.60201025  0.59695354  1
  Hf  Hf6  1  0.49925504  0.29198626  0.49571612  1
  Hf  Hf7  1  0.41175700  0.40580644  0.80457719  1
  Hf  Hf8  1  0.71444121  0.71715354  0.49490164  1
  Hf  Hf9  1  -0.00420387  0.79961338  0.39950949  1
  Hf  Hf10  1  0.59697144  0.60433552  0.20297631  1
  Hf  Hf11  1  0.90062190  0.30907642  0.10165671  1
  Hf  Hf12  1  0.39247330  0.19155824  0.19546028  1
  Hf  Hf13  1  0.51098863  0.10534165  0.09966996  1
  Hf  Hf14  1  0.71395926  0.49718306  0.09334087  1
  Hf  Hf15  1  -0.00464967  0.00711256  0.20939030  1
  Hf  Hf16  1  0.30093589  0.50026137  0.90560558  1
  Hf  Hf17  1  0.49412493  0.50175471  0.49079543  1
  Hf  Hf18  1  0.70688667  0.89904629  0.29919497  1
  Hf  Hf19  1  0.90743710  0.70219037  0.51286226  1
  Hf  Hf20  1  0.09294881  0.30334584  0.91370207  1
  Hf  Hf21  1  0.11320490  0.09388169  0.69512174  1
  Hf  Hf22  1  0.40275805  0.80530531  0.58797549  1
  Hf  Hf23  1  0.30753035  0.89206115  0.11372108  1
  Hf  Hf24  1  0.60935158  0.39811555  0.40396724  1
  Hf  Hf25  1  0.09516066  0.69424280  0.10503233  1
  Hf  Hf26  1  0.39932699  0.62253786  0.38459306  1
  Hf  Hf27  1  0.19926362  0.19353557  0.39105627  1
  Hf  Hf28  1  0.10612675  0.29767851  0.50713366  1
  Hf  Hf29  1  0.90554492  0.69030989  0.09739017  1
  Hf  Hf30  1  0.28478354  0.29932696  0.68593271  1
  Hf  Hf31  1  0.70707534  0.50106891  0.29645076  1
  Hf  Hf32  1  0.90312436  0.50085218  0.69610188  1
  Hf  Hf33  1  0.59987758  0.59641457  0.79910836  1
  Hf  Hf34  1  0.00007847  0.20602615  0.79495832  1
  Hf  Hf35  1  0.40040117  0.39908970  0.59667309  1
  Hf  Hf36  1  0.20473325  0.00979267  0.20186816  1
  Hf  Hf37  1  0.49955344  0.29379616  0.29676568  1
  Hf  Hf38  1  0.29696038  0.09314086  0.69363627  1
  Hf  Hf39  1  0.88625450  0.10228379  0.69730212  1
  Hf  Hf40  1  0.20097956  -0.00396220  0.00641006  1
  Hf  Hf41  1  0.40163034  0.60780252  0.59493009  1
  Hf  Hf42  1  0.80535244  0.59375851  0.40785863  1
  Hf  Hf43  1  0.10172244  0.09532083  0.90269332  1
  Hf  Hf44  1  0.40329923  0.60054422  0.79802760  1
  Hf  Hf45  1  0.19779753  0.00229983  0.39817923  1
  Hf  Hf46  1  0.59810067  0.80789202  0.00487733  1
  Hf  Hf47  1  0.09847291  0.69706979  0.29551382  1
  Hf  Hf48  1  0.19771628  0.19623312  0.20378059  1
  Hf  Hf49  1  0.20362103  0.19514564  0.01545674  1
  Zr  Zr50  1  0.00141304  0.59277795  0.40173334  1
  Zr  Zr51  1  0.29223572  0.90457513  0.69349099  1
  Zr  Zr52  1  0.60143552  0.39908092  0.19838817  1
  Zr  Zr53  1  0.30570286  0.50194889  0.29648869  1
  Zr  Zr54  1  0.19035152  0.40363504  0.39087132  1
  Zr  Zr55  1  0.40567121  0.77956870  0.21753626  1
  Zr  Zr56  1  -0.00934987  0.80654281  0.79340757  1
  Zr  Zr57  1  0.89375450  0.09901467  0.90161292  1
  Zr  Zr58  1  0.89444139  0.30574335  0.90233736  1
  Zr  Zr59  1  0.69045085  0.10434665  0.89630153  1
  Zr  Zr60  1  0.50628395  0.10031119  0.30392253  1
  Zr  Zr61  1  0.30493684  0.49718654  0.10434740  1
  Zr  Zr62  1  0.90645861  0.50371643  0.89665334  1
  Zr  Zr63  1  0.30362646  0.30765549  0.91586405  1
  Zr  Zr64  1  0.41063612  -0.00344507  0.00910442  1
  Zr  Zr65  1  0.10447960  0.88544625  0.51396056  1
  Zr  Zr66  1  0.50716294  0.28781044  0.90792312  1
  Zr  Zr67  1  0.00398343  -0.00807839  0.79884968  1
  Zr  Zr68  1  0.19716601  0.60698239  0.58994999  1
  Zr  Zr69  1  0.10463278  0.89432545  0.30074696  1
  Zr  Zr70  1  -0.00017505  0.80267562  -0.00820017  1
  Zr  Zr71  1  0.60346662  0.80822265  0.59469478  1
  Zr  Zr72  1  0.88736981  0.89841212  0.50318502  1
  Zr  Zr73  1  0.80547857  0.39613332  0.40658816  1
  Zr  Zr74  1  0.59625909  0.40664537  -0.00429985  1
  Zr  Zr75  1  0.61349696  0.39932632  0.59598308  1
  Zr  Zr76  1  0.17914186  0.58605954  -0.00377630  1
  Zr  Zr77  1  0.60537109  0.60259369  0.40168050  1
  Zr  Zr78  1  0.09882857  0.09787573  0.50533033  1
  Zr  Zr79  1  0.50539915  0.09149446  0.50737421  1
  Zr  Zr80  1  0.29553828  0.69361350  0.10398667  1
  Zr  Zr81  1  0.70275837  0.69658662  0.09930857  1
  Zr  Zr82  1  0.50912607  0.29262815  0.69969396  1
  Zr  Zr83  1  0.50199694  0.91289858  0.68909437  1
  Zr  Zr84  1  0.10111220  0.89244761  0.10770710  1
  Zr  Zr85  1  0.29788474  0.70233353  0.90131019  1
  Zr  Zr86  1  0.29486487  0.50047983  0.69362245  1
  Zr  Zr87  1  0.18881888  0.40399534  0.80217680  1
  Zr  Zr88  1  0.00752815  0.42397064  0.01174693  1
  Zr  Zr89  1  0.70666518  0.28943909  0.29294995  1
  Zr  Zr90  1  0.09036711  0.70917891  0.68003425  1
  Zr  Zr91  1  0.39784063  0.19890568  0.80124533  1
  Zr  Zr92  1  0.51167621  0.09979423  0.69914714  1
  Zr  Zr93  1  0.80163915  0.60940160  0.80010755  1
  Zr  Zr94  1  -0.00664053  -0.01233297  0.61004381  1
  Zr  Zr95  1  0.88604295  0.90649882  0.90098994  1
  Zr  Zr96  1  0.79763751  0.79472613  -0.00898285  1
  Zr  Zr97  1  0.79953782  0.19020759  0.01132676  1
  Zr  Zr98  1  0.30046769  0.89395013  0.90082459  1
  Zr  Zr99  1  0.19665875  0.20560450  0.80346882  1
  Ta  Ta100  1  -0.00124430  0.20413239  0.60427005  1
  Ta  Ta101  1  0.69755237  0.70095127  0.89669446  1
  Ta  Ta102  1  0.29491221  0.29978320  0.49721111  1
  Ta  Ta103  1  0.29713093  0.09504957  0.90290781  1
  Ta  Ta104  1  0.70610103  0.49790086  0.90019895  1
  Ta  Ta105  1  0.90158218  0.29428020  0.50274083  1
  Ta  Ta106  1  0.69643899  0.10192790  0.69990566  1
  Ta  Ta107  1  -0.01176210  0.79780740  0.20557160  1
  Ta  Ta108  1  0.60108749  -0.00361456  0.19302430  1
  Ta  Ta109  1  -0.00665010  0.00578533  0.39815087  1
  Ta  Ta110  1  0.49239326  0.49923325  0.10394525  1
  Ta  Ta111  1  0.09267538  0.50282033  0.69260771  1
  Ta  Ta112  1  0.90389506  0.49680820  0.29356138  1
  Ta  Ta113  1  0.30414209  0.30922286  0.10434170  1
  Ta  Ta114  1  0.09660679  0.30150157  0.10742092  1
  Ta  Ta115  1  0.79024885  -0.00175707  0.79461579  1
  Ta  Ta116  1  -0.00533027  0.39576286  0.39936524  1
  Ta  Ta117  1  0.60535263  0.40290295  0.80121312  1
  Ta  Ta118  1  0.29681246  0.49720731  0.49386811  1
  Ta  Ta119  1  0.30113900  0.89450492  0.30272464  1
  Ta  Ta120  1  0.29887972  0.71030376  0.70108214  1
  Ta  Ta121  1  0.70567916  0.90584163  0.10126439  1
  Ta  Ta122  1  0.80138891  0.00604290  0.39966516  1
  Ta  Ta123  1  0.70881932  0.70770606  0.30000102  1
  Ta  Ta124  1  0.39324792  0.19739433  0.59320552  1
  Ta  Ta125  1  0.89285861  0.30200046  0.69698495  1
  Ta  Ta126  1  0.49268380  0.49911876  0.29479735  1
  Ta  Ta127  1  0.89890237  0.70163791  0.69728160  1
  Ta  Ta128  1  0.39005278  0.19465109  0.40295807  1
  Ta  Ta129  1  -0.00531425  0.20064687  0.39611835  1
  Ta  Ta130  1  0.18666147  0.80227663  0.79881194  1
  Ta  Ta131  1  0.08552844  0.69259736  0.89263499  1
  Ta  Ta132  1  0.19215993  0.39841270  0.20145245  1
  Ta  Ta133  1  0.49911246  0.69602289  0.10061532  1
  Ta  Ta134  1  -0.00597604  0.20037452  0.20536336  1
  Ta  Ta135  1  -0.00251504  0.39645427  0.59741833  1
  Ta  Ta136  1  0.79769975  0.59434695  0.59786849  1
  Ta  Ta137  1  0.30337011  0.30180541  0.29727041  1
  Ta  Ta138  1  0.41107780  0.59686990  -0.00210966  1
  Ta  Ta139  1  0.09626393  0.49860513  0.50461748  1
  Ta  Ta140  1  0.70327350  0.29871041  0.89955037  1
  Ta  Ta141  1  0.50164859  0.70720428  0.69951305  1
  Ta  Ta142  1  0.60623148  0.80571341  0.79597743  1
  Ta  Ta143  1  -0.00278991  0.19431974  0.01373273  1
  Ta  Ta144  1  0.89610156  0.10257009  0.50281892  1
  Ta  Ta145  1  0.19141479  0.60576134  0.79459444  1
  Ta  Ta146  1  0.69703714  0.29406634  0.09595234  1
  Ta  Ta147  1  0.49561317  0.29941061  0.09917295  1
  Ta  Ta148  1  0.39787995  -0.00548116  0.40670912  1
  Ta  Ta149  1  0.70588405  0.49627985  0.70209827  1
  Ti  Ti150  1  0.80851101  0.59768547  0.20065747  1
  Ti  Ti151  1  0.60389906  -0.00576130  0.40557183  1
  Ti  Ti152  1  0.80363919  0.20069486  0.40455029  1
  Ti  Ti153  1  0.00302025  0.40605061  0.20611276  1
  Ti  Ti154  1  0.79606401  0.20586270  0.59594187  1
  Ti  Ti155  1  0.19191682  0.58941800  0.20794934  1
  Ti  Ti156  1  0.80778963  0.39749408  0.20010543  1
  Ti  Ti157  1  0.51064101  0.10210453  0.90094179  1
  Ti  Ti158  1  0.50612612  0.70703384  0.49505632  1
  Ti  Ti159  1  0.70126250  0.70472636  0.70182564  1
  Ti  Ti160  1  0.19617394  0.60132143  0.40022423  1
  Ti  Ti161  1  0.79949409  0.01367679  0.19383618  1
  Ti  Ti162  1  0.70575073  0.90498471  0.49783542  1
  Ti  Ti163  1  0.59737649  0.59714894  -0.00356902  1
  Ti  Ti164  1  0.89098116  0.90113249  0.30168794  1
  Ti  Ti165  1  0.39715452  0.39438272  0.39724555  1
  Ti  Ti166  1  0.80947499  0.59859816  -0.00684632  1
  Ti  Ti167  1  0.69688362  0.90402062  0.89629133  1
  Ti  Ti168  1  0.79994162  0.80678969  0.61620215  1
  Ti  Ti169  1  0.61318433  0.20015273  0.40995848  1
  Ti  Ti170  1  0.89445728  0.10539805  0.30489568  1
  Ti  Ti171  1  0.79891625  0.40065564  0.59237110  1
  Ti  Ti172  1  0.29670610  0.90236857  0.49914975  1
  Ti  Ti173  1  0.79646283  0.39875431  0.79988240  1
  Ti  Ti174  1  0.70584703  0.29357477  0.70841910  1
  Ti  Ti175  1  0.69664534  0.91311716  0.69617171  1
  Ti  Ti176  1  0.60074242  0.80229542  0.19596793  1
  Ti  Ti177  1  0.40487821  0.80367423  0.79509393  1
  Ti  Ti178  1  0.80703764  0.19549011  0.19527983  1
  Ti  Ti179  1  0.59851204  0.80450087  0.39669137  1
  Ti  Ti180  1  0.39453901  0.19148190  0.00448870  1
  Ti  Ti181  1  0.09173124  0.10030613  0.10518956  1
  Ti  Ti182  1  0.51061631  0.90330474  0.89475231  1
  Ti  Ti183  1  0.29553167  0.09675349  0.50738586  1
  Ti  Ti184  1  0.31332118  0.08900658  0.30080439  1
  Ti  Ti185  1  0.50606765  0.50145336  0.69473044  1
  Ti  Ti186  1  0.20281115  0.79088378  0.40147245  1
  Ti  Ti187  1  0.09185034  0.29835805  0.29752118  1
  Ti  Ti188  1  0.40069783  0.80129106  0.40085370  1
  Ti  Ti189  1  0.00501210  0.39704548  0.79185775  1
  Ti  Ti190  1  0.29461975  0.70516762  0.49694158  1
  Ti  Ti191  1  0.18949472  0.79811795  -0.00678407  1
  Ti  Ti192  1  -0.00071020  0.00224605  0.00415279  1
  Ti  Ti193  1  0.41002122  0.80089765  0.00693462  1
  Ti  Ti194  1  0.60566378  -0.00291188  0.00568562  1
  Ti  Ti195  1  0.89572120  0.69735391  0.29982555  1
  Ti  Ti196  1  0.61383079  0.20289948  0.59478118  1
  Ti  Ti197  1  0.80403342  0.79702164  0.19969198  1
  Ti  Ti198  1  0.70721660  0.09386753  0.50578593  1
  Ti  Ti199  1  0.18960722  0.40682701  0.01204170  1
  Mo  Mo200  1  0.11448997  0.90003094  0.70104796  1
  Mo  Mo201  1  0.50587492  0.50462046  0.90359619  1
  Mo  Mo202  1  0.60784291  0.20485599  0.79914777  1
  Mo  Mo203  1  0.89877699  0.50363974  0.10834485  1
  Mo  Mo204  1  0.10329057  0.89796609  0.90126464  1
  Mo  Mo205  1  0.60260157  0.20379044  0.00201934  1
  Mo  Mo206  1  0.19446863  0.40612077  0.59196827  1
  Mo  Mo207  1  0.20231906  -0.00440956  0.59295144  1
  Mo  Mo208  1  0.79753286  0.20418198  0.79322265  1
  Mo  Mo209  1  0.09480270  0.50548012  0.88002177  1
  Mo  Mo210  1  0.09155871  0.30443128  0.69304346  1
  Mo  Mo211  1  0.61393335  0.00213145  0.59260982  1
  Mo  Mo212  1  0.90284789  0.49203811  0.50519434  1
  Mo  Mo213  1  0.87708615  0.90037081  0.70344481  1
  Mo  Mo214  1  0.09536278  0.50149633  0.12199196  1
  Mo  Mo215  1  0.50174637  0.90231942  0.48867434  1
  Mo  Mo216  1  0.60248622  -0.00314229  0.80242777  1
  Mo  Mo217  1  -0.00669953  0.59562003  0.20369031  1
  Mo  Mo218  1  0.40086493  0.39266427  0.20180901  1
  Mo  Mo219  1  0.08775951  0.10253834  0.30226108  1
  Mo  Mo220  1  0.60254391  0.19882014  0.19158581  1
  Mo  Mo221  1  0.80323126  0.80417713  0.38856416  1
  Mo  Mo222  1  0.20339088  0.79359728  0.20678729  1
  Mo  Mo223  1  -0.01222457  0.80269368  0.60373284  1
  Mo  Mo224  1  0.69986869  0.09712559  0.10414031  1
  Mo  Mo225  1  0.89813243  0.69742711  0.89412878  1
  Mo  Mo226  1  0.28132830  0.70049016  0.30295822  1
  Mo  Mo227  1  0.79211729  0.00393874  0.59796036  1
  Mo  Mo228  1  0.30828807  0.09624864  0.09967295  1
  Mo  Mo229  1  0.78758837  -0.00105534  0.00106422  1
  Mo  Mo230  1  0.70846124  0.28939394  0.50166776  1
  Mo  Mo231  1  0.50726426  0.89570503  0.10596293  1
  Mo  Mo232  1  0.70648218  0.49664621  0.50771898  1
  Mo  Mo233  1  0.90073638  0.09811245  0.10569094  1
  Mo  Mo234  1  0.79680649  0.40045249  -0.00012784  1
  Mo  Mo235  1  0.19954854  -0.00813532  0.80968113  1
  Mo  Mo236  1  0.40719878  0.60051171  0.19909442  1
  Mo  Mo237  1  0.20066680  0.20036437  0.59418701  1
  Mo  Mo238  1  0.52065059  0.70693746  0.30197936  1
  Mo  Mo239  1  0.90336744  0.29870220  0.29847242  1
  Mo  Mo240  1  0.78721778  0.80353336  0.79286932  1
  Mo  Mo241  1  0.09513846  0.49731173  0.30394368  1
  Mo  Mo242  1  -0.00524336  0.59287951  0.59754517  1
  Mo  Mo243  1  0.40340522  -0.00388433  0.20781623  1
  Mo  Mo244  1  0.21192641  0.79734888  0.59447663  1
  Mo  Mo245  1  0.40473443  0.40293051  0.00542509  1
  Mo  Mo246  1  0.39416246  0.00229813  0.58523256  1
  Mo  Mo247  1  0.00067857  0.60360031  0.79263810  1
  Mo  Mo248  1  -0.00465120  0.60236909  -0.00379253  1
  Mo  Mo249  1  0.10154442  0.69807201  0.49412141  1
