# generated using pymatgen
data_HfZrTaTiMo
_symmetry_space_group_name_H-M   'P 1'
_cell_length_a   16.88442168
_cell_length_b   16.89095620
_cell_length_c   16.88400367
_cell_angle_alpha   89.97855089
_cell_angle_beta   89.96191758
_cell_angle_gamma   89.99945225
_symmetry_Int_Tables_number   1
_chemical_formula_structural   HfZrTaTiMo
_chemical_formula_sum   'Hf50 Zr50 Ta50 Ti50 Mo50'
_cell_volume   4815.21560014
_cell_formula_units_Z   50
loop_
 _symmetry_equiv_pos_site_id
 _symmetry_equiv_pos_as_xyz
  1  'x, y, z'
loop_
 _atom_site_type_symbol
 _atom_site_label
 _atom_site_symmetry_multiplicity
 _atom_site_fract_x
 _atom_site_fract_y
 _atom_site_fract_z
 _atom_site_occupancy
  Hf  Hf0  1  0.00477554  0.02545583  0.22424838  1
  Hf  Hf1  1  0.90136731  0.28989415  0.49698725  1
  Hf  Hf2  1  0.80203719  0.61159742  0.59476451  1
  Hf  Hf3  1  0.10360542  0.29697717  0.90535132  1
  Hf  Hf4  1  0.20732231  -0.00411623  0.20071631  1
  Hf  Hf5  1  0.10707037  0.10509722  0.09843842  1
  Hf  Hf6  1  0.20101690  -0.00060611  0.80409972  1
  Hf  Hf7  1  -0.00349127  0.39457629  0.39670618  1
  Hf  Hf8  1  0.69942204  0.49560891  0.50408839  1
  Hf  Hf9  1  0.71019732  0.90166728  0.69945872  1
  Hf  Hf10  1  0.59732555  0.20860565  0.00092695  1
  Hf  Hf11  1  0.30359234  0.50158906  0.90141532  1
  Hf  Hf12  1  0.50275701  0.30557822  0.69653295  1
  Hf  Hf13  1  0.90900881  0.51091116  0.69192727  1
  Hf  Hf14  1  -0.00215794  0.18096475  0.38286925  1
  Hf  Hf15  1  0.29682632  0.89116513  0.69614692  1
  Hf  Hf16  1  -0.00354290  0.60024463  0.39746906  1
  Hf  Hf17  1  0.10493306  0.49454609  0.29700637  1
  Hf  Hf18  1  0.70138953  0.69715670  0.69887840  1
  Hf  Hf19  1  0.49671696  0.10568992  0.69375967  1
  Hf  Hf20  1  0.70410400  0.10221725  0.90294278  1
  Hf  Hf21  1  0.89696491  0.11248442  0.10564132  1
  Hf  Hf22  1  0.69712028  0.09826604  0.09836976  1
  Hf  Hf23  1  0.40430845  0.40447313  0.41066462  1
  Hf  Hf24  1  0.09447113  0.30468295  0.10616418  1
  Hf  Hf25  1  0.09967113  0.09557038  0.50095112  1
  Hf  Hf26  1  0.09464764  0.50520107  0.91207297  1
  Hf  Hf27  1  0.08742896  0.90033201  0.49782222  1
  Hf  Hf28  1  0.30638748  0.10286484  0.09821537  1
  Hf  Hf29  1  0.39480055  0.40002209  0.59722002  1
  Hf  Hf30  1  0.10044737  0.50133656  0.10139441  1
  Hf  Hf31  1  0.09593056  0.50072962  0.50464750  1
  Hf  Hf32  1  0.80324403  0.38677857  0.61105081  1
  Hf  Hf33  1  0.09790792  0.70453271  0.69621839  1
  Hf  Hf34  1  0.49046389  0.69881964  0.69571684  1
  Hf  Hf35  1  0.10104177  0.89925587  0.30483035  1
  Hf  Hf36  1  0.51056085  0.11184196  0.50612351  1
  Hf  Hf37  1  0.10181496  0.29805482  0.29808096  1
  Hf  Hf38  1  0.10669659  0.70405994  0.30110707  1
  Hf  Hf39  1  0.80745177  0.20601760  0.78638743  1
  Hf  Hf40  1  0.40629904  -0.02543796  0.19780973  1
  Hf  Hf41  1  0.50235478  0.30706955  0.29396000  1
  Hf  Hf42  1  0.58726329  -0.00530644  0.80258468  1
  Hf  Hf43  1  0.80032099  0.00170197  0.21051078  1
  Hf  Hf44  1  0.29821665  0.30539572  0.89740024  1
  Hf  Hf45  1  0.59559651  0.80226166  0.20964237  1
  Hf  Hf46  1  0.39640542  -0.01041707  -0.01251123  1
  Hf  Hf47  1  0.90509153  0.91034107  0.10733737  1
  Hf  Hf48  1  0.49629677  0.69612242  0.10166309  1
  Hf  Hf49  1  0.80626270  0.40036599  0.79576380  1
  Zr  Zr50  1  0.29373323  0.30211807  0.30485639  1
  Zr  Zr51  1  0.70364229  0.30405578  0.90034844  1
  Zr  Zr52  1  0.90755860  0.89804779  0.32234422  1
  Zr  Zr53  1  0.19015760  0.40483068  0.79074163  1
  Zr  Zr54  1  0.61342902  0.60130999  0.21282602  1
  Zr  Zr55  1  0.59803724  0.20441607  0.79802870  1
  Zr  Zr56  1  0.89743808  0.68970897  0.89793462  1
  Zr  Zr57  1  0.30096530  0.70483303  0.50556998  1
  Zr  Zr58  1  0.89743570  0.49487016  0.49828847  1
  Zr  Zr59  1  0.80664026  0.79572163  0.00571692  1
  Zr  Zr60  1  0.60705495  0.79811059  0.59306156  1
  Zr  Zr61  1  0.79693391  0.79597443  0.20462881  1
  Zr  Zr62  1  0.90206216  0.89820104  0.89614969  1
  Zr  Zr63  1  0.29332696  0.09504043  0.69181452  1
  Zr  Zr64  1  0.51743301  0.89382100  0.07620467  1
  Zr  Zr65  1  0.49969331  0.50496757  0.10634434  1
  Zr  Zr66  1  0.59600002  0.40160363  0.00138828  1
  Zr  Zr67  1  0.60195950  -0.01181595  0.59052215  1
  Zr  Zr68  1  0.78995747  0.60272697  0.39150317  1
  Zr  Zr69  1  -0.00015666  0.39786005  0.79532929  1
  Zr  Zr70  1  0.39758692  0.20726214  0.41266453  1
  Zr  Zr71  1  0.00172458  0.79456855  0.19515138  1
  Zr  Zr72  1  0.69781556  0.89534030  0.31795116  1
  Zr  Zr73  1  0.19581436  0.59902779  0.79757250  1
  Zr  Zr74  1  0.10029506  0.90086254  0.69597235  1
  Zr  Zr75  1  0.00318460  0.00139038  -0.00264922  1
  Zr  Zr76  1  0.69634324  0.69743281  0.09105042  1
  Zr  Zr77  1  0.89688412  0.49829359  0.10080325  1
  Zr  Zr78  1  0.39164608  0.40760413  0.19185857  1
  Zr  Zr79  1  0.50296306  0.09648053  0.10129354  1
  Zr  Zr80  1  0.50535016  0.69498048  0.49889090  1
  Zr  Zr81  1  0.70002415  0.09973609  0.68988445  1
  Zr  Zr82  1  0.89973664  0.89698469  0.69779417  1
  Zr  Zr83  1  0.69533709  0.09902223  0.30449780  1
  Zr  Zr84  1  0.40348071  -0.00689091  0.40158280  1
  Zr  Zr85  1  0.60883037  0.20729448  0.40083470  1
  Zr  Zr86  1  -0.00247856  0.20403659  0.00250853  1
  Zr  Zr87  1  0.39839982  0.59518447  0.40135837  1
  Zr  Zr88  1  0.40279686  0.20645220  -0.00494244  1
  Zr  Zr89  1  0.39385144  0.59023337  0.60015655  1
  Zr  Zr90  1  -0.00199970  0.60696275  0.19651849  1
  Zr  Zr91  1  0.39961987  -0.00430544  0.59180653  1
  Zr  Zr92  1  0.29478771  0.50273970  0.30208403  1
  Zr  Zr93  1  0.59189640  0.79907225  0.80555373  1
  Zr  Zr94  1  0.69212858  0.90019257  0.90970471  1
  Zr  Zr95  1  0.30864883  0.10547563  0.29740881  1
  Zr  Zr96  1  0.00732364  0.79052879  0.00676236  1
  Zr  Zr97  1  0.09158488  0.10201661  0.69298477  1
  Zr  Zr98  1  0.59645539  0.59724659  0.80515773  1
  Zr  Zr99  1  0.50009877  0.10412549  0.29351813  1
  Ta  Ta100  1  0.59811012  0.59523685  -0.00739015  1
  Ta  Ta101  1  0.50709360  0.50080718  0.30009852  1
  Ta  Ta102  1  0.09924238  0.29174925  0.49723054  1
  Ta  Ta103  1  0.90050836  0.29500529  0.90174008  1
  Ta  Ta104  1  0.89580222  0.70603012  0.30779047  1
  Ta  Ta105  1  0.20019532  0.19930220  0.20065473  1
  Ta  Ta106  1  0.39152762  0.79921610  0.00102579  1
  Ta  Ta107  1  0.48855676  0.31392606  0.88818227  1
  Ta  Ta108  1  0.19519072  0.59824610  0.60464092  1
  Ta  Ta109  1  0.48916790  0.69731913  0.90775100  1
  Ta  Ta110  1  0.80468090  0.00096330  0.41841784  1
  Ta  Ta111  1  0.30061419  0.70108234  0.89760475  1
  Ta  Ta112  1  0.09563176  0.70197262  0.50071356  1
  Ta  Ta113  1  0.10744602  0.90092028  0.10096430  1
  Ta  Ta114  1  0.80369742  0.00548285  -0.00143383  1
  Ta  Ta115  1  0.00582660  0.38671757  0.60684282  1
  Ta  Ta116  1  -0.00236143  0.00718006  0.80102325  1
  Ta  Ta117  1  0.90033571  0.10878054  0.89671124  1
  Ta  Ta118  1  0.50509456  0.49554262  0.69892757  1
  Ta  Ta119  1  0.29815232  0.30275339  0.70137436  1
  Ta  Ta120  1  0.10408041  0.89593697  0.89781195  1
  Ta  Ta121  1  0.89762199  0.29980980  0.28667760  1
  Ta  Ta122  1  0.89227721  0.48806252  0.29305339  1
  Ta  Ta123  1  0.21411228  0.60933641  0.19210746  1
  Ta  Ta124  1  0.00322246  0.60212220  0.79549885  1
  Ta  Ta125  1  0.60484836  0.21322678  0.19496336  1
  Ta  Ta126  1  0.10326708  0.10381957  0.89822383  1
  Ta  Ta127  1  0.70912082  0.50311444  0.90254867  1
  Ta  Ta128  1  0.39789506  -0.00219247  0.80475186  1
  Ta  Ta129  1  0.60539786  0.40358965  0.39847157  1
  Ta  Ta130  1  0.49619133  0.69741693  0.30245630  1
  Ta  Ta131  1  0.80821393  0.00726831  0.79799395  1
  Ta  Ta132  1  0.29799738  0.70716686  0.70364750  1
  Ta  Ta133  1  0.20286944  0.79960246  0.40105993  1
  Ta  Ta134  1  0.29948787  0.88905156  0.30159021  1
  Ta  Ta135  1  0.19777476  0.20693890  0.60063542  1
  Ta  Ta136  1  0.39375015  0.19978385  0.79702359  1
  Ta  Ta137  1  0.69664054  0.90818997  0.09416558  1
  Ta  Ta138  1  0.19724598  0.20230381  0.79590713  1
  Ta  Ta139  1  0.20332185  -0.00164530  0.39985239  1
  Ta  Ta140  1  0.51480408  0.30661500  0.50967363  1
  Ta  Ta141  1  0.69548054  0.50036495  0.69705527  1
  Ta  Ta142  1  0.39057833  0.20963494  0.59730914  1
  Ta  Ta143  1  0.27916562  0.49321484  0.49961399  1
  Ta  Ta144  1  0.70776598  0.30788166  0.29682792  1
  Ta  Ta145  1  0.80609370  0.39659748  0.00062334  1
  Ta  Ta146  1  0.20485930  -0.00701155  -0.00217336  1
  Ta  Ta147  1  0.90280848  0.70934724  0.49413078  1
  Ta  Ta148  1  0.20510249  0.79857601  0.00477175  1
  Ta  Ta149  1  0.70536137  0.49691485  0.09889588  1
  Ti  Ti150  1  0.29287689  0.88831420  0.89494261  1
  Ti  Ti151  1  0.70135408  0.69391838  0.90207274  1
  Ti  Ti152  1  0.29545139  0.29171248  0.09693411  1
  Ti  Ti153  1  0.79787377  0.20417374  0.20084083  1
  Ti  Ti154  1  0.48853569  0.89307878  0.69633299  1
  Ti  Ti155  1  0.90022709  0.50423365  0.90361950  1
  Ti  Ti156  1  0.49723753  0.10153873  0.89931188  1
  Ti  Ti157  1  0.28921736  0.10213464  0.50075628  1
  Ti  Ti158  1  0.70919320  0.30680548  0.10461216  1
  Ti  Ti159  1  0.39868154  0.80253221  0.80629577  1
  Ti  Ti160  1  0.51696837  0.49890321  0.50946824  1
  Ti  Ti161  1  0.59722763  -0.00953601  0.40754282  1
  Ti  Ti162  1  0.20233169  0.60763570  0.40146502  1
  Ti  Ti163  1  0.60531490  0.40373849  0.79791286  1
  Ti  Ti164  1  -0.01759653  0.00219230  0.59805131  1
  Ti  Ti165  1  0.80382466  0.59843388  0.79637588  1
  Ti  Ti166  1  0.80133944  0.80257346  0.58823105  1
  Ti  Ti167  1  0.20846274  0.40554199  0.00885541  1
  Ti  Ti168  1  0.18935924  0.39754831  0.60627773  1
  Ti  Ti169  1  0.29607704  0.89669502  0.50060772  1
  Ti  Ti170  1  0.90046344  0.10058006  0.50454097  1
  Ti  Ti171  1  0.20377960  0.61133166  0.00948046  1
  Ti  Ti172  1  0.49236540  0.49611194  0.89572757  1
  Ti  Ti173  1  0.59636516  -0.01028020  0.20804586  1
  Ti  Ti174  1  0.00068222  0.79456053  0.80088857  1
  Ti  Ti175  1  0.29876495  0.49706871  0.70006211  1
  Ti  Ti176  1  0.80295704  0.79371754  0.79867463  1
  Ti  Ti177  1  0.70473806  0.10061506  0.50588925  1
  Ti  Ti178  1  0.10711937  0.70344163  0.89936986  1
  Ti  Ti179  1  -0.00909382  0.39731300  0.00192151  1
  Ti  Ti180  1  0.39803006  0.59688309  0.79796665  1
  Ti  Ti181  1  -0.01013688  0.79528329  0.59899404  1
  Ti  Ti182  1  0.49850291  0.88230076  0.49180397  1
  Ti  Ti183  1  0.21043665  0.79499078  0.19192149  1
  Ti  Ti184  1  0.80528144  0.19938864  0.60438347  1
  Ti  Ti185  1  0.80065232  0.19740599  0.39730094  1
  Ti  Ti186  1  0.39405531  0.79409784  0.19967948  1
  Ti  Ti187  1  0.80046567  0.60563126  0.20149869  1
  Ti  Ti188  1  0.60734694  0.60188698  0.39919505  1
  Ti  Ti189  1  0.19750863  0.79951239  0.59418981  1
  Ti  Ti190  1  0.39016024  0.60038135  0.00880119  1
  Ti  Ti191  1  0.70626877  0.48394062  0.29321952  1
  Ti  Ti192  1  0.49685645  0.30359487  0.10685573  1
  Ti  Ti193  1  0.39649135  0.40347446  0.00522495  1
  Ti  Ti194  1  0.20665951  0.40296041  0.19097662  1
  Ti  Ti195  1  -0.00120780  0.61143420  0.00724652  1
  Ti  Ti196  1  0.29208156  0.10861531  0.90289437  1
  Ti  Ti197  1  0.70286451  0.30190107  0.50214819  1
  Ti  Ti198  1  0.39770897  0.79705066  0.39342851  1
  Ti  Ti199  1  0.28225793  0.30542000  0.49820128  1
  Mo  Mo200  1  0.20220372  0.19682993  -0.00183772  1
  Mo  Mo201  1  0.80147025  0.20473999  0.00389610  1
  Mo  Mo202  1  0.19133956  0.39621804  0.40882363  1
  Mo  Mo203  1  0.80524633  0.00479111  0.59612862  1
  Mo  Mo204  1  0.11325761  0.70107647  0.09789338  1
  Mo  Mo205  1  -0.00396640  0.00296084  0.40725175  1
  Mo  Mo206  1  0.00075198  0.20481897  0.20315301  1
  Mo  Mo207  1  -0.00042301  0.61220329  0.59748871  1
  Mo  Mo208  1  0.89403233  0.30207612  0.10103497  1
  Mo  Mo209  1  0.39899912  0.40558042  0.79362581  1
  Mo  Mo210  1  0.09427497  0.50618773  0.69023235  1
  Mo  Mo211  1  0.70250432  0.70213457  0.49681043  1
  Mo  Mo212  1  0.89907505  0.90010161  0.50634405  1
  Mo  Mo213  1  0.40011259  0.21346294  0.19138025  1
  Mo  Mo214  1  0.39946567  0.60681386  0.20629809  1
  Mo  Mo215  1  0.29690811  0.50657411  0.09376372  1
  Mo  Mo216  1  -0.00132164  0.19909894  0.59906129  1
  Mo  Mo217  1  0.60094537  0.79047682  0.40091422  1
  Mo  Mo218  1  0.20441830  -0.00624418  0.58690441  1
  Mo  Mo219  1  0.49681683  0.88792178  0.31235912  1
  Mo  Mo220  1  0.90149062  0.09802994  0.69757879  1
  Mo  Mo221  1  0.88113722  0.10640905  0.30662855  1
  Mo  Mo222  1  0.59550132  0.78265538  -0.00675097  1
  Mo  Mo223  1  0.10276218  0.29411455  0.69570123  1
  Mo  Mo224  1  0.60553146  0.40213567  0.59955808  1
  Mo  Mo225  1  -0.00423104  0.39924926  0.20085411  1
  Mo  Mo226  1  0.60374844  0.59547047  0.60235554  1
  Mo  Mo227  1  0.30239597  0.70516144  0.29790461  1
  Mo  Mo228  1  0.79862767  0.39115656  0.39465890  1
  Mo  Mo229  1  0.29765271  0.89341963  0.09990929  1
  Mo  Mo230  1  0.70735273  0.89899185  0.50014962  1
  Mo  Mo231  1  0.69840328  0.70323213  0.30647713  1
  Mo  Mo232  1  0.79893834  0.39677357  0.19441207  1
  Mo  Mo233  1  0.00182816  0.19870548  0.79919375  1
  Mo  Mo234  1  0.90199680  0.70371787  0.69831429  1
  Mo  Mo235  1  0.61396398  0.21154977  0.59782500  1
  Mo  Mo236  1  0.60738245  0.40069663  0.20151194  1
  Mo  Mo237  1  0.79623136  0.59137585  -0.00363171  1
  Mo  Mo238  1  0.00329300  0.79528332  0.40403531  1
  Mo  Mo239  1  0.69679440  0.30427804  0.69450578  1
  Mo  Mo240  1  0.60235973  0.00894948  -0.00827989  1
  Mo  Mo241  1  0.19929140  0.79719560  0.80756811  1
  Mo  Mo242  1  0.12054463  0.10170814  0.30471461  1
  Mo  Mo243  1  0.91327422  0.28749919  0.69839797  1
  Mo  Mo244  1  0.19799269  0.19611529  0.40408663  1
  Mo  Mo245  1  0.30600461  0.70086749  0.09767503  1
  Mo  Mo246  1  0.39681809  0.80173948  0.59965299  1
  Mo  Mo247  1  0.89221109  0.69015277  0.10573786  1
  Mo  Mo248  1  0.79670276  0.79850724  0.41297035  1
  Mo  Mo249  1  0.48845892  0.89298543  0.89477253  1
