# generated using pymatgen
data_HfZrTaTiMo
_symmetry_space_group_name_H-M   'P 1'
_cell_length_a   16.87892245
_cell_length_b   16.87930836
_cell_length_c   16.88412674
_cell_angle_alpha   89.99890366
_cell_angle_beta   89.94469713
_cell_angle_gamma   90.00422346
_symmetry_Int_Tables_number   1
_chemical_formula_structural   HfZrTaTiMo
_chemical_formula_sum   'Hf50 Zr50 Ta50 Ti50 Mo50'
_cell_volume   4810.36205367
_cell_formula_units_Z   50
loop_
 _symmetry_equiv_pos_site_id
 _symmetry_equiv_pos_as_xyz
  1  'x, y, z'
loop_
 _atom_site_type_symbol
 _atom_site_label
 _atom_site_symmetry_multiplicity
 _atom_site_fract_x
 _atom_site_fract_y
 _atom_site_fract_z
 _atom_site_occupancy
  Hf  Hf0  1  0.70594414  0.49119240  0.50627726  1
  Hf  Hf1  1  0.19830569  0.59963419  0.00484601  1
  Hf  Hf2  1  0.90363812  0.89805529  0.50057177  1
  Hf  Hf3  1  0.59437267  0.80636689  0.79958904  1
  Hf  Hf4  1  0.70572833  0.88808133  0.30123128  1
  Hf  Hf5  1  0.50785100  0.49666868  0.89974899  1
  Hf  Hf6  1  0.49522127  0.09581066  0.30039853  1
  Hf  Hf7  1  0.11453328  0.28448326  0.30603849  1
  Hf  Hf8  1  0.29957450  0.48847493  0.89101091  1
  Hf  Hf9  1  0.80005469  -0.00264595  0.19481743  1
  Hf  Hf10  1  0.80531090  0.20416936  0.79758223  1
  Hf  Hf11  1  0.39924301  0.19905221  0.20032952  1
  Hf  Hf12  1  0.89718584  0.69194609  0.70635234  1
  Hf  Hf13  1  0.50124890  0.70970195  0.30547658  1
  Hf  Hf14  1  0.40377936  0.60401149  0.60138629  1
  Hf  Hf15  1  0.29763896  0.48980531  0.49966000  1
  Hf  Hf16  1  0.19663212  0.79334681  0.60035177  1
  Hf  Hf17  1  0.49304623  0.90532145  0.30133961  1
  Hf  Hf18  1  0.40429229  0.20115674  0.80663267  1
  Hf  Hf19  1  0.10197416  0.09991945  0.09725193  1
  Hf  Hf20  1  0.09510780  0.50279547  0.88985713  1
  Hf  Hf21  1  0.09785166  0.89464479  0.29978094  1
  Hf  Hf22  1  0.89892279  0.10328188  0.30341528  1
  Hf  Hf23  1  0.20542714  0.60667736  0.79479337  1
  Hf  Hf24  1  0.18447349  0.41568410  0.20122167  1
  Hf  Hf25  1  0.88627717  0.30712790  0.30387705  1
  Hf  Hf26  1  0.60843079  0.59778644  0.39878208  1
  Hf  Hf27  1  0.38930974  0.80333334  0.20004357  1
  Hf  Hf28  1  0.30183257  0.90146540  0.89381946  1
  Hf  Hf29  1  0.39698625  0.20270519  0.41249612  1
  Hf  Hf30  1  0.19082545  0.60370933  0.60037312  1
  Hf  Hf31  1  0.29405209  0.29599993  0.10667882  1
  Hf  Hf32  1  0.19766383  0.00160833  0.80183888  1
  Hf  Hf33  1  0.09803300  0.10799921  0.68959984  1
  Hf  Hf34  1  0.40009522  0.79885600  0.60311934  1
  Hf  Hf35  1  0.00058411  0.79125462  0.19280019  1
  Hf  Hf36  1  0.00839934  0.78763888  0.59144965  1
  Hf  Hf37  1  0.69346409  0.10960677  0.29942142  1
  Hf  Hf38  1  0.19405024  0.39650646  -0.00168849  1
  Hf  Hf39  1  0.70307525  0.50006629  0.90202557  1
  Hf  Hf40  1  -0.00037234  0.60386823  0.01575362  1
  Hf  Hf41  1  0.00779374  0.00558826  0.81513700  1
  Hf  Hf42  1  0.09662831  0.70374725  0.90356682  1
  Hf  Hf43  1  0.19889920  0.20475886  0.81000480  1
  Hf  Hf44  1  0.00267086  0.40746197  0.39249042  1
  Hf  Hf45  1  0.40391969  0.00786712  -0.00356959  1
  Hf  Hf46  1  0.60181707  0.39531047  0.40218226  1
  Hf  Hf47  1  0.19748990  0.00796888  0.40417184  1
  Hf  Hf48  1  0.59123361  0.20602881  0.59649133  1
  Hf  Hf49  1  0.51011979  0.69384412  0.09516611  1
  Zr  Zr50  1  0.20476673  0.79767832  0.78819987  1
  Zr  Zr51  1  0.40007779  0.79348331  -0.01232990  1
  Zr  Zr52  1  0.70531165  0.69928659  0.70252165  1
  Zr  Zr53  1  0.79638091  0.00067307  0.80407555  1
  Zr  Zr54  1  0.59906971  -0.00439358  0.40730942  1
  Zr  Zr55  1  0.91071501  0.50504481  0.69228870  1
  Zr  Zr56  1  0.80092705  -0.00183668  0.40208106  1
  Zr  Zr57  1  -0.00109555  0.80545091  0.80376512  1
  Zr  Zr58  1  0.39960921  0.61296278  0.79998735  1
  Zr  Zr59  1  0.30201910  0.90003327  0.49037258  1
  Zr  Zr60  1  0.29924987  0.69987301  0.48546044  1
  Zr  Zr61  1  0.90771770  0.09588435  0.09161606  1
  Zr  Zr62  1  0.00172009  0.39650545  0.79532919  1
  Zr  Zr63  1  0.80484036  0.39769940  0.79154683  1
  Zr  Zr64  1  0.70606284  0.70114512  0.49789321  1
  Zr  Zr65  1  -0.00168559  0.40396080  0.19958916  1
  Zr  Zr66  1  0.59655279  0.60268881  0.79922807  1
  Zr  Zr67  1  0.40183493  0.59980572  0.20439087  1
  Zr  Zr68  1  0.90658956  0.10585267  0.90713770  1
  Zr  Zr69  1  0.80070676  0.59691153  0.21096353  1
  Zr  Zr70  1  0.00086651  0.20169393  0.20159274  1
  Zr  Zr71  1  0.50796391  0.30093726  0.10969833  1
  Zr  Zr72  1  0.20061606  -0.00164700  0.20071661  1
  Zr  Zr73  1  0.50061942  0.10109997  0.70728994  1
  Zr  Zr74  1  0.70080898  0.30369032  0.89733265  1
  Zr  Zr75  1  0.59324392  -0.01252642  0.60256250  1
  Zr  Zr76  1  0.09247375  0.91415080  0.68410963  1
  Zr  Zr77  1  0.40231811  0.38927162  -0.00474167  1
  Zr  Zr78  1  0.70215051  0.89002666  0.09747364  1
  Zr  Zr79  1  0.28816167  0.11170267  0.30163572  1
  Zr  Zr80  1  0.41198189  0.60074375  0.40289417  1
  Zr  Zr81  1  0.00809166  0.00483724  0.39931689  1
  Zr  Zr82  1  0.80254246  0.20730165  0.59886145  1
  Zr  Zr83  1  0.89528390  0.50233064  0.90557985  1
  Zr  Zr84  1  0.70609805  0.69704129  0.90327560  1
  Zr  Zr85  1  0.49824882  0.90124773  0.10371737  1
  Zr  Zr86  1  0.89840389  0.90693770  0.69182713  1
  Zr  Zr87  1  0.90564356  0.09637843  0.68995090  1
  Zr  Zr88  1  0.70380227  0.09832595  0.50852811  1
  Zr  Zr89  1  0.29550177  0.50172691  0.30858623  1
  Zr  Zr90  1  0.10531376  0.31043951  0.68736089  1
  Zr  Zr91  1  0.29789899  0.48868664  0.69591011  1
  Zr  Zr92  1  0.29590368  0.69844097  0.10148356  1
  Zr  Zr93  1  0.60395962  0.19231765  0.00570903  1
  Zr  Zr94  1  0.29891464  0.30663711  0.69726895  1
  Zr  Zr95  1  0.30470005  0.49945904  0.10279846  1
  Zr  Zr96  1  0.79353751  0.19962673  0.18812663  1
  Zr  Zr97  1  0.61164046  0.59648509  0.21086325  1
  Zr  Zr98  1  0.29544410  0.30788878  0.30792624  1
  Zr  Zr99  1  0.29975858  0.09722419  0.69886991  1
  Ta  Ta100  1  0.00056305  -0.00548741  0.20121738  1
  Ta  Ta101  1  0.20619566  0.19842562  -0.00688847  1
  Ta  Ta102  1  0.19729674  0.00503315  -0.00696509  1
  Ta  Ta103  1  0.59905226  0.79990061  0.40897895  1
  Ta  Ta104  1  0.59794015  0.79797737  -0.00886646  1
  Ta  Ta105  1  0.40134126  0.19766758  -0.00516433  1
  Ta  Ta106  1  0.69008007  0.30382680  0.69991141  1
  Ta  Ta107  1  0.89061083  0.49271321  0.10278949  1
  Ta  Ta108  1  0.60110918  0.00068322  -0.00384984  1
  Ta  Ta109  1  0.89663784  0.69504679  0.49497623  1
  Ta  Ta110  1  0.60406668  0.39890021  0.00261046  1
  Ta  Ta111  1  0.79112878  0.00444664  0.00072276  1
  Ta  Ta112  1  -0.00415548  0.79684272  0.00638992  1
  Ta  Ta113  1  0.79462056  0.20063201  0.00246336  1
  Ta  Ta114  1  0.50672680  0.48769014  0.29755447  1
  Ta  Ta115  1  0.59793286  0.00148182  0.80780669  1
  Ta  Ta116  1  0.40463120  0.60264888  -0.01043051  1
  Ta  Ta117  1  -0.00457548  0.59658677  0.39603240  1
  Ta  Ta118  1  0.89680914  0.70465863  0.30625884  1
  Ta  Ta119  1  -0.00084321  0.20718265  0.58552760  1
  Ta  Ta120  1  0.50277140  0.48925415  0.69749693  1
  Ta  Ta121  1  0.69632043  0.10104385  0.70278933  1
  Ta  Ta122  1  0.89714289  0.89965281  0.91416088  1
  Ta  Ta123  1  0.10047783  0.69646669  0.29772237  1
  Ta  Ta124  1  0.80124081  0.59676250  0.59717804  1
  Ta  Ta125  1  0.69976584  0.49589750  0.69642592  1
  Ta  Ta126  1  0.60528301  0.00330352  0.19498817  1
  Ta  Ta127  1  0.70043445  0.69864500  0.09911496  1
  Ta  Ta128  1  -0.00024437  0.20130038  0.40708018  1
  Ta  Ta129  1  0.00063506  0.59636047  0.20282725  1
  Ta  Ta130  1  0.70083492  0.49351024  0.10119562  1
  Ta  Ta131  1  0.89929657  0.88755152  0.29896380  1
  Ta  Ta132  1  0.69707505  0.30125709  0.29732932  1
  Ta  Ta133  1  0.90180648  0.30334584  0.91454906  1
  Ta  Ta134  1  0.40244000  0.20745685  0.59562887  1
  Ta  Ta135  1  0.50172535  0.49350382  0.50576245  1
  Ta  Ta136  1  0.50103958  0.09758339  0.10719248  1
  Ta  Ta137  1  0.80094533  0.79840536  0.59943147  1
  Ta  Ta138  1  0.70106215  0.89912396  0.90197429  1
  Ta  Ta139  1  0.59427506  0.80096069  0.59764450  1
  Ta  Ta140  1  0.39492813  -0.00112453  0.59887596  1
  Ta  Ta141  1  0.10557729  0.30603744  0.49752499  1
  Ta  Ta142  1  0.59453033  0.20727005  0.40740763  1
  Ta  Ta143  1  0.50971874  0.49928123  0.09952737  1
  Ta  Ta144  1  0.89518681  0.69684464  0.89940527  1
  Ta  Ta145  1  0.19856748  0.79972519  0.19889477  1
  Ta  Ta146  1  0.51357833  0.29595946  0.89173548  1
  Ta  Ta147  1  0.59570511  0.60053743  0.59858649  1
  Ta  Ta148  1  0.10016210  0.89914270  0.09425209  1
  Ta  Ta149  1  0.80202430  0.59185451  0.39397378  1
  Ti  Ti150  1  0.50351259  0.70324244  0.69795291  1
  Ti  Ti151  1  0.10441468  0.29422701  0.10180802  1
  Ti  Ti152  1  0.10154664  0.49084928  0.50284839  1
  Ti  Ti153  1  0.49701635  0.90521377  0.89480188  1
  Ti  Ti154  1  0.30653170  0.90475883  0.30547911  1
  Ti  Ti155  1  0.60559228  0.79623746  0.20216588  1
  Ti  Ti156  1  0.20932314  0.19997645  0.58772285  1
  Ti  Ti157  1  0.39476371  0.79421007  0.79584407  1
  Ti  Ti158  1  0.40956912  0.38827684  0.79734292  1
  Ti  Ti159  1  0.29635125  0.90671372  0.09541982  1
  Ti  Ti160  1  0.19935192  0.79934892  0.00370018  1
  Ti  Ti161  1  0.80289962  0.79880418  0.00153525  1
  Ti  Ti162  1  0.00517900  0.40208595  0.00922987  1
  Ti  Ti163  1  0.89198885  0.30742734  0.09361737  1
  Ti  Ti164  1  0.30103848  0.09864243  0.10064250  1
  Ti  Ti165  1  0.00308543  0.59715876  0.58183007  1
  Ti  Ti166  1  0.09827821  0.89938901  0.91267087  1
  Ti  Ti167  1  0.41142111  0.39339378  0.40610469  1
  Ti  Ti168  1  0.49123085  0.09310284  0.49939076  1
  Ti  Ti169  1  0.90643195  0.30692165  0.68475130  1
  Ti  Ti170  1  0.00154779  0.20587563  0.80087221  1
  Ti  Ti171  1  0.30375654  0.09810505  0.89866081  1
  Ti  Ti172  1  0.40436955  0.40136626  0.20472600  1
  Ti  Ti173  1  0.20246903  -0.00216053  0.59131267  1
  Ti  Ti174  1  0.80122882  0.80579863  0.80185909  1
  Ti  Ti175  1  0.10306284  0.10881409  0.50062265  1
  Ti  Ti176  1  0.50757674  0.29744131  0.29722224  1
  Ti  Ti177  1  0.59344136  0.39388766  0.60133910  1
  Ti  Ti178  1  0.89504025  0.49326599  0.49890289  1
  Ti  Ti179  1  0.48717734  0.89446778  0.49001805  1
  Ti  Ti180  1  0.00799365  0.20797180  -0.00321353  1
  Ti  Ti181  1  0.09877247  0.30338640  0.89928006  1
  Ti  Ti182  1  0.89937335  0.31432391  0.49931271  1
  Ti  Ti183  1  0.70665370  0.30652418  0.50208269  1
  Ti  Ti184  1  0.79893283  0.20465639  0.40748682  1
  Ti  Ti185  1  0.29276693  0.31177742  0.50238860  1
  Ti  Ti186  1  0.48632658  0.90616077  0.70916383  1
  Ti  Ti187  1  0.79759967  0.59891567  0.00933023  1
  Ti  Ti188  1  0.00552315  0.79148782  0.40410557  1
  Ti  Ti189  1  0.90039479  0.09437363  0.50631151  1
  Ti  Ti190  1  0.29134214  0.70070083  0.30287297  1
  Ti  Ti191  1  0.69842476  0.30787391  0.10784264  1
  Ti  Ti192  1  0.90166395  0.89901189  0.09727903  1
  Ti  Ti193  1  0.19136448  0.79928070  0.39991078  1
  Ti  Ti194  1  0.70863975  0.89488055  0.50559564  1
  Ti  Ti195  1  0.70235508  0.90313476  0.69817281  1
  Ti  Ti196  1  0.07930884  0.67936648  0.70983956  1
  Ti  Ti197  1  0.88889613  0.70065274  0.10453361  1
  Ti  Ti198  1  0.18315420  0.59606769  0.39838448  1
  Ti  Ti199  1  0.69543033  0.10284607  0.89514664  1
  Mo  Mo200  1  0.50792409  0.70278581  0.50310006  1
  Mo  Mo201  1  0.79920797  0.39949011  0.39995278  1
  Mo  Mo202  1  0.39579641  0.00169533  0.19410193  1
  Mo  Mo203  1  0.80681985  0.79459994  0.19747764  1
  Mo  Mo204  1  0.10375170  0.89300871  0.49431978  1
  Mo  Mo205  1  0.09408681  0.10266072  0.30227751  1
  Mo  Mo206  1  0.79631768  0.40042981  0.19947015  1
  Mo  Mo207  1  0.70685310  0.48044517  0.30215795  1
  Mo  Mo208  1  0.69585223  0.09512250  0.09758594  1
  Mo  Mo209  1  0.60432060  0.19790342  0.79721252  1
  Mo  Mo210  1  0.09133527  0.50400418  0.09966103  1
  Mo  Mo211  1  0.10091608  0.10945773  0.90683151  1
  Mo  Mo212  1  0.50070493  0.30245511  0.69954405  1
  Mo  Mo213  1  0.29775440  0.70387304  0.90128522  1
  Mo  Mo214  1  -0.00098925  0.40249731  0.58672472  1
  Mo  Mo215  1  0.30677550  0.70514845  0.69662418  1
  Mo  Mo216  1  0.18882819  0.60726009  0.20472378  1
  Mo  Mo217  1  0.60362069  0.39900511  0.20207682  1
  Mo  Mo218  1  0.40067387  0.80154880  0.39508452  1
  Mo  Mo219  1  0.50380130  0.09991425  0.90427967  1
  Mo  Mo220  1  0.40747267  0.39532750  0.59594681  1
  Mo  Mo221  1  0.00429650  -0.01223236  0.00427134  1
  Mo  Mo222  1  0.50188716  0.70201129  0.89998530  1
  Mo  Mo223  1  0.60313980  0.59672068  0.00594268  1
  Mo  Mo224  1  0.30555053  0.90391954  0.69749028  1
  Mo  Mo225  1  0.19647691  0.39934932  0.80234607  1
  Mo  Mo226  1  0.30416554  0.29736596  0.90171327  1
  Mo  Mo227  1  0.10211710  0.70478541  0.10418269  1
  Mo  Mo228  1  0.80081859  0.59699175  0.79446458  1
  Mo  Mo229  1  0.49720270  0.30349909  0.50161779  1
  Mo  Mo230  1  0.09495844  0.69335221  0.48540676  1
  Mo  Mo231  1  0.19912894  0.20170855  0.41930517  1
  Mo  Mo232  1  0.59841220  0.39842492  0.79393219  1
  Mo  Mo233  1  0.59826558  0.19954174  0.20670484  1
  Mo  Mo234  1  0.70433561  0.71448848  0.30265987  1
  Mo  Mo235  1  0.00853886  0.01013176  0.58233544  1
  Mo  Mo236  1  0.30129381  0.10142667  0.50711165  1
  Mo  Mo237  1  0.40143354  -0.00164926  0.80108585  1
  Mo  Mo238  1  0.09754036  0.50578896  0.69191349  1
  Mo  Mo239  1  0.19406139  0.40609509  0.59677705  1
  Mo  Mo240  1  0.79739893  0.39536681  0.00914060  1
  Mo  Mo241  1  0.80343793  0.79580178  0.40299862  1
  Mo  Mo242  1  0.09653965  0.51071748  0.30096079  1
  Mo  Mo243  1  0.39554676  0.00322916  0.40449378  1
  Mo  Mo244  1  0.80017222  0.40058912  0.59869526  1
  Mo  Mo245  1  0.89828214  0.50386368  0.30107691  1
  Mo  Mo246  1  -0.00404583  0.60138882  0.81332370  1
  Mo  Mo247  1  0.79503168  -0.00766647  0.60210148  1
  Mo  Mo248  1  0.19322133  0.40405074  0.40321985  1
  Mo  Mo249  1  0.19947744  0.19736797  0.18342458  1
