# generated using pymatgen
data_HfZrTaTiMo
_symmetry_space_group_name_H-M   'P 1'
_cell_length_a   16.87618246
_cell_length_b   16.88969334
_cell_length_c   16.88795883
_cell_angle_alpha   89.93489427
_cell_angle_beta   90.02327972
_cell_angle_gamma   90.01776854
_symmetry_Int_Tables_number   1
_chemical_formula_structural   HfZrTaTiMo
_chemical_formula_sum   'Hf50 Zr50 Ta50 Ti50 Mo50'
_cell_volume   4813.63106153
_cell_formula_units_Z   50
loop_
 _symmetry_equiv_pos_site_id
 _symmetry_equiv_pos_as_xyz
  1  'x, y, z'
loop_
 _atom_site_type_symbol
 _atom_site_label
 _atom_site_symmetry_multiplicity
 _atom_site_fract_x
 _atom_site_fract_y
 _atom_site_fract_z
 _atom_site_occupancy
  Hf  Hf0  1  0.00562854  0.19979661  0.80108450  1
  Hf  Hf1  1  0.59886705  0.19697078  0.60666041  1
  Hf  Hf2  1  0.20009885  0.79386686  0.39794907  1
  Hf  Hf3  1  0.87605378  0.10387507  0.89810383  1
  Hf  Hf4  1  0.20927128  0.59154665  0.01431219  1
  Hf  Hf5  1  -0.00398160  -0.01119959  0.79653658  1
  Hf  Hf6  1  0.00820170  0.40562641  0.00931398  1
  Hf  Hf7  1  0.00492141  0.40542526  0.39512864  1
  Hf  Hf8  1  -0.01460800  0.79895451  0.00038097  1
  Hf  Hf9  1  0.69449998  0.70029837  0.09833108  1
  Hf  Hf10  1  0.50512935  0.69734845  0.70709667  1
  Hf  Hf11  1  0.59898144  0.20887527  0.20686539  1
  Hf  Hf12  1  0.70193712  0.89655851  0.29904133  1
  Hf  Hf13  1  0.20448243  0.79192135  0.21072785  1
  Hf  Hf14  1  0.79330372  -0.00753195  0.00650903  1
  Hf  Hf15  1  0.60196264  0.39945710  0.00108009  1
  Hf  Hf16  1  0.20587842  0.40209311  0.59625650  1
  Hf  Hf17  1  0.40584376  0.79834094  0.59841282  1
  Hf  Hf18  1  0.09122699  0.90348171  0.29483872  1
  Hf  Hf19  1  -0.00906126  0.19701265  0.01158591  1
  Hf  Hf20  1  0.70707259  0.50216612  0.29436365  1
  Hf  Hf21  1  0.70180507  0.09112428  0.30134063  1
  Hf  Hf22  1  -0.01296234  0.79550559  0.79029560  1
  Hf  Hf23  1  0.20457995  0.00027103  0.00820370  1
  Hf  Hf24  1  0.69857339  0.50063257  0.49472175  1
  Hf  Hf25  1  0.79252839  -0.01210813  0.60475195  1
  Hf  Hf26  1  0.89778564  0.30983023  0.29640323  1
  Hf  Hf27  1  0.30520363  0.30006246  0.90705667  1
  Hf  Hf28  1  0.10274538  0.50980810  0.49585632  1
  Hf  Hf29  1  0.30541253  0.89518744  0.90899544  1
  Hf  Hf30  1  0.19553868  0.80040731  0.79643445  1
  Hf  Hf31  1  0.40441069  0.19433083  0.80572487  1
  Hf  Hf32  1  0.09882277  0.09145142  0.11505965  1
  Hf  Hf33  1  0.40029908  0.20116145  0.39757071  1
  Hf  Hf34  1  0.70416845  0.29196929  0.89586176  1
  Hf  Hf35  1  0.89334576  0.09874665  0.70261982  1
  Hf  Hf36  1  0.09779735  0.09793106  0.90616095  1
  Hf  Hf37  1  0.60315437  -0.00009431  0.60312574  1
  Hf  Hf38  1  0.49979328  0.29948664  0.50447309  1
  Hf  Hf39  1  0.49411988  0.10367213  0.10483343  1
  Hf  Hf40  1  0.30888347  0.69391892  0.70716442  1
  Hf  Hf41  1  0.20259537  -0.00265229  0.39901748  1
  Hf  Hf42  1  0.90237507  0.89717620  0.49178419  1
  Hf  Hf43  1  0.60043462  0.39670699  0.19699418  1
  Hf  Hf44  1  0.09922930  0.50763367  0.70380220  1
  Hf  Hf45  1  0.90352126  0.29480040  0.49680999  1
  Hf  Hf46  1  0.79900910  0.40937646  0.60003382  1
  Hf  Hf47  1  0.79605278  0.40246323  0.01061806  1
  Hf  Hf48  1  0.89984430  0.08501216  0.29854036  1
  Hf  Hf49  1  0.20330528  0.19987483  0.80337695  1
  Zr  Zr50  1  0.10155441  0.89077198  0.91178714  1
  Zr  Zr51  1  0.89309524  0.29795013  0.90394201  1
  Zr  Zr52  1  0.59332554  0.60180218  0.39496128  1
  Zr  Zr53  1  0.30902774  0.09383645  0.69570388  1
  Zr  Zr54  1  0.20007153  -0.00162318  0.79874847  1
  Zr  Zr55  1  0.60543245  0.59684937  0.59981560  1
  Zr  Zr56  1  0.20440396  0.19856347  0.58971297  1
  Zr  Zr57  1  0.30215311  0.29853002  0.10299164  1
  Zr  Zr58  1  0.89439724  0.29370791  0.70437902  1
  Zr  Zr59  1  0.90708420  0.51290366  0.90144546  1
  Zr  Zr60  1  0.78973101  0.19747632  0.59891089  1
  Zr  Zr61  1  0.00036868  -0.00965820  0.60499341  1
  Zr  Zr62  1  0.00445708  0.40140832  0.80094396  1
  Zr  Zr63  1  0.79452138  0.20327647  0.39765719  1
  Zr  Zr64  1  0.40185795  0.20712283  0.21010359  1
  Zr  Zr65  1  0.31614237  0.90142403  0.70456831  1
  Zr  Zr66  1  0.11252384  0.29422986  0.10701569  1
  Zr  Zr67  1  0.42129549  0.79479270  0.82424326  1
  Zr  Zr68  1  0.61145432  0.59539368  0.79500749  1
  Zr  Zr69  1  -0.01399366  -0.00325199  0.01072447  1
  Zr  Zr70  1  0.80028784  0.20283407  0.19159606  1
  Zr  Zr71  1  0.61697011  0.80120026  0.60458825  1
  Zr  Zr72  1  0.10358457  0.70333932  0.10009147  1
  Zr  Zr73  1  0.40396205  0.60582555  0.00232717  1
  Zr  Zr74  1  0.00256147  0.40924099  0.20096837  1
  Zr  Zr75  1  0.59166145  -0.00178954  0.39560906  1
  Zr  Zr76  1  0.50692393  0.70547480  0.49185118  1
  Zr  Zr77  1  0.20343181  0.42331970  0.19554637  1
  Zr  Zr78  1  0.80864890  0.60987301  0.78796883  1
  Zr  Zr79  1  0.31072297  0.30559511  0.69509178  1
  Zr  Zr80  1  0.79330536  0.41673825  0.79239094  1
  Zr  Zr81  1  0.69297701  0.89858081  0.89199413  1
  Zr  Zr82  1  -0.00096098  0.40230739  0.59894282  1
  Zr  Zr83  1  0.70033710  0.10592774  0.09325259  1
  Zr  Zr84  1  0.09299095  0.69127995  0.69497159  1
  Zr  Zr85  1  0.39556471  0.01044100  -0.00117454  1
  Zr  Zr86  1  0.09814328  0.09942955  0.49508318  1
  Zr  Zr87  1  0.20016738  0.80212828  0.59790539  1
  Zr  Zr88  1  0.39552227  0.40269614  0.39453174  1
  Zr  Zr89  1  0.50345151  0.49419375  0.89679817  1
  Zr  Zr90  1  0.80442313  0.79383759  0.59789124  1
  Zr  Zr91  1  0.00488361  0.19771820  0.21120431  1
  Zr  Zr92  1  0.39957760  0.79469833  0.38606032  1
  Zr  Zr93  1  0.59512060  0.39405508  0.39537038  1
  Zr  Zr94  1  0.09482994  0.68955221  0.89977223  1
  Zr  Zr95  1  0.57734783  0.79580860  -0.00708500  1
  Zr  Zr96  1  0.89616427  0.69852591  0.30011686  1
  Zr  Zr97  1  0.59454591  -0.00340767  0.00048308  1
  Zr  Zr98  1  0.79878807  0.79849642  0.78794271  1
  Zr  Zr99  1  0.21237187  0.60262917  0.59218898  1
  Ta  Ta100  1  0.79991979  0.60173599  0.19999526  1
  Ta  Ta101  1  0.00089521  0.79270803  0.39812599  1
  Ta  Ta102  1  0.89630441  0.69813287  0.10292109  1
  Ta  Ta103  1  0.30333119  0.89468446  0.10710590  1
  Ta  Ta104  1  0.69759907  0.70134964  0.90030725  1
  Ta  Ta105  1  0.29682886  0.09909186  0.29754488  1
  Ta  Ta106  1  0.50724055  0.90157464  0.70961690  1
  Ta  Ta107  1  0.30825918  0.50080862  0.70420607  1
  Ta  Ta108  1  0.39584236  0.40872834  0.00415599  1
  Ta  Ta109  1  0.69456146  0.70347063  0.30043456  1
  Ta  Ta110  1  0.59862941  0.40373818  0.60586206  1
  Ta  Ta111  1  0.39450611  0.60450966  0.20184659  1
  Ta  Ta112  1  0.10614970  0.29782262  0.69797429  1
  Ta  Ta113  1  0.89553989  0.89900985  0.30096896  1
  Ta  Ta114  1  0.50154975  0.89953129  0.49631574  1
  Ta  Ta115  1  0.20387728  0.41066657  -0.00093528  1
  Ta  Ta116  1  0.59719985  0.20511827  -0.00210889  1
  Ta  Ta117  1  0.28302606  0.30450216  0.29979815  1
  Ta  Ta118  1  0.80776650  0.40995209  0.39996703  1
  Ta  Ta119  1  0.49438585  0.30271723  0.09401802  1
  Ta  Ta120  1  0.59617622  -0.01074749  0.19420732  1
  Ta  Ta121  1  0.79606052  0.79329497  0.40294222  1
  Ta  Ta122  1  0.59082965  0.79640652  0.19997086  1
  Ta  Ta123  1  0.29577212  0.70385828  0.90986420  1
  Ta  Ta124  1  0.30682958  0.90316925  0.49690878  1
  Ta  Ta125  1  0.00423936  0.19820001  0.59797721  1
  Ta  Ta126  1  0.20322843  0.40424364  0.80533087  1
  Ta  Ta127  1  0.79697760  0.80092114  0.00369410  1
  Ta  Ta128  1  0.20826245  0.60695383  0.38994959  1
  Ta  Ta129  1  0.59777481  0.00582594  0.80207690  1
  Ta  Ta130  1  0.19963050  -0.00790206  0.59786058  1
  Ta  Ta131  1  0.49424554  0.50260899  0.29349838  1
  Ta  Ta132  1  0.40635817  0.59080386  0.59158897  1
  Ta  Ta133  1  0.10232675  0.50540711  0.90097889  1
  Ta  Ta134  1  0.09738309  0.89285268  0.49828970  1
  Ta  Ta135  1  0.69800470  0.09569913  0.49222389  1
  Ta  Ta136  1  0.89640032  0.09553806  0.49380702  1
  Ta  Ta137  1  0.21099487  0.18866344  0.00263557  1
  Ta  Ta138  1  0.10671647  0.51143855  0.30105639  1
  Ta  Ta139  1  0.59194389  0.60501296  0.19785923  1
  Ta  Ta140  1  0.69866685  0.50711362  0.10264564  1
  Ta  Ta141  1  0.49919706  0.09903310  0.49956080  1
  Ta  Ta142  1  -0.00402818  0.79570587  0.20243472  1
  Ta  Ta143  1  0.49804027  0.50048140  0.10532605  1
  Ta  Ta144  1  0.80132060  0.60556524  0.59838565  1
  Ta  Ta145  1  0.48472853  0.89422711  0.10581897  1
  Ta  Ta146  1  0.79500836  0.79914482  0.19583143  1
  Ta  Ta147  1  0.00349242  0.59943451  0.20110216  1
  Ta  Ta148  1  0.59587376  0.19655103  0.80075406  1
  Ta  Ta149  1  0.10157336  0.09943455  0.69645588  1
  Ti  Ti150  1  0.69785040  0.29983381  0.70360299  1
  Ti  Ti151  1  0.30597801  0.09458180  0.49682918  1
  Ti  Ti152  1  0.69673536  0.89825408  0.48563246  1
  Ti  Ti153  1  0.49681950  0.89523993  0.29411672  1
  Ti  Ti154  1  0.31035349  0.90461864  0.29128892  1
  Ti  Ti155  1  0.40742586  -0.00382511  0.59330906  1
  Ti  Ti156  1  0.59497290  0.60123941  0.00200080  1
  Ti  Ti157  1  0.70308285  0.50748404  0.90701879  1
  Ti  Ti158  1  0.90480838  0.51205760  0.49797295  1
  Ti  Ti159  1  0.30124410  0.50083050  0.49002541  1
  Ti  Ti160  1  0.00118242  0.60418164  0.39366958  1
  Ti  Ti161  1  0.39930816  0.59509218  0.81013303  1
  Ti  Ti162  1  0.89449121  0.50570345  0.10894696  1
  Ti  Ti163  1  0.40291218  0.19723698  0.59729359  1
  Ti  Ti164  1  0.19275923  0.19902077  0.38732525  1
  Ti  Ti165  1  0.70911454  0.30937700  0.29649401  1
  Ti  Ti166  1  0.49740201  0.30032660  0.90261998  1
  Ti  Ti167  1  0.89801152  0.89672992  0.11338264  1
  Ti  Ti168  1  0.39756726  0.40498498  0.20255526  1
  Ti  Ti169  1  0.40072854  -0.00087302  0.39746534  1
  Ti  Ti170  1  0.49508966  0.49636081  0.69967622  1
  Ti  Ti171  1  0.08951618  0.69790665  0.50069828  1
  Ti  Ti172  1  0.59453976  0.20233236  0.39369013  1
  Ti  Ti173  1  0.30308475  0.10048633  0.11402312  1
  Ti  Ti174  1  0.89301551  0.30396311  0.10424963  1
  Ti  Ti175  1  0.49462492  0.09244651  0.29642047  1
  Ti  Ti176  1  0.49846707  0.30500022  0.70182319  1
  Ti  Ti177  1  0.80146439  0.60491189  0.40369092  1
  Ti  Ti178  1  0.10238217  0.89593425  0.10630447  1
  Ti  Ti179  1  0.00302185  0.00016604  0.39814314  1
  Ti  Ti180  1  0.80214617  0.60733961  0.00128896  1
  Ti  Ti181  1  0.30898087  0.69863165  0.49468051  1
  Ti  Ti182  1  0.10732019  0.30072322  0.90734167  1
  Ti  Ti183  1  0.88750948  0.90030126  0.89347690  1
  Ti  Ti184  1  0.10547092  0.30109646  0.49214131  1
  Ti  Ti185  1  0.60351766  0.40149259  0.79178915  1
  Ti  Ti186  1  0.20325752  -0.00089460  0.20588244  1
  Ti  Ti187  1  0.39683945  0.40394451  0.80445951  1
  Ti  Ti188  1  0.40386474  0.40977350  0.59220256  1
  Ti  Ti189  1  0.79568451  -0.00658495  0.19036904  1
  Ti  Ti190  1  0.49593604  0.09280355  0.70102252  1
  Ti  Ti191  1  0.00757385  0.19956202  0.39443475  1
  Ti  Ti192  1  0.29543227  0.30163626  0.49051774  1
  Ti  Ti193  1  0.30674876  0.71048859  0.10224867  1
  Ti  Ti194  1  -0.00236042  0.59971556  0.00967760  1
  Ti  Ti195  1  0.70477054  0.09735665  0.71636175  1
  Ti  Ti196  1  0.50045632  0.10399396  0.90327914  1
  Ti  Ti197  1  0.69662956  0.30141166  0.49792998  1
  Ti  Ti198  1  0.21051588  0.59305394  0.80891355  1
  Ti  Ti199  1  0.39976589  0.59764860  0.39310955  1
  Mo  Mo200  1  0.69562746  0.30289331  0.09520925  1
  Mo  Mo201  1  0.69202196  0.10426473  0.89689000  1
  Mo  Mo202  1  0.39700825  0.79778874  0.00696628  1
  Mo  Mo203  1  0.49472169  0.49760847  0.49982515  1
  Mo  Mo204  1  0.20548793  0.60512653  0.20386653  1
  Mo  Mo205  1  0.79352997  -0.00410319  0.79676907  1
  Mo  Mo206  1  0.30031217  0.10305337  0.90182613  1
  Mo  Mo207  1  0.09608188  0.69675599  0.30150908  1
  Mo  Mo208  1  0.70716604  0.69708711  0.48990801  1
  Mo  Mo209  1  0.30943083  0.50261904  0.10304996  1
  Mo  Mo210  1  0.90062849  0.50791683  0.30385486  1
  Mo  Mo211  1  0.90716721  0.69994897  0.67991947  1
  Mo  Mo212  1  0.89282229  0.70168529  0.91692119  1
  Mo  Mo213  1  0.69310520  0.89156122  0.10621041  1
  Mo  Mo214  1  0.20307308  0.18963017  0.20728955  1
  Mo  Mo215  1  0.60338384  0.79947025  0.80077108  1
  Mo  Mo216  1  0.49714763  0.69786685  0.10366144  1
  Mo  Mo217  1  0.49793121  0.69649787  0.29260365  1
  Mo  Mo218  1  0.30205487  0.50671431  0.29868466  1
  Mo  Mo219  1  0.50613864  0.68377344  0.90261569  1
  Mo  Mo220  1  0.49492208  0.30641808  0.29793056  1
  Mo  Mo221  1  0.19948092  0.40430895  0.39801869  1
  Mo  Mo222  1  -0.00057640  0.79594945  0.59157843  1
  Mo  Mo223  1  0.90469684  0.69593407  0.49261745  1
  Mo  Mo224  1  0.49808285  0.91533768  0.89999542  1
  Mo  Mo225  1  0.10279474  0.09573724  0.30163372  1
  Mo  Mo226  1  -0.00583607  -0.01141739  0.20254480  1
  Mo  Mo227  1  0.79529581  0.20467489  0.00485528  1
  Mo  Mo228  1  0.30107107  0.69425154  0.29649220  1
  Mo  Mo229  1  0.78684792  0.19498800  0.79949453  1
  Mo  Mo230  1  0.89677793  0.09032325  0.10371882  1
  Mo  Mo231  1  0.09813116  0.89856745  0.69068207  1
  Mo  Mo232  1  0.79917362  0.40956709  0.19833083  1
  Mo  Mo233  1  0.40004939  -0.00199105  0.20587021  1
  Mo  Mo234  1  0.40032052  0.79719280  0.19902754  1
  Mo  Mo235  1  0.29945907  0.49957801  0.89720265  1
  Mo  Mo236  1  0.40459090  0.20479495  -0.00077794  1
  Mo  Mo237  1  0.70272376  0.69931519  0.69912779  1
  Mo  Mo238  1  0.60180381  0.80225768  0.39228917  1
  Mo  Mo239  1  0.10909864  0.30500229  0.30784534  1
  Mo  Mo240  1  0.70177781  0.49871918  0.69073203  1
  Mo  Mo241  1  0.41369831  0.00363134  0.80600001  1
  Mo  Mo242  1  0.89949297  0.89823197  0.69683454  1
  Mo  Mo243  1  0.90631379  0.51285154  0.69173744  1
  Mo  Mo244  1  0.69567107  0.90538224  0.70755948  1
  Mo  Mo245  1  0.09633895  0.50912054  0.09838187  1
  Mo  Mo246  1  0.79996061  -0.00620576  0.40590425  1
  Mo  Mo247  1  -0.00922857  0.60084859  0.59341455  1
  Mo  Mo248  1  -0.00451473  0.60107491  0.79767856  1
  Mo  Mo249  1  0.20599249  0.79887864  0.01009577  1
