# generated using pymatgen
data_HfZrTaTiMo
_symmetry_space_group_name_H-M   'P 1'
_cell_length_a   16.88775303
_cell_length_b   16.87957519
_cell_length_c   16.88152475
_cell_angle_alpha   90.00644145
_cell_angle_beta   90.01954668
_cell_angle_gamma   90.00917688
_symmetry_Int_Tables_number   1
_chemical_formula_structural   HfZrTaTiMo
_chemical_formula_sum   'Hf50 Zr50 Ta50 Ti50 Mo50'
_cell_volume   4812.21494843
_cell_formula_units_Z   50
loop_
 _symmetry_equiv_pos_site_id
 _symmetry_equiv_pos_as_xyz
  1  'x, y, z'
loop_
 _atom_site_type_symbol
 _atom_site_label
 _atom_site_symmetry_multiplicity
 _atom_site_fract_x
 _atom_site_fract_y
 _atom_site_fract_z
 _atom_site_occupancy
  Hf  Hf0  1  0.59629621  0.79360066  -0.00215020  1
  Hf  Hf1  1  0.29562122  0.69757670  0.10477619  1
  Hf  Hf2  1  0.39453451  0.39534983  0.40695741  1
  Hf  Hf3  1  0.00281818  0.00079937  0.39873094  1
  Hf  Hf4  1  0.31337829  0.10470993  0.29560973  1
  Hf  Hf5  1  0.90387721  0.50545330  0.70125477  1
  Hf  Hf6  1  0.50928218  0.70094563  0.50013820  1
  Hf  Hf7  1  0.79299526  0.80180952  0.20355028  1
  Hf  Hf8  1  0.69315880  0.50825746  0.51407688  1
  Hf  Hf9  1  0.58469794  0.60878488  0.19083330  1
  Hf  Hf10  1  0.69207941  0.50031924  0.89415601  1
  Hf  Hf11  1  0.40837109  0.79779695  0.19347338  1
  Hf  Hf12  1  0.19800315  0.40190778  0.80126370  1
  Hf  Hf13  1  0.79833759  -0.00559555  0.60413911  1
  Hf  Hf14  1  0.78499102  -0.00183574  0.40159565  1
  Hf  Hf15  1  0.29945542  0.89440062  0.30080558  1
  Hf  Hf16  1  0.40029487  0.59225818  0.60055262  1
  Hf  Hf17  1  0.29515386  0.90259563  0.49776346  1
  Hf  Hf18  1  0.70008335  0.09250835  0.70485522  1
  Hf  Hf19  1  0.69835185  0.50778346  0.10061676  1
  Hf  Hf20  1  0.19648050  0.80411165  -0.00609398  1
  Hf  Hf21  1  0.49711625  0.29622132  0.10144252  1
  Hf  Hf22  1  0.09726972  0.50318500  0.10233520  1
  Hf  Hf23  1  0.29995297  0.30014986  0.10172077  1
  Hf  Hf24  1  0.70411377  0.90415548  0.89867440  1
  Hf  Hf25  1  0.19506837  0.60082421  0.20587466  1
  Hf  Hf26  1  0.10138906  0.09117284  0.51489082  1
  Hf  Hf27  1  -0.00342043  0.19778005  0.61003542  1
  Hf  Hf28  1  0.40801409  0.00196553  0.60067979  1
  Hf  Hf29  1  0.88896217  0.69504688  0.50984989  1
  Hf  Hf30  1  0.19093289  0.58915688  0.79897258  1
  Hf  Hf31  1  0.20019997  0.59132208  0.59343946  1
  Hf  Hf32  1  0.79893687  0.20057639  0.60963913  1
  Hf  Hf33  1  0.19575139  0.00192785  0.39502220  1
  Hf  Hf34  1  0.09627602  0.70148274  0.89192351  1
  Hf  Hf35  1  0.80246283  0.39994676  -0.00511463  1
  Hf  Hf36  1  0.80109075  0.00121522  0.19648598  1
  Hf  Hf37  1  0.79469787  0.40007730  0.60979567  1
  Hf  Hf38  1  0.29617595  0.70431148  0.70576375  1
  Hf  Hf39  1  0.90121989  0.51145392  0.10785081  1
  Hf  Hf40  1  0.09424009  0.30105224  0.90381041  1
  Hf  Hf41  1  0.59703316  0.19164668  0.59921444  1
  Hf  Hf42  1  0.49151875  0.69667475  0.30733604  1
  Hf  Hf43  1  0.90397582  0.49627902  0.50669056  1
  Hf  Hf44  1  0.39044823  -0.00681311  -0.00872491  1
  Hf  Hf45  1  0.29612006  0.09962619  0.10377704  1
  Hf  Hf46  1  0.49825322  0.28877403  0.29678370  1
  Hf  Hf47  1  0.39321767  0.19443810  -0.00498834  1
  Hf  Hf48  1  0.79687029  0.80510726  0.60762665  1
  Hf  Hf49  1  0.30398910  0.51214491  0.30942413  1
  Zr  Zr50  1  0.00035392  0.80955278  0.79089316  1
  Zr  Zr51  1  0.49792443  0.70524836  0.69755510  1
  Zr  Zr52  1  0.29825661  0.29336022  0.69921580  1
  Zr  Zr53  1  -0.00151329  0.00064942  0.19638634  1
  Zr  Zr54  1  0.39211425  0.39926710  0.59421466  1
  Zr  Zr55  1  0.39743012  0.80558107  -0.00317951  1
  Zr  Zr56  1  0.91012560  0.29883527  0.09683784  1
  Zr  Zr57  1  0.60246800  0.60131471  0.79336559  1
  Zr  Zr58  1  0.59948258  0.17985504  0.40562066  1
  Zr  Zr59  1  0.70026451  0.69712321  0.09913732  1
  Zr  Zr60  1  0.90353939  0.89830459  0.49862390  1
  Zr  Zr61  1  0.90564282  0.90535684  0.90257360  1
  Zr  Zr62  1  0.90420172  0.89133104  0.29756186  1
  Zr  Zr63  1  0.59786897  -0.00473406  0.79521291  1
  Zr  Zr64  1  0.49648229  0.50474233  0.30307223  1
  Zr  Zr65  1  0.80011711  0.60889054  -0.01627391  1
  Zr  Zr66  1  0.69540057  0.90710786  0.09849405  1
  Zr  Zr67  1  0.49402861  0.30569159  0.89751742  1
  Zr  Zr68  1  0.00827977  0.78300277  0.40277959  1
  Zr  Zr69  1  0.41673111  -0.01217084  0.20119788  1
  Zr  Zr70  1  0.20234952  0.20933628  0.40507857  1
  Zr  Zr71  1  0.89836454  0.29674814  0.30474218  1
  Zr  Zr72  1  0.30019539  0.09644035  0.50645562  1
  Zr  Zr73  1  0.89947754  0.29811916  0.50090254  1
  Zr  Zr74  1  0.49794720  0.09574584  0.89526632  1
  Zr  Zr75  1  0.60967516  0.20582080  0.80707328  1
  Zr  Zr76  1  0.30379717  0.70333356  0.49219387  1
  Zr  Zr77  1  0.80166038  0.40453776  0.20417769  1
  Zr  Zr78  1  0.89143453  0.10999825  0.30644659  1
  Zr  Zr79  1  0.50478285  0.09832103  0.10452879  1
  Zr  Zr80  1  0.49592172  0.29902068  0.70110543  1
  Zr  Zr81  1  0.70333412  0.28550580  0.30069608  1
  Zr  Zr82  1  0.01648668  0.60036450  0.59691379  1
  Zr  Zr83  1  0.80151568  0.60061868  0.39342345  1
  Zr  Zr84  1  0.19312209  -0.00275486  0.19916002  1
  Zr  Zr85  1  0.49827286  0.69670194  0.89358559  1
  Zr  Zr86  1  0.80416782  0.20184952  -0.00881337  1
  Zr  Zr87  1  -0.00471670  0.18949010  0.79926978  1
  Zr  Zr88  1  0.90617786  0.70083088  0.10666382  1
  Zr  Zr89  1  0.39786108  0.60472514  0.00163399  1
  Zr  Zr90  1  0.80537317  0.20671009  0.79803009  1
  Zr  Zr91  1  0.19605297  0.18842210  0.80423957  1
  Zr  Zr92  1  0.09675069  0.10649637  0.09144046  1
  Zr  Zr93  1  0.39869903  0.40626258  0.19791560  1
  Zr  Zr94  1  0.01540633  0.20543535  0.40325515  1
  Zr  Zr95  1  0.60785973  0.38880910  -0.00115231  1
  Zr  Zr96  1  0.79652600  0.40678901  0.39819701  1
  Zr  Zr97  1  0.00777133  0.59551731  0.39979087  1
  Zr  Zr98  1  0.40302092  0.81115488  0.60103798  1
  Zr  Zr99  1  0.79621139  0.79447472  0.79476866  1
  Ta  Ta100  1  0.20202821  0.39847030  0.41044276  1
  Ta  Ta101  1  0.39859855  0.40850754  0.79910836  1
  Ta  Ta102  1  0.40636256  0.80876206  0.39785362  1
  Ta  Ta103  1  0.10040022  0.88593478  0.30038914  1
  Ta  Ta104  1  0.58985868  0.81031950  0.20025367  1
  Ta  Ta105  1  0.00336739  0.80073489  -0.00091891  1
  Ta  Ta106  1  0.20019056  0.20092915  -0.00578767  1
  Ta  Ta107  1  0.30166840  0.49741640  0.90438671  1
  Ta  Ta108  1  0.30020933  0.30589842  0.90279258  1
  Ta  Ta109  1  0.60847953  0.80061685  0.79460882  1
  Ta  Ta110  1  0.40693666  0.19526377  0.40773240  1
  Ta  Ta111  1  0.09851315  0.30844464  0.69487266  1
  Ta  Ta112  1  0.10428884  0.70296343  0.70031480  1
  Ta  Ta113  1  0.30313767  0.29622200  0.29872327  1
  Ta  Ta114  1  0.00697237  0.20683811  0.20106205  1
  Ta  Ta115  1  0.49829651  0.49728076  0.90206234  1
  Ta  Ta116  1  0.00163159  0.40956636  -0.00166299  1
  Ta  Ta117  1  0.39595972  0.58866588  0.79546206  1
  Ta  Ta118  1  0.00301378  0.00306613  0.79758349  1
  Ta  Ta119  1  0.19218615  0.60206246  0.40691977  1
  Ta  Ta120  1  0.78714394  0.79919251  0.39855875  1
  Ta  Ta121  1  0.90577073  0.50420148  0.88966933  1
  Ta  Ta122  1  0.10184513  0.30427137  0.09866924  1
  Ta  Ta123  1  0.60178043  0.39996971  0.39909767  1
  Ta  Ta124  1  0.70783783  0.09193135  0.90464018  1
  Ta  Ta125  1  0.19894547  0.40446597  0.00215170  1
  Ta  Ta126  1  0.19536262  0.59777660  -0.00405882  1
  Ta  Ta127  1  0.69791762  0.09827066  0.09773785  1
  Ta  Ta128  1  0.61121210  0.19920726  -0.00355333  1
  Ta  Ta129  1  0.00385023  0.60037329  -0.01006593  1
  Ta  Ta130  1  0.01517619  0.39760132  0.40340520  1
  Ta  Ta131  1  0.00670096  0.40150020  0.21139493  1
  Ta  Ta132  1  0.50597564  0.30153281  0.50065381  1
  Ta  Ta133  1  0.19882481  0.40040452  0.20687154  1
  Ta  Ta134  1  0.29102752  0.89833225  0.10093624  1
  Ta  Ta135  1  0.69164669  0.70051328  0.30015556  1
  Ta  Ta136  1  0.90851460  0.31372043  0.89282686  1
  Ta  Ta137  1  0.80442563  0.79968840  -0.00505793  1
  Ta  Ta138  1  0.79661211  0.60397553  0.79262010  1
  Ta  Ta139  1  0.69325763  0.70150886  0.50198366  1
  Ta  Ta140  1  0.69489429  0.29885494  0.50215011  1
  Ta  Ta141  1  0.69348475  0.50955298  0.29341034  1
  Ta  Ta142  1  0.00607898  0.80112775  0.60262755  1
  Ta  Ta143  1  0.81025203  0.00423346  0.00308113  1
  Ta  Ta144  1  0.29515629  0.49459623  0.69819172  1
  Ta  Ta145  1  0.10540451  0.89818942  0.50413520  1
  Ta  Ta146  1  0.60137953  0.39951542  0.20090633  1
  Ta  Ta147  1  0.49843622  0.50067911  0.08945097  1
  Ta  Ta148  1  0.50460221  0.50111206  0.49891217  1
  Ta  Ta149  1  0.89545327  0.10034717  0.50282344  1
  Ti  Ti150  1  -0.00711947  -0.00536102  0.61216243  1
  Ti  Ti151  1  0.69294405  0.09158384  0.29346986  1
  Ti  Ti152  1  0.81334218  0.00029684  0.79389907  1
  Ti  Ti153  1  0.90747998  0.89429061  0.09764642  1
  Ti  Ti154  1  0.40253462  0.19666006  0.59256454  1
  Ti  Ti155  1  0.19198023  0.79456311  0.20243988  1
  Ti  Ti156  1  0.38668841  0.18837239  0.80526377  1
  Ti  Ti157  1  0.90598926  0.69358954  0.69853964  1
  Ti  Ti158  1  0.00444288  0.60186597  0.21573935  1
  Ti  Ti159  1  0.60076622  0.19120242  0.20002490  1
  Ti  Ti160  1  0.59871233  0.00122322  0.59382153  1
  Ti  Ti161  1  0.29461244  0.90898706  0.70381695  1
  Ti  Ti162  1  0.09356966  0.70067156  0.10251206  1
  Ti  Ti163  1  0.49285675  0.10018439  0.70530357  1
  Ti  Ti164  1  0.30111045  0.50202114  0.09928323  1
  Ti  Ti165  1  0.08670616  0.09264033  0.91226841  1
  Ti  Ti166  1  0.19592506  0.80123334  0.60092763  1
  Ti  Ti167  1  0.29593139  0.69801363  0.89272882  1
  Ti  Ti168  1  0.19897419  0.81278173  0.80474920  1
  Ti  Ti169  1  0.51426453  0.49111185  0.69445641  1
  Ti  Ti170  1  0.79270872  0.40261043  0.79926115  1
  Ti  Ti171  1  0.90685557  0.69829404  0.89161507  1
  Ti  Ti172  1  0.09438595  0.89649223  0.09843895  1
  Ti  Ti173  1  0.80292546  0.19175139  0.18885262  1
  Ti  Ti174  1  0.19484134  0.20878383  0.20303709  1
  Ti  Ti175  1  0.91237771  0.10405714  0.08520901  1
  Ti  Ti176  1  0.39041126  0.81356598  0.80445534  1
  Ti  Ti177  1  0.19722991  -0.00524880  -0.00837673  1
  Ti  Ti178  1  0.69519150  0.68989561  0.68295956  1
  Ti  Ti179  1  0.59499459  -0.00179280  -0.00001381  1
  Ti  Ti180  1  0.70072357  0.29288298  0.10538247  1
  Ti  Ti181  1  0.01525000  0.41910548  0.79986593  1
  Ti  Ti182  1  0.19938586  -0.00108786  0.81079869  1
  Ti  Ti183  1  0.10049779  0.10532752  0.29521404  1
  Ti  Ti184  1  0.60291987  0.81249825  0.60569496  1
  Ti  Ti185  1  0.49782439  0.90028600  0.89239025  1
  Ti  Ti186  1  0.60169382  0.59870419  0.40012597  1
  Ti  Ti187  1  0.68955632  0.89915276  0.49848681  1
  Ti  Ti188  1  0.30079531  0.70029274  0.30477300  1
  Ti  Ti189  1  0.19884776  0.20656341  0.59896377  1
  Ti  Ti190  1  0.91379496  0.31815203  0.70663939  1
  Ti  Ti191  1  0.10807145  0.09102089  0.69569262  1
  Ti  Ti192  1  0.29660845  0.09041711  0.70142271  1
  Ti  Ti193  1  0.49887156  0.90136707  0.70629083  1
  Ti  Ti194  1  0.60165316  0.80837530  0.39145813  1
  Ti  Ti195  1  0.68299635  0.31755179  0.70218383  1
  Ti  Ti196  1  0.89785988  0.69890723  0.29450633  1
  Ti  Ti197  1  0.10481033  0.49604307  0.30571946  1
  Ti  Ti198  1  0.50486657  0.90964897  0.48708944  1
  Ti  Ti199  1  0.10760183  0.90615663  0.69695364  1
  Mo  Mo200  1  0.50435720  0.89852269  0.30763119  1
  Mo  Mo201  1  0.69350579  0.89962885  0.69696214  1
  Mo  Mo202  1  0.00187408  0.20877607  -0.00285996  1
  Mo  Mo203  1  0.70179487  0.50115481  0.70168321  1
  Mo  Mo204  1  0.29752474  0.49862438  0.49863399  1
  Mo  Mo205  1  0.90225996  0.09569155  0.90055984  1
  Mo  Mo206  1  0.50397521  0.89999208  0.09317199  1
  Mo  Mo207  1  0.50383722  0.09317786  0.30456960  1
  Mo  Mo208  1  0.10537326  0.30203755  0.51419738  1
  Mo  Mo209  1  0.00791680  0.79410592  0.19482641  1
  Mo  Mo210  1  0.28934754  0.09725060  0.89963749  1
  Mo  Mo211  1  0.39289413  0.60360947  0.19607935  1
  Mo  Mo212  1  0.40104717  0.19872217  0.20476741  1
  Mo  Mo213  1  0.60473552  0.00005162  0.20612088  1
  Mo  Mo214  1  0.69988074  0.09559994  0.50866634  1
  Mo  Mo215  1  0.59728441  0.59838382  0.59906504  1
  Mo  Mo216  1  0.78645352  0.18710855  0.41781444  1
  Mo  Mo217  1  0.29220900  0.90319066  0.89288535  1
  Mo  Mo218  1  0.70231494  0.70406593  0.89513425  1
  Mo  Mo219  1  0.69245680  0.89739861  0.30017933  1
  Mo  Mo220  1  0.10909901  0.30539280  0.29419771  1
  Mo  Mo221  1  -0.00211134  0.60400886  0.79648062  1
  Mo  Mo222  1  0.79942843  0.60429664  0.21273800  1
  Mo  Mo223  1  0.39215940  -0.00327653  0.79318717  1
  Mo  Mo224  1  0.90103879  0.08910362  0.70041160  1
  Mo  Mo225  1  0.09915978  0.50062121  0.90498539  1
  Mo  Mo226  1  0.91180121  0.50082753  0.29938632  1
  Mo  Mo227  1  0.49642603  0.70040218  0.09907309  1
  Mo  Mo228  1  0.10041918  0.90560628  0.89967841  1
  Mo  Mo229  1  0.00433277  0.39800910  0.60369734  1
  Mo  Mo230  1  0.19603144  0.39813107  0.59711546  1
  Mo  Mo231  1  0.10120020  0.49588176  0.69590607  1
  Mo  Mo232  1  0.00104606  -0.00515416  -0.00081446  1
  Mo  Mo233  1  0.59903111  -0.00624750  0.39670992  1
  Mo  Mo234  1  0.70771803  0.30287360  0.89242000  1
  Mo  Mo235  1  0.10457516  0.48643896  0.49978646  1
  Mo  Mo236  1  0.59487795  0.40451293  0.79559357  1
  Mo  Mo237  1  0.41040955  0.00155087  0.40015362  1
  Mo  Mo238  1  0.11196574  0.71241949  0.50396344  1
  Mo  Mo239  1  0.39268488  0.40421663  -0.00246775  1
  Mo  Mo240  1  0.59305116  0.59899121  -0.00308784  1
  Mo  Mo241  1  0.59720268  0.39817751  0.59652882  1
  Mo  Mo242  1  0.39737149  0.60340396  0.40825829  1
  Mo  Mo243  1  0.30302875  0.29319139  0.49937590  1
  Mo  Mo244  1  0.79631733  0.60479286  0.60666005  1
  Mo  Mo245  1  0.20068663  -0.00627973  0.61000382  1
  Mo  Mo246  1  0.20098372  0.79956338  0.39667284  1
  Mo  Mo247  1  0.10942602  0.69929011  0.29911400  1
  Mo  Mo248  1  0.49908001  0.09328869  0.50163603  1
  Mo  Mo249  1  0.90634668  0.90098119  0.69970747  1
