# generated using pymatgen
data_HfZrTaTiMo
_symmetry_space_group_name_H-M   'P 1'
_cell_length_a   16.89228886
_cell_length_b   16.89011273
_cell_length_c   16.88813442
_cell_angle_alpha   89.96165008
_cell_angle_beta   89.97441428
_cell_angle_gamma   89.95643360
_symmetry_Int_Tables_number   1
_chemical_formula_structural   HfZrTaTiMo
_chemical_formula_sum   'Hf50 Zr50 Ta50 Ti50 Mo50'
_cell_volume   4818.39565428
_cell_formula_units_Z   50
loop_
 _symmetry_equiv_pos_site_id
 _symmetry_equiv_pos_as_xyz
  1  'x, y, z'
loop_
 _atom_site_type_symbol
 _atom_site_label
 _atom_site_symmetry_multiplicity
 _atom_site_fract_x
 _atom_site_fract_y
 _atom_site_fract_z
 _atom_site_occupancy
  Hf  Hf0  1  0.70614230  0.90005687  0.10597285  1
  Hf  Hf1  1  0.09375348  0.29282414  0.90228353  1
  Hf  Hf2  1  0.19525105  0.60288869  0.80368833  1
  Hf  Hf3  1  0.90584373  0.09871438  0.90318640  1
  Hf  Hf4  1  -0.00241896  0.39096458  0.20566734  1
  Hf  Hf5  1  0.60299766  0.79736201  0.39641851  1
  Hf  Hf6  1  0.09925529  0.30985013  0.49175654  1
  Hf  Hf7  1  0.08903273  0.29916531  0.70868428  1
  Hf  Hf8  1  0.49903382  0.90156345  0.69281990  1
  Hf  Hf9  1  0.08929786  0.70394951  0.50644540  1
  Hf  Hf10  1  0.70570243  0.49730547  0.30182253  1
  Hf  Hf11  1  0.90863458  0.49762783  0.89359503  1
  Hf  Hf12  1  -0.00615268  0.00327031  0.59982496  1
  Hf  Hf13  1  0.49884387  0.10216680  0.10209753  1
  Hf  Hf14  1  0.59323740  0.39704567  0.19611625  1
  Hf  Hf15  1  0.20091830  0.00765885  -0.00360613  1
  Hf  Hf16  1  0.49077286  0.69921570  0.11414974  1
  Hf  Hf17  1  0.00722070  0.61755435  0.78733631  1
  Hf  Hf18  1  0.91075523  0.49394150  0.69669761  1
  Hf  Hf19  1  0.09950449  0.49006132  0.69442181  1
  Hf  Hf20  1  0.90202550  0.10124185  0.30979870  1
  Hf  Hf21  1  0.49313499  0.50680288  0.48809827  1
  Hf  Hf22  1  0.60955493  0.79946909  0.60131387  1
  Hf  Hf23  1  0.11030877  0.29060427  0.10487746  1
  Hf  Hf24  1  0.60309702  0.39801665  0.79763412  1
  Hf  Hf25  1  0.19338319  0.20407969  0.59813452  1
  Hf  Hf26  1  0.89995012  0.90996011  0.90695397  1
  Hf  Hf27  1  0.60059903  0.19272472  0.38397265  1
  Hf  Hf28  1  0.39530982  0.19724991  0.80306943  1
  Hf  Hf29  1  0.50336472  0.29229103  0.69738083  1
  Hf  Hf30  1  0.38902377  0.19970408  0.59421878  1
  Hf  Hf31  1  0.39745570  0.40113996  0.60156160  1
  Hf  Hf32  1  0.70935386  0.29280548  0.69331346  1
  Hf  Hf33  1  0.61549658  -0.00429056  0.79089540  1
  Hf  Hf34  1  0.90360387  0.70774689  0.50051841  1
  Hf  Hf35  1  0.71002678  0.30148406  0.30524001  1
  Hf  Hf36  1  0.39216497  0.00529537  0.80201256  1
  Hf  Hf37  1  0.80683042  0.60594431  0.79506302  1
  Hf  Hf38  1  0.00356025  0.80597948  0.00336521  1
  Hf  Hf39  1  0.60000989  0.60417254  0.39290263  1
  Hf  Hf40  1  0.60372456  0.00080391  0.39167703  1
  Hf  Hf41  1  0.29665328  0.70058234  0.69550899  1
  Hf  Hf42  1  0.71235461  0.49564830  0.49598440  1
  Hf  Hf43  1  0.60242908  0.01012415  0.20903694  1
  Hf  Hf44  1  0.30020454  0.30325369  0.10513371  1
  Hf  Hf45  1  0.39968263  0.00176437  0.39148053  1
  Hf  Hf46  1  0.50313781  0.09884276  0.50000291  1
  Hf  Hf47  1  0.50595920  0.09551834  0.69090479  1
  Hf  Hf48  1  0.50470094  0.29744339  0.49469062  1
  Hf  Hf49  1  0.30696645  0.70440134  0.29519145  1
  Zr  Zr50  1  0.40943610  0.21045639  -0.00615165  1
  Zr  Zr51  1  0.28956791  0.49974291  0.50047035  1
  Zr  Zr52  1  0.40155194  0.39619636  0.80558397  1
  Zr  Zr53  1  0.80680587  0.39779215  0.19143685  1
  Zr  Zr54  1  0.60013427  0.40467744  0.60122850  1
  Zr  Zr55  1  0.71174293  0.10032060  0.90250454  1
  Zr  Zr56  1  0.80198594  0.39599879  0.00149144  1
  Zr  Zr57  1  0.70786177  0.10419183  0.49936054  1
  Zr  Zr58  1  0.29265505  0.90526949  0.89741559  1
  Zr  Zr59  1  0.09526733  0.10293082  0.49739262  1
  Zr  Zr60  1  0.61053530  0.79855102  0.79901595  1
  Zr  Zr61  1  0.19722974  0.80462368  0.40061193  1
  Zr  Zr62  1  0.39454428  0.80109936  0.80534605  1
  Zr  Zr63  1  0.80731223  0.59733167  0.20358262  1
  Zr  Zr64  1  0.90431832  0.70122682  0.10944410  1
  Zr  Zr65  1  0.60215437  0.79678469  0.00810950  1
  Zr  Zr66  1  0.60170196  0.59501785  0.60042078  1
  Zr  Zr67  1  0.09171632  0.10172342  0.90132066  1
  Zr  Zr68  1  0.39669317  0.81013665  0.40334180  1
  Zr  Zr69  1  0.10191114  0.90400732  0.10437916  1
  Zr  Zr70  1  0.28113703  0.89849493  0.68780695  1
  Zr  Zr71  1  0.30416193  0.70414596  0.51189922  1
  Zr  Zr72  1  0.60290766  0.59921413  0.01184310  1
  Zr  Zr73  1  0.48971805  0.69934706  0.69616240  1
  Zr  Zr74  1  0.20081322  0.59461357  0.20906890  1
  Zr  Zr75  1  0.79904938  0.80131626  0.79273683  1
  Zr  Zr76  1  0.50861874  0.09647157  0.90276860  1
  Zr  Zr77  1  0.18288904  0.79541557  0.79966133  1
  Zr  Zr78  1  0.90072835  0.70438838  0.90686389  1
  Zr  Zr79  1  0.28027856  0.09893139  0.48502437  1
  Zr  Zr80  1  0.10307084  0.47960647  0.31106644  1
  Zr  Zr81  1  0.39463083  0.40402755  0.38197283  1
  Zr  Zr82  1  0.29660626  0.10952255  0.09970629  1
  Zr  Zr83  1  0.29751578  0.69851329  0.10475554  1
  Zr  Zr84  1  0.10105964  0.70117843  0.10918193  1
  Zr  Zr85  1  0.10929648  0.10411180  0.30524310  1
  Zr  Zr86  1  0.28439725  0.30557395  0.70300373  1
  Zr  Zr87  1  0.70885838  0.89925616  0.50016281  1
  Zr  Zr88  1  0.70583468  0.49613167  0.90015287  1
  Zr  Zr89  1  0.29399717  0.10506907  0.29278668  1
  Zr  Zr90  1  0.49432357  0.50373927  0.90179238  1
  Zr  Zr91  1  0.09947578  0.50126599  0.10309501  1
  Zr  Zr92  1  0.49479740  0.89801416  0.28730647  1
  Zr  Zr93  1  0.38478761  -0.00423927  0.58818051  1
  Zr  Zr94  1  0.80506640  0.19652054  0.20219816  1
  Zr  Zr95  1  0.70521820  0.10054567  0.09533926  1
  Zr  Zr96  1  -0.00321966  0.39560799  0.00412283  1
  Zr  Zr97  1  0.19908860  0.60277495  0.39849188  1
  Zr  Zr98  1  0.49416442  0.69779612  0.90274109  1
  Zr  Zr99  1  0.60535606  0.59666197  0.79042939  1
  Ta  Ta100  1  0.70573805  0.29089136  0.89906604  1
  Ta  Ta101  1  0.90149098  0.89649726  0.49567089  1
  Ta  Ta102  1  0.80285814  0.00002992  0.78898360  1
  Ta  Ta103  1  0.79980520  0.59949742  0.00641021  1
  Ta  Ta104  1  0.59184225  0.38770905  -0.00046572  1
  Ta  Ta105  1  0.60697720  0.19801894  0.79964511  1
  Ta  Ta106  1  0.81366390  0.38827904  0.59574499  1
  Ta  Ta107  1  0.28915297  0.90827203  0.28930277  1
  Ta  Ta108  1  0.70925004  0.70226940  0.30017676  1
  Ta  Ta109  1  0.49002192  0.49398168  0.10302358  1
  Ta  Ta110  1  0.71065099  0.29745161  0.49437799  1
  Ta  Ta111  1  0.29703935  0.49857464  0.90488213  1
  Ta  Ta112  1  0.72125205  0.49392492  0.69383084  1
  Ta  Ta113  1  0.29427258  0.50235824  0.70471045  1
  Ta  Ta114  1  0.20402238  0.80370185  0.00213431  1
  Ta  Ta115  1  0.09756454  0.49856727  0.89872665  1
  Ta  Ta116  1  0.69277610  0.29056856  0.09242076  1
  Ta  Ta117  1  0.19965328  0.40356670  0.00080344  1
  Ta  Ta118  1  0.80983765  0.60154090  0.39903188  1
  Ta  Ta119  1  0.71224165  0.69822873  0.49537307  1
  Ta  Ta120  1  0.60308311  -0.00327562  0.00344975  1
  Ta  Ta121  1  0.89996324  0.90005643  0.30477799  1
  Ta  Ta122  1  0.39470801  0.80572647  0.00448355  1
  Ta  Ta123  1  0.00126263  0.19909095  0.20578855  1
  Ta  Ta124  1  0.28203683  0.09343807  0.70085876  1
  Ta  Ta125  1  0.09799099  0.89904156  0.50799954  1
  Ta  Ta126  1  0.90229604  0.30180565  0.31649484  1
  Ta  Ta127  1  0.00076048  -0.00597268  0.40118969  1
  Ta  Ta128  1  0.09767826  0.09838814  0.70299079  1
  Ta  Ta129  1  0.00058575  0.80274067  0.78979961  1
  Ta  Ta130  1  0.90539731  0.28689361  0.89145874  1
  Ta  Ta131  1  -0.00159196  0.00344444  0.20465643  1
  Ta  Ta132  1  0.89853101  0.90906080  0.10582895  1
  Ta  Ta133  1  0.50477360  0.90019956  0.50639964  1
  Ta  Ta134  1  -0.00031928  0.80874800  0.20986498  1
  Ta  Ta135  1  0.80189250  0.00624493  0.60744056  1
  Ta  Ta136  1  0.90128827  0.89874189  0.69374327  1
  Ta  Ta137  1  0.28658047  0.29840094  0.90779324  1
  Ta  Ta138  1  -0.00282512  0.59794765  0.39893868  1
  Ta  Ta139  1  0.09316241  0.90843464  0.89758243  1
  Ta  Ta140  1  0.39277640  0.59665886  0.00507171  1
  Ta  Ta141  1  0.39615991  0.20673440  0.39110453  1
  Ta  Ta142  1  0.09317866  0.49722346  0.50460991  1
  Ta  Ta143  1  0.50352637  0.90287978  0.90652214  1
  Ta  Ta144  1  0.70843670  0.90445940  0.90932603  1
  Ta  Ta145  1  0.30312968  0.49093592  0.10366466  1
  Ta  Ta146  1  0.80886628  0.38769162  0.79505302  1
  Ta  Ta147  1  0.40656861  0.20945629  0.20652980  1
  Ta  Ta148  1  0.49487627  0.90675457  0.09885153  1
  Ta  Ta149  1  0.49419212  0.70204472  0.50068670  1
  Ti  Ti150  1  0.39538639  -0.00115717  0.00125932  1
  Ti  Ti151  1  0.80638348  0.20048317  0.00103073  1
  Ti  Ti152  1  0.69652280  0.49500628  0.09978998  1
  Ti  Ti153  1  0.80015644  0.79772193  0.00807208  1
  Ti  Ti154  1  0.80469923  0.80244732  0.60308954  1
  Ti  Ti155  1  0.40082585  0.58043038  0.21335983  1
  Ti  Ti156  1  0.09971150  0.90310097  0.30200664  1
  Ti  Ti157  1  0.40154464  0.59171321  0.60706583  1
  Ti  Ti158  1  0.30088674  0.69505063  0.90507659  1
  Ti  Ti159  1  -0.00015628  0.20634066  0.40162252  1
  Ti  Ti160  1  -0.00711417  0.38884076  0.59480132  1
  Ti  Ti161  1  0.20151454  0.19014665  0.80749687  1
  Ti  Ti162  1  0.09316983  0.71031482  0.30237105  1
  Ti  Ti163  1  0.90629307  0.50645834  0.09999444  1
  Ti  Ti164  1  0.40449696  0.39504789  -0.00067608  1
  Ti  Ti165  1  -0.00249337  -0.00195232  0.78930292  1
  Ti  Ti166  1  0.00123799  0.60081295  -0.00075350  1
  Ti  Ti167  1  0.20144908  0.59662434  -0.00035544  1
  Ti  Ti168  1  0.70518379  0.69967799  0.90699533  1
  Ti  Ti169  1  0.28978569  0.30670199  0.49107994  1
  Ti  Ti170  1  0.70296657  0.69796887  0.11249280  1
  Ti  Ti171  1  0.81467536  0.59771856  0.59687032  1
  Ti  Ti172  1  0.09575656  0.10729196  0.09926566  1
  Ti  Ti173  1  0.90838488  0.09348741  0.09432515  1
  Ti  Ti174  1  0.59621367  0.59468947  0.20487487  1
  Ti  Ti175  1  0.19857095  0.00125639  0.19470009  1
  Ti  Ti176  1  -0.01541183  0.20099282  0.60638778  1
  Ti  Ti177  1  0.18840088  0.60257672  0.60540690  1
  Ti  Ti178  1  0.90368240  0.71206805  0.31140371  1
  Ti  Ti179  1  0.90742224  0.49484271  0.49679159  1
  Ti  Ti180  1  0.80641505  0.80013845  0.20539220  1
  Ti  Ti181  1  0.90627828  0.28524183  0.09688671  1
  Ti  Ti182  1  0.80323939  0.00442145  0.20707778  1
  Ti  Ti183  1  0.49272399  0.69734140  0.29932325  1
  Ti  Ti184  1  0.89557609  0.10637679  0.49739063  1
  Ti  Ti185  1  0.60214590  0.79767621  0.20395399  1
  Ti  Ti186  1  0.09954932  0.70168809  0.91084793  1
  Ti  Ti187  1  0.59851435  0.40124988  0.39505913  1
  Ti  Ti188  1  0.49999528  0.30359588  0.29642200  1
  Ti  Ti189  1  0.71226410  0.89456678  0.29994199  1
  Ti  Ti190  1  0.80173292  0.00135039  0.39857083  1
  Ti  Ti191  1  -0.00253792  0.59873186  0.21753810  1
  Ti  Ti192  1  0.90038510  0.48925823  0.31373421  1
  Ti  Ti193  1  0.80932285  0.19141997  0.78323102  1
  Ti  Ti194  1  0.38643176  0.81747595  0.18956302  1
  Ti  Ti195  1  0.19611372  0.40263218  0.80913140  1
  Ti  Ti196  1  0.61100656  0.19462014  0.60006282  1
  Ti  Ti197  1  0.71187595  0.69324675  0.68679501  1
  Ti  Ti198  1  0.28131687  0.30614802  0.29198638  1
  Ti  Ti199  1  0.59758951  0.20051819  0.20233755  1
  Mo  Mo200  1  0.50432457  0.50203500  0.29453449  1
  Mo  Mo201  1  0.00076777  0.00155615  0.01160149  1
  Mo  Mo202  1  -0.00355577  0.80694450  0.60361354  1
  Mo  Mo203  1  0.19425013  -0.01430661  0.39998145  1
  Mo  Mo204  1  0.29941441  0.90605995  0.09920883  1
  Mo  Mo205  1  0.09916649  0.29439017  0.30150116  1
  Mo  Mo206  1  0.90268696  0.29349784  0.50122578  1
  Mo  Mo207  1  0.70947325  0.90357160  0.69486185  1
  Mo  Mo208  1  0.38500710  0.59528070  0.80387787  1
  Mo  Mo209  1  0.28784641  0.90237671  0.49506138  1
  Mo  Mo210  1  0.18626255  0.00003149  0.59876223  1
  Mo  Mo211  1  0.80607382  0.20242508  0.40345952  1
  Mo  Mo212  1  0.90397361  0.70548046  0.68646198  1
  Mo  Mo213  1  0.90169135  0.29456838  0.69872986  1
  Mo  Mo214  1  0.50194845  0.29967164  0.10186909  1
  Mo  Mo215  1  0.49091404  0.10906711  0.29565325  1
  Mo  Mo216  1  0.19695521  0.40340842  0.59917081  1
  Mo  Mo217  1  0.19903354  0.20128884  -0.00147165  1
  Mo  Mo218  1  -0.00061556  0.39449256  0.80430912  1
  Mo  Mo219  1  0.29583497  0.10538764  0.89686120  1
  Mo  Mo220  1  -0.00553593  0.40127044  0.40521254  1
  Mo  Mo221  1  0.71186222  0.09967797  0.29863112  1
  Mo  Mo222  1  -0.00558754  0.19477161  0.79240062  1
  Mo  Mo223  1  0.30081018  0.49620133  0.29546592  1
  Mo  Mo224  1  0.80585768  0.40177792  0.40783100  1
  Mo  Mo225  1  -0.00022762  0.80600600  0.39706171  1
  Mo  Mo226  1  0.20114350  0.21889527  0.39498113  1
  Mo  Mo227  1  0.60859609  -0.00229797  0.59766223  1
  Mo  Mo228  1  0.39647393  0.00242726  0.19326503  1
  Mo  Mo229  1  0.40519110  0.60570335  0.39072947  1
  Mo  Mo230  1  0.48261318  0.50219533  0.70465708  1
  Mo  Mo231  1  0.70426613  0.10285184  0.69556389  1
  Mo  Mo232  1  -0.00435386  0.19586870  0.01064320  1
  Mo  Mo233  1  0.40046285  0.39738988  0.19902864  1
  Mo  Mo234  1  0.60425887  0.20281396  -0.00447913  1
  Mo  Mo235  1  0.19684775  0.20207427  0.20119461  1
  Mo  Mo236  1  0.18819715  0.80233204  0.60108634  1
  Mo  Mo237  1  0.09764829  0.70486768  0.68644985  1
  Mo  Mo238  1  -0.00236153  0.59489001  0.59346739  1
  Mo  Mo239  1  0.20207527  0.40073676  0.40029486  1
  Mo  Mo240  1  0.90206753  0.09772729  0.70023322  1
  Mo  Mo241  1  0.80289758  -0.00302154  0.00534481  1
  Mo  Mo242  1  0.80234396  0.79847986  0.39505980  1
  Mo  Mo243  1  0.51288292  0.29644518  0.89867928  1
  Mo  Mo244  1  0.09119306  0.90457372  0.70097419  1
  Mo  Mo245  1  0.80773029  0.19902841  0.59618195  1
  Mo  Mo246  1  0.20407525  0.39911706  0.19949888  1
  Mo  Mo247  1  0.40204979  0.80127032  0.59430759  1
  Mo  Mo248  1  0.18855826  0.00345042  0.79754415  1
  Mo  Mo249  1  0.19590171  0.80683334  0.20336583  1
