# generated using pymatgen
data_HfZrTaTiMo
_symmetry_space_group_name_H-M   'P 1'
_cell_length_a   16.89309681
_cell_length_b   16.87954072
_cell_length_c   16.89313215
_cell_angle_alpha   90.00642579
_cell_angle_beta   89.97766844
_cell_angle_gamma   90.04560303
_symmetry_Int_Tables_number   1
_chemical_formula_structural   HfZrTaTiMo
_chemical_formula_sum   'Hf50 Zr50 Ta50 Ti50 Mo50'
_cell_volume   4817.03611778
_cell_formula_units_Z   50
loop_
 _symmetry_equiv_pos_site_id
 _symmetry_equiv_pos_as_xyz
  1  'x, y, z'
loop_
 _atom_site_type_symbol
 _atom_site_label
 _atom_site_symmetry_multiplicity
 _atom_site_fract_x
 _atom_site_fract_y
 _atom_site_fract_z
 _atom_site_occupancy
  Hf  Hf0  1  0.11155033  0.69296247  0.88634985  1
  Hf  Hf1  1  0.00737882  0.59536932  0.60594518  1
  Hf  Hf2  1  0.60337145  -0.00608344  0.39801785  1
  Hf  Hf3  1  0.41010634  0.60497345  0.40067614  1
  Hf  Hf4  1  0.79206916  0.39790750  0.59584166  1
  Hf  Hf5  1  0.77850595  0.18836487  0.42753615  1
  Hf  Hf6  1  0.40091230  0.19653251  -0.00167042  1
  Hf  Hf7  1  0.10049057  0.49859624  0.30223816  1
  Hf  Hf8  1  0.49344899  0.08402447  0.29283990  1
  Hf  Hf9  1  0.30429816  0.50426210  0.70407666  1
  Hf  Hf10  1  0.89550027  0.29301868  0.09959658  1
  Hf  Hf11  1  0.79704538  -0.00441382  0.20879328  1
  Hf  Hf12  1  0.89532538  0.10946167  0.90296456  1
  Hf  Hf13  1  0.89696426  0.49613107  0.09805240  1
  Hf  Hf14  1  0.90283227  0.29291840  0.50028733  1
  Hf  Hf15  1  0.30983874  0.71533866  0.49934380  1
  Hf  Hf16  1  0.79524063  -0.00573341  0.00419586  1
  Hf  Hf17  1  0.58899197  0.60941111  0.58662432  1
  Hf  Hf18  1  0.01371596  0.19554915  0.20337936  1
  Hf  Hf19  1  0.00233334  0.38957728  -0.00690783  1
  Hf  Hf20  1  0.10608941  0.69785339  0.10652520  1
  Hf  Hf21  1  0.59873676  0.19636177  -0.00550622  1
  Hf  Hf22  1  0.48906922  0.08997552  0.49920870  1
  Hf  Hf23  1  0.10152156  0.49493957  0.10533064  1
  Hf  Hf24  1  0.69545597  0.89613752  0.69476962  1
  Hf  Hf25  1  0.90415121  0.69341817  0.89388024  1
  Hf  Hf26  1  0.79426332  -0.00006696  0.40079192  1
  Hf  Hf27  1  0.59848598  0.79219651  0.40549749  1
  Hf  Hf28  1  0.79991046  0.40698863  0.39959303  1
  Hf  Hf29  1  -0.00409624  0.01052846  0.40325125  1
  Hf  Hf30  1  0.89263737  0.10860405  0.10090260  1
  Hf  Hf31  1  0.50048221  0.89311411  0.11033907  1
  Hf  Hf32  1  0.20311352  0.00281432  0.59978170  1
  Hf  Hf33  1  0.88716494  0.69073385  0.69337055  1
  Hf  Hf34  1  0.10138607  0.09622809  0.69992204  1
  Hf  Hf35  1  0.30007369  0.29490397  0.10045252  1
  Hf  Hf36  1  0.52838253  0.50118848  0.30906121  1
  Hf  Hf37  1  0.39837355  0.58919622  0.20245238  1
  Hf  Hf38  1  0.49673845  0.51136005  0.70600922  1
  Hf  Hf39  1  0.39818131  0.20255339  0.38802635  1
  Hf  Hf40  1  0.69117223  0.30798835  0.30942910  1
  Hf  Hf41  1  0.79863012  0.79729425  0.00649925  1
  Hf  Hf42  1  0.00482114  0.00517056  0.00699604  1
  Hf  Hf43  1  0.59060761  0.20533453  0.20155115  1
  Hf  Hf44  1  0.39984353  0.19581619  0.60924619  1
  Hf  Hf45  1  -0.00387513  0.60249305  0.39525641  1
  Hf  Hf46  1  0.68866907  0.89612283  0.89543951  1
  Hf  Hf47  1  0.40372007  0.19541890  0.80129704  1
  Hf  Hf48  1  0.79287316  0.00681559  0.79847703  1
  Hf  Hf49  1  -0.00328997  -0.00075633  0.20047841  1
  Zr  Zr50  1  0.00763563  0.79681785  0.78578769  1
  Zr  Zr51  1  0.40013917  0.40777347  0.39248782  1
  Zr  Zr52  1  -0.00015980  0.80507525  0.00848449  1
  Zr  Zr53  1  0.00734683  0.19841274  0.59601008  1
  Zr  Zr54  1  0.80321662  0.80356486  0.19438570  1
  Zr  Zr55  1  0.49234590  0.08479446  0.10338845  1
  Zr  Zr56  1  0.29900521  0.30120704  0.50299542  1
  Zr  Zr57  1  0.79775544  0.79772309  0.79675878  1
  Zr  Zr58  1  0.10828444  0.91240330  0.30910285  1
  Zr  Zr59  1  0.59941943  0.78651111  0.00179326  1
  Zr  Zr60  1  0.48492234  0.89602226  0.49999465  1
  Zr  Zr61  1  0.59726106  0.40632942  0.59875263  1
  Zr  Zr62  1  0.69577187  0.49419663  0.08714006  1
  Zr  Zr63  1  0.40305247  0.39578816  0.20461814  1
  Zr  Zr64  1  0.10406620  0.70350393  0.48845262  1
  Zr  Zr65  1  0.79572563  0.39101320  -0.01423239  1
  Zr  Zr66  1  0.00128909  0.20727199  0.80709904  1
  Zr  Zr67  1  0.21221652  0.59628141  0.00392557  1
  Zr  Zr68  1  0.29705486  0.90426474  0.49111451  1
  Zr  Zr69  1  0.30772081  0.50576380  0.89227628  1
  Zr  Zr70  1  0.00549013  0.59384549  -0.00598164  1
  Zr  Zr71  1  0.30178221  0.69799279  0.71819865  1
  Zr  Zr72  1  0.50695068  0.49740979  0.09170500  1
  Zr  Zr73  1  0.60848476  0.19854947  0.59185983  1
  Zr  Zr74  1  -0.00395618  0.80819283  0.20206833  1
  Zr  Zr75  1  0.20513551  0.20043029  0.79980286  1
  Zr  Zr76  1  0.50052213  0.30898538  0.49463351  1
  Zr  Zr77  1  0.90055716  0.29482400  0.30708130  1
  Zr  Zr78  1  0.89196703  0.70324141  0.50475516  1
  Zr  Zr79  1  0.18860949  0.40162027  0.60091419  1
  Zr  Zr80  1  0.00310206  0.80346063  0.60218663  1
  Zr  Zr81  1  0.89543636  0.30349014  0.70476671  1
  Zr  Zr82  1  0.50487751  0.70873416  0.28745737  1
  Zr  Zr83  1  0.11763989  0.90807523  0.89354786  1
  Zr  Zr84  1  0.19595444  0.80009948  0.60967434  1
  Zr  Zr85  1  0.20955470  0.80126723  0.00057035  1
  Zr  Zr86  1  0.29990133  0.50698620  0.50199292  1
  Zr  Zr87  1  -0.00363199  0.00242124  0.79384514  1
  Zr  Zr88  1  0.59693747  0.19192873  0.80153834  1
  Zr  Zr89  1  0.59766102  0.19355687  0.39820910  1
  Zr  Zr90  1  0.90248479  0.90059847  0.89850800  1
  Zr  Zr91  1  0.80056548  0.59841086  0.39031761  1
  Zr  Zr92  1  0.68967347  0.09377241  0.10247855  1
  Zr  Zr93  1  0.20630944  0.40191350  0.00214717  1
  Zr  Zr94  1  0.19201499  0.60178022  0.60680385  1
  Zr  Zr95  1  0.89769516  0.11357639  0.30887397  1
  Zr  Zr96  1  0.20710824  0.80386237  0.20488492  1
  Zr  Zr97  1  0.90012348  0.49657928  0.88787372  1
  Zr  Zr98  1  0.58719343  0.79626603  0.60113755  1
  Zr  Zr99  1  -0.00583650  0.60245292  0.20839829  1
  Ta  Ta100  1  0.89972616  0.90268355  0.50304388  1
  Ta  Ta101  1  0.09714867  0.90812552  0.49966930  1
  Ta  Ta102  1  0.49701559  0.89082987  0.89211542  1
  Ta  Ta103  1  0.10749862  0.29738508  0.10388270  1
  Ta  Ta104  1  0.69826888  0.50793423  0.69794219  1
  Ta  Ta105  1  0.80040506  0.00792363  0.59279408  1
  Ta  Ta106  1  0.29961645  0.09810134  0.49452491  1
  Ta  Ta107  1  0.69858485  0.29910783  0.70181653  1
  Ta  Ta108  1  0.39853584  -0.00199895  0.61315006  1
  Ta  Ta109  1  0.20307224  0.19537331  -0.00026707  1
  Ta  Ta110  1  0.40864001  0.60731332  -0.00185266  1
  Ta  Ta111  1  0.19530772  0.19741584  0.39822471  1
  Ta  Ta112  1  0.29543468  0.09255956  0.30167639  1
  Ta  Ta113  1  0.20325945  0.20064937  0.59822769  1
  Ta  Ta114  1  0.80028045  0.80852718  0.39629753  1
  Ta  Ta115  1  0.20706804  0.40333168  0.20446821  1
  Ta  Ta116  1  0.31306008  0.70058853  0.10408206  1
  Ta  Ta117  1  0.78164315  0.20366079  0.20592433  1
  Ta  Ta118  1  0.79747659  0.59556579  0.19969407  1
  Ta  Ta119  1  0.60162246  0.40516323  0.80081059  1
  Ta  Ta120  1  0.70098477  0.10183071  0.69590149  1
  Ta  Ta121  1  0.61284978  0.60391852  0.19265505  1
  Ta  Ta122  1  0.30424930  0.89610809  0.71178705  1
  Ta  Ta123  1  0.49907304  0.30953664  0.90177523  1
  Ta  Ta124  1  0.20941134  0.59797281  0.20605217  1
  Ta  Ta125  1  0.29878799  0.08629122  0.90487475  1
  Ta  Ta126  1  0.78858016  0.60293590  -0.00648883  1
  Ta  Ta127  1  0.50062596  0.30376999  0.70472822  1
  Ta  Ta128  1  0.89949389  0.50146416  0.50714436  1
  Ta  Ta129  1  0.89558888  0.50000371  0.69920297  1
  Ta  Ta130  1  0.49486909  0.70712467  0.71756647  1
  Ta  Ta131  1  0.40251627  0.79598458  -0.00178498  1
  Ta  Ta132  1  0.30641549  0.90197988  0.89413133  1
  Ta  Ta133  1  0.69173002  0.50838313  0.49025441  1
  Ta  Ta134  1  0.30106435  0.09235212  0.10412424  1
  Ta  Ta135  1  0.89269844  0.10718105  0.69119183  1
  Ta  Ta136  1  0.79845440  0.40304959  0.20603612  1
  Ta  Ta137  1  -0.00424619  0.80602293  0.39341586  1
  Ta  Ta138  1  0.69474511  0.69562447  0.69836727  1
  Ta  Ta139  1  0.59234374  0.00049585  0.79433989  1
  Ta  Ta140  1  0.69951766  0.70008059  0.29733962  1
  Ta  Ta141  1  0.10987781  0.30024968  0.90178894  1
  Ta  Ta142  1  0.01295767  0.20081858  -0.00021756  1
  Ta  Ta143  1  0.70363404  0.89418271  0.50781216  1
  Ta  Ta144  1  0.30411266  0.30232661  0.89738565  1
  Ta  Ta145  1  0.40675845  0.40079120  0.80219743  1
  Ta  Ta146  1  0.20023180  0.39874276  0.39461351  1
  Ta  Ta147  1  -0.00094395  0.39434872  0.20380979  1
  Ta  Ta148  1  0.79041796  0.59594183  0.80014471  1
  Ta  Ta149  1  0.30375066  0.30813494  0.70366250  1
  Ti  Ti150  1  0.11286902  0.09577587  0.90180836  1
  Ti  Ti151  1  0.00305017  0.40348776  0.60262459  1
  Ti  Ti152  1  0.59966062  0.60211392  0.80829373  1
  Ti  Ti153  1  0.39892950  0.40517094  -0.00074221  1
  Ti  Ti154  1  0.60450719  0.39810603  0.19903028  1
  Ti  Ti155  1  0.09775048  0.49769787  0.49213433  1
  Ti  Ti156  1  0.78966719  0.40115562  0.79921928  1
  Ti  Ti157  1  0.10221993  0.29986155  0.30327528  1
  Ti  Ti158  1  0.20557729  0.60280554  0.39042442  1
  Ti  Ti159  1  0.39059033  -0.02182897  0.21238719  1
  Ti  Ti160  1  0.00785825  0.40140887  0.80158993  1
  Ti  Ti161  1  0.29347178  0.29749328  0.29770690  1
  Ti  Ti162  1  0.40861769  0.61416428  0.59561328  1
  Ti  Ti163  1  -0.00302669  0.40240627  0.39826278  1
  Ti  Ti164  1  0.49607144  0.08775843  0.89984934  1
  Ti  Ti165  1  0.19877856  0.80006655  0.39159534  1
  Ti  Ti166  1  0.50343386  0.30702189  0.09111848  1
  Ti  Ti167  1  0.78771018  0.20224691  -0.00897937  1
  Ti  Ti168  1  0.71112935  0.70132849  0.50437422  1
  Ti  Ti169  1  0.30310404  0.70402971  0.29647744  1
  Ti  Ti170  1  0.68635308  0.89786832  0.10629230  1
  Ti  Ti171  1  0.50232954  0.69775845  0.10207728  1
  Ti  Ti172  1  0.39950824  -0.00939239  -0.00201554  1
  Ti  Ti173  1  0.40527244  0.40665422  0.60120796  1
  Ti  Ti174  1  0.40771754  -0.00104169  0.79392808  1
  Ti  Ti175  1  0.29841716  0.09470216  0.70577870  1
  Ti  Ti176  1  0.20411830  0.00173806  0.20228557  1
  Ti  Ti177  1  0.59020515  -0.00070546  0.60777058  1
  Ti  Ti178  1  0.11038090  0.90750523  0.09923065  1
  Ti  Ti179  1  0.89507412  0.90665213  0.68697584  1
  Ti  Ti180  1  0.69665339  0.30223257  0.09671802  1
  Ti  Ti181  1  0.59685789  -0.00193196  -0.00830015  1
  Ti  Ti182  1  0.51009005  0.50163842  0.90567647  1
  Ti  Ti183  1  0.09743881  0.30124212  0.49149336  1
  Ti  Ti184  1  0.10901814  0.90799005  0.70312682  1
  Ti  Ti185  1  0.11501452  0.09909359  0.09955483  1
  Ti  Ti186  1  0.89724429  0.69111826  0.09753977  1
  Ti  Ti187  1  0.30727122  0.70236582  0.89346772  1
  Ti  Ti188  1  0.20153365  0.19536381  0.20479190  1
  Ti  Ti189  1  0.69234775  0.69572238  0.89585389  1
  Ti  Ti190  1  0.10401740  0.30275810  0.70290447  1
  Ti  Ti191  1  0.40139964  0.20274820  0.20187604  1
  Ti  Ti192  1  0.89411431  0.70756501  0.29970690  1
  Ti  Ti193  1  0.19684836  0.40498903  0.80074655  1
  Ti  Ti194  1  0.79298721  0.20288000  0.80419720  1
  Ti  Ti195  1  0.69068281  0.30245827  0.89392519  1
  Ti  Ti196  1  0.39970569  0.81340710  0.37524595  1
  Ti  Ti197  1  0.10289053  0.09932327  0.49665704  1
  Ti  Ti198  1  0.30290094  0.90108550  0.09797171  1
  Ti  Ti199  1  0.68705820  0.88986485  0.29328774  1
  Mo  Mo200  1  0.10882833  0.69940784  0.30337069  1
  Mo  Mo201  1  0.01863408  0.20348274  0.40314776  1
  Mo  Mo202  1  0.70209917  0.50311894  0.29359875  1
  Mo  Mo203  1  0.11073783  0.10437162  0.29833102  1
  Mo  Mo204  1  0.60444805  0.40388990  0.40527070  1
  Mo  Mo205  1  0.60026165  0.60190033  -0.00322145  1
  Mo  Mo206  1  0.48362969  0.70860520  0.49411598  1
  Mo  Mo207  1  0.20581613  0.80555649  0.80232806  1
  Mo  Mo208  1  0.90247940  0.29383012  0.89774132  1
  Mo  Mo209  1  0.39867209  0.80300109  0.61715701  1
  Mo  Mo210  1  0.39669316  0.79937919  0.19356944  1
  Mo  Mo211  1  0.90463763  0.09853876  0.50862013  1
  Mo  Mo212  1  0.59863089  0.39169019  -0.00921149  1
  Mo  Mo213  1  0.59792689  0.79541566  0.79925392  1
  Mo  Mo214  1  0.20894117  0.00358664  0.00755101  1
  Mo  Mo215  1  0.20994626  0.00213576  0.79744349  1
  Mo  Mo216  1  0.50167922  0.30531425  0.29286359  1
  Mo  Mo217  1  0.79061699  0.59203931  0.60100514  1
  Mo  Mo218  1  0.19135824  0.58816766  0.80056111  1
  Mo  Mo219  1  0.09145389  0.49489414  0.71014642  1
  Mo  Mo220  1  0.50109857  0.51049552  0.50066927  1
  Mo  Mo221  1  0.69637427  0.09652976  0.89475435  1
  Mo  Mo222  1  0.79561421  0.19849294  0.60516119  1
  Mo  Mo223  1  0.41277004  0.59988852  0.81185747  1
  Mo  Mo224  1  0.60687659  0.60994297  0.40164340  1
  Mo  Mo225  1  0.79661532  0.80629923  0.59640668  1
  Mo  Mo226  1  0.70489520  0.69246294  0.10113107  1
  Mo  Mo227  1  0.69402065  0.50311902  0.89085200  1
  Mo  Mo228  1  0.10185741  0.69128764  0.70969889  1
  Mo  Mo229  1  0.68730397  0.07678504  0.51280888  1
  Mo  Mo230  1  0.19788899  0.00955316  0.40435905  1
  Mo  Mo231  1  0.90175928  0.49236128  0.29695274  1
  Mo  Mo232  1  -0.00143773  0.59143169  0.79152244  1
  Mo  Mo233  1  0.30626970  0.50311140  0.10212535  1
  Mo  Mo234  1  0.89970509  0.89966571  0.30829953  1
  Mo  Mo235  1  0.29104838  0.50251457  0.30309077  1
  Mo  Mo236  1  0.69827297  0.31555408  0.50106512  1
  Mo  Mo237  1  0.60596726  0.79467422  0.19701894  1
  Mo  Mo238  1  0.50035214  0.09522445  0.69929680  1
  Mo  Mo239  1  0.40208928  0.79967753  0.81067120  1
  Mo  Mo240  1  -0.00348152  0.00119437  0.59629083  1
  Mo  Mo241  1  0.90239083  0.91053419  0.10277028  1
  Mo  Mo242  1  0.49448821  0.89917229  0.70599896  1
  Mo  Mo243  1  0.50074337  0.69618010  0.90142344  1
  Mo  Mo244  1  0.50012782  0.89790384  0.29568828  1
  Mo  Mo245  1  0.69337226  0.10064874  0.29689688  1
  Mo  Mo246  1  0.29747500  0.90318785  0.30147848  1
  Mo  Mo247  1  0.10296571  0.49284384  0.89184172  1
  Mo  Mo248  1  0.39308858  -0.00082212  0.39326651  1
  Mo  Mo249  1  0.60276965  -0.00999126  0.20814810  1
