# generated using pymatgen
data_HfZrTaTiMo
_symmetry_space_group_name_H-M   'P 1'
_cell_length_a   16.88205969
_cell_length_b   16.87708376
_cell_length_c   16.88716254
_cell_angle_alpha   90.00799883
_cell_angle_beta   90.05536286
_cell_angle_gamma   89.86936244
_symmetry_Int_Tables_number   1
_chemical_formula_structural   HfZrTaTiMo
_chemical_formula_sum   'Hf50 Zr50 Ta50 Ti50 Mo50'
_cell_volume   4811.47446499
_cell_formula_units_Z   50
loop_
 _symmetry_equiv_pos_site_id
 _symmetry_equiv_pos_as_xyz
  1  'x, y, z'
loop_
 _atom_site_type_symbol
 _atom_site_label
 _atom_site_symmetry_multiplicity
 _atom_site_fract_x
 _atom_site_fract_y
 _atom_site_fract_z
 _atom_site_occupancy
  Hf  Hf0  1  0.01557132  0.00309300  0.39103866  1
  Hf  Hf1  1  0.91130747  0.70082588  0.70511983  1
  Hf  Hf2  1  0.10727304  0.10605349  0.50863416  1
  Hf  Hf3  1  0.79580749  0.60313401  0.61168157  1
  Hf  Hf4  1  0.29414969  0.30560575  0.90585913  1
  Hf  Hf5  1  0.80284701  0.78728428  0.39995763  1
  Hf  Hf6  1  0.30519408  0.90648519  0.28612305  1
  Hf  Hf7  1  -0.01925020  0.39510878  0.38960757  1
  Hf  Hf8  1  0.89733756  0.29577914  0.70017303  1
  Hf  Hf9  1  0.89826513  0.50227951  0.50591090  1
  Hf  Hf10  1  0.49662191  0.10031472  0.50208676  1
  Hf  Hf11  1  0.19672230  0.60165631  0.61157588  1
  Hf  Hf12  1  0.40111635  0.80888057  0.60367448  1
  Hf  Hf13  1  0.50212512  0.69861937  0.50369060  1
  Hf  Hf14  1  0.79737209  -0.00252647  -0.00639221  1
  Hf  Hf15  1  0.87354507  0.51663341  0.29458157  1
  Hf  Hf16  1  0.79659061  -0.00325183  0.18493425  1
  Hf  Hf17  1  0.00510397  0.00187848  0.60738901  1
  Hf  Hf18  1  0.60224141  0.19801165  0.80197534  1
  Hf  Hf19  1  0.29652532  0.70343931  0.70887773  1
  Hf  Hf20  1  0.40616314  0.19608996  0.00544313  1
  Hf  Hf21  1  0.30372727  0.30137827  0.10147664  1
  Hf  Hf22  1  0.39737924  0.40423611  0.60240381  1
  Hf  Hf23  1  0.10372991  0.69830363  0.29357569  1
  Hf  Hf24  1  0.59829008  0.20942511  0.60500333  1
  Hf  Hf25  1  0.20320812  0.19262855  0.39524420  1
  Hf  Hf26  1  0.50000350  0.89387421  0.88944953  1
  Hf  Hf27  1  0.10358260  0.09975652  0.90344676  1
  Hf  Hf28  1  0.01276803  0.00669354  0.19495469  1
  Hf  Hf29  1  0.49719967  0.30533270  0.49933468  1
  Hf  Hf30  1  0.11547312  0.89232077  0.70789577  1
  Hf  Hf31  1  0.09572252  0.30522011  0.09007885  1
  Hf  Hf32  1  0.69758979  0.31166215  0.28827630  1
  Hf  Hf33  1  0.00555925  0.80291019  0.39135715  1
  Hf  Hf34  1  0.00297070  0.39987452  0.80100605  1
  Hf  Hf35  1  0.69680242  0.89143886  0.30102183  1
  Hf  Hf36  1  0.20253912  0.60380962  0.19017470  1
  Hf  Hf37  1  0.11083086  0.69824740  0.89531609  1
  Hf  Hf38  1  0.30437451  0.30504159  0.29729979  1
  Hf  Hf39  1  0.39836526  0.19609777  0.39546508  1
  Hf  Hf40  1  0.68632308  0.68901657  0.09906235  1
  Hf  Hf41  1  0.79947427  0.79313123  -0.00668671  1
  Hf  Hf42  1  0.00185597  0.81192923  0.81915259  1
  Hf  Hf43  1  0.60267355  0.00466507  -0.00534013  1
  Hf  Hf44  1  0.90047114  0.90127188  0.50198937  1
  Hf  Hf45  1  0.08809690  0.50087406  0.08821803  1
  Hf  Hf46  1  0.00322313  0.20265539  0.80448979  1
  Hf  Hf47  1  0.79788192  0.59973541  0.80722945  1
  Hf  Hf48  1  -0.00679720  0.60862442  0.39661825  1
  Hf  Hf49  1  0.70028197  0.29885126  0.90842812  1
  Zr  Zr50  1  0.59745334  0.20442916  0.39541637  1
  Zr  Zr51  1  0.39896367  0.00144901  0.79336808  1
  Zr  Zr52  1  0.69190285  0.11353457  0.09635975  1
  Zr  Zr53  1  0.90101843  0.10538367  0.50746376  1
  Zr  Zr54  1  0.90869821  0.70107114  0.51191393  1
  Zr  Zr55  1  0.90533234  0.29808125  0.51450736  1
  Zr  Zr56  1  0.39958749  0.80208460  0.39370102  1
  Zr  Zr57  1  0.80280457  0.21092157  0.39827281  1
  Zr  Zr58  1  -0.00233963  -0.00070882  0.80402849  1
  Zr  Zr59  1  0.69071424  0.90478835  0.70279317  1
  Zr  Zr60  1  0.09174933  0.70443999  0.08761543  1
  Zr  Zr61  1  0.09601298  0.50385089  0.29840210  1
  Zr  Zr62  1  0.80907958  0.77974789  0.19655196  1
  Zr  Zr63  1  0.60327798  -0.00001301  0.40069146  1
  Zr  Zr64  1  0.10091815  0.30798516  0.30162146  1
  Zr  Zr65  1  0.89452728  0.90315723  0.69789224  1
  Zr  Zr66  1  0.00813028  0.59284481  0.79733832  1
  Zr  Zr67  1  0.49273944  0.50691514  0.69935031  1
  Zr  Zr68  1  0.00166057  -0.00799376  -0.00895834  1
  Zr  Zr69  1  0.40243236  -0.00257449  -0.00077219  1
  Zr  Zr70  1  0.29621611  0.90500895  0.49840747  1
  Zr  Zr71  1  0.18982376  0.18662089  0.19816084  1
  Zr  Zr72  1  0.29472252  0.29954141  0.70650525  1
  Zr  Zr73  1  0.90994663  0.88622428  0.09194177  1
  Zr  Zr74  1  0.11158084  0.89725614  0.50636479  1
  Zr  Zr75  1  0.90515985  0.49528010  0.91274734  1
  Zr  Zr76  1  0.50025926  0.30030342  0.90700979  1
  Zr  Zr77  1  0.20542380  0.40488480  0.60300187  1
  Zr  Zr78  1  0.70281256  0.10201099  0.29405727  1
  Zr  Zr79  1  0.49673184  0.69650018  0.90208913  1
  Zr  Zr80  1  0.79543197  0.79290915  0.80829017  1
  Zr  Zr81  1  0.70615810  0.66620496  0.30246711  1
  Zr  Zr82  1  0.10651172  0.49910251  0.48818118  1
  Zr  Zr83  1  0.40215057  0.59554373  0.39770844  1
  Zr  Zr84  1  0.78259273  0.79962681  0.60123089  1
  Zr  Zr85  1  0.09883612  0.29808010  0.50645534  1
  Zr  Zr86  1  0.70623147  0.10498321  0.70103260  1
  Zr  Zr87  1  0.29316841  0.70023157  0.50238319  1
  Zr  Zr88  1  0.19811141  0.40314484  0.19341530  1
  Zr  Zr89  1  0.89642450  0.90432994  0.29941700  1
  Zr  Zr90  1  0.89417279  0.10030685  0.29570762  1
  Zr  Zr91  1  0.60645062  0.60076512  0.80574465  1
  Zr  Zr92  1  0.50025601  0.88843487  0.10240772  1
  Zr  Zr93  1  0.60282557  -0.00283345  0.58990718  1
  Zr  Zr94  1  0.51013990  0.69276603  0.29630768  1
  Zr  Zr95  1  0.80008335  0.20372695  0.00580639  1
  Zr  Zr96  1  0.58792997  0.20783725  0.19619362  1
  Zr  Zr97  1  0.59743999  0.39473047  0.79379012  1
  Zr  Zr98  1  0.29447719  0.50103009  0.30405158  1
  Zr  Zr99  1  0.69666976  0.50865548  0.49124050  1
  Ta  Ta100  1  0.10829466  0.10604654  0.70026760  1
  Ta  Ta101  1  0.59998635  0.40121296  0.60174709  1
  Ta  Ta102  1  0.59452505  0.40896760  0.39258736  1
  Ta  Ta103  1  0.79563770  0.40323943  0.60458462  1
  Ta  Ta104  1  0.40186432  0.40459263  0.40174892  1
  Ta  Ta105  1  0.69952199  0.30857341  0.50164002  1
  Ta  Ta106  1  0.30292805  0.49961941  0.09653593  1
  Ta  Ta107  1  0.89285988  0.10933754  0.89582175  1
  Ta  Ta108  1  0.30498530  0.70044270  0.09650976  1
  Ta  Ta109  1  0.20983892  0.59628980  -0.00566932  1
  Ta  Ta110  1  0.39634585  0.79458086  -0.00094651  1
  Ta  Ta111  1  0.49944830  0.49898361  0.90733717  1
  Ta  Ta112  1  0.49985017  0.09873872  0.70091901  1
  Ta  Ta113  1  0.10680530  0.89429673  0.09473809  1
  Ta  Ta114  1  0.69223968  0.49970054  0.10701162  1
  Ta  Ta115  1  0.79984326  0.40406436  0.80019490  1
  Ta  Ta116  1  0.40046790  0.40838772  0.00378888  1
  Ta  Ta117  1  0.10318585  0.29463287  0.69763510  1
  Ta  Ta118  1  0.49252415  0.70133072  0.70053922  1
  Ta  Ta119  1  0.69937859  0.49735288  0.70062789  1
  Ta  Ta120  1  0.30272268  0.09137047  0.10365814  1
  Ta  Ta121  1  0.39850334  0.19982548  0.60544674  1
  Ta  Ta122  1  0.89882759  0.30200449  0.90381159  1
  Ta  Ta123  1  0.68517509  0.69946842  0.49554072  1
  Ta  Ta124  1  0.39007648  0.59443719  0.80628368  1
  Ta  Ta125  1  0.19863928  0.80350963  0.38564686  1
  Ta  Ta126  1  0.39739841  0.59706238  -0.00039799  1
  Ta  Ta127  1  0.19955235  0.19974077  0.80600034  1
  Ta  Ta128  1  0.59958067  0.60262614  0.60639576  1
  Ta  Ta129  1  0.20606675  0.00180103  0.80533485  1
  Ta  Ta130  1  0.69274390  0.88894239  0.09820461  1
  Ta  Ta131  1  0.50163797  0.89861361  0.29700635  1
  Ta  Ta132  1  0.60259925  0.79100520  0.79536720  1
  Ta  Ta133  1  0.21294306  0.00297850  0.61417247  1
  Ta  Ta134  1  0.59822264  -0.00566675  0.19595770  1
  Ta  Ta135  1  0.79482823  0.40194724  0.39688100  1
  Ta  Ta136  1  -0.00271125  0.20060516  0.19726818  1
  Ta  Ta137  1  0.49979373  0.68949794  0.09880525  1
  Ta  Ta138  1  0.40099622  0.00072352  0.39926420  1
  Ta  Ta139  1  0.29965886  0.89702005  0.09933210  1
  Ta  Ta140  1  0.79461230  0.60131685  -0.00001787  1
  Ta  Ta141  1  0.20062196  0.19298581  0.00377748  1
  Ta  Ta142  1  0.39366578  0.40675844  0.80391529  1
  Ta  Ta143  1  0.00139902  0.19961670  0.38563996  1
  Ta  Ta144  1  0.79423560  0.00698107  0.80907151  1
  Ta  Ta145  1  0.30215908  0.10350423  0.90053268  1
  Ta  Ta146  1  0.40008251  0.00024377  0.60229853  1
  Ta  Ta147  1  0.30034436  0.89327227  0.89724415  1
  Ta  Ta148  1  0.89399856  0.10938929  0.70007067  1
  Ta  Ta149  1  0.20360058  -0.00049226  0.00249132  1
  Ti  Ti150  1  0.01764917  0.79413555  0.60828258  1
  Ti  Ti151  1  0.30036238  0.70305190  0.89663719  1
  Ti  Ti152  1  0.10973719  0.70254227  0.50052060  1
  Ti  Ti153  1  0.40494862  0.59099554  0.19430434  1
  Ti  Ti154  1  0.40259219  0.19658436  0.19936435  1
  Ti  Ti155  1  0.29612156  0.29851818  0.49892459  1
  Ti  Ti156  1  0.49825868  0.31180619  0.10491985  1
  Ti  Ti157  1  0.79492467  0.40132301  0.00867427  1
  Ti  Ti158  1  0.19225614  -0.00006164  0.19517545  1
  Ti  Ti159  1  0.59819412  0.40089944  0.01310030  1
  Ti  Ti160  1  0.20047878  0.00227270  0.38793674  1
  Ti  Ti161  1  0.49422402  0.08782533  0.29191393  1
  Ti  Ti162  1  0.20129849  0.80186948  0.19626378  1
  Ti  Ti163  1  0.90496334  0.10319683  0.09536079  1
  Ti  Ti164  1  0.11851060  0.49484611  0.71671211  1
  Ti  Ti165  1  0.11205255  0.49262863  0.90647766  1
  Ti  Ti166  1  0.50483968  0.89916930  0.70309625  1
  Ti  Ti167  1  0.29855398  0.69756366  0.29543052  1
  Ti  Ti168  1  0.60143450  0.79420717  0.20209492  1
  Ti  Ti169  1  0.78996461  0.00477806  0.59007957  1
  Ti  Ti170  1  0.00116977  0.19922049  0.00120745  1
  Ti  Ti171  1  0.29968270  0.09900055  0.50690860  1
  Ti  Ti172  1  0.90649130  0.30942088  0.09212917  1
  Ti  Ti173  1  0.69126167  0.90004429  0.89471903  1
  Ti  Ti174  1  0.30667779  0.09048394  0.28884451  1
  Ti  Ti175  1  0.40436277  0.20382428  0.79692694  1
  Ti  Ti176  1  0.49150356  0.31573887  0.29222985  1
  Ti  Ti177  1  0.89966608  0.50553340  0.09354127  1
  Ti  Ti178  1  0.29993117  0.89179119  0.70858414  1
  Ti  Ti179  1  0.30037592  0.10701725  0.70266348  1
  Ti  Ti180  1  0.01120872  0.59379345  0.61179145  1
  Ti  Ti181  1  0.29755006  0.50788008  0.49793603  1
  Ti  Ti182  1  0.80801856  0.21527935  0.19106566  1
  Ti  Ti183  1  0.20470961  0.80230422  -0.00320830  1
  Ti  Ti184  1  0.60250660  0.79256113  -0.00807159  1
  Ti  Ti185  1  -0.01418017  0.40063633  0.19985329  1
  Ti  Ti186  1  -0.01689105  0.61094545  0.19333223  1
  Ti  Ti187  1  0.39992606  0.79227722  0.19628848  1
  Ti  Ti188  1  0.50073384  0.50658944  0.50256426  1
  Ti  Ti189  1  0.79772656  0.40206310  0.19110247  1
  Ti  Ti190  1  0.70920677  0.30105230  0.70028558  1
  Ti  Ti191  1  0.50906984  0.89248650  0.49361528  1
  Ti  Ti192  1  0.10471352  0.30723672  0.90621695  1
  Ti  Ti193  1  0.00106697  0.41459407  0.61511283  1
  Ti  Ti194  1  0.00130748  0.79880563  0.20151831  1
  Ti  Ti195  1  0.78561501  0.00163327  0.41489989  1
  Ti  Ti196  1  0.50440112  0.10029138  0.89438695  1
  Ti  Ti197  1  0.49903464  0.09519872  0.10465380  1
  Ti  Ti198  1  0.69445139  0.49691534  0.91111101  1
  Ti  Ti199  1  0.91536072  0.69451942  0.91483175  1
  Mo  Mo200  1  0.12162863  0.89860241  0.90480321  1
  Mo  Mo201  1  0.19854597  0.61239896  0.40228486  1
  Mo  Mo202  1  0.80174251  0.20506283  0.80445906  1
  Mo  Mo203  1  0.60260371  0.79766625  0.39950078  1
  Mo  Mo204  1  0.20671534  0.59355870  0.80729897  1
  Mo  Mo205  1  0.40309196  0.79763781  0.80003608  1
  Mo  Mo206  1  0.90388576  0.69687071  0.29184217  1
  Mo  Mo207  1  0.00352360  0.79964152  -0.00552661  1
  Mo  Mo208  1  0.69266518  0.69520535  0.90643127  1
  Mo  Mo209  1  0.90374578  0.69074080  0.08989373  1
  Mo  Mo210  1  0.59224096  0.40470090  0.19959120  1
  Mo  Mo211  1  0.21498266  0.39643673  0.40893079  1
  Mo  Mo212  1  0.69683606  0.10428091  0.89826118  1
  Mo  Mo213  1  0.29805054  0.50399388  0.71113529  1
  Mo  Mo214  1  0.00548240  0.19535959  0.61223365  1
  Mo  Mo215  1  0.00352640  0.59704749  -0.00492969  1
  Mo  Mo216  1  0.30048629  0.49911434  0.90348060  1
  Mo  Mo217  1  0.39843508  0.59793816  0.60478526  1
  Mo  Mo218  1  0.79959008  0.59135390  0.17634829  1
  Mo  Mo219  1  0.20228235  0.40241507  -0.00233653  1
  Mo  Mo220  1  0.79335896  0.20662671  0.59983603  1
  Mo  Mo221  1  0.50012281  0.49492198  0.29424179  1
  Mo  Mo222  1  0.49737345  0.50070782  0.10052583  1
  Mo  Mo223  1  0.59153658  0.79689669  0.60239275  1
  Mo  Mo224  1  0.40533825  0.00002653  0.19951807  1
  Mo  Mo225  1  0.69706812  0.88575574  0.49434744  1
  Mo  Mo226  1  0.20834771  0.19502065  0.60487006  1
  Mo  Mo227  1  0.69697364  0.31306829  0.09923470  1
  Mo  Mo228  1  0.88328246  0.90495643  0.89799626  1
  Mo  Mo229  1  0.59318478  0.58756635  0.19921867  1
  Mo  Mo230  1  0.70477157  0.11932599  0.50457255  1
  Mo  Mo231  1  0.89616567  0.30455330  0.28307162  1
  Mo  Mo232  1  0.11109594  0.89772785  0.28712563  1
  Mo  Mo233  1  -0.00256544  0.39589156  -0.00257689  1
  Mo  Mo234  1  0.59911075  0.00155724  0.80149412  1
  Mo  Mo235  1  0.19695001  0.39642268  0.80635566  1
  Mo  Mo236  1  0.40365652  0.40581139  0.19799988  1
  Mo  Mo237  1  0.20590506  0.80069800  0.80716373  1
  Mo  Mo238  1  0.68812842  0.69612881  0.69932259  1
  Mo  Mo239  1  0.69444579  0.49384968  0.29499224  1
  Mo  Mo240  1  0.10353160  0.70177887  0.70270541  1
  Mo  Mo241  1  0.59441622  0.59247630  0.40171734  1
  Mo  Mo242  1  0.59574804  0.58775432  0.00265666  1
  Mo  Mo243  1  0.20036047  0.80018693  0.60761081  1
  Mo  Mo244  1  0.49000673  0.29769908  0.70031931  1
  Mo  Mo245  1  0.80128888  0.60048957  0.41614790  1
  Mo  Mo246  1  0.59097503  0.20105254  0.00205318  1
  Mo  Mo247  1  0.10202421  0.09949315  0.29978542  1
  Mo  Mo248  1  0.89626279  0.49566053  0.69977256  1
  Mo  Mo249  1  0.10090977  0.10009571  0.09460663  1
