# generated using pymatgen
data_HfZrTaTiMo
_symmetry_space_group_name_H-M   'P 1'
_cell_length_a   16.89189652
_cell_length_b   16.88982415
_cell_length_c   16.88720686
_cell_angle_alpha   89.91921814
_cell_angle_beta   89.93628384
_cell_angle_gamma   89.90402327
_symmetry_Int_Tables_number   1
_chemical_formula_structural   HfZrTaTiMo
_chemical_formula_sum   'Hf50 Zr50 Ta50 Ti50 Mo50'
_cell_volume   4817.92522289
_cell_formula_units_Z   50
loop_
 _symmetry_equiv_pos_site_id
 _symmetry_equiv_pos_as_xyz
  1  'x, y, z'
loop_
 _atom_site_type_symbol
 _atom_site_label
 _atom_site_symmetry_multiplicity
 _atom_site_fract_x
 _atom_site_fract_y
 _atom_site_fract_z
 _atom_site_occupancy
  Hf  Hf0  1  0.69256752  0.29082554  0.29705778  1
  Hf  Hf1  1  0.59865687  0.80923300  0.39223803  1
  Hf  Hf2  1  0.39641862  0.79367548  0.79530070  1
  Hf  Hf3  1  0.39455178  0.40166360  0.20582168  1
  Hf  Hf4  1  0.70111081  0.89487402  0.68890346  1
  Hf  Hf5  1  0.89834585  0.29429975  0.49891483  1
  Hf  Hf6  1  0.51116449  0.29284718  0.29292852  1
  Hf  Hf7  1  0.52186923  0.88196275  0.10405534  1
  Hf  Hf8  1  0.39744985  0.20260339  0.78971774  1
  Hf  Hf9  1  0.00600619  0.39907745  0.20529584  1
  Hf  Hf10  1  0.80280940  0.40333871  0.60092027  1
  Hf  Hf11  1  0.29991794  0.69187257  0.10229128  1
  Hf  Hf12  1  0.00501063  0.59854458  0.20670168  1
  Hf  Hf13  1  0.40174196  0.59351571  0.19928235  1
  Hf  Hf14  1  0.20526731  0.79802231  0.39714455  1
  Hf  Hf15  1  0.39303568  0.39678720  0.39726466  1
  Hf  Hf16  1  -0.00241918  0.79183365  0.60360179  1
  Hf  Hf17  1  0.29339782  0.10125927  0.90687534  1
  Hf  Hf18  1  0.90741880  0.89632417  0.11120000  1
  Hf  Hf19  1  0.20668846  0.39642732  0.80410601  1
  Hf  Hf20  1  0.20070928  0.39669387  0.01018104  1
  Hf  Hf21  1  0.10025299  0.09935836  0.89868767  1
  Hf  Hf22  1  0.09581371  0.30238271  0.70144183  1
  Hf  Hf23  1  0.70440129  0.51283444  0.50448268  1
  Hf  Hf24  1  0.80188596  0.19140511  0.00858545  1
  Hf  Hf25  1  0.90095735  0.49997619  0.10306163  1
  Hf  Hf26  1  0.20032119  0.79780236  -0.00107527  1
  Hf  Hf27  1  0.80703401  0.79279185  0.79362147  1
  Hf  Hf28  1  0.90702770  0.09401892  0.30611018  1
  Hf  Hf29  1  0.30091760  0.11131954  0.09334466  1
  Hf  Hf30  1  0.30741918  0.49693325  0.69749426  1
  Hf  Hf31  1  0.09654036  0.90814600  0.89234346  1
  Hf  Hf32  1  0.49093985  0.50341136  0.50426202  1
  Hf  Hf33  1  0.80099304  -0.00038579  0.00905642  1
  Hf  Hf34  1  0.79974605  0.40628281  0.39912202  1
  Hf  Hf35  1  0.69951589  0.90618473  0.49975157  1
  Hf  Hf36  1  0.30746262  0.50202797  0.90486036  1
  Hf  Hf37  1  0.78672306  0.81129697  0.20245838  1
  Hf  Hf38  1  0.40719328  -0.00499832  0.20631738  1
  Hf  Hf39  1  0.08994585  0.09206563  0.70823428  1
  Hf  Hf40  1  0.50467962  0.29807267  0.10095072  1
  Hf  Hf41  1  0.79070867  0.40635723  0.20392377  1
  Hf  Hf42  1  0.41065308  0.78825421  0.00017782  1
  Hf  Hf43  1  0.29798589  0.89754117  0.10278176  1
  Hf  Hf44  1  0.19734447  -0.00541128  0.39094105  1
  Hf  Hf45  1  0.40099040  0.20025962  0.40132427  1
  Hf  Hf46  1  0.59752104  0.60004184  0.39499870  1
  Hf  Hf47  1  0.38625383  0.79394025  0.60207310  1
  Hf  Hf48  1  0.20921066  0.19361696  0.60087149  1
  Hf  Hf49  1  -0.00035807  0.19904084  0.60038177  1
  Zr  Zr50  1  -0.00204988  0.59408063  0.59876802  1
  Zr  Zr51  1  0.00645187  0.41381615  0.81102003  1
  Zr  Zr52  1  0.09860704  0.70225905  0.10833046  1
  Zr  Zr53  1  0.30600536  0.28596233  0.91982723  1
  Zr  Zr54  1  0.79745264  0.19665566  0.39549731  1
  Zr  Zr55  1  0.30004649  0.90277546  0.90028762  1
  Zr  Zr56  1  0.00288973  0.59099525  -0.00726637  1
  Zr  Zr57  1  0.79916412  0.80149735  0.39061125  1
  Zr  Zr58  1  0.49900958  0.70199929  0.29583398  1
  Zr  Zr59  1  0.59868981  0.58386779  0.19958485  1
  Zr  Zr60  1  0.69789877  0.51403338  0.71211572  1
  Zr  Zr61  1  0.79784875  0.80160896  -0.00238124  1
  Zr  Zr62  1  0.09712101  0.28951697  0.90648724  1
  Zr  Zr63  1  0.60423844  0.40444420  0.60436474  1
  Zr  Zr64  1  0.49791842  0.10464354  0.90687660  1
  Zr  Zr65  1  0.39476708  0.20588551  0.59640704  1
  Zr  Zr66  1  0.20708105  0.80112838  0.78333908  1
  Zr  Zr67  1  0.69726268  0.30347232  0.90194845  1
  Zr  Zr68  1  0.50476410  0.89377361  0.68834233  1
  Zr  Zr69  1  0.59460570  0.01998198  0.59924829  1
  Zr  Zr70  1  0.40968579  -0.00748701  0.00449469  1
  Zr  Zr71  1  0.21905999  0.38828796  0.59352657  1
  Zr  Zr72  1  0.19597862  0.00229612  0.20277696  1
  Zr  Zr73  1  0.78900279  0.60027114  0.00876725  1
  Zr  Zr74  1  0.69955068  0.70663532  0.51128514  1
  Zr  Zr75  1  0.09462846  0.09644715  0.48825544  1
  Zr  Zr76  1  0.10593437  0.69656187  0.89249240  1
  Zr  Zr77  1  0.39496632  0.01664330  0.60069343  1
  Zr  Zr78  1  0.40314399  0.00347399  0.78822870  1
  Zr  Zr79  1  0.59491076  0.20476183  0.79574948  1
  Zr  Zr80  1  0.66909448  0.72044894  0.09805370  1
  Zr  Zr81  1  0.90713910  0.09936628  0.88898382  1
  Zr  Zr82  1  0.50948992  0.10066925  0.11071808  1
  Zr  Zr83  1  0.59554926  0.79213903  0.79630926  1
  Zr  Zr84  1  0.49431990  0.90836973  0.49138919  1
  Zr  Zr85  1  0.11628720  0.50566742  0.49738286  1
  Zr  Zr86  1  0.90174999  0.91045425  0.69258986  1
  Zr  Zr87  1  0.69108040  0.68777166  0.89266969  1
  Zr  Zr88  1  0.79493097  0.40609141  0.00060639  1
  Zr  Zr89  1  0.60173485  0.41356813  0.38761541  1
  Zr  Zr90  1  -0.00204406  0.59985615  0.40107810  1
  Zr  Zr91  1  0.89856550  0.30134337  0.70933911  1
  Zr  Zr92  1  -0.00676624  0.79871017  -0.00686980  1
  Zr  Zr93  1  0.68899595  0.30042753  0.10598212  1
  Zr  Zr94  1  0.89740244  0.10354513  0.70217132  1
  Zr  Zr95  1  -0.00046505  0.40911636  0.39505247  1
  Zr  Zr96  1  0.89925664  0.90575851  0.49595944  1
  Zr  Zr97  1  0.90585518  0.09223900  0.49457969  1
  Zr  Zr98  1  0.09309481  0.90158281  0.50366392  1
  Zr  Zr99  1  0.10000037  0.29826834  0.49048402  1
  Ta  Ta100  1  0.60178768  0.00575622  0.79657871  1
  Ta  Ta101  1  -0.00523294  0.19453155  0.01109193  1
  Ta  Ta102  1  0.40315382  0.59943401  0.79657410  1
  Ta  Ta103  1  0.11029560  0.69360768  0.30329351  1
  Ta  Ta104  1  0.20615368  0.20103754  0.79040552  1
  Ta  Ta105  1  0.49427239  0.70239955  0.50074081  1
  Ta  Ta106  1  0.10344981  0.69352735  0.69598764  1
  Ta  Ta107  1  0.10714142  0.70023467  0.49838350  1
  Ta  Ta108  1  0.20153381  0.20788829  0.20189285  1
  Ta  Ta109  1  0.90259422  0.29879772  0.10332955  1
  Ta  Ta110  1  0.30330724  0.68805769  0.89926304  1
  Ta  Ta111  1  0.58429926  0.59161792  0.00743969  1
  Ta  Ta112  1  0.50652018  0.09446926  0.30865597  1
  Ta  Ta113  1  0.09629986  0.89541728  0.10752927  1
  Ta  Ta114  1  0.20410433  0.39888553  0.20729530  1
  Ta  Ta115  1  0.61205338  -0.00363930  0.00093529  1
  Ta  Ta116  1  0.89273394  0.50907878  0.29752989  1
  Ta  Ta117  1  -0.00257785  0.79336158  0.79284775  1
  Ta  Ta118  1  0.30001807  0.90328602  0.49746125  1
  Ta  Ta119  1  0.00030714  0.79214792  0.39450140  1
  Ta  Ta120  1  0.49696618  0.30994504  0.69106171  1
  Ta  Ta121  1  0.70471673  0.10974484  0.70051593  1
  Ta  Ta122  1  0.79604571  0.00334642  0.20173406  1
  Ta  Ta123  1  0.89941469  0.50065679  0.70441972  1
  Ta  Ta124  1  0.39552169  0.60568582  0.60191043  1
  Ta  Ta125  1  0.79288807  0.01411047  0.59466770  1
  Ta  Ta126  1  0.50596463  0.30197594  0.49960927  1
  Ta  Ta127  1  0.20983160  0.40260939  0.38749387  1
  Ta  Ta128  1  0.19995441  0.59349993  0.00190328  1
  Ta  Ta129  1  0.60790993  0.19049419  0.00261763  1
  Ta  Ta130  1  0.10748396  0.49922417  0.10654695  1
  Ta  Ta131  1  0.70255121  0.09581804  0.89639545  1
  Ta  Ta132  1  0.00199828  0.59944229  0.79575676  1
  Ta  Ta133  1  0.40231783  0.40173874  0.00949654  1
  Ta  Ta134  1  0.59074516  0.40148395  0.80200801  1
  Ta  Ta135  1  0.69800433  0.90124926  0.89622523  1
  Ta  Ta136  1  0.39542968  0.20245403  0.20438012  1
  Ta  Ta137  1  0.20570847  0.79666091  0.20976325  1
  Ta  Ta138  1  0.69536109  0.29357588  0.50111010  1
  Ta  Ta139  1  0.89508282  0.70345466  0.50157188  1
  Ta  Ta140  1  0.00338140  0.00367478  0.19904775  1
  Ta  Ta141  1  0.20345751  -0.00201835  0.60298110  1
  Ta  Ta142  1  -0.00081196  0.00259991  0.00861053  1
  Ta  Ta143  1  0.30247983  0.10062478  0.29997982  1
  Ta  Ta144  1  0.39581230  0.80091105  0.39613254  1
  Ta  Ta145  1  0.40136847  0.79847855  0.20503395  1
  Ta  Ta146  1  0.00064167  0.19857779  0.19851553  1
  Ta  Ta147  1  0.90395603  0.29807222  0.90513068  1
  Ta  Ta148  1  0.80175717  0.18916268  0.19584259  1
  Ta  Ta149  1  0.40468782  0.39509688  0.80186784  1
  Ti  Ti150  1  0.00375998  0.40065189  0.00276463  1
  Ti  Ti151  1  0.89521535  0.50005502  0.89860836  1
  Ti  Ti152  1  0.39257143  0.60090600  0.39280330  1
  Ti  Ti153  1  0.49990627  0.69422498  0.69574547  1
  Ti  Ti154  1  0.79547331  0.40332471  0.80377214  1
  Ti  Ti155  1  0.19926899  0.59344654  0.79960646  1
  Ti  Ti156  1  0.19169625  -0.00139790  0.00820970  1
  Ti  Ti157  1  -0.00496937  0.40834243  0.59482313  1
  Ti  Ti158  1  0.79294981  -0.00154906  0.79758619  1
  Ti  Ti159  1  0.90312368  0.90682121  0.30240724  1
  Ti  Ti160  1  0.20971620  0.20766947  0.39476832  1
  Ti  Ti161  1  0.29794148  0.50219777  0.10187728  1
  Ti  Ti162  1  0.29851601  0.09305134  0.48619167  1
  Ti  Ti163  1  0.69582607  0.10581536  0.49245215  1
  Ti  Ti164  1  0.81206212  0.60654431  0.60743413  1
  Ti  Ti165  1  0.90173912  0.29517461  0.29688518  1
  Ti  Ti166  1  0.20998177  -0.00038812  0.78724683  1
  Ti  Ti167  1  0.09993928  0.10360850  0.10171533  1
  Ti  Ti168  1  0.79055706  0.60226065  0.19657261  1
  Ti  Ti169  1  0.79692727  0.20527377  0.80415703  1
  Ti  Ti170  1  0.70177562  0.29796741  0.69653546  1
  Ti  Ti171  1  0.20884968  0.60688308  0.60222732  1
  Ti  Ti172  1  0.61145202  -0.00942476  0.20446192  1
  Ti  Ti173  1  0.69841386  0.69915878  0.69520080  1
  Ti  Ti174  1  0.69794410  0.69793875  0.29630730  1
  Ti  Ti175  1  0.09667796  0.10995926  0.30392656  1
  Ti  Ti176  1  0.89981584  0.70252959  0.10911064  1
  Ti  Ti177  1  0.80962269  0.60157025  0.79814289  1
  Ti  Ti178  1  0.49633293  0.50000242  0.70070889  1
  Ti  Ti179  1  0.50172925  0.30239284  0.91135919  1
  Ti  Ti180  1  0.09982122  0.29596937  0.10268738  1
  Ti  Ti181  1  0.80262480  0.60396776  0.39620138  1
  Ti  Ti182  1  0.90190370  0.90588074  0.89280237  1
  Ti  Ti183  1  0.10076228  0.29502681  0.30200533  1
  Ti  Ti184  1  0.30944405  0.90167637  0.30401723  1
  Ti  Ti185  1  0.10526044  0.49969285  0.69656598  1
  Ti  Ti186  1  0.30311249  0.50497266  0.49748954  1
  Ti  Ti187  1  0.90043537  0.70294641  0.29231814  1
  Ti  Ti188  1  0.20446783  0.79911133  0.60131096  1
  Ti  Ti189  1  0.08990004  0.89014137  0.29350558  1
  Ti  Ti190  1  0.59690640  0.20151986  0.59785028  1
  Ti  Ti191  1  0.90068154  0.69305046  0.89645080  1
  Ti  Ti192  1  0.68411875  0.50145490  0.90011139  1
  Ti  Ti193  1  0.09568598  0.90324181  0.69826248  1
  Ti  Ti194  1  0.69255168  0.09528995  0.30462303  1
  Ti  Ti195  1  0.29781402  0.69455124  0.49286217  1
  Ti  Ti196  1  0.50939971  0.89956429  0.89813175  1
  Ti  Ti197  1  0.49965289  0.68566818  0.90185602  1
  Ti  Ti198  1  0.59098856  0.60491485  0.60466799  1
  Ti  Ti199  1  0.49713262  0.49724584  0.90388495  1
  Mo  Mo200  1  0.79173566  0.00176767  0.39722281  1
  Mo  Mo201  1  0.00375189  -0.00003766  0.60708549  1
  Mo  Mo202  1  0.49503066  0.69755179  0.09869699  1
  Mo  Mo203  1  0.59400632  0.78786373  0.59698803  1
  Mo  Mo204  1  0.89024361  0.50810893  0.50172149  1
  Mo  Mo205  1  0.30272672  0.29975768  0.49190163  1
  Mo  Mo206  1  0.69979191  0.91622416  0.30417142  1
  Mo  Mo207  1  -0.00098442  0.79623182  0.21227862  1
  Mo  Mo208  1  0.00227999  0.20621836  0.80694647  1
  Mo  Mo209  1  0.59841309  0.19590763  0.40490520  1
  Mo  Mo210  1  0.00717915  -0.01089690  0.38255919  1
  Mo  Mo211  1  0.10874753  0.50051058  0.90783156  1
  Mo  Mo212  1  0.29643212  0.29291987  0.29861403  1
  Mo  Mo213  1  0.90524814  0.09779497  0.10889626  1
  Mo  Mo214  1  0.58099693  0.59222688  0.80119785  1
  Mo  Mo215  1  0.60639519  0.18129083  0.20415056  1
  Mo  Mo216  1  0.40020669  0.59448798  -0.00010923  1
  Mo  Mo217  1  0.60088620  0.80898472  0.21801441  1
  Mo  Mo218  1  0.48933999  0.49763584  0.30301772  1
  Mo  Mo219  1  0.11077726  0.50175768  0.29625862  1
  Mo  Mo220  1  0.59234388  0.40679308  -0.00441802  1
  Mo  Mo221  1  0.20896063  0.60186230  0.39879662  1
  Mo  Mo222  1  0.59883122  0.00688606  0.39968340  1
  Mo  Mo223  1  0.78806408  0.20061922  0.59773320  1
  Mo  Mo224  1  0.71329340  0.51339175  0.29939990  1
  Mo  Mo225  1  -0.00193457  -0.01026530  0.80420749  1
  Mo  Mo226  1  0.90274610  0.69336189  0.70142612  1
  Mo  Mo227  1  0.29461274  0.90332212  0.68920706  1
  Mo  Mo228  1  0.40506312  0.40345119  0.59632856  1
  Mo  Mo229  1  0.00342520  0.20831501  0.38745641  1
  Mo  Mo230  1  0.50506906  0.10928337  0.49238782  1
  Mo  Mo231  1  0.41159420  0.20644680  0.00931721  1
  Mo  Mo232  1  0.39658469  0.00238962  0.39771272  1
  Mo  Mo233  1  0.50979254  0.11384738  0.69727180  1
  Mo  Mo234  1  0.18690316  0.19778773  0.01556347  1
  Mo  Mo235  1  0.29601820  0.68813585  0.70189319  1
  Mo  Mo236  1  0.70168415  0.90495595  0.09891709  1
  Mo  Mo237  1  0.20238207  0.59441357  0.20430278  1
  Mo  Mo238  1  0.49981411  0.90400843  0.29832615  1
  Mo  Mo239  1  0.29502990  0.50778720  0.30170688  1
  Mo  Mo240  1  0.70181954  0.09537370  0.10538855  1
  Mo  Mo241  1  0.29078995  0.10061796  0.70238569  1
  Mo  Mo242  1  0.80153110  0.79329443  0.60166817  1
  Mo  Mo243  1  0.30597408  0.30266937  0.70287847  1
  Mo  Mo244  1  0.30135608  0.69998321  0.30013117  1
  Mo  Mo245  1  0.69182793  0.49784239  0.09933977  1
  Mo  Mo246  1  0.49615899  0.49200316  0.09653955  1
  Mo  Mo247  1  0.59649897  0.41422991  0.19611461  1
  Mo  Mo248  1  0.30034088  0.30054055  0.10728809  1
  Mo  Mo249  1  0.59619182  0.80126704  -0.02024217  1
