# generated using pymatgen
data_HfZrTaTiMo
_symmetry_space_group_name_H-M   'P 1'
_cell_length_a   16.88135219
_cell_length_b   16.88706704
_cell_length_c   16.88555286
_cell_angle_alpha   89.98339664
_cell_angle_beta   90.00052371
_cell_angle_gamma   90.02435457
_symmetry_Int_Tables_number   1
_chemical_formula_structural   HfZrTaTiMo
_chemical_formula_sum   'Hf50 Zr50 Ta50 Ti50 Mo50'
_cell_volume   4813.67411370
_cell_formula_units_Z   50
loop_
 _symmetry_equiv_pos_site_id
 _symmetry_equiv_pos_as_xyz
  1  'x, y, z'
loop_
 _atom_site_type_symbol
 _atom_site_label
 _atom_site_symmetry_multiplicity
 _atom_site_fract_x
 _atom_site_fract_y
 _atom_site_fract_z
 _atom_site_occupancy
  Hf  Hf0  1  0.79833989  0.19944275  0.20192937  1
  Hf  Hf1  1  0.79881177  0.60103314  0.00419030  1
  Hf  Hf2  1  0.79427584  0.59562383  0.20122729  1
  Hf  Hf3  1  0.00512141  0.59586837  0.59770054  1
  Hf  Hf4  1  0.30324711  0.50015734  0.50881166  1
  Hf  Hf5  1  0.90549452  0.10754446  0.49397695  1
  Hf  Hf6  1  0.50884951  0.49322185  0.30555177  1
  Hf  Hf7  1  0.11018485  0.10318826  0.30654275  1
  Hf  Hf8  1  0.68592472  0.31336822  0.29077160  1
  Hf  Hf9  1  0.31014240  0.70065643  0.30719796  1
  Hf  Hf10  1  0.90768613  0.10709022  0.30317529  1
  Hf  Hf11  1  0.30307961  0.11223647  0.69559669  1
  Hf  Hf12  1  0.10739995  0.10822962  0.90466043  1
  Hf  Hf13  1  0.10969361  0.49789255  0.69648131  1
  Hf  Hf14  1  0.30026828  0.69997630  0.89949224  1
  Hf  Hf15  1  0.59492758  0.19754159  0.80040572  1
  Hf  Hf16  1  0.48862390  0.10427644  0.70543511  1
  Hf  Hf17  1  0.90702897  0.89328096  0.69521771  1
  Hf  Hf18  1  0.18713388  0.01178501  0.59146588  1
  Hf  Hf19  1  0.00410106  0.60150639  0.00039132  1
  Hf  Hf20  1  0.19806574  0.80056678  0.40083698  1
  Hf  Hf21  1  -0.00617554  0.20530553  0.79913891  1
  Hf  Hf22  1  0.20784071  0.80480080  0.80100132  1
  Hf  Hf23  1  0.90029539  0.49073530  0.10563750  1
  Hf  Hf24  1  0.01111074  0.37819462  0.20450256  1
  Hf  Hf25  1  0.49629620  0.30049577  0.29734536  1
  Hf  Hf26  1  0.29956263  0.68848413  0.69600037  1
  Hf  Hf27  1  0.00722333  0.39913676  0.80183353  1
  Hf  Hf28  1  0.79599296  0.60092278  0.58981832  1
  Hf  Hf29  1  0.89760632  0.49328143  0.69255809  1
  Hf  Hf30  1  0.49174172  0.68825802  0.69595318  1
  Hf  Hf31  1  0.48875650  0.30556622  0.50284265  1
  Hf  Hf32  1  0.49863212  0.70398578  0.09522070  1
  Hf  Hf33  1  0.59588186  0.81185695  0.79266730  1
  Hf  Hf34  1  0.39828238  0.39750618  0.19610552  1
  Hf  Hf35  1  0.59610971  0.80790204  0.20792578  1
  Hf  Hf36  1  0.29389653  0.29154775  0.30120073  1
  Hf  Hf37  1  0.30090476  0.90536034  0.68998230  1
  Hf  Hf38  1  0.89220810  0.30249063  0.10143939  1
  Hf  Hf39  1  0.80120943  0.00080225  0.60277529  1
  Hf  Hf40  1  0.00455966  0.20551449  0.60391018  1
  Hf  Hf41  1  0.89154412  0.29718228  0.90345754  1
  Hf  Hf42  1  0.80623468  -0.00708044  0.20099690  1
  Hf  Hf43  1  0.69846247  0.10151484  0.90289418  1
  Hf  Hf44  1  0.69801674  0.10310555  0.50348691  1
  Hf  Hf45  1  0.80519086  -0.00289045  -0.00125224  1
  Hf  Hf46  1  0.00538239  0.19793711  0.00721539  1
  Hf  Hf47  1  0.48652005  0.28897410  0.90403051  1
  Hf  Hf48  1  0.10951394  0.89993585  0.91323743  1
  Hf  Hf49  1  0.31049118  0.69206711  0.50446971  1
  Zr  Zr50  1  0.79987654  -0.00642293  0.39664140  1
  Zr  Zr51  1  0.90206441  0.49435596  0.30056243  1
  Zr  Zr52  1  0.69475285  0.10163454  0.29513584  1
  Zr  Zr53  1  0.89862256  0.89242526  0.90345827  1
  Zr  Zr54  1  0.29452577  0.48947481  0.09522360  1
  Zr  Zr55  1  0.70397083  0.48130290  0.91078030  1
  Zr  Zr56  1  -0.00363662  0.80994910  0.19550088  1
  Zr  Zr57  1  0.40535346  0.60108514  0.19406552  1
  Zr  Zr58  1  0.69718173  0.69286054  0.70238331  1
  Zr  Zr59  1  0.29739408  0.90589745  0.49378623  1
  Zr  Zr60  1  0.09241604  0.69091835  0.28840295  1
  Zr  Zr61  1  0.39451714  -0.00689384  0.81430263  1
  Zr  Zr62  1  0.80015275  0.59679322  0.80099077  1
  Zr  Zr63  1  0.59581900  0.79607226  0.59408859  1
  Zr  Zr64  1  0.40948249  0.00605645  0.40019866  1
  Zr  Zr65  1  0.29781634  0.29528372  0.08602295  1
  Zr  Zr66  1  0.00732427  0.80147884  0.39920978  1
  Zr  Zr67  1  0.69495670  0.29916202  0.09524813  1
  Zr  Zr68  1  0.59173658  0.39799896  0.80143439  1
  Zr  Zr69  1  0.89723077  0.69138555  0.29996322  1
  Zr  Zr70  1  0.60060323  0.81203227  -0.01638376  1
  Zr  Zr71  1  0.60216773  0.60558616  0.40822924  1
  Zr  Zr72  1  0.41155272  0.00985306  0.19716604  1
  Zr  Zr73  1  0.90081848  0.70269130  0.49831941  1
  Zr  Zr74  1  0.59234469  0.19891111  0.40479571  1
  Zr  Zr75  1  0.29614802  0.10112712  0.29986774  1
  Zr  Zr76  1  -0.00153443  0.00960045  0.80108005  1
  Zr  Zr77  1  0.90008019  0.49474159  0.90387362  1
  Zr  Zr78  1  0.70227418  0.70811735  0.10252900  1
  Zr  Zr79  1  0.09736346  0.49319525  0.29777309  1
  Zr  Zr80  1  0.10223308  0.49603542  0.10406993  1
  Zr  Zr81  1  0.79371357  -0.00137205  0.79714743  1
  Zr  Zr82  1  0.80324633  0.21454955  0.59788701  1
  Zr  Zr83  1  0.79189793  0.39323351  0.40398687  1
  Zr  Zr84  1  0.59363419  -0.00214571  0.39545738  1
  Zr  Zr85  1  0.39777296  0.81317126  -0.00905986  1
  Zr  Zr86  1  0.00898003  0.79926295  0.79961607  1
  Zr  Zr87  1  0.79096683  0.80184198  0.60119803  1
  Zr  Zr88  1  0.69940522  0.29952189  0.69867946  1
  Zr  Zr89  1  0.01440734  -0.00252637  0.40599641  1
  Zr  Zr90  1  0.29925121  0.49889328  0.30584223  1
  Zr  Zr91  1  0.59930803  0.59558009  0.00220927  1
  Zr  Zr92  1  0.29950708  0.90433936  0.10276710  1
  Zr  Zr93  1  0.59784970  0.59228752  0.80544601  1
  Zr  Zr94  1  0.20887519  0.60881192  0.18925828  1
  Zr  Zr95  1  0.18800218  0.59581101  0.41361668  1
  Zr  Zr96  1  0.59790974  -0.00543949  0.61219089  1
  Zr  Zr97  1  0.11187636  0.90434565  0.10352820  1
  Zr  Zr98  1  0.70275415  0.90074463  0.09586430  1
  Zr  Zr99  1  0.20313207  0.00441992  0.80254969  1
  Ta  Ta100  1  -0.00078212  0.79920171  0.00522884  1
  Ta  Ta101  1  0.69801374  0.49219746  0.68921842  1
  Ta  Ta102  1  0.00179486  0.00935689  0.60200521  1
  Ta  Ta103  1  0.69847603  0.89883332  0.49734241  1
  Ta  Ta104  1  0.00914766  0.39515174  -0.00378522  1
  Ta  Ta105  1  0.40424411  0.80717698  0.79711584  1
  Ta  Ta106  1  0.19702531  0.20767715  0.59587803  1
  Ta  Ta107  1  0.19964513  0.39473101  0.59503162  1
  Ta  Ta108  1  0.39584748  0.59760926  -0.00178289  1
  Ta  Ta109  1  0.19268005  0.39197980  0.40492603  1
  Ta  Ta110  1  0.59708374  0.39815088  0.59388067  1
  Ta  Ta111  1  0.49360233  0.69751251  0.89429577  1
  Ta  Ta112  1  0.11150875  0.29909509  0.89988851  1
  Ta  Ta113  1  0.19989119  0.79715730  0.60098967  1
  Ta  Ta114  1  0.10228770  0.70064041  0.90276052  1
  Ta  Ta115  1  0.90564551  0.89760232  0.50476417  1
  Ta  Ta116  1  0.90210050  0.09919795  0.10353606  1
  Ta  Ta117  1  0.29874274  0.90240905  0.29761862  1
  Ta  Ta118  1  0.59092290  0.20171804  0.59929452  1
  Ta  Ta119  1  0.70071972  0.69820083  0.30262929  1
  Ta  Ta120  1  0.49188698  0.49395270  0.68995003  1
  Ta  Ta121  1  0.69889257  0.49535496  0.49908196  1
  Ta  Ta122  1  0.48529265  0.29917175  0.69536006  1
  Ta  Ta123  1  0.30277518  0.30279961  0.69625634  1
  Ta  Ta124  1  -0.00080610  0.00317951  0.00749607  1
  Ta  Ta125  1  0.69365533  0.09566935  0.09684130  1
  Ta  Ta126  1  0.70403101  0.29325857  0.90467814  1
  Ta  Ta127  1  0.60080970  0.79935478  0.40007382  1
  Ta  Ta128  1  0.39392209  0.39810987  0.80024488  1
  Ta  Ta129  1  0.79144590  0.80088907  0.39830567  1
  Ta  Ta130  1  0.90316539  0.29812253  0.30479389  1
  Ta  Ta131  1  0.89859447  0.49130338  0.49791975  1
  Ta  Ta132  1  0.30057604  0.49681942  0.69723948  1
  Ta  Ta133  1  0.80157985  0.39002904  0.79187172  1
  Ta  Ta134  1  0.00078894  0.58959897  0.41163272  1
  Ta  Ta135  1  0.41283568  0.79900179  0.40318101  1
  Ta  Ta136  1  0.59713437  -0.00696089  0.80529354  1
  Ta  Ta137  1  0.19542424  0.59394265  0.80525523  1
  Ta  Ta138  1  0.29551035  0.10866169  0.49634916  1
  Ta  Ta139  1  0.10434615  0.69665786  0.69873656  1
  Ta  Ta140  1  0.20212563  0.60116294  -0.00493052  1
  Ta  Ta141  1  0.00483423  0.00446613  0.19695822  1
  Ta  Ta142  1  0.19274505  0.19803106  0.18913194  1
  Ta  Ta143  1  0.40521634  0.80297276  0.59933001  1
  Ta  Ta144  1  0.00547452  0.60011217  0.80247569  1
  Ta  Ta145  1  0.21258937  0.01376555  0.00213185  1
  Ta  Ta146  1  0.49558601  0.09517001  0.91291284  1
  Ta  Ta147  1  0.29782203  0.49672379  0.89463394  1
  Ta  Ta148  1  0.90026061  0.70363793  0.89977592  1
  Ta  Ta149  1  0.90715755  0.70100754  0.70223274  1
  Ti  Ti150  1  0.79309591  0.20892555  0.40145781  1
  Ti  Ti151  1  0.89684858  0.70855729  0.09905857  1
  Ti  Ti152  1  0.39821876  0.40115958  -0.00629263  1
  Ti  Ti153  1  0.40430300  0.19210397  0.40228566  1
  Ti  Ti154  1  0.90489393  0.30779835  0.49691675  1
  Ti  Ti155  1  0.12112088  0.91280362  0.29294881  1
  Ti  Ti156  1  0.49936619  0.69665457  0.30309864  1
  Ti  Ti157  1  0.30220200  0.29651503  0.50080949  1
  Ti  Ti158  1  0.80430488  0.18881805  0.00074438  1
  Ti  Ti159  1  0.30937580  0.12092653  0.90786780  1
  Ti  Ti160  1  0.39506846  0.40145254  0.40176093  1
  Ti  Ti161  1  0.40445350  0.00485700  0.59366530  1
  Ti  Ti162  1  0.11097930  0.30358152  0.70457773  1
  Ti  Ti163  1  0.79136990  0.80428855  0.80058659  1
  Ti  Ti164  1  0.21086694  0.21161105  0.80314719  1
  Ti  Ti165  1  0.59058112  0.39314906  0.00266518  1
  Ti  Ti166  1  0.49234443  0.49877077  0.90234043  1
  Ti  Ti167  1  0.49163308  0.50172722  0.50215758  1
  Ti  Ti168  1  0.09866765  0.89790122  0.69154673  1
  Ti  Ti169  1  0.70009159  0.10614762  0.70266309  1
  Ti  Ti170  1  0.11343744  0.30058367  0.09180522  1
  Ti  Ti171  1  0.30761136  0.10868098  0.09740933  1
  Ti  Ti172  1  0.59692533  0.00091023  0.19987042  1
  Ti  Ti173  1  0.10118052  0.70199035  0.51241924  1
  Ti  Ti174  1  0.09674290  0.89495719  0.51032134  1
  Ti  Ti175  1  0.59348317  0.19440580  0.00445705  1
  Ti  Ti176  1  0.09958196  0.30194638  0.49690967  1
  Ti  Ti177  1  0.50250794  0.49571881  0.09799502  1
  Ti  Ti178  1  0.80076204  0.80713710  0.20697036  1
  Ti  Ti179  1  0.19691177  0.40383966  -0.01818391  1
  Ti  Ti180  1  0.49230326  0.29198011  0.09840379  1
  Ti  Ti181  1  0.59781050  0.59633464  0.59273975  1
  Ti  Ti182  1  0.39788025  0.59081480  0.80277896  1
  Ti  Ti183  1  0.58534412  0.19132601  0.19398713  1
  Ti  Ti184  1  0.10501503  0.11067273  0.70411138  1
  Ti  Ti185  1  0.50347420  0.91756621  0.08490633  1
  Ti  Ti186  1  0.69462799  0.49536611  0.30071305  1
  Ti  Ti187  1  0.10471667  0.70535738  0.09484153  1
  Ti  Ti188  1  0.00918930  0.19798345  0.19676880  1
  Ti  Ti189  1  0.70498929  0.70661731  0.90149989  1
  Ti  Ti190  1  0.90465157  0.89984352  0.30484627  1
  Ti  Ti191  1  0.70054136  0.47987991  0.10963886  1
  Ti  Ti192  1  0.00295907  0.39372052  0.59814487  1
  Ti  Ti193  1  0.60225581  0.59720888  0.19872681  1
  Ti  Ti194  1  0.40089594  0.80120510  0.19895400  1
  Ti  Ti195  1  0.01212028  0.21274703  0.39914573  1
  Ti  Ti196  1  0.49482134  0.89835859  0.29975131  1
  Ti  Ti197  1  0.20953699  0.79453441  0.19765160  1
  Ti  Ti198  1  0.89160432  0.11099842  0.70476020  1
  Ti  Ti199  1  0.49992973  0.89935523  0.50206077  1
  Mo  Mo200  1  0.20442492  0.39742397  0.79479491  1
  Mo  Mo201  1  -0.00003678  0.39299431  0.40536991  1
  Mo  Mo202  1  0.19740982  0.38268278  0.21052500  1
  Mo  Mo203  1  0.49781243  0.69939548  0.50027299  1
  Mo  Mo204  1  0.39522624  0.39883408  0.60131169  1
  Mo  Mo205  1  0.69542409  0.89271497  0.30083668  1
  Mo  Mo206  1  0.49897603  0.90703142  0.89663248  1
  Mo  Mo207  1  0.79467782  0.39752435  0.20450798  1
  Mo  Mo208  1  0.09628350  0.48467642  0.50403099  1
  Mo  Mo209  1  0.90200422  0.30487839  0.70001105  1
  Mo  Mo210  1  0.69869691  0.90277995  0.69916432  1
  Mo  Mo211  1  0.79711567  0.59535632  0.39923243  1
  Mo  Mo212  1  0.10073665  0.11193504  0.50162988  1
  Mo  Mo213  1  0.50528074  0.10254631  0.09454834  1
  Mo  Mo214  1  0.41217289  0.60222042  0.40531285  1
  Mo  Mo215  1  0.29599598  0.90128343  0.90595266  1
  Mo  Mo216  1  0.40103615  0.19699395  0.00274291  1
  Mo  Mo217  1  0.49757050  0.10846110  0.28875397  1
  Mo  Mo218  1  0.10272718  0.09933257  0.10254855  1
  Mo  Mo219  1  0.39521855  0.20377855  0.80385547  1
  Mo  Mo220  1  0.90202113  0.10370467  0.90813845  1
  Mo  Mo221  1  0.49109247  0.10584055  0.51237524  1
  Mo  Mo222  1  0.29880312  0.30395221  0.89433205  1
  Mo  Mo223  1  0.70096174  0.90235482  0.89438947  1
  Mo  Mo224  1  0.59081364  0.40442690  0.18635465  1
  Mo  Mo225  1  0.90470227  0.90166955  0.10302667  1
  Mo  Mo226  1  0.20306104  0.19901814  -0.00132251  1
  Mo  Mo227  1  0.80575660  0.79687356  -0.00577390  1
  Mo  Mo228  1  0.19911074  0.59905842  0.60624820  1
  Mo  Mo229  1  -0.00496974  0.60988935  0.18556945  1
  Mo  Mo230  1  0.40217360  0.20078330  0.19365417  1
  Mo  Mo231  1  0.79921685  0.39397350  0.00212857  1
  Mo  Mo232  1  0.30208272  0.70539109  0.09362171  1
  Mo  Mo233  1  0.59931431  0.00437390  -0.00122211  1
  Mo  Mo234  1  0.20482431  0.00979535  0.19780141  1
  Mo  Mo235  1  0.69879274  0.69842255  0.49162930  1
  Mo  Mo236  1  0.19965345  0.79081251  0.00350321  1
  Mo  Mo237  1  0.19846051  0.20351569  0.41305429  1
  Mo  Mo238  1  0.68748195  0.30347587  0.50040970  1
  Mo  Mo239  1  0.79879977  0.19917323  0.80215696  1
  Mo  Mo240  1  0.20210290  -0.00304820  0.40205162  1
  Mo  Mo241  1  0.59599004  0.40440494  0.41105858  1
  Mo  Mo242  1  0.39756892  0.00818126  0.00142525  1
  Mo  Mo243  1  0.10457046  0.29206492  0.30331958  1
  Mo  Mo244  1  0.39362388  0.20161033  0.59654737  1
  Mo  Mo245  1  0.79786254  0.40190295  0.59676382  1
  Mo  Mo246  1  0.00881771  0.80058262  0.60246730  1
  Mo  Mo247  1  0.10492937  0.50050091  0.89964895  1
  Mo  Mo248  1  0.49091770  0.90269553  0.69782845  1
  Mo  Mo249  1  0.40505109  0.59497891  0.60196274  1
