# generated using pymatgen
data_HfZrTaTiMo
_symmetry_space_group_name_H-M   'P 1'
_cell_length_a   16.88218250
_cell_length_b   16.88612016
_cell_length_c   16.88553300
_cell_angle_alpha   89.95951975
_cell_angle_beta   89.98670224
_cell_angle_gamma   90.03609916
_symmetry_Int_Tables_number   1
_chemical_formula_structural   HfZrTaTiMo
_chemical_formula_sum   'Hf50 Zr50 Ta50 Ti50 Mo50'
_cell_volume   4813.63364050
_cell_formula_units_Z   50
loop_
 _symmetry_equiv_pos_site_id
 _symmetry_equiv_pos_as_xyz
  1  'x, y, z'
loop_
 _atom_site_type_symbol
 _atom_site_label
 _atom_site_symmetry_multiplicity
 _atom_site_fract_x
 _atom_site_fract_y
 _atom_site_fract_z
 _atom_site_occupancy
  Hf  Hf0  1  0.90584822  0.30616811  0.69592592  1
  Hf  Hf1  1  0.11062119  0.50348441  0.50486525  1
  Hf  Hf2  1  0.40061068  -0.00645649  0.39184919  1
  Hf  Hf3  1  0.39220516  0.80006548  -0.00672220  1
  Hf  Hf4  1  0.69533370  0.28388070  0.10839714  1
  Hf  Hf5  1  0.49947485  0.29833283  0.50417029  1
  Hf  Hf6  1  0.40642903  0.00503100  -0.01333032  1
  Hf  Hf7  1  0.90082497  0.69912201  0.50938610  1
  Hf  Hf8  1  0.29155628  0.90141994  0.70555967  1
  Hf  Hf9  1  0.60273218  0.59981200  0.60002575  1
  Hf  Hf10  1  0.49412459  0.50550337  0.89509027  1
  Hf  Hf11  1  0.49924589  0.90220035  0.09474428  1
  Hf  Hf12  1  0.39538842  0.59930166  0.60758414  1
  Hf  Hf13  1  0.01107187  0.39190786  0.40203737  1
  Hf  Hf14  1  0.29726984  0.49028008  0.50797537  1
  Hf  Hf15  1  0.80424999  0.80434946  0.00499998  1
  Hf  Hf16  1  0.79966702  0.39920290  0.20317492  1
  Hf  Hf17  1  0.20548938  0.20033393  0.80111600  1
  Hf  Hf18  1  0.71094544  0.70452323  0.69075287  1
  Hf  Hf19  1  0.60268143  0.80593004  0.19919108  1
  Hf  Hf20  1  0.19792924  0.60600009  0.20622851  1
  Hf  Hf21  1  0.10342774  0.90228366  0.88962585  1
  Hf  Hf22  1  0.00150444  0.80292352  0.00655085  1
  Hf  Hf23  1  0.59477662  0.40281171  0.00272486  1
  Hf  Hf24  1  0.49094266  0.10035230  0.70220515  1
  Hf  Hf25  1  -0.00080244  0.59809942  -0.00301205  1
  Hf  Hf26  1  0.58927113  -0.00868816  0.81598271  1
  Hf  Hf27  1  0.10263569  0.69937256  0.88541191  1
  Hf  Hf28  1  0.59504953  0.19458008  0.79900989  1
  Hf  Hf29  1  0.09342695  0.49338316  0.10549200  1
  Hf  Hf30  1  0.28781889  0.69749629  0.70858855  1
  Hf  Hf31  1  0.00247110  -0.00758537  0.00634729  1
  Hf  Hf32  1  0.19941836  0.79896048  0.00131120  1
  Hf  Hf33  1  0.69696314  0.71655953  0.49658614  1
  Hf  Hf34  1  0.40157129  0.39841944  0.19758325  1
  Hf  Hf35  1  0.50123858  0.89251499  0.50594293  1
  Hf  Hf36  1  0.90813072  0.90734742  0.69380306  1
  Hf  Hf37  1  0.29871780  0.10009796  0.09797799  1
  Hf  Hf38  1  0.40196122  0.20168866  0.19754740  1
  Hf  Hf39  1  0.39824037  0.40244401  0.00470926  1
  Hf  Hf40  1  0.01455746  0.20420109  0.60065107  1
  Hf  Hf41  1  0.69756688  0.08784401  0.91493677  1
  Hf  Hf42  1  0.90029744  0.50840228  0.69095380  1
  Hf  Hf43  1  0.10511847  0.09722016  0.10604483  1
  Hf  Hf44  1  0.50682828  0.10417867  0.29685750  1
  Hf  Hf45  1  0.29875302  0.70579364  0.50723619  1
  Hf  Hf46  1  0.29621523  0.10042575  0.29753256  1
  Hf  Hf47  1  0.91017612  0.09459340  0.70239513  1
  Hf  Hf48  1  0.69231576  0.09329638  0.49745749  1
  Hf  Hf49  1  0.00938431  0.21266835  0.80745649  1
  Zr  Zr50  1  0.39424031  0.59942755  0.19809423  1
  Zr  Zr51  1  0.00135000  0.39788148  -0.01805010  1
  Zr  Zr52  1  0.78640782  -0.00512486  0.79561929  1
  Zr  Zr53  1  0.80072737  0.60330534  0.20099326  1
  Zr  Zr54  1  0.89918070  0.49887106  0.49538292  1
  Zr  Zr55  1  0.89779872  0.69904303  0.88884458  1
  Zr  Zr56  1  0.08537112  0.91138329  0.49804414  1
  Zr  Zr57  1  0.60540690  0.60417578  0.39774209  1
  Zr  Zr58  1  0.90509044  0.09751181  0.10948127  1
  Zr  Zr59  1  0.39912995  0.60525061  0.39711187  1
  Zr  Zr60  1  0.80342585  0.61354099  0.39283919  1
  Zr  Zr61  1  0.49841207  0.09772084  0.50174478  1
  Zr  Zr62  1  0.80399296  -0.00709359  0.20369161  1
  Zr  Zr63  1  0.30050894  0.49098310  0.30778541  1
  Zr  Zr64  1  0.19875393  0.79635029  0.19774676  1
  Zr  Zr65  1  0.09696537  0.69565620  0.69592494  1
  Zr  Zr66  1  0.00646411  0.18871093  0.23168643  1
  Zr  Zr67  1  0.69583708  0.89252934  0.31156390  1
  Zr  Zr68  1  0.80972359  0.40689362  0.00528872  1
  Zr  Zr69  1  0.80585213  0.19559709  0.80678749  1
  Zr  Zr70  1  0.09003632  0.89921496  0.28810724  1
  Zr  Zr71  1  0.39394222  0.39684616  0.79629974  1
  Zr  Zr72  1  0.91256059  0.08843442  0.50731229  1
  Zr  Zr73  1  0.81275953  0.19727576  -0.00056315  1
  Zr  Zr74  1  0.91059153  0.30202345  0.11612266  1
  Zr  Zr75  1  0.59661155  0.40125219  0.19716397  1
  Zr  Zr76  1  0.19577704  0.39407416  0.21010356  1
  Zr  Zr77  1  0.59021479  0.18633141  0.00228258  1
  Zr  Zr78  1  0.69569181  0.89710942  0.50210830  1
  Zr  Zr79  1  0.60215423  0.80244772  0.80147644  1
  Zr  Zr80  1  0.49364789  0.69385880  0.89080432  1
  Zr  Zr81  1  0.00564573  0.20052333  -0.01329838  1
  Zr  Zr82  1  0.79420333  0.19692562  0.59982134  1
  Zr  Zr83  1  0.69735228  0.30023134  0.90585749  1
  Zr  Zr84  1  0.70165116  0.49461523  0.30629203  1
  Zr  Zr85  1  0.70002783  0.50592581  0.89831801  1
  Zr  Zr86  1  0.20003216  0.00984839  0.59827287  1
  Zr  Zr87  1  0.19696597  0.60229474  0.00313763  1
  Zr  Zr88  1  0.30033991  0.10956113  0.49570119  1
  Zr  Zr89  1  0.51036802  0.70207549  0.29325532  1
  Zr  Zr90  1  0.10204034  0.29863000  0.10305350  1
  Zr  Zr91  1  0.50010031  0.49461977  0.49596733  1
  Zr  Zr92  1  0.30491517  0.89632064  0.50428709  1
  Zr  Zr93  1  0.70041309  0.30136670  0.70122497  1
  Zr  Zr94  1  0.48524668  0.89448879  0.69835822  1
  Zr  Zr95  1  0.80465111  0.19664687  0.40551372  1
  Zr  Zr96  1  0.69437386  0.69988525  0.10106702  1
  Zr  Zr97  1  0.49631947  0.50341893  0.70298762  1
  Zr  Zr98  1  0.80905343  0.40150324  0.80429838  1
  Zr  Zr99  1  0.19882735  0.61080517  0.39304802  1
  Ta  Ta100  1  0.39397153  0.20000340  0.80392568  1
  Ta  Ta101  1  0.89942255  0.69813226  0.69520421  1
  Ta  Ta102  1  0.39836644  0.80158743  0.38511113  1
  Ta  Ta103  1  0.49456026  0.29806334  0.89919293  1
  Ta  Ta104  1  0.70409766  0.70035074  0.90010981  1
  Ta  Ta105  1  0.59794809  0.80902980  -0.01177029  1
  Ta  Ta106  1  0.49947679  0.70076630  0.09482472  1
  Ta  Ta107  1  0.20317185  0.20309509  0.60146051  1
  Ta  Ta108  1  0.80485493  -0.00864153  0.00557222  1
  Ta  Ta109  1  0.60822665  0.60245889  0.79450038  1
  Ta  Ta110  1  0.50664062  0.29824721  0.30084376  1
  Ta  Ta111  1  0.89940414  0.30166633  0.31058315  1
  Ta  Ta112  1  0.80488828  0.59878783  0.00251716  1
  Ta  Ta113  1  0.29112608  0.50015077  0.89693628  1
  Ta  Ta114  1  0.29951012  0.29340857  0.30730578  1
  Ta  Ta115  1  0.29833290  0.90755921  0.09929845  1
  Ta  Ta116  1  0.69894322  0.29314485  0.30486215  1
  Ta  Ta117  1  0.59911449  0.20065375  0.60569920  1
  Ta  Ta118  1  0.90809214  0.49399557  0.30126556  1
  Ta  Ta119  1  0.79557106  0.39633342  0.58752228  1
  Ta  Ta120  1  0.29694165  0.30320949  0.69552309  1
  Ta  Ta121  1  0.59864470  0.60646868  -0.00339430  1
  Ta  Ta122  1  -0.00556278  0.01282690  0.37708164  1
  Ta  Ta123  1  0.38710870  0.79688440  0.80789745  1
  Ta  Ta124  1  0.01607818  0.41188955  0.79555722  1
  Ta  Ta125  1  0.19607237  -0.00105480  0.39357634  1
  Ta  Ta126  1  -0.00304455  0.80189657  0.79219981  1
  Ta  Ta127  1  0.80932394  -0.00542779  0.39922483  1
  Ta  Ta128  1  0.60464393  0.00340199  0.19549990  1
  Ta  Ta129  1  0.60152989  0.00161341  0.61381116  1
  Ta  Ta130  1  0.10253182  0.09373101  0.70549241  1
  Ta  Ta131  1  0.29607751  0.29576544  0.09490206  1
  Ta  Ta132  1  0.80694306  0.80234852  0.20251933  1
  Ta  Ta133  1  0.19639913  0.80192871  0.39608688  1
  Ta  Ta134  1  0.01075174  0.39885746  0.59945867  1
  Ta  Ta135  1  0.90242015  0.90176140  0.89350391  1
  Ta  Ta136  1  0.20074913  0.20082376  -0.01033087  1
  Ta  Ta137  1  0.40080029  0.20642993  0.39880580  1
  Ta  Ta138  1  0.49786738  0.71342495  0.50721584  1
  Ta  Ta139  1  0.49693715  0.29054279  0.09756426  1
  Ta  Ta140  1  0.59376587  0.39803501  0.79407968  1
  Ta  Ta141  1  0.39076945  0.60070339  -0.00168533  1
  Ta  Ta142  1  0.60415861  0.39535492  0.60190097  1
  Ta  Ta143  1  0.09932353  0.90550997  0.70334478  1
  Ta  Ta144  1  0.69644918  0.10059430  0.30043072  1
  Ta  Ta145  1  0.39703466  0.80471060  0.19903760  1
  Ta  Ta146  1  0.19165669  0.80284401  0.59955172  1
  Ta  Ta147  1  -0.00431430  0.80018191  0.39630029  1
  Ta  Ta148  1  0.09851626  0.70417090  0.50064159  1
  Ta  Ta149  1  0.00477949  0.60765955  0.39437097  1
  Ti  Ti150  1  0.70765015  0.49765729  0.49942894  1
  Ti  Ti151  1  -0.00006371  0.80559338  0.59672683  1
  Ti  Ti152  1  0.29362640  0.30841001  0.90381429  1
  Ti  Ti153  1  0.60904686  0.39228913  0.40718667  1
  Ti  Ti154  1  0.11371252  0.31242670  0.70038465  1
  Ti  Ti155  1  0.28247880  0.49343133  0.69709014  1
  Ti  Ti156  1  0.39326713  0.00662889  0.60394899  1
  Ti  Ti157  1  0.29672014  0.89977310  0.29331826  1
  Ti  Ti158  1  0.80978861  0.81212682  0.59454142  1
  Ti  Ti159  1  0.09985206  0.10538846  0.48848359  1
  Ti  Ti160  1  0.29059238  0.90372601  0.89364635  1
  Ti  Ti161  1  0.00688891  0.59678965  0.59819343  1
  Ti  Ti162  1  0.08379775  0.69830762  0.11595916  1
  Ti  Ti163  1  0.28844734  0.49199505  0.09484411  1
  Ti  Ti164  1  0.19566760  -0.00390451  0.19840564  1
  Ti  Ti165  1  0.81711896  0.80462951  0.39382100  1
  Ti  Ti166  1  0.11363604  0.29530718  0.49899995  1
  Ti  Ti167  1  0.18868099  0.58229376  0.79728864  1
  Ti  Ti168  1  0.50567039  0.49895000  0.30054395  1
  Ti  Ti169  1  0.30485463  0.70198670  0.10080548  1
  Ti  Ti170  1  0.79729875  0.60178926  0.79543199  1
  Ti  Ti171  1  0.39549640  0.19597955  -0.01014379  1
  Ti  Ti172  1  0.79888920  0.19235430  0.20863384  1
  Ti  Ti173  1  0.69548359  0.89370570  0.69189352  1
  Ti  Ti174  1  0.20244315  0.38757592  0.40313509  1
  Ti  Ti175  1  0.40470833  -0.00486532  0.20132928  1
  Ti  Ti176  1  0.40131654  0.39040300  0.39939595  1
  Ti  Ti177  1  0.60133574  0.20447989  0.40392504  1
  Ti  Ti178  1  0.50389344  0.51467872  0.10064695  1
  Ti  Ti179  1  0.79437025  -0.00151997  0.59969735  1
  Ti  Ti180  1  0.90434750  0.69824983  0.10610737  1
  Ti  Ti181  1  0.90518514  0.30007055  0.49910485  1
  Ti  Ti182  1  0.91298058  0.50322088  0.11576897  1
  Ti  Ti183  1  0.70568946  0.49977443  0.69441725  1
  Ti  Ti184  1  0.38862446  0.00958798  0.80762075  1
  Ti  Ti185  1  0.59288116  -0.00695832  0.39388910  1
  Ti  Ti186  1  0.90673888  0.50994858  0.88732273  1
  Ti  Ti187  1  0.49366553  0.70406010  0.69951315  1
  Ti  Ti188  1  0.91515756  0.70263891  0.28830519  1
  Ti  Ti189  1  0.40128674  0.39246344  0.60561176  1
  Ti  Ti190  1  0.69623273  0.90638826  0.09315981  1
  Ti  Ti191  1  0.80036767  0.80646903  0.79904454  1
  Ti  Ti192  1  0.09159901  0.50105314  0.29786360  1
  Ti  Ti193  1  0.90687506  0.08439251  0.89455410  1
  Ti  Ti194  1  0.39544218  0.20613760  0.60662610  1
  Ti  Ti195  1  0.50333487  0.09548951  0.10238395  1
  Ti  Ti196  1  0.69428990  0.50905139  0.10116739  1
  Ti  Ti197  1  0.19843294  0.20300506  0.20835486  1
  Ti  Ti198  1  0.20278802  0.00092663  -0.00274464  1
  Ti  Ti199  1  0.10576652  0.08861387  0.89237782  1
  Mo  Mo200  1  0.19756193  0.59950130  0.59965845  1
  Mo  Mo201  1  0.20297316  0.39709297  -0.00409669  1
  Mo  Mo202  1  0.38034609  0.59858946  0.80201528  1
  Mo  Mo203  1  0.20035426  0.40015980  0.79817605  1
  Mo  Mo204  1  0.00606821  0.20089568  0.40809418  1
  Mo  Mo205  1  0.00958361  0.00503507  0.60310945  1
  Mo  Mo206  1  0.70803626  0.71064126  0.30047410  1
  Mo  Mo207  1  0.59527629  0.80014899  0.60567213  1
  Mo  Mo208  1  0.20318421  0.00671322  0.80247694  1
  Mo  Mo209  1  0.10670333  0.29111411  0.31616512  1
  Mo  Mo210  1  0.30117627  0.71342085  0.29880480  1
  Mo  Mo211  1  0.70139854  0.09088004  0.10684289  1
  Mo  Mo212  1  0.69249876  0.09381487  0.69727467  1
  Mo  Mo213  1  -0.00029682  0.39824678  0.21652248  1
  Mo  Mo214  1  0.39594134  0.79309432  0.61251020  1
  Mo  Mo215  1  0.90954015  0.31023857  0.88749167  1
  Mo  Mo216  1  0.11435800  0.09567593  0.30416342  1
  Mo  Mo217  1  0.00059633  -0.00343773  0.19949301  1
  Mo  Mo218  1  0.10037440  0.49995807  0.69468568  1
  Mo  Mo219  1  0.59824310  0.60019927  0.19136197  1
  Mo  Mo220  1  0.90044346  0.90028870  0.49666648  1
  Mo  Mo221  1  0.58595063  0.80172313  0.39861494  1
  Mo  Mo222  1  -0.00547504  0.80007917  0.19615258  1
  Mo  Mo223  1  0.29593965  0.10232436  0.90119171  1
  Mo  Mo224  1  0.19598951  0.80792779  0.79732957  1
  Mo  Mo225  1  0.88831843  0.10093821  0.30533285  1
  Mo  Mo226  1  0.80152933  0.39094269  0.40229616  1
  Mo  Mo227  1  0.49702973  0.90435889  0.29141514  1
  Mo  Mo228  1  0.11441998  0.31154114  0.89501443  1
  Mo  Mo229  1  0.49497648  0.29792434  0.69854165  1
  Mo  Mo230  1  0.20084295  0.20017401  0.40373967  1
  Mo  Mo231  1  0.10262544  0.50288888  0.89425861  1
  Mo  Mo232  1  -0.00036757  0.59944319  0.20438802  1
  Mo  Mo233  1  0.49197275  0.10260695  0.89651058  1
  Mo  Mo234  1  0.30085185  0.10775655  0.70161800  1
  Mo  Mo235  1  0.30343292  0.30168095  0.50296516  1
  Mo  Mo236  1  0.60028338  0.19507305  0.20215500  1
  Mo  Mo237  1  0.20022198  0.39339499  0.60069878  1
  Mo  Mo238  1  0.09365309  0.70481338  0.30442817  1
  Mo  Mo239  1  0.60026572  -0.00567680  0.00552581  1
  Mo  Mo240  1  0.90151428  0.89730799  0.29986289  1
  Mo  Mo241  1  0.48572403  0.89743037  0.89659218  1
  Mo  Mo242  1  0.29398502  0.69077228  0.89436831  1
  Mo  Mo243  1  0.90646458  0.89614971  0.10600965  1
  Mo  Mo244  1  0.79562895  0.59406831  0.59825979  1
  Mo  Mo245  1  -0.00268333  0.59969126  0.79401328  1
  Mo  Mo246  1  0.70885211  0.89479443  0.90932227  1
  Mo  Mo247  1  0.69283504  0.30015734  0.49909118  1
  Mo  Mo248  1  0.00265814  0.00033785  0.80237445  1
  Mo  Mo249  1  0.10594101  0.90500625  0.09777225  1
