# generated using pymatgen
data_HfZrTaTiMo
_symmetry_space_group_name_H-M   'P 1'
_cell_length_a   16.88105750
_cell_length_b   16.87621883
_cell_length_c   16.87968791
_cell_angle_alpha   89.98870989
_cell_angle_beta   89.99679539
_cell_angle_gamma   89.97315140
_symmetry_Int_Tables_number   1
_chemical_formula_structural   HfZrTaTiMo
_chemical_formula_sum   'Hf50 Zr50 Ta50 Ti50 Mo50'
_cell_volume   4808.82699640
_cell_formula_units_Z   50
loop_
 _symmetry_equiv_pos_site_id
 _symmetry_equiv_pos_as_xyz
  1  'x, y, z'
loop_
 _atom_site_type_symbol
 _atom_site_label
 _atom_site_symmetry_multiplicity
 _atom_site_fract_x
 _atom_site_fract_y
 _atom_site_fract_z
 _atom_site_occupancy
  Hf  Hf0  1  0.09375809  0.49891756  0.90884956  1
  Hf  Hf1  1  0.91207304  0.08687004  0.08803053  1
  Hf  Hf2  1  0.10608700  0.29900266  0.90197764  1
  Hf  Hf3  1  0.40475485  0.79569992  0.20432928  1
  Hf  Hf4  1  0.40741125  0.41691918  0.40185992  1
  Hf  Hf5  1  0.70504918  0.89109874  0.09817753  1
  Hf  Hf6  1  0.90217462  0.90766869  0.70454796  1
  Hf  Hf7  1  0.09069889  0.08898902  0.89385010  1
  Hf  Hf8  1  0.19347651  0.79362604  0.20270453  1
  Hf  Hf9  1  0.29499412  0.90967675  0.51122172  1
  Hf  Hf10  1  0.90535506  0.49836716  0.10182322  1
  Hf  Hf11  1  0.19035433  -0.00675599  0.77527214  1
  Hf  Hf12  1  0.19675484  0.00879116  0.39199364  1
  Hf  Hf13  1  -0.00222414  0.20023468  0.79274630  1
  Hf  Hf14  1  0.80059554  0.59415585  -0.00130628  1
  Hf  Hf15  1  0.79499494  0.60825405  0.60588593  1
  Hf  Hf16  1  0.19574594  0.01091159  0.20678841  1
  Hf  Hf17  1  0.30429259  0.29860677  0.70030853  1
  Hf  Hf18  1  0.89259254  0.30640577  0.29467162  1
  Hf  Hf19  1  0.00781742  0.39708741  0.60444593  1
  Hf  Hf20  1  0.89694158  0.49922637  0.50707034  1
  Hf  Hf21  1  0.59603224  0.80091874  0.60036691  1
  Hf  Hf22  1  0.29020741  0.10211977  0.89202401  1
  Hf  Hf23  1  0.78884268  0.59765046  0.39886496  1
  Hf  Hf24  1  0.49942239  0.09788481  0.09332209  1
  Hf  Hf25  1  0.40673331  0.00384390  0.40368603  1
  Hf  Hf26  1  0.39826461  0.39389113  0.00102402  1
  Hf  Hf27  1  0.39347602  0.20423281  0.19458690  1
  Hf  Hf28  1  0.20440704  0.41065096  0.40821924  1
  Hf  Hf29  1  0.79666915  0.79635176  0.60846971  1
  Hf  Hf30  1  0.70244305  0.90959452  0.49986067  1
  Hf  Hf31  1  0.60049593  0.60337191  0.80171798  1
  Hf  Hf32  1  0.50391213  0.89633562  0.10100591  1
  Hf  Hf33  1  0.39667394  0.78661403  -0.00440340  1
  Hf  Hf34  1  0.00050029  0.79713054  0.60474189  1
  Hf  Hf35  1  0.79878596  0.39296745  0.41364462  1
  Hf  Hf36  1  0.00850556  0.00501408  0.21278438  1
  Hf  Hf37  1  0.40071314  0.80243986  0.40243077  1
  Hf  Hf38  1  0.19832826  0.79803852  0.39962792  1
  Hf  Hf39  1  0.60243606  0.78794025  0.79353414  1
  Hf  Hf40  1  0.59569337  0.19480818  0.79871639  1
  Hf  Hf41  1  0.39728110  0.20317842  -0.00578099  1
  Hf  Hf42  1  0.59026370  0.80853192  0.39649050  1
  Hf  Hf43  1  0.81171705  -0.00040594  0.20256452  1
  Hf  Hf44  1  -0.00532110  0.20214293  -0.00896701  1
  Hf  Hf45  1  0.59187459  -0.00636012  0.21367208  1
  Hf  Hf46  1  0.70289221  0.89714346  0.89810506  1
  Hf  Hf47  1  0.10312764  0.10031554  0.50491555  1
  Hf  Hf48  1  0.00311302  0.19457839  0.20413168  1
  Hf  Hf49  1  0.40449061  0.59868936  0.20721168  1
  Zr  Zr50  1  0.30071271  0.49662204  0.89322967  1
  Zr  Zr51  1  0.40037446  0.00118573  -0.01073384  1
  Zr  Zr52  1  0.20205329  0.20061120  0.19884044  1
  Zr  Zr53  1  0.60009286  0.20387116  0.19764948  1
  Zr  Zr54  1  0.70091735  0.49311260  0.29181764  1
  Zr  Zr55  1  0.00761437  0.59488684  0.60843077  1
  Zr  Zr56  1  0.59761388  0.60448980  0.60204545  1
  Zr  Zr57  1  0.70722435  0.10607323  0.31488422  1
  Zr  Zr58  1  -0.00153244  0.40043611  0.79637945  1
  Zr  Zr59  1  0.90772632  0.70114859  0.49550802  1
  Zr  Zr60  1  0.90296383  0.70035461  0.10740621  1
  Zr  Zr61  1  0.79420873  0.00626665  0.60570535  1
  Zr  Zr62  1  0.01630965  0.58983657  0.39856338  1
  Zr  Zr63  1  0.69838073  0.30104992  0.30292583  1
  Zr  Zr64  1  0.29976686  0.90076759  0.29961171  1
  Zr  Zr65  1  0.00405832  0.80246436  0.00426312  1
  Zr  Zr66  1  0.10978969  0.29700978  0.49816142  1
  Zr  Zr67  1  0.90334010  0.90622644  0.90184038  1
  Zr  Zr68  1  0.39747988  0.39946327  0.58900729  1
  Zr  Zr69  1  0.00361864  0.00249933  0.39260659  1
  Zr  Zr70  1  0.49673142  0.11418888  0.30692675  1
  Zr  Zr71  1  0.59790055  0.39133628  0.80048152  1
  Zr  Zr72  1  0.00283914  0.40567459  0.40262018  1
  Zr  Zr73  1  -0.01149755  0.20334264  0.39928803  1
  Zr  Zr74  1  0.49888004  0.90933709  0.70249613  1
  Zr  Zr75  1  0.90423636  0.69876693  0.90827029  1
  Zr  Zr76  1  0.40056890  0.80070971  0.60523741  1
  Zr  Zr77  1  0.69836960  0.09730747  0.09819772  1
  Zr  Zr78  1  0.29760620  0.90125244  0.09747067  1
  Zr  Zr79  1  0.30321051  0.31041008  0.29889962  1
  Zr  Zr80  1  0.50187882  0.89929276  0.89401619  1
  Zr  Zr81  1  0.79775950  0.60227201  0.80015556  1
  Zr  Zr82  1  0.70450338  0.89205836  0.29484626  1
  Zr  Zr83  1  0.70650156  0.30956559  0.10148863  1
  Zr  Zr84  1  0.29172826  0.68828859  0.10576202  1
  Zr  Zr85  1  0.90076215  0.69579960  0.29238645  1
  Zr  Zr86  1  0.49843371  0.49719348  0.10156700  1
  Zr  Zr87  1  0.80282168  0.19768052  -0.00577413  1
  Zr  Zr88  1  0.79955586  0.79730512  0.40152251  1
  Zr  Zr89  1  0.29439155  0.89276347  0.88329678  1
  Zr  Zr90  1  0.10640669  0.69459194  0.90000278  1
  Zr  Zr91  1  0.89336038  0.09979290  0.50363562  1
  Zr  Zr92  1  0.70667061  0.70274778  0.10942541  1
  Zr  Zr93  1  0.10405667  0.50201579  0.10008638  1
  Zr  Zr94  1  0.40180317  0.60381168  0.60466650  1
  Zr  Zr95  1  0.20445160  0.19984464  0.60300840  1
  Zr  Zr96  1  0.69533603  0.49024410  0.69975298  1
  Zr  Zr97  1  0.09242627  0.90414772  0.09920868  1
  Zr  Zr98  1  0.30042220  0.49806663  0.70566057  1
  Zr  Zr99  1  0.09901244  0.30787206  0.09756753  1
  Ta  Ta100  1  0.40181686  0.60019760  -0.00154036  1
  Ta  Ta101  1  0.39494496  0.00870107  0.20502130  1
  Ta  Ta102  1  0.70109527  0.49781771  0.10236765  1
  Ta  Ta103  1  0.19981729  0.80608196  0.61154579  1
  Ta  Ta104  1  0.10818406  0.30631645  0.30081577  1
  Ta  Ta105  1  0.49633577  0.49570773  0.70486277  1
  Ta  Ta106  1  0.49995810  0.50093942  0.89976831  1
  Ta  Ta107  1  0.59819780  0.60014972  0.00171622  1
  Ta  Ta108  1  0.59426887  0.01364803  0.59664019  1
  Ta  Ta109  1  0.59228127  0.59256419  0.39645109  1
  Ta  Ta110  1  0.79582901  0.39286824  0.60238297  1
  Ta  Ta111  1  0.49904201  0.30753608  0.30430028  1
  Ta  Ta112  1  0.59684828  0.20110577  0.41534305  1
  Ta  Ta113  1  0.81190889  0.19504071  0.19895102  1
  Ta  Ta114  1  0.60243461  0.00220630  -0.00962597  1
  Ta  Ta115  1  0.50280496  0.69771257  0.30175749  1
  Ta  Ta116  1  0.70108311  0.30028815  0.90120062  1
  Ta  Ta117  1  0.10386901  0.10112933  0.08297605  1
  Ta  Ta118  1  0.29663132  0.69905291  0.50051895  1
  Ta  Ta119  1  -0.00194247  0.20475522  0.60729550  1
  Ta  Ta120  1  0.10504553  0.70034159  0.70495479  1
  Ta  Ta121  1  0.59270758  0.00348558  0.41083738  1
  Ta  Ta122  1  0.49566192  0.69378451  0.49210821  1
  Ta  Ta123  1  0.89054715  0.29845315  0.69901322  1
  Ta  Ta124  1  0.39746337  0.78718197  0.79510104  1
  Ta  Ta125  1  0.49818016  0.29603092  0.69325551  1
  Ta  Ta126  1  0.90841987  0.88827323  0.29543641  1
  Ta  Ta127  1  0.21071726  0.39297592  0.00275625  1
  Ta  Ta128  1  0.59734363  0.60191985  0.20064489  1
  Ta  Ta129  1  0.19905482  0.60069202  0.60176682  1
  Ta  Ta130  1  0.19535196  -0.00587744  -0.00808305  1
  Ta  Ta131  1  0.19253194  0.19707169  0.78853645  1
  Ta  Ta132  1  0.59710395  0.39711275  -0.00221969  1
  Ta  Ta133  1  -0.00382905  0.59700553  0.79729298  1
  Ta  Ta134  1  0.10069087  0.90100883  0.50680801  1
  Ta  Ta135  1  0.69691897  0.49386534  0.90754259  1
  Ta  Ta136  1  0.89512613  0.49565148  0.70272353  1
  Ta  Ta137  1  0.90757475  0.90288927  0.49924373  1
  Ta  Ta138  1  0.80252270  -0.00252266  -0.00299917  1
  Ta  Ta139  1  0.20025916  0.79604465  -0.00705941  1
  Ta  Ta140  1  0.79890075  0.39706926  0.80296214  1
  Ta  Ta141  1  0.10929549  0.70174121  0.50502884  1
  Ta  Ta142  1  0.00272636  0.79802181  0.79344363  1
  Ta  Ta143  1  0.29481181  0.29476492  0.89042578  1
  Ta  Ta144  1  0.59642277  0.79004893  0.00190067  1
  Ta  Ta145  1  0.80162591  0.79357135  0.79489460  1
  Ta  Ta146  1  0.29206260  0.10089645  0.08922560  1
  Ta  Ta147  1  0.29827790  0.50545636  0.29394475  1
  Ta  Ta148  1  0.29786420  0.49247494  0.11009527  1
  Ta  Ta149  1  0.90418023  0.31000181  0.10072502  1
  Ti  Ti150  1  0.59410190  0.19303175  0.59809536  1
  Ti  Ti151  1  0.80895036  0.00128751  0.39664444  1
  Ti  Ti152  1  0.49839117  0.29672898  0.89600010  1
  Ti  Ti153  1  0.58874414  0.40305231  0.20317129  1
  Ti  Ti154  1  0.59522050  0.01461757  0.79929543  1
  Ti  Ti155  1  0.40537287  0.19076537  0.79393925  1
  Ti  Ti156  1  0.89607424  0.30694950  0.89872711  1
  Ti  Ti157  1  0.79900087  0.20310691  0.59595055  1
  Ti  Ti158  1  0.89099490  0.49999108  0.29114841  1
  Ti  Ti159  1  0.19671654  0.40859707  0.59993418  1
  Ti  Ti160  1  0.18932196  0.39602366  0.78917804  1
  Ti  Ti161  1  0.49784428  0.29766931  0.50022233  1
  Ti  Ti162  1  0.40628329  0.39310578  0.80131539  1
  Ti  Ti163  1  0.01136709  0.59321253  0.20720591  1
  Ti  Ti164  1  0.59370999  0.39613029  0.59546662  1
  Ti  Ti165  1  0.39986592  0.00763384  0.79213656  1
  Ti  Ti166  1  0.69978188  0.10116934  0.90025074  1
  Ti  Ti167  1  0.01003177  0.80063850  0.39801983  1
  Ti  Ti168  1  0.39293601  0.20620046  0.40879556  1
  Ti  Ti169  1  0.30164662  0.09364051  0.69126770  1
  Ti  Ti170  1  0.49848258  0.30297021  0.10363649  1
  Ti  Ti171  1  0.10224655  0.69476344  0.29742461  1
  Ti  Ti172  1  0.20426910  0.60294630  0.39622112  1
  Ti  Ti173  1  0.79943627  0.01108660  0.80396384  1
  Ti  Ti174  1  0.49937457  0.69429698  0.90255650  1
  Ti  Ti175  1  0.80383152  0.40323160  -0.00549763  1
  Ti  Ti176  1  0.01122063  0.00208746  0.61179689  1
  Ti  Ti177  1  0.70444046  0.70567234  0.90943105  1
  Ti  Ti178  1  0.90084730  0.09995068  0.70350621  1
  Ti  Ti179  1  0.59589041  0.20140149  -0.00808059  1
  Ti  Ti180  1  0.69751721  0.90783544  0.70710300  1
  Ti  Ti181  1  0.69046105  0.70134462  0.49459897  1
  Ti  Ti182  1  0.59324041  0.40271158  0.40881314  1
  Ti  Ti183  1  0.00820163  0.40522497  0.21049463  1
  Ti  Ti184  1  0.80023873  0.19869629  0.80151006  1
  Ti  Ti185  1  0.40757545  0.00837752  0.59779463  1
  Ti  Ti186  1  0.29908242  0.10349918  0.49945499  1
  Ti  Ti187  1  0.40406994  0.19480418  0.59498766  1
  Ti  Ti188  1  0.09794017  0.68905450  0.09800933  1
  Ti  Ti189  1  0.69925762  0.29329987  0.69813960  1
  Ti  Ti190  1  0.69245345  0.49730331  0.50391821  1
  Ti  Ti191  1  0.19657929  0.59738149  0.79595061  1
  Ti  Ti192  1  0.69746480  0.70178490  0.29008647  1
  Ti  Ti193  1  0.20980798  0.59721125  -0.00351221  1
  Ti  Ti194  1  0.69902430  0.10587333  0.69820319  1
  Ti  Ti195  1  0.29119148  0.70332836  0.70681175  1
  Ti  Ti196  1  0.30257889  0.51595917  0.49816772  1
  Ti  Ti197  1  0.69715063  0.29234004  0.50568453  1
  Ti  Ti198  1  0.40156712  0.60818206  0.80278667  1
  Ti  Ti199  1  0.09715752  0.89776676  0.88898960  1
  Mo  Mo200  1  0.50305276  0.49993765  0.30152539  1
  Mo  Mo201  1  0.80639628  0.39855079  0.19335851  1
  Mo  Mo202  1  0.11428550  0.50677521  0.50457051  1
  Mo  Mo203  1  0.79302961  0.59266206  0.20168735  1
  Mo  Mo204  1  0.49575832  0.69397403  0.70418338  1
  Mo  Mo205  1  0.50223190  0.90857443  0.50400144  1
  Mo  Mo206  1  0.49608190  0.10849456  0.50457426  1
  Mo  Mo207  1  0.69957493  0.70576930  0.70151090  1
  Mo  Mo208  1  0.50102379  0.10144363  0.89404356  1
  Mo  Mo209  1  0.89552993  0.10435981  0.30142597  1
  Mo  Mo210  1  0.09577481  0.88426741  0.30201581  1
  Mo  Mo211  1  0.00007823  0.59515867  -0.00111149  1
  Mo  Mo212  1  0.30497712  0.90235311  0.69766918  1
  Mo  Mo213  1  0.50740282  0.50155520  0.50055207  1
  Mo  Mo214  1  0.21385442  0.20188333  0.39956879  1
  Mo  Mo215  1  0.11338193  0.49928324  0.29603394  1
  Mo  Mo216  1  0.39740140  0.60400282  0.39969030  1
  Mo  Mo217  1  0.19790960  0.59856045  0.20839819  1
  Mo  Mo218  1  0.30006194  0.69265325  0.89532297  1
  Mo  Mo219  1  0.49913665  0.90111824  0.30032427  1
  Mo  Mo220  1  0.49353375  0.10516306  0.69683286  1
  Mo  Mo221  1  0.20248246  0.40276843  0.20017784  1
  Mo  Mo222  1  0.30632016  0.29738576  0.50045554  1
  Mo  Mo223  1  0.10416854  0.50381980  0.70444154  1
  Mo  Mo224  1  0.00180331  -0.00214849  -0.00809682  1
  Mo  Mo225  1  0.89325465  0.29827637  0.51348242  1
  Mo  Mo226  1  0.89393206  0.09687047  0.89117059  1
  Mo  Mo227  1  0.09605799  0.89542622  0.69661715  1
  Mo  Mo228  1  0.81369949  0.80351228  0.19720603  1
  Mo  Mo229  1  0.79620196  0.80414423  -0.00135652  1
  Mo  Mo230  1  0.10360992  0.30126185  0.69934033  1
  Mo  Mo231  1  0.69522046  0.10616651  0.50371040  1
  Mo  Mo232  1  0.10798621  0.12547656  0.31087711  1
  Mo  Mo233  1  0.59053108  0.79210168  0.20066784  1
  Mo  Mo234  1  0.20051415  0.00087626  0.59690694  1
  Mo  Mo235  1  -0.00162884  -0.00110097  0.79224254  1
  Mo  Mo236  1  0.90376640  0.69854302  0.70873001  1
  Mo  Mo237  1  0.19916526  0.79780810  0.79542983  1
  Mo  Mo238  1  0.89861412  0.89763975  0.10333601  1
  Mo  Mo239  1  0.30365262  0.10750431  0.30309693  1
  Mo  Mo240  1  0.29913661  0.30065904  0.09393369  1
  Mo  Mo241  1  -0.00891698  0.39814352  -0.00633780  1
  Mo  Mo242  1  0.09272541  0.10063319  0.69579449  1
  Mo  Mo243  1  0.89740167  0.49519185  0.90101729  1
  Mo  Mo244  1  0.30296686  0.69183448  0.30942402  1
  Mo  Mo245  1  0.50405209  0.69635554  0.10015306  1
  Mo  Mo246  1  0.00840941  0.79587996  0.20510308  1
  Mo  Mo247  1  0.20120964  0.19729650  -0.00776046  1
  Mo  Mo248  1  0.79282630  0.20422125  0.40754343  1
  Mo  Mo249  1  0.40091309  0.40029639  0.20161434  1
