# generated using pymatgen
data_HfZrTaTiMo
_symmetry_space_group_name_H-M   'P 1'
_cell_length_a   16.89161645
_cell_length_b   16.89081957
_cell_length_c   16.90012333
_cell_angle_alpha   89.98767846
_cell_angle_beta   90.00427952
_cell_angle_gamma   89.99697101
_symmetry_Int_Tables_number   1
_chemical_formula_structural   HfZrTaTiMo
_chemical_formula_sum   'Hf50 Zr50 Ta50 Ti50 Mo50'
_cell_volume   4821.82890796
_cell_formula_units_Z   50
loop_
 _symmetry_equiv_pos_site_id
 _symmetry_equiv_pos_as_xyz
  1  'x, y, z'
loop_
 _atom_site_type_symbol
 _atom_site_label
 _atom_site_symmetry_multiplicity
 _atom_site_fract_x
 _atom_site_fract_y
 _atom_site_fract_z
 _atom_site_occupancy
  Hf  Hf0  1  0.49905983  0.10067011  0.89457611  1
  Hf  Hf1  1  0.80449421  0.19588592  0.58991243  1
  Hf  Hf2  1  0.50150807  0.30120258  0.29694294  1
  Hf  Hf3  1  0.50486266  0.89600057  0.30536993  1
  Hf  Hf4  1  0.70399954  0.29044212  0.70054553  1
  Hf  Hf5  1  -0.00609962  0.60367301  0.01288790  1
  Hf  Hf6  1  0.19926586  0.80329398  0.40545785  1
  Hf  Hf7  1  0.09358838  0.49893475  0.90881648  1
  Hf  Hf8  1  0.89754510  0.50400208  0.90290956  1
  Hf  Hf9  1  0.28987114  0.10037664  0.29768368  1
  Hf  Hf10  1  0.61382558  0.18442052  0.40497779  1
  Hf  Hf11  1  0.80791816  0.39959309  0.59941781  1
  Hf  Hf12  1  0.61218217  -0.00658063  -0.00802561  1
  Hf  Hf13  1  0.28931437  0.89939932  0.10043045  1
  Hf  Hf14  1  0.88243718  0.91344042  0.49624687  1
  Hf  Hf15  1  0.19788492  0.20896149  0.79775504  1
  Hf  Hf16  1  0.09187985  0.89168018  0.29850508  1
  Hf  Hf17  1  0.79677827  0.79781732  0.59958170  1
  Hf  Hf18  1  0.50480957  0.09541898  0.29699139  1
  Hf  Hf19  1  0.50012901  0.49802819  0.90866608  1
  Hf  Hf20  1  0.30041287  0.69909656  0.69778136  1
  Hf  Hf21  1  0.60501100  -0.00204881  0.58751610  1
  Hf  Hf22  1  0.01605551  0.20506956  0.81368566  1
  Hf  Hf23  1  0.79624470  0.60743645  0.20134949  1
  Hf  Hf24  1  0.89475641  0.89516604  0.29959690  1
  Hf  Hf25  1  0.79837060  0.40052938  0.00665993  1
  Hf  Hf26  1  0.29094442  0.08901716  0.89162722  1
  Hf  Hf27  1  0.29162401  0.10123838  0.10374838  1
  Hf  Hf28  1  0.80000345  0.60616459  0.59938773  1
  Hf  Hf29  1  0.18963833  0.20628992  -0.01381942  1
  Hf  Hf30  1  0.49466420  0.70134203  0.30519104  1
  Hf  Hf31  1  0.09672384  0.69364025  0.70194969  1
  Hf  Hf32  1  0.50630550  0.49193350  0.48737239  1
  Hf  Hf33  1  0.00436293  0.20254348  -0.00346184  1
  Hf  Hf34  1  0.19657813  -0.01704590  0.59024638  1
  Hf  Hf35  1  0.09663698  0.70442828  0.50159286  1
  Hf  Hf36  1  0.50474877  0.88450214  0.68975494  1
  Hf  Hf37  1  0.39699470  -0.00820401  0.78915719  1
  Hf  Hf38  1  0.71201770  0.09435991  0.10397240  1
  Hf  Hf39  1  0.91005772  0.50486953  0.70382968  1
  Hf  Hf40  1  0.39708135  0.79249360  0.19131732  1
  Hf  Hf41  1  0.20308149  0.60225492  0.01404233  1
  Hf  Hf42  1  0.39334151  0.59871430  0.01234620  1
  Hf  Hf43  1  0.70077052  0.69026149  0.89838101  1
  Hf  Hf44  1  0.89232978  0.10132737  0.29198876  1
  Hf  Hf45  1  0.90335096  0.09696178  0.70225512  1
  Hf  Hf46  1  0.10484741  0.10275637  0.10201803  1
  Hf  Hf47  1  -0.00310558  0.00896463  0.39591784  1
  Hf  Hf48  1  0.39357551  0.19379850  0.59269926  1
  Hf  Hf49  1  0.79850214  -0.00610129  0.80964819  1
  Zr  Zr50  1  0.18998689  0.79493330  0.00189010  1
  Zr  Zr51  1  0.70825019  0.10813256  0.89834371  1
  Zr  Zr52  1  0.29978600  0.30206132  0.10720457  1
  Zr  Zr53  1  0.60255931  0.20909974  0.00910979  1
  Zr  Zr54  1  0.31296043  0.31434651  0.91343998  1
  Zr  Zr55  1  0.60136293  0.40140781  0.19273279  1
  Zr  Zr56  1  0.40286356  0.40212697  0.79245870  1
  Zr  Zr57  1  0.19940561  0.39382729  0.80013850  1
  Zr  Zr58  1  0.70269207  0.49891627  0.49670715  1
  Zr  Zr59  1  0.49944189  0.89023372  0.89856388  1
  Zr  Zr60  1  0.30215293  0.70060514  0.89589423  1
  Zr  Zr61  1  0.09702126  0.08800604  0.70480758  1
  Zr  Zr62  1  0.20260625  0.59061279  0.80896875  1
  Zr  Zr63  1  0.40079339  -0.01085555  0.58634350  1
  Zr  Zr64  1  0.60326041  -0.00155427  0.79691559  1
  Zr  Zr65  1  0.19885516  0.20593913  0.60272960  1
  Zr  Zr66  1  -0.00717459  0.80533537  0.60470635  1
  Zr  Zr67  1  0.29901863  0.90287073  0.30437964  1
  Zr  Zr68  1  -0.00570064  0.60827482  0.20601566  1
  Zr  Zr69  1  0.69427557  0.49941010  0.30653094  1
  Zr  Zr70  1  0.40833629  0.59213253  0.59884464  1
  Zr  Zr71  1  0.59854215  0.40887675  0.79549473  1
  Zr  Zr72  1  0.80127644  0.40685953  0.19469194  1
  Zr  Zr73  1  0.00071348  0.60797824  0.39640698  1
  Zr  Zr74  1  0.60725727  0.79051986  0.19788828  1
  Zr  Zr75  1  -0.00103061  0.40601377  0.20180673  1
  Zr  Zr76  1  0.69931943  0.29389627  0.30325576  1
  Zr  Zr77  1  0.00854561  -0.00204383  -0.00880623  1
  Zr  Zr78  1  0.09864318  0.09901082  0.49899111  1
  Zr  Zr79  1  0.39700730  0.39638756  0.59969419  1
  Zr  Zr80  1  0.28715731  0.30528704  0.49296893  1
  Zr  Zr81  1  0.90278287  0.90115928  0.10121404  1
  Zr  Zr82  1  0.39841081  -0.00420219  0.00309050  1
  Zr  Zr83  1  0.50468384  0.90187707  0.10268715  1
  Zr  Zr84  1  0.39519875  0.20545766  0.79138746  1
  Zr  Zr85  1  0.40698711  0.19805682  0.00212193  1
  Zr  Zr86  1  0.10073575  0.49606394  0.50700708  1
  Zr  Zr87  1  0.60439014  0.40940100  0.60626307  1
  Zr  Zr88  1  0.69981266  0.30657077  0.90047070  1
  Zr  Zr89  1  0.50984449  0.28611196  0.68495761  1
  Zr  Zr90  1  -0.00527116  0.79971537  0.80717361  1
  Zr  Zr91  1  0.60063318  0.61323786  0.40548685  1
  Zr  Zr92  1  0.30021997  0.71082888  0.51203128  1
  Zr  Zr93  1  0.29398992  0.88105041  0.68913966  1
  Zr  Zr94  1  0.39029794  0.40509802  0.38695619  1
  Zr  Zr95  1  0.71339798  0.90211507  0.10047205  1
  Zr  Zr96  1  0.70039595  0.89669134  0.69584833  1
  Zr  Zr97  1  0.39676787  0.19777910  0.39695747  1
  Zr  Zr98  1  0.89967089  0.29791603  0.29803619  1
  Zr  Zr99  1  0.90950738  0.29944403  0.69943416  1
  Ta  Ta100  1  0.80735046  0.19561703  0.40976086  1
  Ta  Ta101  1  0.80368933  0.79458515  0.80125127  1
  Ta  Ta102  1  0.89911546  0.09908705  0.10034659  1
  Ta  Ta103  1  0.18369999  0.20284567  0.38831289  1
  Ta  Ta104  1  0.20075872  0.40716583  0.20515961  1
  Ta  Ta105  1  0.10118241  0.50295418  0.30195610  1
  Ta  Ta106  1  0.79953573  0.40664744  0.79749290  1
  Ta  Ta107  1  0.39270571  0.59910392  0.39974162  1
  Ta  Ta108  1  0.28862432  0.08999353  0.48727903  1
  Ta  Ta109  1  0.69855051  0.50698306  0.90222500  1
  Ta  Ta110  1  0.90717616  0.29882493  0.09773079  1
  Ta  Ta111  1  0.29165328  0.49745137  0.69393571  1
  Ta  Ta112  1  0.40081785  0.78996597  0.00331500  1
  Ta  Ta113  1  0.49527447  0.31357147  0.09712721  1
  Ta  Ta114  1  0.80114328  0.79443869  -0.00569516  1
  Ta  Ta115  1  0.60417442  0.78873410  0.00282583  1
  Ta  Ta116  1  0.51206957  0.29797090  0.49075465  1
  Ta  Ta117  1  0.29414720  0.89397161  0.89491006  1
  Ta  Ta118  1  0.39782227  0.00093169  0.20140983  1
  Ta  Ta119  1  0.89669390  0.50296677  0.30939378  1
  Ta  Ta120  1  0.79810437  0.79299264  0.20457062  1
  Ta  Ta121  1  0.61159453  -0.00947240  0.40096953  1
  Ta  Ta122  1  0.50397496  0.09826691  0.69233789  1
  Ta  Ta123  1  0.60319164  0.60171081  0.60607334  1
  Ta  Ta124  1  0.69426633  0.69900657  0.70452971  1
  Ta  Ta125  1  0.89703207  0.71404425  0.48861037  1
  Ta  Ta126  1  0.80837197  0.20373242  0.00224780  1
  Ta  Ta127  1  0.59816235  0.60651090  0.19346861  1
  Ta  Ta128  1  0.89943662  0.90757182  0.70426724  1
  Ta  Ta129  1  0.00264740  0.00464201  0.19968404  1
  Ta  Ta130  1  0.40356300  0.79307877  0.79970851  1
  Ta  Ta131  1  0.00413362  0.39937220  0.80455848  1
  Ta  Ta132  1  0.30184297  0.70109186  0.30404931  1
  Ta  Ta133  1  0.50161941  0.69409199  0.89825684  1
  Ta  Ta134  1  0.09390394  0.50067570  0.69660549  1
  Ta  Ta135  1  0.59640093  0.60496360  0.00732733  1
  Ta  Ta136  1  0.20192545  0.60261487  0.20500792  1
  Ta  Ta137  1  0.10281772  0.30895788  0.10200318  1
  Ta  Ta138  1  0.20343649  0.60126607  0.39569997  1
  Ta  Ta139  1  0.29312572  0.09059228  0.69496906  1
  Ta  Ta140  1  0.80269968  0.60968421  0.40050308  1
  Ta  Ta141  1  0.00956251  0.20133514  0.20273063  1
  Ta  Ta142  1  0.09966473  0.49862257  0.10456592  1
  Ta  Ta143  1  0.18959440  -0.00046446  0.20564080  1
  Ta  Ta144  1  -0.00107544  0.39757593  0.40152650  1
  Ta  Ta145  1  0.50731647  0.69850548  0.70566932  1
  Ta  Ta146  1  0.69446713  0.50546136  0.09163802  1
  Ta  Ta147  1  0.90341610  0.30803510  0.90328159  1
  Ta  Ta148  1  0.00029295  0.20553080  0.39871966  1
  Ta  Ta149  1  0.80804153  0.39498990  0.40764928  1
  Ti  Ti150  1  0.19008835  -0.00790421  -0.00772929  1
  Ti  Ti151  1  0.39379725  0.59905554  0.20013955  1
  Ti  Ti152  1  0.60909613  -0.00519840  0.20667967  1
  Ti  Ti153  1  0.71080559  0.09150347  0.29383016  1
  Ti  Ti154  1  0.49873709  0.09595002  0.49388488  1
  Ti  Ti155  1  0.40213999  0.59168345  0.79768365  1
  Ti  Ti156  1  0.70261931  0.10271094  0.70100272  1
  Ti  Ti157  1  0.90019523  0.71272595  0.10510215  1
  Ti  Ti158  1  0.39032952  0.41476002  0.19883453  1
  Ti  Ti159  1  -0.00654857  -0.00062268  0.59689266  1
  Ti  Ti160  1  0.49904011  0.49933919  0.10170666  1
  Ti  Ti161  1  0.81093776  0.20476682  0.80526239  1
  Ti  Ti162  1  0.89821484  0.90084009  0.90407050  1
  Ti  Ti163  1  0.90269323  0.09754913  0.90140552  1
  Ti  Ti164  1  -0.01138664  0.60882974  0.59959088  1
  Ti  Ti165  1  0.72709262  0.07447501  0.49813786  1
  Ti  Ti166  1  0.29185521  0.49791629  0.49911448  1
  Ti  Ti167  1  0.60593361  0.79303108  0.58278331  1
  Ti  Ti168  1  0.00077220  0.79811005  -0.00327132  1
  Ti  Ti169  1  0.19816778  0.79089778  0.20491534  1
  Ti  Ti170  1  0.09521316  0.89346500  0.10707318  1
  Ti  Ti171  1  0.49985112  0.70608794  0.50258274  1
  Ti  Ti172  1  0.19168585  0.80190918  0.80331904  1
  Ti  Ti173  1  0.50541332  0.09419363  0.10644930  1
  Ti  Ti174  1  0.59407264  0.20406375  0.80399154  1
  Ti  Ti175  1  0.21037044  0.41358074  0.00680444  1
  Ti  Ti176  1  0.40158844  0.80655440  0.41468672  1
  Ti  Ti177  1  0.70158945  0.71143963  0.31345957  1
  Ti  Ti178  1  0.09622821  0.30887009  0.50009362  1
  Ti  Ti179  1  0.50041704  0.50402421  0.29833735  1
  Ti  Ti180  1  0.69742143  0.30385330  0.49728250  1
  Ti  Ti181  1  0.79931429  0.60106541  0.79100308  1
  Ti  Ti182  1  0.60334434  0.20163890  0.19337587  1
  Ti  Ti183  1  0.79824358  0.20808049  0.18965230  1
  Ti  Ti184  1  0.09373633  0.70747455  0.11387577  1
  Ti  Ti185  1  0.19496924  0.40151131  0.38786616  1
  Ti  Ti186  1  0.60909223  0.18573858  0.58650184  1
  Ti  Ti187  1  0.19967934  0.59827836  0.59839957  1
  Ti  Ti188  1  0.40528767  0.19629451  0.19667342  1
  Ti  Ti189  1  0.90057987  0.69119742  0.89511021  1
  Ti  Ti190  1  0.40105254  -0.00597621  0.40312746  1
  Ti  Ti191  1  0.09214906  0.69390465  0.89790922  1
  Ti  Ti192  1  0.09554062  0.31523939  0.68279927  1
  Ti  Ti193  1  0.09415545  0.90294897  0.70846328  1
  Ti  Ti194  1  0.80139389  0.60495904  0.01268428  1
  Ti  Ti195  1  0.29148529  0.29430026  0.28986510  1
  Ti  Ti196  1  0.60577536  0.79736215  0.80843497  1
  Ti  Ti197  1  0.90510709  0.50171250  0.49792039  1
  Ti  Ti198  1  -0.00514934  0.20408464  0.58632730  1
  Ti  Ti199  1  0.08899448  0.89654356  0.49244206  1
  Mo  Mo200  1  0.80446176  -0.00080991  0.19819951  1
  Mo  Mo201  1  0.10049629  0.30610811  0.30084049  1
  Mo  Mo202  1  0.89539079  0.70049710  0.70412969  1
  Mo  Mo203  1  0.90782352  0.29948064  0.49686985  1
  Mo  Mo204  1  0.60405561  0.38920914  0.39691722  1
  Mo  Mo205  1  0.89238978  0.70686469  0.30414829  1
  Mo  Mo206  1  0.30416437  0.50174197  0.90152663  1
  Mo  Mo207  1  0.41742764  0.79091230  0.60083292  1
  Mo  Mo208  1  0.29629038  0.50073380  0.11026459  1
  Mo  Mo209  1  0.19320346  -0.00091558  0.39875489  1
  Mo  Mo210  1  0.19216785  0.20819921  0.20339618  1
  Mo  Mo211  1  -0.00541216  0.80143672  0.39853341  1
  Mo  Mo212  1  0.70205576  0.70242906  0.50290576  1
  Mo  Mo213  1  -0.00173503  0.79660977  0.20043398  1
  Mo  Mo214  1  0.59862915  0.40749646  0.00132104  1
  Mo  Mo215  1  -0.00493300  0.40321409  0.00742882  1
  Mo  Mo216  1  0.50591024  0.89307870  0.49325789  1
  Mo  Mo217  1  0.18016129  0.80277509  0.60030640  1
  Mo  Mo218  1  0.80962157  0.00248362  -0.00427833  1
  Mo  Mo219  1  0.70085167  0.89600614  0.49239636  1
  Mo  Mo220  1  0.10816262  0.70112460  0.30073189  1
  Mo  Mo221  1  0.70324440  0.29784164  0.10022785  1
  Mo  Mo222  1  0.60028591  0.60163272  0.80232875  1
  Mo  Mo223  1  0.70495889  0.69778519  0.09385690  1
  Mo  Mo224  1  0.29511599  0.50845958  0.30039459  1
  Mo  Mo225  1  0.70264492  0.90024496  0.30032514  1
  Mo  Mo226  1  0.00065044  0.40405232  0.59631476  1
  Mo  Mo227  1  0.50627414  0.30576516  0.91341649  1
  Mo  Mo228  1  0.10482439  0.08336930  0.89592045  1
  Mo  Mo229  1  0.09597502  0.10241929  0.29678598  1
  Mo  Mo230  1  0.79551650  0.00124615  0.38728781  1
  Mo  Mo231  1  0.19755540  -0.01234410  0.79645228  1
  Mo  Mo232  1  0.60204730  0.80375568  0.40719773  1
  Mo  Mo233  1  0.89580646  0.50465987  0.10167204  1
  Mo  Mo234  1  0.30454753  0.89971824  0.49533506  1
  Mo  Mo235  1  0.09540756  0.32243789  0.91743863  1
  Mo  Mo236  1  0.49924807  0.69315560  0.09922859  1
  Mo  Mo237  1  0.29482801  0.30186868  0.69203870  1
  Mo  Mo238  1  -0.00162693  0.59911391  0.80460243  1
  Mo  Mo239  1  0.50086219  0.51439864  0.70396006  1
  Mo  Mo240  1  0.70732276  0.88305651  0.90327686  1
  Mo  Mo241  1  0.70539299  0.50986901  0.70738173  1
  Mo  Mo242  1  0.19637856  0.40515766  0.60261838  1
  Mo  Mo243  1  0.80116575  0.00212826  0.61229482  1
  Mo  Mo244  1  0.40290019  0.41021102  0.01136501  1
  Mo  Mo245  1  -0.00141632  -0.00358801  0.80487871  1
  Mo  Mo246  1  0.10231985  0.89410551  0.89453209  1
  Mo  Mo247  1  0.79089709  0.80322593  0.39964607  1
  Mo  Mo248  1  0.29724947  0.70052741  0.11184866  1
  Mo  Mo249  1  0.90171766  0.10199152  0.49855001  1
