# generated using pymatgen
data_HfZrTaTiMo
_symmetry_space_group_name_H-M   'P 1'
_cell_length_a   16.89164171
_cell_length_b   16.87719498
_cell_length_c   16.88647920
_cell_angle_alpha   90.01247973
_cell_angle_beta   89.98411601
_cell_angle_gamma   89.99068177
_symmetry_Int_Tables_number   1
_chemical_formula_structural   HfZrTaTiMo
_chemical_formula_sum   'Hf50 Zr50 Ta50 Ti50 Mo50'
_cell_volume   4814.05674972
_cell_formula_units_Z   50
loop_
 _symmetry_equiv_pos_site_id
 _symmetry_equiv_pos_as_xyz
  1  'x, y, z'
loop_
 _atom_site_type_symbol
 _atom_site_label
 _atom_site_symmetry_multiplicity
 _atom_site_fract_x
 _atom_site_fract_y
 _atom_site_fract_z
 _atom_site_occupancy
  Hf  Hf0  1  0.89640677  0.69874178  0.90510433  1
  Hf  Hf1  1  0.79843191  -0.01270050  0.02647924  1
  Hf  Hf2  1  0.70238764  0.70368352  0.70103859  1
  Hf  Hf3  1  0.38997607  0.79947153  0.81083795  1
  Hf  Hf4  1  0.19724160  0.20082642  0.19373292  1
  Hf  Hf5  1  0.30807654  0.09926449  0.30056062  1
  Hf  Hf6  1  -0.00666333  0.18867443  0.60206203  1
  Hf  Hf7  1  -0.00503949  0.00055550  0.39673125  1
  Hf  Hf8  1  0.49270345  0.91113842  0.70376326  1
  Hf  Hf9  1  0.89769792  0.29293723  0.09486277  1
  Hf  Hf10  1  -0.00269119  0.40261980  0.39341824  1
  Hf  Hf11  1  0.68966336  0.28874011  0.29754851  1
  Hf  Hf12  1  0.30769400  0.89996458  0.69123961  1
  Hf  Hf13  1  0.89344698  0.29518303  0.70277176  1
  Hf  Hf14  1  0.69452462  0.71606966  0.08991458  1
  Hf  Hf15  1  -0.00746610  0.00039621  0.59950995  1
  Hf  Hf16  1  0.40505982  0.20716805  0.00716519  1
  Hf  Hf17  1  0.40043474  0.59369031  0.00258875  1
  Hf  Hf18  1  0.10192318  0.90589857  0.10075352  1
  Hf  Hf19  1  0.60471124  0.39189182  0.60268272  1
  Hf  Hf20  1  0.40767315  0.21284945  0.80337686  1
  Hf  Hf21  1  0.30942321  0.49793010  0.68601468  1
  Hf  Hf22  1  0.09663174  0.30254598  0.50263648  1
  Hf  Hf23  1  0.40979231  0.20021352  0.19309878  1
  Hf  Hf24  1  0.60691742  0.60270439  0.40330906  1
  Hf  Hf25  1  0.10376596  0.70058136  0.09401489  1
  Hf  Hf26  1  0.29745964  0.50512153  0.49655904  1
  Hf  Hf27  1  0.29837561  0.49932978  0.29673599  1
  Hf  Hf28  1  -0.01132175  0.80625440  0.39710362  1
  Hf  Hf29  1  0.80144703  0.82963410  0.18601857  1
  Hf  Hf30  1  0.80971445  0.59549345  0.79456148  1
  Hf  Hf31  1  -0.01078565  0.81407762  0.00154640  1
  Hf  Hf32  1  0.60021752  0.20907357  0.79258728  1
  Hf  Hf33  1  0.59910094  0.79811762  0.80286904  1
  Hf  Hf34  1  0.19364633  0.20260641  0.00815996  1
  Hf  Hf35  1  0.20325189  -0.00172615  0.59113034  1
  Hf  Hf36  1  0.60085307  0.80498143  0.59514053  1
  Hf  Hf37  1  0.59674223  0.39641452  0.80215010  1
  Hf  Hf38  1  0.19825187  0.00199385  0.39891921  1
  Hf  Hf39  1  0.60225741  0.40269272  0.40650187  1
  Hf  Hf40  1  0.50031954  0.51080507  0.70206836  1
  Hf  Hf41  1  0.29499590  0.31157145  0.91585987  1
  Hf  Hf42  1  0.28783980  0.48556062  0.09608218  1
  Hf  Hf43  1  0.19601386  0.40454840  0.80069979  1
  Hf  Hf44  1  0.00003037  0.59192481  0.19606622  1
  Hf  Hf45  1  -0.00082454  0.19030903  0.39187282  1
  Hf  Hf46  1  0.19721340  0.60185310  0.79743926  1
  Hf  Hf47  1  0.09851663  0.69130450  0.90847577  1
  Hf  Hf48  1  -0.00448921  0.81203263  0.20493483  1
  Hf  Hf49  1  0.40932577  0.20067840  0.60478408  1
  Zr  Zr50  1  0.50807322  0.69408225  0.89976402  1
  Zr  Zr51  1  0.89640271  0.29257997  0.29415544  1
  Zr  Zr52  1  0.89371491  0.70070864  0.09881816  1
  Zr  Zr53  1  0.30546429  0.30815680  0.50531729  1
  Zr  Zr54  1  0.79121651  0.40247599  0.40548271  1
  Zr  Zr55  1  0.89372848  0.09601592  0.89989807  1
  Zr  Zr56  1  0.70120713  0.90882472  0.30291590  1
  Zr  Zr57  1  0.09649019  0.09295305  0.90113632  1
  Zr  Zr58  1  0.09684137  0.30335655  0.69564529  1
  Zr  Zr59  1  0.31833780  0.08844874  0.70444524  1
  Zr  Zr60  1  0.20143717  0.79212418  0.79952414  1
  Zr  Zr61  1  0.60981392  0.59808092  0.59177219  1
  Zr  Zr62  1  0.70035291  0.51026886  0.28924806  1
  Zr  Zr63  1  0.60288052  0.00746625  0.19308157  1
  Zr  Zr64  1  0.40663112  0.80572498  0.39283904  1
  Zr  Zr65  1  0.90517865  0.49183911  0.51167324  1
  Zr  Zr66  1  -0.00006825  0.40140959  -0.00096450  1
  Zr  Zr67  1  0.39018810  0.60299952  0.80769766  1
  Zr  Zr68  1  0.40743504  0.39923375  0.80664626  1
  Zr  Zr69  1  -0.00316380  0.19452167  0.80136684  1
  Zr  Zr70  1  0.10191041  0.69611343  0.30366566  1
  Zr  Zr71  1  0.19956177  0.19589408  0.40129712  1
  Zr  Zr72  1  0.89506206  0.29454811  0.50587621  1
  Zr  Zr73  1  0.60352170  0.00651381  0.59329444  1
  Zr  Zr74  1  0.29937008  0.89615861  0.10286574  1
  Zr  Zr75  1  0.40681340  0.60497069  0.39093213  1
  Zr  Zr76  1  0.29906956  0.30679437  0.29683082  1
  Zr  Zr77  1  0.60311309  0.19205483  0.01204589  1
  Zr  Zr78  1  0.19143692  0.60439712  0.60518544  1
  Zr  Zr79  1  0.79443590  0.39474081  0.19020277  1
  Zr  Zr80  1  0.40829664  0.39464214  0.19007511  1
  Zr  Zr81  1  0.48549107  0.49773493  0.50859478  1
  Zr  Zr82  1  0.21002422  -0.01522709  0.81001446  1
  Zr  Zr83  1  0.10530957  0.50220846  0.30174330  1
  Zr  Zr84  1  0.70079594  0.89185037  0.90888360  1
  Zr  Zr85  1  -0.00044570  0.79352407  0.79653915  1
  Zr  Zr86  1  0.88560110  0.69453696  0.29255995  1
  Zr  Zr87  1  0.20298781  0.80894343  0.39976073  1
  Zr  Zr88  1  0.79334126  0.59547381  -0.00521421  1
  Zr  Zr89  1  0.09746724  0.69862323  0.49556753  1
  Zr  Zr90  1  0.50020194  0.09197936  0.89306677  1
  Zr  Zr91  1  0.80211096  0.59826315  0.60131405  1
  Zr  Zr92  1  0.70921982  0.29642216  0.90371858  1
  Zr  Zr93  1  -0.00770851  0.61032083  0.61496910  1
  Zr  Zr94  1  0.70311244  0.90979995  0.70581191  1
  Zr  Zr95  1  0.20809306  0.20358797  0.80029818  1
  Zr  Zr96  1  0.41294878  -0.00385357  0.20069431  1
  Zr  Zr97  1  0.40493421  0.79691786  0.20515260  1
  Zr  Zr98  1  0.10462290  0.09000393  0.70334962  1
  Zr  Zr99  1  0.70404412  0.08828366  0.89315449  1
  Ta  Ta100  1  0.30189987  0.09741932  0.09811559  1
  Ta  Ta101  1  0.80229908  0.40199864  0.80133259  1
  Ta  Ta102  1  0.50300491  0.70154511  0.09820638  1
  Ta  Ta103  1  0.20323443  0.00101038  0.00271324  1
  Ta  Ta104  1  0.09442061  0.89765128  0.69664326  1
  Ta  Ta105  1  0.49887136  0.70333683  0.50206518  1
  Ta  Ta106  1  0.30127026  0.69925650  0.49763668  1
  Ta  Ta107  1  0.20043514  0.79996060  0.20273612  1
  Ta  Ta108  1  0.39835101  0.79577061  -0.00295261  1
  Ta  Ta109  1  0.60795184  0.20294939  0.59957993  1
  Ta  Ta110  1  0.51054610  0.10827124  0.30850648  1
  Ta  Ta111  1  0.28902161  0.49852225  0.91243492  1
  Ta  Ta112  1  0.19505249  0.40190901  0.40088202  1
  Ta  Ta113  1  0.69607106  0.50166067  0.89382288  1
  Ta  Ta114  1  0.29607793  0.69746308  0.09703191  1
  Ta  Ta115  1  0.50205401  0.10363575  0.49490046  1
  Ta  Ta116  1  0.59602584  -0.00323194  0.00762620  1
  Ta  Ta117  1  0.29313485  0.69299870  0.29725798  1
  Ta  Ta118  1  0.40140614  0.60083024  0.19390954  1
  Ta  Ta119  1  0.09391625  0.89758817  0.50429314  1
  Ta  Ta120  1  0.10081355  0.30233250  0.29437246  1
  Ta  Ta121  1  0.70793849  0.90273421  0.49745292  1
  Ta  Ta122  1  0.49729731  0.69918790  0.69570828  1
  Ta  Ta123  1  0.80332279  0.79834593  0.80259323  1
  Ta  Ta124  1  0.30688848  0.09602593  0.90726256  1
  Ta  Ta125  1  0.89657508  0.90208830  0.70152566  1
  Ta  Ta126  1  0.78790531  0.18794909  0.19146898  1
  Ta  Ta127  1  0.79995593  0.80377333  0.39707061  1
  Ta  Ta128  1  0.50556384  0.50097631  0.28960063  1
  Ta  Ta129  1  -0.01438109  0.59890232  0.40307018  1
  Ta  Ta130  1  0.20090321  0.59817752  0.19201889  1
  Ta  Ta131  1  0.08438288  0.49322072  0.70252295  1
  Ta  Ta132  1  0.89671717  0.29667620  0.89994214  1
  Ta  Ta133  1  0.70219931  0.70556543  0.29187072  1
  Ta  Ta134  1  0.19472384  0.79917177  0.60165799  1
  Ta  Ta135  1  0.19417778  0.00874999  0.20052873  1
  Ta  Ta136  1  0.50730379  0.09339179  0.70061214  1
  Ta  Ta137  1  0.00854578  0.19251237  0.19530024  1
  Ta  Ta138  1  0.79633063  0.60267988  0.40641555  1
  Ta  Ta139  1  0.80257353  0.00605433  0.59857668  1
  Ta  Ta140  1  0.78860538  0.39640760  0.60822333  1
  Ta  Ta141  1  0.60181582  0.59716019  -0.00400295  1
  Ta  Ta142  1  0.41779708  0.40069225  -0.00005295  1
  Ta  Ta143  1  0.00338729  0.39872390  0.19291015  1
  Ta  Ta144  1  0.89460759  0.50005695  0.10050222  1
  Ta  Ta145  1  0.79425520  0.19376018  0.39900414  1
  Ta  Ta146  1  0.50459147  0.29361448  0.49610153  1
  Ta  Ta147  1  0.70963657  0.10532222  0.70308180  1
  Ta  Ta148  1  0.40311430  -0.00461471  0.00387538  1
  Ta  Ta149  1  0.60121433  0.80072961  0.39907680  1
  Ti  Ti150  1  0.40761513  -0.00287140  0.39875889  1
  Ti  Ti151  1  0.50995692  0.50283077  0.10088643  1
  Ti  Ti152  1  0.30270016  0.30845512  0.69307573  1
  Ti  Ti153  1  0.31411476  0.09754363  0.49937788  1
  Ti  Ti154  1  0.40546764  0.20387869  0.39959367  1
  Ti  Ti155  1  0.09846411  0.49990730  0.90215300  1
  Ti  Ti156  1  0.79850585  0.40358507  -0.00355353  1
  Ti  Ti157  1  0.60337528  0.39776767  0.19506012  1
  Ti  Ti158  1  0.89437452  0.09462666  0.29025451  1
  Ti  Ti159  1  0.30594187  0.89894614  0.50092428  1
  Ti  Ti160  1  0.60135025  0.40132774  -0.00152607  1
  Ti  Ti161  1  0.89117184  0.89628259  0.50537788  1
  Ti  Ti162  1  0.40317532  0.79960120  0.59273307  1
  Ti  Ti163  1  0.70799222  0.71278652  0.49686241  1
  Ti  Ti164  1  0.09966240  0.09881018  0.50036885  1
  Ti  Ti165  1  0.20648143  0.19488765  0.60027289  1
  Ti  Ti166  1  0.50896070  0.29652991  0.30248575  1
  Ti  Ti167  1  0.88838476  0.10269797  0.49994775  1
  Ti  Ti168  1  0.00013971  0.00345816  0.00646549  1
  Ti  Ti169  1  0.20664925  0.80483032  -0.01039850  1
  Ti  Ti170  1  0.40678727  0.39808001  0.39447500  1
  Ti  Ti171  1  0.69763151  0.50041586  0.09651311  1
  Ti  Ti172  1  0.09550904  0.50189016  0.50134141  1
  Ti  Ti173  1  0.50596574  0.88819964  0.09109218  1
  Ti  Ti174  1  0.50012238  0.90399395  0.49759269  1
  Ti  Ti175  1  -0.00263557  0.58753573  0.00179014  1
  Ti  Ti176  1  0.69776732  0.10171750  0.30138640  1
  Ti  Ti177  1  0.69857028  0.49966061  0.70548931  1
  Ti  Ti178  1  0.00556620  0.19753098  0.00715454  1
  Ti  Ti179  1  0.51042945  0.69725153  0.29384440  1
  Ti  Ti180  1  -0.00379172  0.79866389  0.60453700  1
  Ti  Ti181  1  0.70082864  0.10418344  0.49592368  1
  Ti  Ti182  1  0.50085737  0.90272585  0.90013975  1
  Ti  Ti183  1  -0.00749582  0.59270009  0.79933728  1
  Ti  Ti184  1  0.51904844  0.30014491  0.10369471  1
  Ti  Ti185  1  0.59890931  0.00060721  0.40121344  1
  Ti  Ti186  1  0.89540635  0.90952211  0.89511696  1
  Ti  Ti187  1  0.60153258  0.60558764  0.19087703  1
  Ti  Ti188  1  0.09353799  0.90429406  0.89836283  1
  Ti  Ti189  1  0.89097512  0.50341821  0.29328531  1
  Ti  Ti190  1  0.30696268  0.70107759  0.68646845  1
  Ti  Ti191  1  0.19334569  0.40528627  0.59877837  1
  Ti  Ti192  1  0.79538656  0.19209114  0.00939892  1
  Ti  Ti193  1  0.80438547  0.00162941  0.39899580  1
  Ti  Ti194  1  0.59643846  0.80901293  0.20479083  1
  Ti  Ti195  1  0.09437099  0.30280974  0.89978466  1
  Ti  Ti196  1  0.89142750  0.70910628  0.50448614  1
  Ti  Ti197  1  0.29974115  0.90409722  0.29658139  1
  Ti  Ti198  1  0.90430310  0.09534917  0.10770168  1
  Ti  Ti199  1  0.09944701  0.90838820  0.29729102  1
  Mo  Mo200  1  0.89895870  0.49413934  0.90059199  1
  Mo  Mo201  1  0.40004007  0.61661082  0.59844715  1
  Mo  Mo202  1  0.59914302  0.19942217  0.20354347  1
  Mo  Mo203  1  0.18367792  0.39869829  0.00049243  1
  Mo  Mo204  1  0.29286265  0.69579507  0.91741975  1
  Mo  Mo205  1  0.20356949  0.59598564  0.40131013  1
  Mo  Mo206  1  0.69862486  0.09840045  0.10135512  1
  Mo  Mo207  1  0.91664913  0.91606055  0.10717175  1
  Mo  Mo208  1  0.09887397  0.09998028  0.29669746  1
  Mo  Mo209  1  0.80449704  -0.00190449  0.79301746  1
  Mo  Mo210  1  0.90418816  0.48211622  0.70698018  1
  Mo  Mo211  1  0.70013268  0.29134480  0.50147486  1
  Mo  Mo212  1  0.80374931  0.80712124  -0.00484245  1
  Mo  Mo213  1  0.89586373  0.91330391  0.30370272  1
  Mo  Mo214  1  -0.00501084  -0.01099814  0.79872332  1
  Mo  Mo215  1  0.70601473  0.29656785  0.70077072  1
  Mo  Mo216  1  0.89592530  0.71512720  0.70160222  1
  Mo  Mo217  1  0.50913989  0.49893702  0.90682001  1
  Mo  Mo218  1  0.50317095  0.29797764  0.69024715  1
  Mo  Mo219  1  0.60009408  0.00157078  0.80147176  1
  Mo  Mo220  1  0.79173476  0.59670814  0.19264134  1
  Mo  Mo221  1  0.09792646  0.50061430  0.09771203  1
  Mo  Mo222  1  0.68209313  0.89824651  0.10066460  1
  Mo  Mo223  1  0.40336197  -0.00628508  0.81486984  1
  Mo  Mo224  1  0.60146227  0.19630959  0.40491494  1
  Mo  Mo225  1  0.09365612  0.70051442  0.70318277  1
  Mo  Mo226  1  0.50887263  0.90689736  0.31360489  1
  Mo  Mo227  1  0.80273390  0.80773474  0.59673046  1
  Mo  Mo228  1  0.30462388  0.89969210  0.91110153  1
  Mo  Mo229  1  0.19722824  0.59500324  0.00052631  1
  Mo  Mo230  1  -0.00037689  0.39914875  0.60411864  1
  Mo  Mo231  1  0.50606617  0.30413786  0.91229161  1
  Mo  Mo232  1  0.29231560  0.30266189  0.09753535  1
  Mo  Mo233  1  0.09487330  0.30242567  0.10314544  1
  Mo  Mo234  1  0.88868415  0.09391891  0.70173734  1
  Mo  Mo235  1  0.60949142  0.59967581  0.80135657  1
  Mo  Mo236  1  0.70620407  0.49662643  0.50228815  1
  Mo  Mo237  1  0.09816586  0.09672815  0.09817563  1
  Mo  Mo238  1  0.40503443  0.00064857  0.57934735  1
  Mo  Mo239  1  -0.00503607  0.40217895  0.80707425  1
  Mo  Mo240  1  0.18986203  0.39617725  0.19483930  1
  Mo  Mo241  1  0.79306984  0.19505833  0.59619250  1
  Mo  Mo242  1  0.80179803  0.01102874  0.20437447  1
  Mo  Mo243  1  0.70033901  0.30026528  0.09829715  1
  Mo  Mo244  1  0.70122914  0.69695691  0.89719263  1
  Mo  Mo245  1  0.59145279  0.79901423  -0.00198254  1
  Mo  Mo246  1  0.80011777  0.20049951  0.79671713  1
  Mo  Mo247  1  0.40680888  0.38869977  0.60227060  1
  Mo  Mo248  1  0.00184748  0.00816848  0.20421100  1
  Mo  Mo249  1  0.49679137  0.09733540  0.10007753  1
