# generated using pymatgen
data_HfZrTaTiMo
_symmetry_space_group_name_H-M   'P 1'
_cell_length_a   16.89776127
_cell_length_b   16.88660471
_cell_length_c   16.88594336
_cell_angle_alpha   89.95223901
_cell_angle_beta   90.02015208
_cell_angle_gamma   89.96284007
_symmetry_Int_Tables_number   1
_chemical_formula_structural   HfZrTaTiMo
_chemical_formula_sum   'Hf50 Zr50 Ta50 Ti50 Mo50'
_cell_volume   4818.33028240
_cell_formula_units_Z   50
loop_
 _symmetry_equiv_pos_site_id
 _symmetry_equiv_pos_as_xyz
  1  'x, y, z'
loop_
 _atom_site_type_symbol
 _atom_site_label
 _atom_site_symmetry_multiplicity
 _atom_site_fract_x
 _atom_site_fract_y
 _atom_site_fract_z
 _atom_site_occupancy
  Hf  Hf0  1  0.88972037  0.70808065  0.10380518  1
  Hf  Hf1  1  0.59747388  0.60348709  0.40214888  1
  Hf  Hf2  1  0.89365348  0.70772387  0.90937327  1
  Hf  Hf3  1  0.29299264  0.08981181  0.89774271  1
  Hf  Hf4  1  -0.00067201  0.19623680  0.20500159  1
  Hf  Hf5  1  0.40712045  0.59903144  0.59907698  1
  Hf  Hf6  1  0.79248648  0.19938523  -0.00510089  1
  Hf  Hf7  1  0.19250849  0.39520300  0.60737715  1
  Hf  Hf8  1  0.79378004  0.79376388  0.79065712  1
  Hf  Hf9  1  0.30304435  0.08573600  0.10887846  1
  Hf  Hf10  1  0.00318086  0.60182026  0.00621830  1
  Hf  Hf11  1  0.19319993  0.60393056  0.19515556  1
  Hf  Hf12  1  0.19580158  0.60547085  0.40390285  1
  Hf  Hf13  1  0.90485968  0.10096717  0.49154229  1
  Hf  Hf14  1  0.19870584  0.80627877  0.19809595  1
  Hf  Hf15  1  0.19760747  0.59733216  0.79776687  1
  Hf  Hf16  1  0.60491408  0.39469855  0.39457095  1
  Hf  Hf17  1  0.68342603  0.09614730  0.88657241  1
  Hf  Hf18  1  0.40733510  0.01117452  0.39340961  1
  Hf  Hf19  1  0.00419230  0.39608002  0.59516363  1
  Hf  Hf20  1  0.69180256  0.49578451  0.69483402  1
  Hf  Hf21  1  0.79803456  -0.00885613  0.59503511  1
  Hf  Hf22  1  0.79511226  -0.00393748  0.39180680  1
  Hf  Hf23  1  0.40897495  0.41144118  -0.00173803  1
  Hf  Hf24  1  0.00858421  0.40161190  0.79588349  1
  Hf  Hf25  1  0.60088796  0.79454436  0.59536538  1
  Hf  Hf26  1  0.00668779  0.19598179  0.79823375  1
  Hf  Hf27  1  0.49760145  0.90355878  0.70069589  1
  Hf  Hf28  1  0.29737371  0.29980460  0.49651295  1
  Hf  Hf29  1  0.89193411  0.50221367  0.90119075  1
  Hf  Hf30  1  0.40555690  0.39659059  0.20529939  1
  Hf  Hf31  1  0.90259952  0.70407209  0.30554436  1
  Hf  Hf32  1  0.70045254  0.10499675  0.49238363  1
  Hf  Hf33  1  0.77808321  0.00191269  0.01121038  1
  Hf  Hf34  1  0.79039954  0.79981373  0.59742788  1
  Hf  Hf35  1  0.60492134  0.39760712  0.00407808  1
  Hf  Hf36  1  0.91689946  0.88694670  0.69579494  1
  Hf  Hf37  1  0.60090269  0.80621285  0.40448975  1
  Hf  Hf38  1  0.19105379  0.19644107  0.20584947  1
  Hf  Hf39  1  0.90656772  0.88652096  0.48846425  1
  Hf  Hf40  1  0.30323060  0.29869595  0.10024099  1
  Hf  Hf41  1  0.01480057  -0.00543210  0.59381477  1
  Hf  Hf42  1  -0.00636250  0.19197334  -0.00745363  1
  Hf  Hf43  1  0.39608970  0.80219955  0.19943555  1
  Hf  Hf44  1  0.18964782  0.40577526  0.19867218  1
  Hf  Hf45  1  0.01159640  0.20546964  0.59462522  1
  Hf  Hf46  1  0.89606550  0.50434427  0.69297404  1
  Hf  Hf47  1  0.89874339  0.89964660  0.90563231  1
  Hf  Hf48  1  0.80339601  0.59560651  0.40400799  1
  Hf  Hf49  1  0.08982699  0.50190829  0.30880813  1
  Zr  Zr50  1  0.89198182  0.30081886  0.30060897  1
  Zr  Zr51  1  0.29673553  0.71397239  0.70529984  1
  Zr  Zr52  1  -0.00708639  0.40223033  -0.00138368  1
  Zr  Zr53  1  0.40037049  0.19967080  0.61235573  1
  Zr  Zr54  1  0.89426234  0.90077553  0.09777712  1
  Zr  Zr55  1  0.10781334  0.29931778  0.89731377  1
  Zr  Zr56  1  0.29734260  0.70264116  0.50233416  1
  Zr  Zr57  1  0.78585794  -0.00895339  0.77950107  1
  Zr  Zr58  1  0.19790524  0.19011708  0.00134562  1
  Zr  Zr59  1  0.40244003  -0.00123706  0.80415844  1
  Zr  Zr60  1  0.00942034  0.80622054  0.20211059  1
  Zr  Zr61  1  0.50874540  0.29787519  0.50147552  1
  Zr  Zr62  1  0.79326583  0.40136208  0.20135469  1
  Zr  Zr63  1  0.39978584  0.40312184  0.60542516  1
  Zr  Zr64  1  0.68852781  0.89799961  0.90231833  1
  Zr  Zr65  1  0.29681113  0.70043690  0.90621703  1
  Zr  Zr66  1  0.19737675  -0.00352610  0.39907484  1
  Zr  Zr67  1  0.71126834  0.70304886  0.29623210  1
  Zr  Zr68  1  0.40883557  0.19808679  0.21451659  1
  Zr  Zr69  1  0.59964732  0.80062974  0.19778583  1
  Zr  Zr70  1  0.40058711  0.60235956  0.20267454  1
  Zr  Zr71  1  0.50491529  0.09202003  0.10704743  1
  Zr  Zr72  1  0.09492771  0.29857309  0.09942939  1
  Zr  Zr73  1  0.59905916  0.39332894  0.20031546  1
  Zr  Zr74  1  0.30639417  0.91635242  0.52144870  1
  Zr  Zr75  1  0.41044621  0.79652243  0.59923550  1
  Zr  Zr76  1  0.89493092  0.08854212  0.89856753  1
  Zr  Zr77  1  0.50718075  0.29889217  0.89675134  1
  Zr  Zr78  1  0.29990709  0.30269703  0.89623303  1
  Zr  Zr79  1  0.20075449  0.41584525  0.00395695  1
  Zr  Zr80  1  0.19245473  0.80795052  0.39545346  1
  Zr  Zr81  1  0.39700613  0.19783461  0.79407420  1
  Zr  Zr82  1  0.90458824  0.09676347  0.69507115  1
  Zr  Zr83  1  0.29675059  0.49956689  0.30669925  1
  Zr  Zr84  1  0.28474294  0.29917619  0.31415457  1
  Zr  Zr85  1  0.40450548  0.80415849  0.40007025  1
  Zr  Zr86  1  0.79819231  0.39417545  0.80280956  1
  Zr  Zr87  1  0.51867489  0.31363953  0.70744026  1
  Zr  Zr88  1  0.09589924  0.71539812  0.69696320  1
  Zr  Zr89  1  0.40674623  0.18856704  -0.00447305  1
  Zr  Zr90  1  0.59691537  0.59685699  0.00497809  1
  Zr  Zr91  1  0.90268048  0.29890312  0.69857452  1
  Zr  Zr92  1  0.49549033  0.91145618  0.09799621  1
  Zr  Zr93  1  0.19169581  0.59659290  0.60308505  1
  Zr  Zr94  1  -0.00025389  0.60485351  0.79854172  1
  Zr  Zr95  1  0.61819454  -0.00491210  0.60768942  1
  Zr  Zr96  1  0.69661409  0.69806053  0.90498566  1
  Zr  Zr97  1  0.89134658  0.29545735  0.10047110  1
  Zr  Zr98  1  0.61682909  0.20574399  0.60769657  1
  Zr  Zr99  1  0.30155467  0.10606868  0.50224105  1
  Ta  Ta100  1  0.79140695  0.20200552  0.79240264  1
  Ta  Ta101  1  -0.00183227  0.40634482  0.20198821  1
  Ta  Ta102  1  0.80204759  0.20590684  0.59569450  1
  Ta  Ta103  1  0.80006655  0.39272130  0.59037867  1
  Ta  Ta104  1  0.40602161  0.59863200  0.40555341  1
  Ta  Ta105  1  0.29997745  0.70083839  0.30217992  1
  Ta  Ta106  1  0.50504898  0.91809104  0.50009162  1
  Ta  Ta107  1  0.41500723  0.20024542  0.39519581  1
  Ta  Ta108  1  0.00529531  -0.00594019  0.39095485  1
  Ta  Ta109  1  0.49354575  0.69814258  0.90488944  1
  Ta  Ta110  1  0.59257125  0.80389759  0.00233818  1
  Ta  Ta111  1  0.79492770  0.59707935  0.00483647  1
  Ta  Ta112  1  0.00419123  0.20053921  0.39551632  1
  Ta  Ta113  1  0.70259031  0.49958420  0.30329995  1
  Ta  Ta114  1  0.20234189  0.40741320  0.79111656  1
  Ta  Ta115  1  0.01217320  0.80488862  0.00295834  1
  Ta  Ta116  1  0.39898911  0.41303025  0.80028623  1
  Ta  Ta117  1  0.60388983  0.19167028  0.00380106  1
  Ta  Ta118  1  0.10312094  0.50526172  0.90052950  1
  Ta  Ta119  1  0.19643718  -0.00889495  0.00389249  1
  Ta  Ta120  1  0.90454252  0.70104906  0.49770286  1
  Ta  Ta121  1  0.09520753  0.49943067  0.49537025  1
  Ta  Ta122  1  0.50453927  0.50131554  0.30176561  1
  Ta  Ta123  1  0.79501192  0.60245497  0.79689724  1
  Ta  Ta124  1  0.70213203  0.49705507  0.50157467  1
  Ta  Ta125  1  0.19679513  0.20177697  0.60894558  1
  Ta  Ta126  1  0.01099401  -0.00205537  0.79894494  1
  Ta  Ta127  1  0.50885304  0.10078587  0.50259619  1
  Ta  Ta128  1  0.51998593  0.09902816  0.71303184  1
  Ta  Ta129  1  0.10498367  0.89945323  0.89855169  1
  Ta  Ta130  1  0.69700309  0.49960070  0.89783321  1
  Ta  Ta131  1  -0.00064086  0.59887501  0.59435441  1
  Ta  Ta132  1  0.11150293  0.90179576  0.70463580  1
  Ta  Ta133  1  0.40892611  0.40004253  0.39836348  1
  Ta  Ta134  1  0.10703651  0.10200647  0.49618350  1
  Ta  Ta135  1  0.60626007  0.00343580  0.39096486  1
  Ta  Ta136  1  0.40512792  0.59531175  0.80294672  1
  Ta  Ta137  1  0.50265308  0.91290629  0.29408840  1
  Ta  Ta138  1  0.89774083  0.09330017  0.10525268  1
  Ta  Ta139  1  0.39931845  0.80377052  -0.00011586  1
  Ta  Ta140  1  0.89767627  0.09646472  0.29711667  1
  Ta  Ta141  1  0.29482872  0.89682367  0.90124103  1
  Ta  Ta142  1  0.09332321  0.08535131  0.09976779  1
  Ta  Ta143  1  0.29670674  0.49335083  0.49530560  1
  Ta  Ta144  1  0.00195234  -0.00421128  0.20353746  1
  Ta  Ta145  1  -0.00473289  0.39362923  0.40324934  1
  Ta  Ta146  1  0.49533320  0.69964699  0.09549532  1
  Ta  Ta147  1  0.60266669  0.59896687  0.20007374  1
  Ta  Ta148  1  0.58929429  0.79677149  0.80141512  1
  Ta  Ta149  1  0.79988692  0.20547674  0.39679416  1
  Ti  Ti150  1  0.40290417  0.80006182  0.80726196  1
  Ti  Ti151  1  0.11153168  0.29746772  0.48156717  1
  Ti  Ti152  1  0.70235896  0.50198062  0.10081569  1
  Ti  Ti153  1  0.89986518  0.50079747  0.30442805  1
  Ti  Ti154  1  -0.00095664  0.59570134  0.19553217  1
  Ti  Ti155  1  0.89706145  0.89337737  0.29834940  1
  Ti  Ti156  1  0.89480799  0.50074340  0.10036854  1
  Ti  Ti157  1  0.69885871  0.27967298  0.11518501  1
  Ti  Ti158  1  0.50441072  0.29044901  0.10169800  1
  Ti  Ti159  1  0.30080521  0.91156297  0.29026947  1
  Ti  Ti160  1  0.10711496  0.70581971  0.90410962  1
  Ti  Ti161  1  0.50598539  0.49499313  0.50126007  1
  Ti  Ti162  1  0.19457938  0.59881217  0.00647414  1
  Ti  Ti163  1  0.59557262  0.60350092  0.59111438  1
  Ti  Ti164  1  0.70104652  0.11593451  0.29144825  1
  Ti  Ti165  1  0.00548561  0.80083505  0.80954457  1
  Ti  Ti166  1  0.79944597  0.60260906  0.59823638  1
  Ti  Ti167  1  0.68967549  0.68986167  0.70131101  1
  Ti  Ti168  1  0.30688947  0.50926653  0.09760865  1
  Ti  Ti169  1  0.19894976  0.80531663  0.00810622  1
  Ti  Ti170  1  0.50166519  0.69399864  0.70711766  1
  Ti  Ti171  1  0.79403131  0.00042067  0.19961641  1
  Ti  Ti172  1  0.49825252  0.50761723  0.10376860  1
  Ti  Ti173  1  0.70663365  0.30390143  0.49170063  1
  Ti  Ti174  1  0.08980816  0.69814887  0.30677881  1
  Ti  Ti175  1  0.30201245  0.90931296  0.10056177  1
  Ti  Ti176  1  0.59410029  0.59647987  0.80659153  1
  Ti  Ti177  1  0.30265632  0.50881050  0.90289745  1
  Ti  Ti178  1  0.09969498  0.70306434  0.09886579  1
  Ti  Ti179  1  0.29430596  0.09990320  0.30097949  1
  Ti  Ti180  1  0.79251719  0.39460768  -0.00150486  1
  Ti  Ti181  1  0.18849733  0.81304682  0.58941320  1
  Ti  Ti182  1  0.79804078  0.59555689  0.19796654  1
  Ti  Ti183  1  0.61452182  0.00389242  0.20058393  1
  Ti  Ti184  1  0.70470126  0.70902680  0.10086661  1
  Ti  Ti185  1  0.90380496  0.70014641  0.69120314  1
  Ti  Ti186  1  0.30336528  0.69715041  0.09430647  1
  Ti  Ti187  1  0.19931126  0.19911381  0.78422053  1
  Ti  Ti188  1  0.30183859  0.50253571  0.69870211  1
  Ti  Ti189  1  0.69231225  0.29906211  0.89113284  1
  Ti  Ti190  1  0.10458734  0.08744804  0.89741424  1
  Ti  Ti191  1  0.10039990  0.09478893  0.30104784  1
  Ti  Ti192  1  0.49819775  0.69963018  0.29913471  1
  Ti  Ti193  1  0.29192281  0.08048095  0.69301688  1
  Ti  Ti194  1  0.29249139  0.90174579  0.70528634  1
  Ti  Ti195  1  0.90020313  0.49713829  0.49674904  1
  Ti  Ti196  1  0.70519870  0.89329275  0.29433670  1
  Ti  Ti197  1  0.51057468  0.49898204  0.70252442  1
  Ti  Ti198  1  0.08346234  0.70739914  0.49418855  1
  Ti  Ti199  1  0.70545658  0.69799859  0.49553041  1
  Mo  Mo200  1  0.00132704  0.80009801  0.39630838  1
  Mo  Mo201  1  0.19646146  -0.00126300  0.20128947  1
  Mo  Mo202  1  0.60444595  0.20465318  0.80267755  1
  Mo  Mo203  1  0.59001297  0.00064963  -0.00363689  1
  Mo  Mo204  1  0.09874240  0.90082055  0.49832945  1
  Mo  Mo205  1  0.29735342  0.30879395  0.70476230  1
  Mo  Mo206  1  0.00490327  0.79615910  0.59372123  1
  Mo  Mo207  1  0.19291421  0.40413803  0.40637725  1
  Mo  Mo208  1  0.41569078  0.01219013  0.60511825  1
  Mo  Mo209  1  0.60365522  0.19873160  0.20258159  1
  Mo  Mo210  1  0.00695548  -0.00277243  -0.00170736  1
  Mo  Mo211  1  0.68900576  0.87776742  0.70364688  1
  Mo  Mo212  1  0.50591811  0.09053418  0.90277778  1
  Mo  Mo213  1  0.39900356  0.60308932  0.00049582  1
  Mo  Mo214  1  0.79708996  0.81026410  0.20074082  1
  Mo  Mo215  1  0.09888497  0.90598782  0.29567262  1
  Mo  Mo216  1  0.60572449  0.19946292  0.39438655  1
  Mo  Mo217  1  0.19944421  0.80446791  0.80693823  1
  Mo  Mo218  1  0.69989572  0.89786199  0.48730753  1
  Mo  Mo219  1  0.19537090  0.00325831  0.60484373  1
  Mo  Mo220  1  0.19990974  -0.00331699  0.80069346  1
  Mo  Mo221  1  0.19270896  0.19484937  0.39868395  1
  Mo  Mo222  1  0.89879537  0.29748071  0.49469006  1
  Mo  Mo223  1  0.78664057  0.80057084  0.00696799  1
  Mo  Mo224  1  0.61016752  0.40619654  0.59188603  1
  Mo  Mo225  1  0.80121134  0.40244550  0.40334578  1
  Mo  Mo226  1  0.88694964  0.29593258  0.89966187  1
  Mo  Mo227  1  0.08888206  0.50910902  0.10302181  1
  Mo  Mo228  1  0.69275772  0.90127251  0.10379018  1
  Mo  Mo229  1  0.70648453  0.30569638  0.69714413  1
  Mo  Mo230  1  0.39316966  -0.00880197  -0.00515450  1
  Mo  Mo231  1  0.10831434  0.09708070  0.69872172  1
  Mo  Mo232  1  0.79931803  0.18928531  0.20051687  1
  Mo  Mo233  1  0.09636716  0.50174176  0.69727191  1
  Mo  Mo234  1  0.50541178  0.29809968  0.30379362  1
  Mo  Mo235  1  0.50284913  0.50323490  0.89424504  1
  Mo  Mo236  1  0.69755122  0.10056116  0.10538238  1
  Mo  Mo237  1  0.50511428  0.69141888  0.49815779  1
  Mo  Mo238  1  0.10272977  0.90351981  0.09616116  1
  Mo  Mo239  1  -0.00524141  0.59766988  0.40683673  1
  Mo  Mo240  1  0.49337250  0.89341426  0.90172024  1
  Mo  Mo241  1  0.51808213  0.10092037  0.30337322  1
  Mo  Mo242  1  0.39613635  0.00040782  0.21249395  1
  Mo  Mo243  1  0.79822653  0.80059780  0.39954555  1
  Mo  Mo244  1  0.60217731  0.40750486  0.80633741  1
  Mo  Mo245  1  0.09053064  0.30492787  0.30454167  1
  Mo  Mo246  1  0.59462363  -0.00785925  0.79989550  1
  Mo  Mo247  1  0.10680110  0.29653354  0.70359672  1
  Mo  Mo248  1  0.70029770  0.29380641  0.30284187  1
  Mo  Mo249  1  0.70534176  0.11041211  0.69924723  1
