# generated using pymatgen
data_HfZrTaTiMo
_symmetry_space_group_name_H-M   'P 1'
_cell_length_a   16.87718618
_cell_length_b   16.87913324
_cell_length_c   16.89232376
_cell_angle_alpha   90.04665257
_cell_angle_beta   89.93725698
_cell_angle_gamma   89.96058021
_symmetry_Int_Tables_number   1
_chemical_formula_structural   HfZrTaTiMo
_chemical_formula_sum   'Hf50 Zr50 Ta50 Ti50 Mo50'
_cell_volume   4812.14906624
_cell_formula_units_Z   50
loop_
 _symmetry_equiv_pos_site_id
 _symmetry_equiv_pos_as_xyz
  1  'x, y, z'
loop_
 _atom_site_type_symbol
 _atom_site_label
 _atom_site_symmetry_multiplicity
 _atom_site_fract_x
 _atom_site_fract_y
 _atom_site_fract_z
 _atom_site_occupancy
  Hf  Hf0  1  0.10037480  0.09756130  0.49639423  1
  Hf  Hf1  1  -0.00686386  0.19710811  0.60039812  1
  Hf  Hf2  1  0.78977179  0.20204769  0.81900211  1
  Hf  Hf3  1  0.60318898  0.19915205  0.20168601  1
  Hf  Hf4  1  0.89614481  0.69886532  0.70077274  1
  Hf  Hf5  1  0.29952596  0.29555664  0.49612914  1
  Hf  Hf6  1  0.89532543  0.10221542  0.70640529  1
  Hf  Hf7  1  0.10433136  0.69741631  0.09643946  1
  Hf  Hf8  1  0.70317676  0.90466605  0.49425941  1
  Hf  Hf9  1  0.60721607  0.79686567  0.00347505  1
  Hf  Hf10  1  0.50086931  0.30191718  0.90605628  1
  Hf  Hf11  1  0.60254373  -0.00163608  0.20190253  1
  Hf  Hf12  1  0.30256627  0.30108969  0.29008824  1
  Hf  Hf13  1  0.40275498  0.19596277  0.19664040  1
  Hf  Hf14  1  0.29836500  0.89716894  0.49743503  1
  Hf  Hf15  1  -0.00967878  0.81133000  0.59135525  1
  Hf  Hf16  1  0.39796500  0.40646885  0.60546871  1
  Hf  Hf17  1  0.60340463  0.79971694  0.59316410  1
  Hf  Hf18  1  -0.00165234  0.80484029  0.39536403  1
  Hf  Hf19  1  0.49428747  0.70808748  0.10260581  1
  Hf  Hf20  1  0.49199929  0.89866932  0.10076171  1
  Hf  Hf21  1  0.50834441  0.49999838  0.50200954  1
  Hf  Hf22  1  0.20338809  0.59662796  0.38875397  1
  Hf  Hf23  1  0.50598237  0.30695441  0.69982193  1
  Hf  Hf24  1  0.40264916  -0.00223933  0.39094582  1
  Hf  Hf25  1  0.10330877  0.70299916  0.29391116  1
  Hf  Hf26  1  0.00347990  0.58998160  0.79618916  1
  Hf  Hf27  1  0.80033007  0.79771135  0.80853818  1
  Hf  Hf28  1  0.29857568  0.71528683  0.49843585  1
  Hf  Hf29  1  0.00285625  0.58641871  0.19279700  1
  Hf  Hf30  1  0.09485893  0.29786762  0.70135400  1
  Hf  Hf31  1  0.29403368  0.09399103  0.49183781  1
  Hf  Hf32  1  0.10449948  0.69577525  0.90732767  1
  Hf  Hf33  1  0.39522089  0.59348631  0.19459551  1
  Hf  Hf34  1  0.70126624  0.30726032  0.50130995  1
  Hf  Hf35  1  0.19661253  0.19672107  0.80772972  1
  Hf  Hf36  1  0.40067993  0.59887401  0.79333925  1
  Hf  Hf37  1  0.89774634  0.30098890  0.49183890  1
  Hf  Hf38  1  0.50109676  0.70449515  0.29851718  1
  Hf  Hf39  1  0.71341367  0.30354309  0.30230041  1
  Hf  Hf40  1  0.00322437  0.80082627  0.80585605  1
  Hf  Hf41  1  0.70231530  0.30656050  0.70287988  1
  Hf  Hf42  1  0.79823127  0.79460614  0.40973044  1
  Hf  Hf43  1  0.90006052  0.30157553  0.91390917  1
  Hf  Hf44  1  0.59574214  -0.00578463  0.39199867  1
  Hf  Hf45  1  0.61230916  0.41449292  0.80769248  1
  Hf  Hf46  1  0.90441957  0.09247092  0.10020925  1
  Hf  Hf47  1  0.90244481  0.10097809  0.30223722  1
  Hf  Hf48  1  0.20588230  0.59170739  0.60477316  1
  Hf  Hf49  1  0.80679240  0.20213725  0.19286655  1
  Zr  Zr50  1  0.19247507  0.40340555  0.80238771  1
  Zr  Zr51  1  0.39739233  0.59882273  0.60401866  1
  Zr  Zr52  1  0.89779360  0.49384571  0.90514239  1
  Zr  Zr53  1  0.10370338  0.70232991  0.49596051  1
  Zr  Zr54  1  -0.00946766  0.80558445  0.19432601  1
  Zr  Zr55  1  0.20614149  0.60410427  0.79296231  1
  Zr  Zr56  1  0.59437437  -0.00296245  0.59981651  1
  Zr  Zr57  1  0.39542741  0.19656461  0.60160503  1
  Zr  Zr58  1  0.79343919  0.00092594  0.80960554  1
  Zr  Zr59  1  0.88171231  0.90888551  0.30086109  1
  Zr  Zr60  1  0.40311763  0.59684411  0.39724920  1
  Zr  Zr61  1  0.39363664  0.60470802  -0.00255960  1
  Zr  Zr62  1  0.60432977  0.19585341  0.81302161  1
  Zr  Zr63  1  -0.00442461  0.40822079  0.60967925  1
  Zr  Zr64  1  0.00900661  0.00258096  0.80290345  1
  Zr  Zr65  1  0.60036523  0.19746068  0.59911363  1
  Zr  Zr66  1  0.90596294  0.90576577  0.91355282  1
  Zr  Zr67  1  0.60073909  0.39710303  0.19878060  1
  Zr  Zr68  1  0.69729842  0.68833591  0.30972507  1
  Zr  Zr69  1  0.19342329  0.39585210  0.39136609  1
  Zr  Zr70  1  0.50031769  0.70500985  0.69642272  1
  Zr  Zr71  1  0.11959193  0.89857848  0.49548894  1
  Zr  Zr72  1  0.08970716  0.50619886  0.48939066  1
  Zr  Zr73  1  0.79662085  0.41684101  0.60900463  1
  Zr  Zr74  1  0.30666771  0.90772272  0.89984503  1
  Zr  Zr75  1  0.60398672  0.59433156  -0.00283510  1
  Zr  Zr76  1  0.49214322  0.09586324  0.71197454  1
  Zr  Zr77  1  0.39943305  0.00734809  0.00690753  1
  Zr  Zr78  1  0.10088099  0.70840037  0.69036295  1
  Zr  Zr79  1  0.09598750  0.30114593  0.10478745  1
  Zr  Zr80  1  0.39735712  0.40673587  0.79998468  1
  Zr  Zr81  1  0.80467951  -0.00374323  0.59897996  1
  Zr  Zr82  1  0.19149101  0.19575814  0.38612409  1
  Zr  Zr83  1  0.20920922  0.80521590  -0.00504255  1
  Zr  Zr84  1  0.30350177  0.71278817  0.29582089  1
  Zr  Zr85  1  0.48890314  0.89445590  0.70848631  1
  Zr  Zr86  1  0.89638515  0.68113121  0.30201934  1
  Zr  Zr87  1  0.79105814  0.79395503  0.19136393  1
  Zr  Zr88  1  0.59457311  0.19794067  0.39251422  1
  Zr  Zr89  1  0.29287800  0.50497724  0.90784996  1
  Zr  Zr90  1  0.60531899  0.59818497  0.19186534  1
  Zr  Zr91  1  0.19403849  0.19162829  0.19707261  1
  Zr  Zr92  1  -0.00000650  -0.00624843  0.40161647  1
  Zr  Zr93  1  0.79230878  0.60378478  0.59748242  1
  Zr  Zr94  1  0.09592347  0.90966242  0.09384940  1
  Zr  Zr95  1  0.29930119  0.10294676  0.90104188  1
  Zr  Zr96  1  0.19676484  0.40048049  0.60114244  1
  Zr  Zr97  1  0.59740122  0.39993472  0.39307911  1
  Zr  Zr98  1  0.89832290  0.50288547  0.47924503  1
  Zr  Zr99  1  0.00396576  0.19920161  0.81192242  1
  Ta  Ta100  1  0.49880839  0.89904344  0.90170718  1
  Ta  Ta101  1  0.49886556  0.30110147  0.49951083  1
  Ta  Ta102  1  0.39849309  0.20398546  0.00227063  1
  Ta  Ta103  1  0.89898586  0.49213915  0.09824778  1
  Ta  Ta104  1  0.60382694  0.80861184  0.20568875  1
  Ta  Ta105  1  0.79244527  0.59027541  0.80232039  1
  Ta  Ta106  1  0.90586225  0.68934584  0.49524240  1
  Ta  Ta107  1  -0.00114340  -0.00254708  0.59994539  1
  Ta  Ta108  1  0.60413561  0.40107117  0.00152903  1
  Ta  Ta109  1  0.40652263  0.39490895  0.39208971  1
  Ta  Ta110  1  0.70191984  0.10183621  0.09190848  1
  Ta  Ta111  1  0.70436465  0.10159731  0.49681902  1
  Ta  Ta112  1  0.70482802  0.29695372  0.09243711  1
  Ta  Ta113  1  0.60251614  -0.00364245  0.80993331  1
  Ta  Ta114  1  0.39829811  -0.00373658  0.59669412  1
  Ta  Ta115  1  0.20559471  0.59096755  0.18875392  1
  Ta  Ta116  1  0.69969217  0.89501389  0.70542513  1
  Ta  Ta117  1  0.29724103  0.29429131  0.70649890  1
  Ta  Ta118  1  0.30427788  0.49037401  0.29250003  1
  Ta  Ta119  1  0.20349500  0.80601919  0.80041322  1
  Ta  Ta120  1  0.60320229  0.79893419  0.80829240  1
  Ta  Ta121  1  0.30314325  0.49376044  0.49005764  1
  Ta  Ta122  1  0.50694103  0.10429853  0.09464818  1
  Ta  Ta123  1  0.89764942  0.89861272  0.70190026  1
  Ta  Ta124  1  0.70277062  0.69659337  0.90059353  1
  Ta  Ta125  1  0.00869679  0.19351272  0.00705890  1
  Ta  Ta126  1  0.81054739  0.39488269  0.19435837  1
  Ta  Ta127  1  0.80086279  0.79449938  0.00529456  1
  Ta  Ta128  1  0.89240465  0.30647471  0.71401901  1
  Ta  Ta129  1  0.19551347  0.40602996  0.19377551  1
  Ta  Ta130  1  0.50874207  0.70050594  0.49307367  1
  Ta  Ta131  1  0.89633371  0.09974915  0.49404766  1
  Ta  Ta132  1  0.29920070  0.30048141  0.09800522  1
  Ta  Ta133  1  0.20376969  0.00261058  0.61408306  1
  Ta  Ta134  1  0.71531050  0.50160348  0.30128785  1
  Ta  Ta135  1  0.89853188  0.10127949  0.91516228  1
  Ta  Ta136  1  0.69786553  0.70153227  0.70471210  1
  Ta  Ta137  1  0.08928670  0.29197464  0.49256996  1
  Ta  Ta138  1  0.50068447  0.29964221  0.09784378  1
  Ta  Ta139  1  0.49551963  0.09847401  0.49652433  1
  Ta  Ta140  1  0.39510171  0.39624986  0.00243250  1
  Ta  Ta141  1  0.19847447  -0.00094912  0.79786073  1
  Ta  Ta142  1  0.20346415  0.81447892  0.19414802  1
  Ta  Ta143  1  0.49287919  0.48918796  0.09806468  1
  Ta  Ta144  1  0.69911713  0.09664219  0.70100965  1
  Ta  Ta145  1  0.79636604  0.60063094  0.00366539  1
  Ta  Ta146  1  0.60133574  0.60010370  0.80151878  1
  Ta  Ta147  1  0.20158951  0.40169615  0.00635729  1
  Ta  Ta148  1  0.19805049  0.19645640  0.60446575  1
  Ta  Ta149  1  0.30240509  0.71238244  0.09845497  1
  Ti  Ti150  1  0.10264220  0.50355155  0.91395842  1
  Ti  Ti151  1  -0.00988080  0.79891608  0.00629831  1
  Ti  Ti152  1  0.29385472  0.90580336  0.29546559  1
  Ti  Ti153  1  -0.00319080  0.59248181  0.60802301  1
  Ti  Ti154  1  0.10322788  0.89992018  0.69791421  1
  Ti  Ti155  1  0.09642494  0.49562689  0.29171887  1
  Ti  Ti156  1  -0.00131916  0.59431598  0.00389090  1
  Ti  Ti157  1  0.00237150  -0.00544872  0.19852337  1
  Ti  Ti158  1  0.60247722  0.00277115  -0.00258498  1
  Ti  Ti159  1  0.79209976  0.39746479  0.00008635  1
  Ti  Ti160  1  0.10073379  0.09857477  0.69834226  1
  Ti  Ti161  1  0.89475102  0.68803898  0.09936863  1
  Ti  Ti162  1  0.19293647  0.01346693  0.00363104  1
  Ti  Ti163  1  0.79648383  -0.00268816  0.00482874  1
  Ti  Ti164  1  0.79873191  0.79716804  0.59623793  1
  Ti  Ti165  1  0.10164608  0.08404279  0.29351480  1
  Ti  Ti166  1  0.00549980  0.40152841  0.01008710  1
  Ti  Ti167  1  0.00220592  0.20151581  0.20361219  1
  Ti  Ti168  1  0.49799166  0.50011404  0.90508457  1
  Ti  Ti169  1  0.50086869  0.49883579  0.29471657  1
  Ti  Ti170  1  0.49850509  0.09701078  0.90298990  1
  Ti  Ti171  1  0.30628179  0.89956703  0.70041000  1
  Ti  Ti172  1  0.39307926  0.00081548  0.20058655  1
  Ti  Ti173  1  0.90642551  0.29964742  0.30037117  1
  Ti  Ti174  1  0.69783228  0.89883770  0.90530680  1
  Ti  Ti175  1  0.39380168  0.79268068  0.81553782  1
  Ti  Ti176  1  0.89959702  0.69285908  0.90582699  1
  Ti  Ti177  1  0.29353457  0.10070962  0.10078472  1
  Ti  Ti178  1  0.70025168  0.90205659  0.09709050  1
  Ti  Ti179  1  0.41232556  0.81309513  0.39590790  1
  Ti  Ti180  1  0.70964587  0.49734503  0.10337633  1
  Ti  Ti181  1  0.30499571  0.72196305  0.69181607  1
  Ti  Ti182  1  0.79151725  -0.00415145  0.19459812  1
  Ti  Ti183  1  0.30311303  0.09613579  0.70707501  1
  Ti  Ti184  1  0.10193401  0.90631747  0.90536642  1
  Ti  Ti185  1  0.80193769  0.19772773  0.40062031  1
  Ti  Ti186  1  0.71186543  0.09245807  0.30399831  1
  Ti  Ti187  1  0.49585409  0.09786184  0.29399167  1
  Ti  Ti188  1  0.80008699  0.20033944  0.60266644  1
  Ti  Ti189  1  0.40389197  0.19946896  0.39126389  1
  Ti  Ti190  1  0.00176395  0.39440709  0.38439258  1
  Ti  Ti191  1  0.59897054  0.80698480  0.39719528  1
  Ti  Ti192  1  0.69751421  0.50711991  0.48511879  1
  Ti  Ti193  1  0.60608597  0.59560131  0.60490618  1
  Ti  Ti194  1  0.49939728  0.70547878  0.90264648  1
  Ti  Ti195  1  0.00190920  0.40501176  0.80254972  1
  Ti  Ti196  1  0.89558744  0.49623964  0.29717403  1
  Ti  Ti197  1  0.10495740  0.29974936  0.91317484  1
  Ti  Ti198  1  0.39523337  0.20602504  0.80841904  1
  Ti  Ti199  1  0.60803790  0.20043151  -0.00338621  1
  Mo  Mo200  1  0.89477100  0.90051480  0.50413249  1
  Mo  Mo201  1  0.00230001  0.59732160  0.38624240  1
  Mo  Mo202  1  0.49474546  0.29621567  0.29835039  1
  Mo  Mo203  1  0.20581156  0.00094634  0.19467182  1
  Mo  Mo204  1  0.60074289  0.59733657  0.39983238  1
  Mo  Mo205  1  0.69263948  0.69864432  0.50306062  1
  Mo  Mo206  1  0.89764095  0.49988664  0.71235816  1
  Mo  Mo207  1  0.60052331  0.41103470  0.60214329  1
  Mo  Mo208  1  0.10903894  0.90353671  0.29252974  1
  Mo  Mo209  1  -0.00379128  0.39842112  0.20326396  1
  Mo  Mo210  1  0.80269754  0.40000992  0.39074910  1
  Mo  Mo211  1  0.40126636  0.39743483  0.19648458  1
  Mo  Mo212  1  0.80292779  0.58715003  0.19080731  1
  Mo  Mo213  1  0.49636631  0.89616009  0.29283330  1
  Mo  Mo214  1  0.08966891  0.30428319  0.29489558  1
  Mo  Mo215  1  0.40285659  0.80023810  -0.00232146  1
  Mo  Mo216  1  0.39632232  0.81209540  0.19896052  1
  Mo  Mo217  1  0.70362764  0.50286119  0.90732473  1
  Mo  Mo218  1  0.30029953  0.70476700  0.89910203  1
  Mo  Mo219  1  0.69670712  0.89897796  0.29876149  1
  Mo  Mo220  1  0.29864513  0.90823075  0.10337830  1
  Mo  Mo221  1  0.40115397  -0.00075049  0.80068891  1
  Mo  Mo222  1  0.49613215  0.89721010  0.49603520  1
  Mo  Mo223  1  0.30407519  0.09407573  0.29468730  1
  Mo  Mo224  1  0.29888835  0.49272687  0.10182567  1
  Mo  Mo225  1  0.29757290  0.29851113  0.90766635  1
  Mo  Mo226  1  0.10226904  0.09662495  0.91052899  1
  Mo  Mo227  1  0.70149163  0.30622475  0.91246791  1
  Mo  Mo228  1  0.70284518  0.69914094  0.09686948  1
  Mo  Mo229  1  0.09808370  0.49892406  0.09374560  1
  Mo  Mo230  1  0.00435706  0.00782806  0.00111646  1
  Mo  Mo231  1  0.09568531  0.09958209  0.10311738  1
  Mo  Mo232  1  0.51346191  0.50393041  0.69595118  1
  Mo  Mo233  1  0.80124068  0.40076185  0.80658854  1
  Mo  Mo234  1  0.29454604  0.48997598  0.69614307  1
  Mo  Mo235  1  0.09517755  0.49924326  0.70200679  1
  Mo  Mo236  1  0.20033930  0.80723022  0.37956348  1
  Mo  Mo237  1  0.80298659  0.19825398  0.00557048  1
  Mo  Mo238  1  0.20367725  0.00005259  0.38080643  1
  Mo  Mo239  1  0.79755061  0.59732208  0.40325821  1
  Mo  Mo240  1  0.20772122  0.81147393  0.61597193  1
  Mo  Mo241  1  -0.00275917  0.19860280  0.39567915  1
  Mo  Mo242  1  0.20046766  0.60031254  0.00949577  1
  Mo  Mo243  1  0.40490010  0.80531613  0.58526609  1
  Mo  Mo244  1  0.79524012  0.00624409  0.40077484  1
  Mo  Mo245  1  0.69941215  0.50710173  0.70786073  1
  Mo  Mo246  1  0.89313813  0.90540790  0.09853327  1
  Mo  Mo247  1  0.20185473  0.20532889  0.00224181  1
  Mo  Mo248  1  0.90261670  0.30121994  0.09769540  1
  Mo  Mo249  1  0.69824589  0.09159103  0.91377329  1
