# generated using pymatgen
data_HfZrTaTiMo
_symmetry_space_group_name_H-M   'P 1'
_cell_length_a   16.88261683
_cell_length_b   16.88271885
_cell_length_c   16.88713529
_cell_angle_alpha   90.00588926
_cell_angle_beta   90.00097559
_cell_angle_gamma   90.04855511
_symmetry_Int_Tables_number   1
_chemical_formula_structural   HfZrTaTiMo
_chemical_formula_sum   'Hf50 Zr50 Ta50 Ti50 Mo50'
_cell_volume   4813.24508766
_cell_formula_units_Z   50
loop_
 _symmetry_equiv_pos_site_id
 _symmetry_equiv_pos_as_xyz
  1  'x, y, z'
loop_
 _atom_site_type_symbol
 _atom_site_label
 _atom_site_symmetry_multiplicity
 _atom_site_fract_x
 _atom_site_fract_y
 _atom_site_fract_z
 _atom_site_occupancy
  Hf  Hf0  1  -0.01433288  0.80614834  0.80084877  1
  Hf  Hf1  1  0.50261454  0.90135747  0.10201966  1
  Hf  Hf2  1  0.89213590  0.30711235  0.50123181  1
  Hf  Hf3  1  0.79226835  0.40402584  0.20659217  1
  Hf  Hf4  1  0.80026500  0.60882577  0.79526303  1
  Hf  Hf5  1  0.49224353  0.49267676  0.89420330  1
  Hf  Hf6  1  0.48793358  0.70484796  0.89379984  1
  Hf  Hf7  1  0.68661729  0.50878762  0.10798298  1
  Hf  Hf8  1  0.09799816  0.09903452  0.89120734  1
  Hf  Hf9  1  0.40077833  -0.00165409  0.60386153  1
  Hf  Hf10  1  0.19487204  0.00266807  0.19619795  1
  Hf  Hf11  1  0.60146181  0.59710434  0.79322956  1
  Hf  Hf12  1  0.20052641  0.00212115  0.00112989  1
  Hf  Hf13  1  0.78622317  0.20376238  0.19548973  1
  Hf  Hf14  1  0.00347589  0.59590427  0.40192809  1
  Hf  Hf15  1  0.89828687  0.29952532  0.69800443  1
  Hf  Hf16  1  0.31408862  0.29934610  0.50135084  1
  Hf  Hf17  1  0.09961107  0.50014633  0.70309839  1
  Hf  Hf18  1  0.20046575  0.60442084  0.59316144  1
  Hf  Hf19  1  0.30073080  0.50579728  0.30565671  1
  Hf  Hf20  1  0.90637415  0.70474667  0.90899918  1
  Hf  Hf21  1  0.30362250  0.89862018  0.30288507  1
  Hf  Hf22  1  0.68894548  0.30325317  0.30599828  1
  Hf  Hf23  1  0.19802994  0.40530560  0.19897059  1
  Hf  Hf24  1  0.41065128  0.19875233  0.40393157  1
  Hf  Hf25  1  0.50357977  0.10309653  0.70600379  1
  Hf  Hf26  1  0.79714449  0.60253882  -0.00352993  1
  Hf  Hf27  1  0.20480226  0.00230823  0.79524645  1
  Hf  Hf28  1  0.69551664  0.49409797  0.90176939  1
  Hf  Hf29  1  0.20641605  0.19990948  0.00060738  1
  Hf  Hf30  1  0.80002380  -0.00514794  0.80015611  1
  Hf  Hf31  1  0.89933811  0.49914556  0.69390528  1
  Hf  Hf32  1  0.30993187  0.70839333  0.49554711  1
  Hf  Hf33  1  0.50741920  0.50564529  0.30238502  1
  Hf  Hf34  1  0.10256242  0.30008358  0.89648527  1
  Hf  Hf35  1  0.19907647  0.80080146  0.19239089  1
  Hf  Hf36  1  0.79276918  -0.01166210  0.39598188  1
  Hf  Hf37  1  0.20864813  0.20346806  0.19125306  1
  Hf  Hf38  1  0.20225609  0.39733636  0.60033622  1
  Hf  Hf39  1  0.09429186  0.70529625  0.70504474  1
  Hf  Hf40  1  0.40322095  0.40074892  0.01342897  1
  Hf  Hf41  1  0.19681378  0.80381576  0.59907774  1
  Hf  Hf42  1  0.49956856  0.89055156  0.29563203  1
  Hf  Hf43  1  0.29775804  0.50399723  0.90039178  1
  Hf  Hf44  1  0.49979362  0.10227248  0.89595862  1
  Hf  Hf45  1  0.89488436  0.69602288  0.49480004  1
  Hf  Hf46  1  0.79975580  0.60274810  0.20671374  1
  Hf  Hf47  1  0.41900920  0.02233807  0.20422634  1
  Hf  Hf48  1  0.89663312  0.89416774  0.09182525  1
  Hf  Hf49  1  0.31377405  0.49782222  0.49695837  1
  Zr  Zr50  1  0.60225358  0.00012892  0.00006829  1
  Zr  Zr51  1  0.30280269  0.89334234  0.89419989  1
  Zr  Zr52  1  0.00080149  0.01901433  0.58960294  1
  Zr  Zr53  1  0.90354473  0.90471282  0.69222714  1
  Zr  Zr54  1  0.00187641  0.18649857  0.41580497  1
  Zr  Zr55  1  0.59917135  -0.00435874  0.39676008  1
  Zr  Zr56  1  0.79035195  0.39151781  0.00627979  1
  Zr  Zr57  1  0.89754976  0.09335765  0.29822786  1
  Zr  Zr58  1  0.59685174  0.60455943  -0.00584564  1
  Zr  Zr59  1  0.69576275  0.30320441  0.50050304  1
  Zr  Zr60  1  0.09954637  0.70040789  0.29614235  1
  Zr  Zr61  1  0.31209506  0.90727273  0.09858399  1
  Zr  Zr62  1  0.19292504  0.40312222  0.40173560  1
  Zr  Zr63  1  0.90114485  0.30149498  0.09859029  1
  Zr  Zr64  1  0.10091927  0.29329408  0.30818958  1
  Zr  Zr65  1  0.70763175  0.10879330  0.89787990  1
  Zr  Zr66  1  0.79478429  0.79964273  0.39004905  1
  Zr  Zr67  1  0.19585582  0.79741707  0.39956769  1
  Zr  Zr68  1  0.79047312  0.18883052  0.61448838  1
  Zr  Zr69  1  0.10232056  0.69749965  0.90019223  1
  Zr  Zr70  1  0.40491864  0.20433584  0.01361087  1
  Zr  Zr71  1  0.50916928  0.69730766  0.10546713  1
  Zr  Zr72  1  -0.00463525  0.60313009  0.59679044  1
  Zr  Zr73  1  0.89972573  0.30745727  0.30828650  1
  Zr  Zr74  1  0.09028060  0.89954227  0.49928373  1
  Zr  Zr75  1  0.90616535  0.70169092  0.09661673  1
  Zr  Zr76  1  0.78930387  0.19127113  0.40039162  1
  Zr  Zr77  1  0.40383636  0.00659337  0.40429197  1
  Zr  Zr78  1  0.88809524  0.09647345  0.09078957  1
  Zr  Zr79  1  0.79633622  0.39899105  0.79243518  1
  Zr  Zr80  1  0.50747410  0.29955445  0.89070699  1
  Zr  Zr81  1  0.30988034  0.10675252  0.70060544  1
  Zr  Zr82  1  0.00115672  0.19212209  0.19936343  1
  Zr  Zr83  1  0.69262306  0.69781062  0.68713630  1
  Zr  Zr84  1  0.39849856  0.40056799  0.20009943  1
  Zr  Zr85  1  0.09545626  0.30584355  0.09700686  1
  Zr  Zr86  1  0.09129832  0.68992506  0.08978224  1
  Zr  Zr87  1  0.29622630  0.10931001  0.30551087  1
  Zr  Zr88  1  0.41439871  0.61640501  0.39570744  1
  Zr  Zr89  1  0.90931083  0.50325834  0.10010060  1
  Zr  Zr90  1  0.30608047  0.30741149  0.89631032  1
  Zr  Zr91  1  0.60603405  0.39512506  0.78469658  1
  Zr  Zr92  1  0.49785710  0.88626774  0.50311960  1
  Zr  Zr93  1  0.09665566  0.90630844  0.70262325  1
  Zr  Zr94  1  0.48830407  0.90615688  0.89777253  1
  Zr  Zr95  1  0.09505909  0.29793984  0.69500047  1
  Zr  Zr96  1  0.61028885  0.21029542  0.01365735  1
  Zr  Zr97  1  0.29821831  0.70633422  0.71189384  1
  Zr  Zr98  1  0.60905240  0.80057659  0.80613803  1
  Zr  Zr99  1  0.80669320  0.78958895  0.60667661  1
  Ta  Ta100  1  0.69568432  0.88850279  0.50888592  1
  Ta  Ta101  1  0.09611840  0.90635304  0.30045422  1
  Ta  Ta102  1  0.20660504  0.00540349  0.59475159  1
  Ta  Ta103  1  0.20507836  0.19485353  0.59299986  1
  Ta  Ta104  1  0.69311839  0.69017094  0.49531709  1
  Ta  Ta105  1  0.29680222  0.69894672  0.90203543  1
  Ta  Ta106  1  0.70041257  0.89692372  0.10208683  1
  Ta  Ta107  1  0.39749816  0.78404143  0.20190086  1
  Ta  Ta108  1  0.50442179  0.10581137  0.51254798  1
  Ta  Ta109  1  0.89720526  0.29206484  0.89907102  1
  Ta  Ta110  1  0.10139028  0.10579986  0.69968155  1
  Ta  Ta111  1  0.69837107  0.09070758  0.10631681  1
  Ta  Ta112  1  0.89910594  0.10269541  0.89620592  1
  Ta  Ta113  1  0.69116159  0.69092357  0.29958202  1
  Ta  Ta114  1  0.09643723  0.89811654  0.89896552  1
  Ta  Ta115  1  0.49616264  0.49790049  0.69064601  1
  Ta  Ta116  1  0.89913638  0.89757977  0.49879358  1
  Ta  Ta117  1  0.59546049  0.40109258  0.20029950  1
  Ta  Ta118  1  0.39961470  0.59785200  0.79411329  1
  Ta  Ta119  1  0.40179889  0.59993317  0.19561718  1
  Ta  Ta120  1  0.29457916  0.50893440  0.09656000  1
  Ta  Ta121  1  -0.00168331  0.19744560  -0.00531534  1
  Ta  Ta122  1  0.20187105  0.40031630  0.79715325  1
  Ta  Ta123  1  0.20035587  0.79933082  0.00062734  1
  Ta  Ta124  1  0.89516025  0.50031392  0.31286636  1
  Ta  Ta125  1  -0.00400066  -0.00214126  -0.00754849  1
  Ta  Ta126  1  0.49479911  0.30271829  0.68505401  1
  Ta  Ta127  1  0.60020611  -0.00542235  0.60720834  1
  Ta  Ta128  1  0.59705734  0.78956938  0.39721835  1
  Ta  Ta129  1  0.31423179  0.09532800  0.89717335  1
  Ta  Ta130  1  0.69071770  0.09033440  0.50688466  1
  Ta  Ta131  1  0.30640780  0.30070765  0.30599163  1
  Ta  Ta132  1  -0.00008420  0.40378217  0.80716790  1
  Ta  Ta133  1  0.40299329  0.60155216  0.60164870  1
  Ta  Ta134  1  0.10327944  0.09589316  0.30595705  1
  Ta  Ta135  1  0.50308166  0.49811048  0.50196435  1
  Ta  Ta136  1  0.49878453  0.70146471  0.69542194  1
  Ta  Ta137  1  0.00445983  0.40553481  -0.00973973  1
  Ta  Ta138  1  0.69984308  0.89590156  0.69900522  1
  Ta  Ta139  1  0.79435063  -0.01460624  0.20699274  1
  Ta  Ta140  1  0.70236727  0.70710009  0.10249362  1
  Ta  Ta141  1  0.30635505  0.49578980  0.69929626  1
  Ta  Ta142  1  -0.00477539  0.80683601  0.20467979  1
  Ta  Ta143  1  0.19930858  0.00511588  0.41000952  1
  Ta  Ta144  1  0.79943181  0.80136748  0.20611653  1
  Ta  Ta145  1  0.20711831  0.20391665  0.79375038  1
  Ta  Ta146  1  -0.00170279  -0.00634505  0.19777745  1
  Ta  Ta147  1  0.30424860  0.89837148  0.49919993  1
  Ta  Ta148  1  0.60781820  0.80144754  -0.00405627  1
  Ta  Ta149  1  0.39608587  0.79113014  0.00748566  1
  Ti  Ti150  1  0.59580848  0.40266011  0.40730392  1
  Ti  Ti151  1  0.50031762  0.89260289  0.70638327  1
  Ti  Ti152  1  0.51044645  0.69896132  0.50988298  1
  Ti  Ti153  1  -0.00180283  0.20137065  0.79895825  1
  Ti  Ti154  1  0.09283817  0.89752718  0.09423763  1
  Ti  Ti155  1  0.79348856  0.59033485  0.59343857  1
  Ti  Ti156  1  0.60778452  0.79876582  0.20326651  1
  Ti  Ti157  1  -0.00411070  0.80048284  0.39651045  1
  Ti  Ti158  1  0.30527871  0.89620269  0.70717610  1
  Ti  Ti159  1  0.00065948  0.19566955  0.59595828  1
  Ti  Ti160  1  0.71017752  0.29276162  0.89589570  1
  Ti  Ti161  1  0.59409702  0.39607973  0.01308051  1
  Ti  Ti162  1  -0.00504223  0.59501498  0.80541530  1
  Ti  Ti163  1  0.88431501  0.09343808  0.50029452  1
  Ti  Ti164  1  0.49988926  0.29638497  0.11612818  1
  Ti  Ti165  1  0.00025403  0.40834540  0.40596752  1
  Ti  Ti166  1  0.19324820  0.59271902  0.19704236  1
  Ti  Ti167  1  0.62192436  0.20576230  0.77935877  1
  Ti  Ti168  1  0.20017562  0.59491977  0.80172483  1
  Ti  Ti169  1  0.09960032  0.50066355  0.50212157  1
  Ti  Ti170  1  0.49922000  0.30186410  0.30568268  1
  Ti  Ti171  1  0.40051590  0.20905490  0.79646630  1
  Ti  Ti172  1  0.90487855  0.09983782  0.70973435  1
  Ti  Ti173  1  0.40010619  0.59954805  0.00462273  1
  Ti  Ti174  1  0.79203429  -0.00131286  0.60246347  1
  Ti  Ti175  1  0.60794415  -0.00401653  0.79697122  1
  Ti  Ti176  1  0.89845086  0.49606878  0.90087686  1
  Ti  Ti177  1  0.31333557  0.10051017  0.09857455  1
  Ti  Ti178  1  0.19578223  0.40856685  0.00328212  1
  Ti  Ti179  1  0.29843558  0.69710400  0.29811199  1
  Ti  Ti180  1  0.29356881  0.69115677  0.09533043  1
  Ti  Ti181  1  0.19200287  0.60310333  0.40434905  1
  Ti  Ti182  1  0.69612076  0.50556727  0.31476347  1
  Ti  Ti183  1  0.60416696  0.40710006  0.59778221  1
  Ti  Ti184  1  0.00925055  0.41350634  0.20845588  1
  Ti  Ti185  1  0.90030578  0.69668204  0.30131385  1
  Ti  Ti186  1  0.59020123  0.19244583  0.20292448  1
  Ti  Ti187  1  0.79108800  0.80516382  -0.01437033  1
  Ti  Ti188  1  0.68881164  0.09307895  0.29401545  1
  Ti  Ti189  1  0.79541700  -0.00759953  -0.00723163  1
  Ti  Ti190  1  0.59532181  0.19522374  0.40475181  1
  Ti  Ti191  1  -0.00055616  0.40321073  0.59089503  1
  Ti  Ti192  1  0.78819874  0.41095134  0.59598007  1
  Ti  Ti193  1  0.09256843  0.09755732  0.09567642  1
  Ti  Ti194  1  0.10161451  0.29412805  0.50032385  1
  Ti  Ti195  1  0.00482339  0.59111574  0.20844579  1
  Ti  Ti196  1  0.31067653  0.30519632  0.69476653  1
  Ti  Ti197  1  0.40111642  0.79857033  0.60713212  1
  Ti  Ti198  1  0.60199731  0.20172951  0.60235153  1
  Ti  Ti199  1  -0.00250283  -0.00070075  0.39762743  1
  Mo  Mo200  1  0.50685558  0.10456977  0.10381765  1
  Mo  Mo201  1  0.51123878  0.11180162  0.30496843  1
  Mo  Mo202  1  0.69841913  0.30346915  0.69004123  1
  Mo  Mo203  1  0.90033313  0.69328980  0.70331143  1
  Mo  Mo204  1  0.20387390  0.19820449  0.40719656  1
  Mo  Mo205  1  0.40425768  -0.00233321  0.79671669  1
  Mo  Mo206  1  0.50817423  0.30327309  0.50229054  1
  Mo  Mo207  1  -0.00284892  0.79237612  0.59393274  1
  Mo  Mo208  1  0.90691202  0.89700853  0.29984296  1
  Mo  Mo209  1  0.60240037  0.60048695  0.40529988  1
  Mo  Mo210  1  0.69553894  0.50374512  0.49602316  1
  Mo  Mo211  1  0.00459760  0.81474194  -0.00050366  1
  Mo  Mo212  1  0.40277274  0.79611978  0.39331296  1
  Mo  Mo213  1  0.39805226  0.40113404  0.78714219  1
  Mo  Mo214  1  0.59780454  0.80080578  0.59876164  1
  Mo  Mo215  1  0.40638759  0.40263990  0.59661650  1
  Mo  Mo216  1  0.69346692  0.88980077  0.29558800  1
  Mo  Mo217  1  0.69262944  0.09032338  0.69975536  1
  Mo  Mo218  1  0.70442904  0.90014593  0.89888911  1
  Mo  Mo219  1  0.20286251  0.60036526  0.00049111  1
  Mo  Mo220  1  0.10391336  0.49834786  0.89684323  1
  Mo  Mo221  1  0.40480726  0.20792078  0.20504443  1
  Mo  Mo222  1  0.40671860  0.20297520  0.59973773  1
  Mo  Mo223  1  0.49701030  0.50184222  0.10383563  1
  Mo  Mo224  1  0.19858122  0.80488001  0.80536844  1
  Mo  Mo225  1  0.09234076  0.70352763  0.50168470  1
  Mo  Mo226  1  0.40240954  0.00837410  0.00333378  1
  Mo  Mo227  1  0.50664320  0.70053199  0.29285580  1
  Mo  Mo228  1  0.79905508  0.80140796  0.80510228  1
  Mo  Mo229  1  0.79431407  0.41033708  0.40453193  1
  Mo  Mo230  1  0.30447780  0.09997818  0.50461697  1
  Mo  Mo231  1  0.79707759  0.59863149  0.39842031  1
  Mo  Mo232  1  0.41440908  0.39464755  0.39958211  1
  Mo  Mo233  1  0.60667688  -0.00008323  0.19992773  1
  Mo  Mo234  1  0.59307248  0.59625067  0.59565645  1
  Mo  Mo235  1  0.68974858  0.30130587  0.11335840  1
  Mo  Mo236  1  -0.00270429  0.00741568  0.80333115  1
  Mo  Mo237  1  0.89873003  0.90459217  0.90301606  1
  Mo  Mo238  1  0.40004096  0.79572323  0.79616227  1
  Mo  Mo239  1  0.70564316  0.70504597  0.90212174  1
  Mo  Mo240  1  0.10153555  0.50244626  0.09783230  1
  Mo  Mo241  1  0.69668825  0.50147478  0.68588926  1
  Mo  Mo242  1  0.80227171  0.19823896  0.00049744  1
  Mo  Mo243  1  0.60165204  0.59929961  0.20674701  1
  Mo  Mo244  1  0.11174927  0.10330466  0.49976554  1
  Mo  Mo245  1  0.00295407  0.57871764  -0.01654863  1
  Mo  Mo246  1  0.89161546  0.49518125  0.49651529  1
  Mo  Mo247  1  0.09613481  0.50285876  0.30091656  1
  Mo  Mo248  1  0.29765178  0.30692073  0.10483236  1
  Mo  Mo249  1  0.80483114  0.19885370  0.79923862  1
