# generated using pymatgen
data_HfZrTaTiMo
_symmetry_space_group_name_H-M   'P 1'
_cell_length_a   16.88752655
_cell_length_b   16.88345044
_cell_length_c   16.89154202
_cell_angle_alpha   89.97293324
_cell_angle_beta   90.02842375
_cell_angle_gamma   89.98904419
_symmetry_Int_Tables_number   1
_chemical_formula_structural   HfZrTaTiMo
_chemical_formula_sum   'Hf50 Zr50 Ta50 Ti50 Mo50'
_cell_volume   4816.11046916
_cell_formula_units_Z   50
loop_
 _symmetry_equiv_pos_site_id
 _symmetry_equiv_pos_as_xyz
  1  'x, y, z'
loop_
 _atom_site_type_symbol
 _atom_site_label
 _atom_site_symmetry_multiplicity
 _atom_site_fract_x
 _atom_site_fract_y
 _atom_site_fract_z
 _atom_site_occupancy
  Hf  Hf0  1  0.09453366  0.49347202  0.69831923  1
  Hf  Hf1  1  0.20661632  0.38623647  0.00177082  1
  Hf  Hf2  1  0.20445512  0.00415571  -0.00492530  1
  Hf  Hf3  1  -0.01553465  0.20167446  0.39165924  1
  Hf  Hf4  1  0.20819108  -0.00163422  0.40149060  1
  Hf  Hf5  1  -0.00437979  0.60531158  0.00101162  1
  Hf  Hf6  1  0.29765604  0.50263850  0.89653299  1
  Hf  Hf7  1  0.40077582  0.80017747  0.39559090  1
  Hf  Hf8  1  0.31234778  0.89615629  0.09835733  1
  Hf  Hf9  1  0.69769717  0.30768578  0.68950658  1
  Hf  Hf10  1  -0.00916851  0.60290413  0.18812853  1
  Hf  Hf11  1  0.30552873  0.90017294  0.50979647  1
  Hf  Hf12  1  0.40812038  0.20032900  0.41301543  1
  Hf  Hf13  1  0.30203723  0.50264764  0.10140768  1
  Hf  Hf14  1  0.60431962  0.59820176  -0.00630153  1
  Hf  Hf15  1  0.59164635  0.40890470  0.40660774  1
  Hf  Hf16  1  0.80628643  0.00391648  -0.00504784  1
  Hf  Hf17  1  0.10485917  0.70104957  0.50487024  1
  Hf  Hf18  1  0.20779147  0.40215737  0.39880146  1
  Hf  Hf19  1  0.70382313  0.12332302  0.48901321  1
  Hf  Hf20  1  0.50349776  0.69588613  0.49450543  1
  Hf  Hf21  1  0.30037140  0.69948681  0.29501641  1
  Hf  Hf22  1  -0.00105555  0.00666004  0.60798795  1
  Hf  Hf23  1  0.90636920  0.89284709  0.89261136  1
  Hf  Hf24  1  0.09362763  0.28973765  0.90698603  1
  Hf  Hf25  1  0.89524924  0.49900490  0.69815506  1
  Hf  Hf26  1  0.70663448  0.49682842  0.69249530  1
  Hf  Hf27  1  0.89137557  0.70732473  0.89498680  1
  Hf  Hf28  1  0.79193422  0.80072324  0.20205114  1
  Hf  Hf29  1  0.59405758  0.20353156  -0.00916433  1
  Hf  Hf30  1  0.70265832  0.30795719  0.50460183  1
  Hf  Hf31  1  0.00779666  0.19979561  0.60587968  1
  Hf  Hf32  1  0.80313907  0.00499785  0.39719974  1
  Hf  Hf33  1  0.30620950  0.09843110  0.30386303  1
  Hf  Hf34  1  0.68970493  0.09978290  0.70177399  1
  Hf  Hf35  1  0.70696022  0.50772831  0.50101654  1
  Hf  Hf36  1  0.40965405  0.60019579  0.20105975  1
  Hf  Hf37  1  0.09367766  0.49592255  0.89909069  1
  Hf  Hf38  1  -0.00820544  0.19218897  0.79921513  1
  Hf  Hf39  1  0.59231009  0.59358297  0.60212677  1
  Hf  Hf40  1  0.58501423  0.20030654  0.59304022  1
  Hf  Hf41  1  0.81286314  0.40283386  0.39712481  1
  Hf  Hf42  1  0.40324646  0.79654076  0.60802610  1
  Hf  Hf43  1  0.70260598  0.29922217  0.30979227  1
  Hf  Hf44  1  -0.00562429  0.59723590  0.40329140  1
  Hf  Hf45  1  0.09166029  0.90166728  0.30366037  1
  Hf  Hf46  1  0.50590349  0.71252324  0.09085083  1
  Hf  Hf47  1  0.40287209  0.39590730  0.00052612  1
  Hf  Hf48  1  0.20231237  0.00256441  0.60891189  1
  Hf  Hf49  1  0.30707274  0.70850006  0.09691878  1
  Zr  Zr50  1  0.09356302  0.71566466  0.87574687  1
  Zr  Zr51  1  0.79688446  0.60915370  0.19435623  1
  Zr  Zr52  1  0.40369159  0.59378832  0.39953439  1
  Zr  Zr53  1  0.79746668  0.20481836  0.80628351  1
  Zr  Zr54  1  0.47990780  0.10267355  0.69594984  1
  Zr  Zr55  1  0.89260751  0.70310799  0.70226009  1
  Zr  Zr56  1  0.50116703  0.90251327  0.30440136  1
  Zr  Zr57  1  0.79522486  0.59451317  0.00032959  1
  Zr  Zr58  1  0.89740915  0.31063151  0.69323923  1
  Zr  Zr59  1  0.10451801  0.10424062  0.30431625  1
  Zr  Zr60  1  0.09213076  0.48801680  0.10032321  1
  Zr  Zr61  1  0.69080619  0.09630781  0.89205757  1
  Zr  Zr62  1  0.09676744  0.49697991  0.29533028  1
  Zr  Zr63  1  0.41177939  0.59524902  -0.00281108  1
  Zr  Zr64  1  0.70158071  0.30371744  0.10361964  1
  Zr  Zr65  1  0.50071696  0.30071723  0.10744963  1
  Zr  Zr66  1  0.20816989  0.39620649  0.20025745  1
  Zr  Zr67  1  0.09536256  0.89368984  0.50374739  1
  Zr  Zr68  1  0.09597863  0.70225894  0.30438704  1
  Zr  Zr69  1  0.59207919  -0.00265881  -0.00640052  1
  Zr  Zr70  1  0.82107618  0.01252111  0.79549471  1
  Zr  Zr71  1  0.18769178  0.60969368  0.00267424  1
  Zr  Zr72  1  0.60562818  0.00909302  0.40254692  1
  Zr  Zr73  1  0.70201937  0.10353558  0.09370853  1
  Zr  Zr74  1  0.10445489  0.88575798  0.71064989  1
  Zr  Zr75  1  0.30720769  0.10359139  0.10968966  1
  Zr  Zr76  1  0.19415818  0.80350587  -0.00333681  1
  Zr  Zr77  1  0.70483808  0.89646777  0.70894077  1
  Zr  Zr78  1  0.60194385  0.79960491  0.59710274  1
  Zr  Zr79  1  0.19763115  0.38863409  0.60622286  1
  Zr  Zr80  1  -0.00958322  0.19883669  0.19592979  1
  Zr  Zr81  1  0.59732427  0.40388289  0.79915656  1
  Zr  Zr82  1  0.59533132  0.00021033  0.59591271  1
  Zr  Zr83  1  0.20711549  0.80207930  0.39631496  1
  Zr  Zr84  1  0.19825300  0.38812487  0.80020684  1
  Zr  Zr85  1  0.60368442  0.19215395  0.21245825  1
  Zr  Zr86  1  0.70132705  0.50607267  0.29678320  1
  Zr  Zr87  1  -0.00251060  0.40000085  0.40141600  1
  Zr  Zr88  1  0.09705752  0.90420747  0.09907003  1
  Zr  Zr89  1  -0.00561494  0.79572043  0.19709089  1
  Zr  Zr90  1  0.40300192  0.00753762  -0.01030516  1
  Zr  Zr91  1  0.39529618  0.40621825  0.39962367  1
  Zr  Zr92  1  0.60611568  -0.00288300  0.20077073  1
  Zr  Zr93  1  0.80204275  0.00217136  0.59494660  1
  Zr  Zr94  1  0.79957080  0.00008332  0.20257927  1
  Zr  Zr95  1  0.29987042  0.28306886  0.29818359  1
  Zr  Zr96  1  0.10601186  0.29186140  0.49510726  1
  Zr  Zr97  1  0.89123223  0.69902576  0.50619475  1
  Zr  Zr98  1  0.30678792  0.70476023  0.89495874  1
  Zr  Zr99  1  0.81188225  0.19263515  0.21482170  1
  Ta  Ta100  1  -0.00257193  0.00536372  -0.00362583  1
  Ta  Ta101  1  0.59290600  0.20977127  0.79665167  1
  Ta  Ta102  1  0.48973370  0.30669313  0.69553251  1
  Ta  Ta103  1  0.40290216  0.59605192  0.60596120  1
  Ta  Ta104  1  0.29824740  0.69468294  0.50876180  1
  Ta  Ta105  1  0.30924447  0.09967425  0.51304657  1
  Ta  Ta106  1  -0.00150395  0.39165066  0.80067169  1
  Ta  Ta107  1  0.20147964  -0.00494879  0.20189371  1
  Ta  Ta108  1  0.90134934  0.89035873  0.69743221  1
  Ta  Ta109  1  0.49576917  0.10198380  0.30697528  1
  Ta  Ta110  1  0.79979539  0.39909040  -0.00006148  1
  Ta  Ta111  1  0.10030568  0.10026145  0.09570840  1
  Ta  Ta112  1  0.70379166  0.69900661  0.69989805  1
  Ta  Ta113  1  0.49322771  0.31227303  0.51156776  1
  Ta  Ta114  1  0.69304582  0.49107695  0.10589569  1
  Ta  Ta115  1  0.50369696  0.69942318  0.70707440  1
  Ta  Ta116  1  0.40544918  0.59646324  0.79241618  1
  Ta  Ta117  1  -0.00906487  0.00642808  0.19657406  1
  Ta  Ta118  1  0.49428008  0.90548968  0.49922372  1
  Ta  Ta119  1  0.51127360  0.50473048  0.29622450  1
  Ta  Ta120  1  0.79040413  0.59798792  0.80549014  1
  Ta  Ta121  1  0.20443170  0.19661681  -0.00051047  1
  Ta  Ta122  1  0.49330515  0.29998813  0.89260570  1
  Ta  Ta123  1  0.10119155  0.50086832  0.50746442  1
  Ta  Ta124  1  0.90379715  0.89486608  0.30830237  1
  Ta  Ta125  1  0.40362297  0.40443150  0.20882032  1
  Ta  Ta126  1  0.30160565  0.89748027  0.88928573  1
  Ta  Ta127  1  0.29865709  0.50179268  0.51326949  1
  Ta  Ta128  1  0.09383078  0.29334033  0.09903988  1
  Ta  Ta129  1  0.89949183  0.30164233  0.90622083  1
  Ta  Ta130  1  0.19665520  0.60547455  0.19786375  1
  Ta  Ta131  1  0.30642391  0.28573718  0.70343284  1
  Ta  Ta132  1  0.00300031  0.60000751  0.60339833  1
  Ta  Ta133  1  0.89769222  0.89913652  0.09364122  1
  Ta  Ta134  1  0.60555177  0.79609183  0.20419126  1
  Ta  Ta135  1  0.39795301  0.40204739  0.79649295  1
  Ta  Ta136  1  0.50427578  0.70723877  0.89454975  1
  Ta  Ta137  1  0.20659067  0.59166946  0.40068488  1
  Ta  Ta138  1  0.30113732  0.49858603  0.69858578  1
  Ta  Ta139  1  0.60105325  0.60069998  0.80139674  1
  Ta  Ta140  1  0.39952993  0.19761206  -0.00673242  1
  Ta  Ta141  1  0.89036035  0.71565457  0.08471383  1
  Ta  Ta142  1  0.90116448  0.88952840  0.50186768  1
  Ta  Ta143  1  0.89978442  0.49556094  0.89541126  1
  Ta  Ta144  1  0.09900426  0.29814560  0.29419994  1
  Ta  Ta145  1  0.50140769  0.89352580  0.09610883  1
  Ta  Ta146  1  0.19934197  0.60262572  0.79002371  1
  Ta  Ta147  1  0.79536899  0.79808914  0.40003551  1
  Ta  Ta148  1  0.10098755  0.09717072  0.89908272  1
  Ta  Ta149  1  0.10886983  0.09613970  0.71757775  1
  Ti  Ti150  1  0.80812173  0.19506130  0.60679999  1
  Ti  Ti151  1  0.69637217  0.89161058  0.08618993  1
  Ti  Ti152  1  0.69743495  0.71332550  0.08319385  1
  Ti  Ti153  1  0.19442137  0.19723635  0.19256879  1
  Ti  Ti154  1  -0.01583126  0.39615272  0.00991375  1
  Ti  Ti155  1  0.89138607  0.70055498  0.30892836  1
  Ti  Ti156  1  0.50304465  0.30031833  0.30237130  1
  Ti  Ti157  1  0.29754713  0.89810659  0.70495633  1
  Ti  Ti158  1  0.89934698  0.50230713  0.29008493  1
  Ti  Ti159  1  0.70001262  0.89600224  0.30778127  1
  Ti  Ti160  1  0.70611992  0.69175362  0.49732420  1
  Ti  Ti161  1  0.10953374  0.10518409  0.49676738  1
  Ti  Ti162  1  -0.00439155  0.00324303  0.40572765  1
  Ti  Ti163  1  0.69861660  0.89739223  0.89430593  1
  Ti  Ti164  1  0.30269695  0.29416295  0.51109613  1
  Ti  Ti165  1  0.20180273  0.19392746  0.61165417  1
  Ti  Ti166  1  0.70412079  0.89081602  0.49934087  1
  Ti  Ti167  1  -0.00950198  0.19120188  0.00439744  1
  Ti  Ti168  1  0.50082834  0.49778053  0.89563562  1
  Ti  Ti169  1  0.30531367  0.28893052  0.89355928  1
  Ti  Ti170  1  0.89676692  0.50259826  0.51386716  1
  Ti  Ti171  1  0.89967602  0.10541593  0.50047231  1
  Ti  Ti172  1  0.39281388  -0.00112971  0.79500713  1
  Ti  Ti173  1  0.40228513  -0.00525042  0.20613152  1
  Ti  Ti174  1  0.49332943  0.10154841  0.10913007  1
  Ti  Ti175  1  0.60391064  0.39563962  -0.00668218  1
  Ti  Ti176  1  0.89731900  0.30201094  0.50826652  1
  Ti  Ti177  1  0.49671815  0.89375039  0.89569939  1
  Ti  Ti178  1  0.00264805  0.79223606  0.60640205  1
  Ti  Ti179  1  0.51605169  0.49229143  0.10944954  1
  Ti  Ti180  1  0.49511660  0.10402956  0.88235991  1
  Ti  Ti181  1  0.30964456  0.28949347  0.10603594  1
  Ti  Ti182  1  0.19852743  0.80293506  0.19872481  1
  Ti  Ti183  1  0.60426118  0.61450802  0.20199937  1
  Ti  Ti184  1  0.49874331  0.90445136  0.70449576  1
  Ti  Ti185  1  -0.00142929  0.60017348  0.79495592  1
  Ti  Ti186  1  0.10020351  0.90639763  0.88657322  1
  Ti  Ti187  1  0.29596994  0.70032921  0.69932439  1
  Ti  Ti188  1  0.70091765  0.49406836  0.90039467  1
  Ti  Ti189  1  0.79765657  0.39635576  0.81161409  1
  Ti  Ti190  1  0.69976789  0.71440387  0.89600492  1
  Ti  Ti191  1  0.29454244  0.10526761  0.87979519  1
  Ti  Ti192  1  0.41040026  0.80069791  0.20804274  1
  Ti  Ti193  1  0.80717753  0.20285463  -0.00171017  1
  Ti  Ti194  1  0.81627759  0.39948927  0.18964053  1
  Ti  Ti195  1  0.59876155  0.80090427  0.79880345  1
  Ti  Ti196  1  0.19924888  0.60145796  0.60600187  1
  Ti  Ti197  1  0.40178391  0.79876341  0.79534429  1
  Ti  Ti198  1  0.60437856  0.79096724  0.39472553  1
  Ti  Ti199  1  0.00537346  0.80128739  -0.00016477  1
  Mo  Mo200  1  0.19886878  0.19733983  0.80447173  1
  Mo  Mo201  1  0.89926405  0.29871302  0.09423301  1
  Mo  Mo202  1  0.60298429  0.60417989  0.39914364  1
  Mo  Mo203  1  -0.01125997  0.79971965  0.40355625  1
  Mo  Mo204  1  0.51124699  0.69853806  0.29703456  1
  Mo  Mo205  1  0.81395188  0.20585661  0.40319514  1
  Mo  Mo206  1  0.20890665  0.79095558  0.60644791  1
  Mo  Mo207  1  0.59731876  0.40171074  0.20703575  1
  Mo  Mo208  1  0.40844618  0.80792557  -0.01189856  1
  Mo  Mo209  1  0.58805320  0.40520679  0.59904878  1
  Mo  Mo210  1  0.89160066  0.49682441  0.09302948  1
  Mo  Mo211  1  0.90483108  0.08448171  0.30851588  1
  Mo  Mo212  1  0.90666474  0.09856436  0.69462896  1
  Mo  Mo213  1  0.00718458  -0.00048271  0.80262449  1
  Mo  Mo214  1  0.79375401  0.80082690  0.59491424  1
  Mo  Mo215  1  0.69897933  0.70065008  0.31180887  1
  Mo  Mo216  1  0.49106016  0.09561922  0.49944934  1
  Mo  Mo217  1  0.30284981  0.90172015  0.28942490  1
  Mo  Mo218  1  0.30212056  0.50856346  0.29412636  1
  Mo  Mo219  1  0.79737940  0.60169585  0.60413279  1
  Mo  Mo220  1  0.90806694  0.10541914  0.90424083  1
  Mo  Mo221  1  0.49508324  0.50128457  0.70194801  1
  Mo  Mo222  1  0.39793010  0.20410151  0.80120943  1
  Mo  Mo223  1  0.20560585  -0.00236424  0.80363353  1
  Mo  Mo224  1  0.39657329  -0.00612185  0.60538781  1
  Mo  Mo225  1  0.58649030  0.20979790  0.40309875  1
  Mo  Mo226  1  0.69926091  0.10862088  0.31171029  1
  Mo  Mo227  1  0.49525469  0.49998752  0.50566060  1
  Mo  Mo228  1  0.79244274  0.79913117  0.79988312  1
  Mo  Mo229  1  0.10202680  0.69275317  0.69515655  1
  Mo  Mo230  1  0.90259852  0.09625855  0.09295181  1
  Mo  Mo231  1  0.58242865  -0.00686536  0.80026239  1
  Mo  Mo232  1  -0.00724172  0.80276337  0.79372577  1
  Mo  Mo233  1  0.90226385  0.31592727  0.29300240  1
  Mo  Mo234  1  0.09516289  0.70554302  0.10479843  1
  Mo  Mo235  1  0.40230015  0.00249498  0.40691332  1
  Mo  Mo236  1  0.40934101  0.19916779  0.20373108  1
  Mo  Mo237  1  0.20774886  0.19510865  0.41294444  1
  Mo  Mo238  1  0.80588220  0.40173091  0.59085635  1
  Mo  Mo239  1  0.69941003  0.30399251  0.90255177  1
  Mo  Mo240  1  0.10316550  0.29083507  0.70733534  1
  Mo  Mo241  1  0.29547256  0.09791361  0.70393886  1
  Mo  Mo242  1  -0.00807856  0.39334786  0.19475474  1
  Mo  Mo243  1  0.21296602  0.79887050  0.79463306  1
  Mo  Mo244  1  0.00138182  0.40327704  0.59902423  1
  Mo  Mo245  1  0.80510277  0.60170401  0.39797368  1
  Mo  Mo246  1  0.39275433  0.40167602  0.60477743  1
  Mo  Mo247  1  0.60252676  0.80418871  -0.00869677  1
  Mo  Mo248  1  0.39342758  0.20335176  0.60155769  1
  Mo  Mo249  1  0.79260740  0.81003973  -0.00402592  1
