# generated using pymatgen
data_HfZrTaTiMo
_symmetry_space_group_name_H-M   'P 1'
_cell_length_a   16.88738653
_cell_length_b   16.88431271
_cell_length_c   16.89307596
_cell_angle_alpha   90.00250549
_cell_angle_beta   90.02327984
_cell_angle_gamma   89.99160473
_symmetry_Int_Tables_number   1
_chemical_formula_structural   HfZrTaTiMo
_chemical_formula_sum   'Hf50 Zr50 Ta50 Ti50 Mo50'
_cell_volume   4816.75464484
_cell_formula_units_Z   50
loop_
 _symmetry_equiv_pos_site_id
 _symmetry_equiv_pos_as_xyz
  1  'x, y, z'
loop_
 _atom_site_type_symbol
 _atom_site_label
 _atom_site_symmetry_multiplicity
 _atom_site_fract_x
 _atom_site_fract_y
 _atom_site_fract_z
 _atom_site_occupancy
  Hf  Hf0  1  0.21402745  0.59798484  -0.01334528  1
  Hf  Hf1  1  0.38726095  0.19862695  0.79315174  1
  Hf  Hf2  1  0.40066400  0.79658674  0.80397358  1
  Hf  Hf3  1  0.60589010  0.00402037  -0.00778569  1
  Hf  Hf4  1  0.79810260  0.60276534  0.20405500  1
  Hf  Hf5  1  0.40496685  0.40115409  0.19738133  1
  Hf  Hf6  1  0.10476587  0.49233166  0.69635683  1
  Hf  Hf7  1  0.79468085  0.79701692  -0.00750293  1
  Hf  Hf8  1  0.19804925  0.00140345  0.79338706  1
  Hf  Hf9  1  0.19744074  0.80758163  0.79760214  1
  Hf  Hf10  1  0.09489774  0.89740743  0.09540791  1
  Hf  Hf11  1  0.90674765  0.29994401  0.89183604  1
  Hf  Hf12  1  0.10399192  0.48621005  0.89297463  1
  Hf  Hf13  1  0.39162264  0.60044247  0.81254459  1
  Hf  Hf14  1  0.30954275  0.30694063  0.30808359  1
  Hf  Hf15  1  0.79881298  0.80067424  0.59532988  1
  Hf  Hf16  1  -0.00789974  0.58787108  0.78768818  1
  Hf  Hf17  1  0.79505482  0.19132664  -0.00850293  1
  Hf  Hf18  1  0.69414674  0.10057243  0.10080739  1
  Hf  Hf19  1  0.20737689  0.59980653  0.80342582  1
  Hf  Hf20  1  0.18918764  -0.00117211  0.40498004  1
  Hf  Hf21  1  0.30528588  0.29675830  0.49800924  1
  Hf  Hf22  1  0.40640815  0.80095609  0.20157864  1
  Hf  Hf23  1  0.59253207  0.18494886  0.60743297  1
  Hf  Hf24  1  0.90102564  0.70947555  0.70417671  1
  Hf  Hf25  1  0.79084274  0.59619140  0.79706532  1
  Hf  Hf26  1  0.69373323  0.30390018  0.70788590  1
  Hf  Hf27  1  0.09885002  0.70550825  0.69015935  1
  Hf  Hf28  1  0.69172089  0.49836398  0.50329639  1
  Hf  Hf29  1  0.80813952  0.40624262  0.60542845  1
  Hf  Hf30  1  0.42117322  0.80629090  0.59889291  1
  Hf  Hf31  1  0.49060650  0.30971635  0.89929255  1
  Hf  Hf32  1  0.69599791  0.69991214  0.09976769  1
  Hf  Hf33  1  0.30292090  0.90233645  0.30609146  1
  Hf  Hf34  1  0.78058801  0.22140660  0.40233345  1
  Hf  Hf35  1  0.90561625  0.30098904  0.30498341  1
  Hf  Hf36  1  0.69728920  0.50799332  0.30253224  1
  Hf  Hf37  1  0.80712526  0.40510636  0.40872959  1
  Hf  Hf38  1  0.40377571  0.60256898  0.20487153  1
  Hf  Hf39  1  0.49755864  0.29316284  0.49523689  1
  Hf  Hf40  1  -0.01203063  -0.00516140  0.20583387  1
  Hf  Hf41  1  0.50212036  0.30620162  0.70401659  1
  Hf  Hf42  1  0.69886760  0.90330886  0.10197370  1
  Hf  Hf43  1  0.38737655  0.20334577  0.00813214  1
  Hf  Hf44  1  0.31011967  0.90786607  0.90782862  1
  Hf  Hf45  1  0.00916666  -0.00205976  0.79646548  1
  Hf  Hf46  1  0.79468573  0.39837073  0.20241184  1
  Hf  Hf47  1  0.80426848  0.80524405  0.20619201  1
  Hf  Hf48  1  0.19211005  0.79884186  0.21508488  1
  Hf  Hf49  1  0.50011928  0.49744030  0.31201388  1
  Zr  Zr50  1  0.19689769  0.00069822  0.20153913  1
  Zr  Zr51  1  0.02039885  0.38786994  0.00733527  1
  Zr  Zr52  1  0.59144362  -0.00237146  0.40211481  1
  Zr  Zr53  1  0.00328014  -0.00567850  0.59317668  1
  Zr  Zr54  1  0.48761568  0.09696884  0.90673332  1
  Zr  Zr55  1  0.59825376  0.39886310  0.19728266  1
  Zr  Zr56  1  0.40695858  0.60500653  0.41152674  1
  Zr  Zr57  1  0.09654791  0.11498682  0.69623900  1
  Zr  Zr58  1  0.59656451  0.40406821  0.00260549  1
  Zr  Zr59  1  0.70386074  0.09718521  0.49715255  1
  Zr  Zr60  1  0.90142120  0.49069452  0.89948988  1
  Zr  Zr61  1  0.91092078  0.09762415  0.89487298  1
  Zr  Zr62  1  0.49315780  0.90198427  0.90654375  1
  Zr  Zr63  1  -0.00258258  0.40139609  0.59615642  1
  Zr  Zr64  1  0.41643754  0.80222340  0.40621155  1
  Zr  Zr65  1  0.89195615  0.09770299  0.32212373  1
  Zr  Zr66  1  0.08993931  0.10233141  0.30744939  1
  Zr  Zr67  1  0.00772492  0.59777347  0.20466332  1
  Zr  Zr68  1  0.08972198  0.09371285  0.08956341  1
  Zr  Zr69  1  0.39730044  0.39893684  0.59912543  1
  Zr  Zr70  1  0.19510113  0.20473874  0.40074150  1
  Zr  Zr71  1  0.30025125  0.69781716  0.68743678  1
  Zr  Zr72  1  0.90235847  0.70040092  0.09568828  1
  Zr  Zr73  1  0.59961262  0.18786936  0.80820998  1
  Zr  Zr74  1  0.49933992  0.49770287  0.70767745  1
  Zr  Zr75  1  0.29817607  0.89928420  0.49946421  1
  Zr  Zr76  1  0.89834786  0.29913938  0.09132290  1
  Zr  Zr77  1  0.39399026  0.19696689  0.19484879  1
  Zr  Zr78  1  0.80323368  -0.00621608  0.59799596  1
  Zr  Zr79  1  0.29725152  0.09488769  0.90260468  1
  Zr  Zr80  1  0.29078109  0.70396716  0.50378238  1
  Zr  Zr81  1  0.50371534  0.69465860  0.70042562  1
  Zr  Zr82  1  0.80252287  0.19567610  0.19788757  1
  Zr  Zr83  1  0.08532558  0.70317703  0.89078759  1
  Zr  Zr84  1  0.59237817  -0.01303208  0.60546386  1
  Zr  Zr85  1  0.30412619  0.70147348  0.10245597  1
  Zr  Zr86  1  0.10283107  0.69650786  0.10193673  1
  Zr  Zr87  1  0.00279484  0.20335155  0.19442364  1
  Zr  Zr88  1  0.59844747  0.60623323  0.59552912  1
  Zr  Zr89  1  0.20158463  0.20711478  0.19493237  1
  Zr  Zr90  1  0.61092949  0.38401614  0.39634929  1
  Zr  Zr91  1  0.80159143  0.59936152  0.60006774  1
  Zr  Zr92  1  0.59745490  -0.00168529  0.79282432  1
  Zr  Zr93  1  0.00039879  0.59252914  0.00043999  1
  Zr  Zr94  1  0.20533283  0.79763269  -0.00807723  1
  Zr  Zr95  1  0.80382608  0.20643509  0.60270902  1
  Zr  Zr96  1  0.00990079  0.40346055  0.20275006  1
  Zr  Zr97  1  0.90346936  0.69911014  0.30934650  1
  Zr  Zr98  1  0.19301131  0.21340925  -0.00374735  1
  Zr  Zr99  1  0.68872893  0.10206449  0.29809585  1
  Ta  Ta100  1  0.71142231  0.09629702  0.70455356  1
  Ta  Ta101  1  0.90358225  0.10467375  0.69847703  1
  Ta  Ta102  1  0.50480948  0.10193928  0.10205434  1
  Ta  Ta103  1  0.09930792  0.70110594  0.49920193  1
  Ta  Ta104  1  0.29787352  0.89955369  0.69078137  1
  Ta  Ta105  1  0.69606447  0.30001002  0.89947443  1
  Ta  Ta106  1  0.40177759  -0.00040207  0.60035304  1
  Ta  Ta107  1  0.00823977  0.40404476  0.40487832  1
  Ta  Ta108  1  0.00565459  0.80346462  0.39836234  1
  Ta  Ta109  1  0.70081120  0.90194080  0.30328330  1
  Ta  Ta110  1  -0.00289947  0.80482372  0.59403471  1
  Ta  Ta111  1  0.20149419  0.40410180  0.20548931  1
  Ta  Ta112  1  0.49789635  0.49697809  0.89786501  1
  Ta  Ta113  1  0.89419042  0.70460722  0.89030604  1
  Ta  Ta114  1  0.30574997  0.90404105  0.09868542  1
  Ta  Ta115  1  0.90625202  0.10640683  0.49821557  1
  Ta  Ta116  1  0.40504545  0.60514081  -0.00574759  1
  Ta  Ta117  1  0.59769453  0.60418767  -0.00566658  1
  Ta  Ta118  1  0.10503343  0.50557357  0.49845697  1
  Ta  Ta119  1  0.19956485  0.00323248  0.60046914  1
  Ta  Ta120  1  0.49066362  0.09760680  0.49629442  1
  Ta  Ta121  1  0.60149596  0.80198749  0.20322657  1
  Ta  Ta122  1  0.59682183  0.60495630  0.19784184  1
  Ta  Ta123  1  0.50379725  0.90218354  0.30010735  1
  Ta  Ta124  1  0.90007278  0.89424608  0.89343478  1
  Ta  Ta125  1  0.79115946  0.59754483  -0.01003044  1
  Ta  Ta126  1  0.30356469  0.50134115  0.09782419  1
  Ta  Ta127  1  0.30251372  0.09801445  0.49913966  1
  Ta  Ta128  1  0.90228851  0.90239775  0.09075664  1
  Ta  Ta129  1  0.29985161  0.49611716  0.69616830  1
  Ta  Ta130  1  0.90157107  0.89645506  0.70772226  1
  Ta  Ta131  1  0.30530703  0.09272282  0.30545162  1
  Ta  Ta132  1  0.69192727  0.29211230  0.09502878  1
  Ta  Ta133  1  -0.00530956  0.59783554  0.59336244  1
  Ta  Ta134  1  0.20634004  0.38796959  0.80126235  1
  Ta  Ta135  1  0.10733407  0.50470245  0.30771083  1
  Ta  Ta136  1  0.00065117  0.80697623  0.21245629  1
  Ta  Ta137  1  0.69863100  0.50545504  0.09617284  1
  Ta  Ta138  1  0.79860273  0.60473935  0.40687635  1
  Ta  Ta139  1  0.80350951  0.00002684  -0.00458316  1
  Ta  Ta140  1  0.70543267  0.89790368  0.89271220  1
  Ta  Ta141  1  0.79024359  0.40062138  -0.00273782  1
  Ta  Ta142  1  0.59860221  0.79605254  -0.00704859  1
  Ta  Ta143  1  0.51326562  0.70443502  0.30342539  1
  Ta  Ta144  1  0.19707048  0.40131927  0.40257528  1
  Ta  Ta145  1  0.88994890  0.49812392  0.09635518  1
  Ta  Ta146  1  0.50525873  0.28466088  0.30096955  1
  Ta  Ta147  1  0.29876272  0.50072823  0.50053870  1
  Ta  Ta148  1  0.80133491  0.40111794  0.79673241  1
  Ta  Ta149  1  0.59969825  0.79987234  0.80168405  1
  Ti  Ti150  1  0.19811477  0.39277667  0.59484003  1
  Ti  Ti151  1  0.30254379  0.49890434  0.30950676  1
  Ti  Ti152  1  -0.00086304  -0.01101002  0.40259334  1
  Ti  Ti153  1  0.59155480  -0.00136677  0.20200882  1
  Ti  Ti154  1  0.00103963  0.59776838  0.40644189  1
  Ti  Ti155  1  0.69711786  0.70971082  0.70363879  1
  Ti  Ti156  1  0.20521763  0.59859292  0.21217243  1
  Ti  Ti157  1  0.50026768  0.49445031  0.50200479  1
  Ti  Ti158  1  0.90860514  0.29492785  0.50232227  1
  Ti  Ti159  1  0.29530600  0.30037923  0.69845103  1
  Ti  Ti160  1  0.09285423  0.10987374  0.50531909  1
  Ti  Ti161  1  0.20125443  0.20243765  0.59712410  1
  Ti  Ti162  1  0.60250783  0.61172447  0.40174775  1
  Ti  Ti163  1  0.91074789  0.29549873  0.70711497  1
  Ti  Ti164  1  0.90406932  0.70274036  0.49742240  1
  Ti  Ti165  1  0.49892805  0.90213547  0.09765148  1
  Ti  Ti166  1  -0.00529615  0.80091836  -0.00531853  1
  Ti  Ti167  1  0.89415464  0.90013596  0.48812057  1
  Ti  Ti168  1  0.12128372  0.49768703  0.09942664  1
  Ti  Ti169  1  0.09206772  0.90371164  0.90457669  1
  Ti  Ti170  1  0.40440853  0.00445878  0.20142220  1
  Ti  Ti171  1  0.40463844  0.18736346  0.39292903  1
  Ti  Ti172  1  0.79700674  0.79942587  0.39614614  1
  Ti  Ti173  1  0.31239631  0.47489663  0.90778286  1
  Ti  Ti174  1  0.70535036  0.89228921  0.70588603  1
  Ti  Ti175  1  0.19802237  0.20254547  0.80385272  1
  Ti  Ti176  1  0.39485829  0.18752556  0.60916318  1
  Ti  Ti177  1  0.29523068  0.32435758  0.08882234  1
  Ti  Ti178  1  0.50619670  0.29024391  0.09652569  1
  Ti  Ti179  1  0.49613453  0.50758464  0.09312796  1
  Ti  Ti180  1  0.80092727  0.00066476  0.80191304  1
  Ti  Ti181  1  0.50241261  0.70552120  0.09584407  1
  Ti  Ti182  1  0.10574439  0.88831192  0.50132625  1
  Ti  Ti183  1  0.30043909  0.70353821  0.30975904  1
  Ti  Ti184  1  0.80009099  0.19796741  0.80077385  1
  Ti  Ti185  1  0.19617376  0.00320331  -0.00127081  1
  Ti  Ti186  1  0.90319133  0.50311540  0.30516701  1
  Ti  Ti187  1  0.68550434  0.49063815  0.70234579  1
  Ti  Ti188  1  0.19890643  0.59480197  0.59679155  1
  Ti  Ti189  1  0.60222476  0.60738886  0.81173246  1
  Ti  Ti190  1  0.19838491  0.60445778  0.39754777  1
  Ti  Ti191  1  0.69263298  0.71077185  0.49434375  1
  Ti  Ti192  1  0.39912989  0.00272757  0.77665656  1
  Ti  Ti193  1  0.01138725  0.21667546  0.40833892  1
  Ti  Ti194  1  0.69458212  0.89268877  0.49341734  1
  Ti  Ti195  1  0.09585888  0.29846873  0.70092433  1
  Ti  Ti196  1  0.80759515  -0.00141600  0.20058139  1
  Ti  Ti197  1  0.69294647  0.49415949  0.89640618  1
  Ti  Ti198  1  0.00974483  0.19886648  -0.00935805  1
  Ti  Ti199  1  0.68609553  0.30424142  0.52084424  1
  Mo  Mo200  1  0.69591534  0.69978473  0.89608618  1
  Mo  Mo201  1  0.48955680  0.09834367  0.69548889  1
  Mo  Mo202  1  0.10058495  0.29545114  0.88287889  1
  Mo  Mo203  1  0.10004058  0.89777047  0.69010226  1
  Mo  Mo204  1  0.50444977  0.90273335  0.49957653  1
  Mo  Mo205  1  0.31049774  0.71194590  0.90495570  1
  Mo  Mo206  1  0.10495069  0.30628454  0.50519423  1
  Mo  Mo207  1  0.29341913  0.09954872  0.68958312  1
  Mo  Mo208  1  0.60749191  0.80299288  0.39775387  1
  Mo  Mo209  1  0.29880545  0.30345054  0.89734374  1
  Mo  Mo210  1  0.79470859  0.80162937  0.79692584  1
  Mo  Mo211  1  0.59865527  0.20108078  0.00145060  1
  Mo  Mo212  1  0.40399490  0.40387007  0.00812021  1
  Mo  Mo213  1  0.10986235  0.30401267  0.10787749  1
  Mo  Mo214  1  -0.00173470  0.20377077  0.59504927  1
  Mo  Mo215  1  0.89760862  0.49804818  0.69875632  1
  Mo  Mo216  1  0.70993026  0.09559802  0.89324544  1
  Mo  Mo217  1  0.29916699  0.08486120  0.10266019  1
  Mo  Mo218  1  0.60901824  0.80267941  0.60075505  1
  Mo  Mo219  1  0.10229294  0.69579027  0.31173990  1
  Mo  Mo220  1  0.38876152  0.39810587  0.79828224  1
  Mo  Mo221  1  -0.00081290  0.80748395  0.79787860  1
  Mo  Mo222  1  0.39805473  0.40231750  0.40093229  1
  Mo  Mo223  1  0.18943525  0.79652960  0.39991140  1
  Mo  Mo224  1  0.79962058  -0.01131284  0.40227425  1
  Mo  Mo225  1  0.49341717  0.09557444  0.29679021  1
  Mo  Mo226  1  0.18906794  0.80717562  0.59952662  1
  Mo  Mo227  1  0.40038575  0.00226843  0.40131368  1
  Mo  Mo228  1  0.20524410  0.40274235  -0.00192643  1
  Mo  Mo229  1  0.50476063  0.69762759  0.90314887  1
  Mo  Mo230  1  0.00371423  0.39152980  0.78991517  1
  Mo  Mo231  1  0.40020497  0.00287963  0.02358528  1
  Mo  Mo232  1  0.49710643  0.89820656  0.70459994  1
  Mo  Mo233  1  0.40873854  0.80147303  0.00868142  1
  Mo  Mo234  1  0.89497274  0.89944151  0.30970359  1
  Mo  Mo235  1  0.60550224  0.40486941  0.80603589  1
  Mo  Mo236  1  0.39747204  0.59308182  0.59397369  1
  Mo  Mo237  1  0.09337722  0.89831611  0.30660313  1
  Mo  Mo238  1  0.69585501  0.29740104  0.28771515  1
  Mo  Mo239  1  0.00348797  0.20111175  0.79554658  1
  Mo  Mo240  1  0.10153741  0.10178865  0.89780211  1
  Mo  Mo241  1  0.10217201  0.31258630  0.30394047  1
  Mo  Mo242  1  0.59686395  0.40059580  0.60228385  1
  Mo  Mo243  1  0.59225177  0.19590853  0.40097504  1
  Mo  Mo244  1  -0.00295308  -0.00809611  -0.00723631  1
  Mo  Mo245  1  0.69679831  0.70375987  0.30394954  1
  Mo  Mo246  1  0.51700204  0.70550520  0.49918149  1
  Mo  Mo247  1  0.59341831  0.19906018  0.19938927  1
  Mo  Mo248  1  0.89795755  0.08676089  0.08807604  1
  Mo  Mo249  1  0.90574403  0.50948168  0.49389136  1
