# generated using pymatgen
data_HfZrTaTiMo
_symmetry_space_group_name_H-M   'P 1'
_cell_length_a   16.87834663
_cell_length_b   16.88016284
_cell_length_c   16.88799196
_cell_angle_alpha   89.97489138
_cell_angle_beta   90.00058035
_cell_angle_gamma   90.08179621
_symmetry_Int_Tables_number   1
_chemical_formula_structural   HfZrTaTiMo
_chemical_formula_sum   'Hf50 Zr50 Ta50 Ti50 Mo50'
_cell_volume   4811.53958283
_cell_formula_units_Z   50
loop_
 _symmetry_equiv_pos_site_id
 _symmetry_equiv_pos_as_xyz
  1  'x, y, z'
loop_
 _atom_site_type_symbol
 _atom_site_label
 _atom_site_symmetry_multiplicity
 _atom_site_fract_x
 _atom_site_fract_y
 _atom_site_fract_z
 _atom_site_occupancy
  Hf  Hf0  1  0.89592844  0.89954235  0.29958583  1
  Hf  Hf1  1  0.40544871  -0.00854082  0.79220323  1
  Hf  Hf2  1  0.70246263  0.30614187  0.31233537  1
  Hf  Hf3  1  0.50264504  0.10447651  0.69488194  1
  Hf  Hf4  1  0.69897567  0.30670528  0.90201883  1
  Hf  Hf5  1  0.18975766  0.00098844  0.19646526  1
  Hf  Hf6  1  0.40632353  0.59794213  0.59435615  1
  Hf  Hf7  1  0.41006437  0.20468063  0.40628630  1
  Hf  Hf8  1  0.20410727  0.19801192  0.00215379  1
  Hf  Hf9  1  0.41010876  0.80040187  0.40901807  1
  Hf  Hf10  1  0.19675988  0.59475638  0.39735877  1
  Hf  Hf11  1  0.58217134  0.39864395  0.39744483  1
  Hf  Hf12  1  0.29187872  0.49929114  0.69384536  1
  Hf  Hf13  1  0.50410799  0.70401482  0.70546224  1
  Hf  Hf14  1  0.70540148  0.49700505  0.48977166  1
  Hf  Hf15  1  0.21045365  0.78281715  0.80300838  1
  Hf  Hf16  1  0.20172976  0.60502761  0.20022064  1
  Hf  Hf17  1  0.61290930  0.80044994  0.18924326  1
  Hf  Hf18  1  0.20421511  -0.00148255  0.59946424  1
  Hf  Hf19  1  0.40280481  0.58986655  0.39928641  1
  Hf  Hf20  1  0.29999417  0.30399002  0.28944137  1
  Hf  Hf21  1  0.30932637  0.90680183  0.10358832  1
  Hf  Hf22  1  0.80841788  0.20431702  0.40296410  1
  Hf  Hf23  1  0.89807887  0.30835623  0.89519093  1
  Hf  Hf24  1  0.79273610  0.79707541  0.79637130  1
  Hf  Hf25  1  0.79386928  0.60241186  0.79068445  1
  Hf  Hf26  1  0.31210044  0.09917937  0.29355870  1
  Hf  Hf27  1  0.19718434  0.39923208  0.79710202  1
  Hf  Hf28  1  0.49910967  0.49804684  0.90095898  1
  Hf  Hf29  1  0.49608414  0.70730856  0.89738195  1
  Hf  Hf30  1  0.90171351  0.10543424  0.10332906  1
  Hf  Hf31  1  0.89860460  0.09322461  0.69843960  1
  Hf  Hf32  1  0.90753997  0.11049672  0.29509373  1
  Hf  Hf33  1  0.39881812  0.39630819  0.40463501  1
  Hf  Hf34  1  0.31189771  0.29694889  0.88861610  1
  Hf  Hf35  1  0.09530242  0.88375765  0.90921668  1
  Hf  Hf36  1  0.48823671  0.49609103  0.71094571  1
  Hf  Hf37  1  0.20752115  0.20449053  0.40630617  1
  Hf  Hf38  1  0.49404936  0.29513445  0.70383187  1
  Hf  Hf39  1  0.70230420  0.90243642  0.30306238  1
  Hf  Hf40  1  0.79350879  0.00247536  0.19701845  1
  Hf  Hf41  1  0.60474317  0.59443187  0.20307347  1
  Hf  Hf42  1  0.69316959  0.10246969  0.69522900  1
  Hf  Hf43  1  0.79347178  0.78846273  0.60022649  1
  Hf  Hf44  1  0.69373788  0.10477365  0.09202710  1
  Hf  Hf45  1  0.59477862  0.39967527  0.19623118  1
  Hf  Hf46  1  0.30135943  0.89654576  0.50259519  1
  Hf  Hf47  1  0.09323852  0.89765163  0.30696485  1
  Hf  Hf48  1  0.29590428  0.69472410  0.50314985  1
  Hf  Hf49  1  0.30164050  0.48968165  0.10767067  1
  Zr  Zr50  1  0.89955009  0.70321636  0.30062004  1
  Zr  Zr51  1  -0.00203962  -0.00759228  0.59482505  1
  Zr  Zr52  1  0.69501547  0.29828876  0.50324986  1
  Zr  Zr53  1  0.50036900  0.91114571  0.29433920  1
  Zr  Zr54  1  0.38149028  0.61643789  0.80558952  1
  Zr  Zr55  1  0.00606626  0.40375904  -0.00526749  1
  Zr  Zr56  1  0.00423817  0.80563235  0.19215762  1
  Zr  Zr57  1  -0.00185832  -0.00552464  0.80598375  1
  Zr  Zr58  1  0.69918725  0.69991998  0.90359761  1
  Zr  Zr59  1  0.09796846  0.10220979  0.69607549  1
  Zr  Zr60  1  0.79556743  0.40096121  0.20427723  1
  Zr  Zr61  1  0.20659657  -0.00820508  0.79601850  1
  Zr  Zr62  1  0.59736977  0.20884059  0.20746750  1
  Zr  Zr63  1  0.50748316  0.69679434  0.30359312  1
  Zr  Zr64  1  0.69876187  0.69230026  0.49012206  1
  Zr  Zr65  1  -0.00751873  0.00115777  0.40557998  1
  Zr  Zr66  1  0.80243108  0.00070211  0.58196890  1
  Zr  Zr67  1  -0.00431053  0.20342738  0.79587039  1
  Zr  Zr68  1  0.60001451  0.60103161  0.00414828  1
  Zr  Zr69  1  0.09855098  0.30008280  0.69414438  1
  Zr  Zr70  1  0.00415192  0.19752512  0.00206834  1
  Zr  Zr71  1  0.59536066  0.81086559  0.00944031  1
  Zr  Zr72  1  0.30723309  0.89476453  0.90828688  1
  Zr  Zr73  1  -0.00214952  0.39495751  0.40756741  1
  Zr  Zr74  1  0.59370132  0.80456821  0.59566270  1
  Zr  Zr75  1  0.30490728  0.90362416  0.30094125  1
  Zr  Zr76  1  0.10386307  0.30217078  0.10907004  1
  Zr  Zr77  1  0.30393866  0.49581394  0.89783554  1
  Zr  Zr78  1  0.89538868  0.50006022  0.30600661  1
  Zr  Zr79  1  0.89615513  0.89162665  0.90477620  1
  Zr  Zr80  1  0.10456254  0.50164704  0.51223447  1
  Zr  Zr81  1  0.89694558  0.50558771  0.89149516  1
  Zr  Zr82  1  0.58993105  0.40401445  0.59757146  1
  Zr  Zr83  1  0.89586360  0.69857567  0.09672316  1
  Zr  Zr84  1  0.40526473  0.79601237  0.19223061  1
  Zr  Zr85  1  0.40732962  0.20107842  0.00068708  1
  Zr  Zr86  1  0.80950931  0.20895402  0.60115068  1
  Zr  Zr87  1  0.69848825  0.91053384  0.69692418  1
  Zr  Zr88  1  0.49959180  0.09761003  0.10465417  1
  Zr  Zr89  1  0.89949341  0.50523109  0.09890518  1
  Zr  Zr90  1  0.20484720  0.60696233  -0.00958485  1
  Zr  Zr91  1  0.10311770  0.50022873  0.10390473  1
  Zr  Zr92  1  0.19347398  0.00212157  0.00547873  1
  Zr  Zr93  1  0.60906543  0.59765049  0.60735426  1
  Zr  Zr94  1  0.21106424  0.20154571  0.59259819  1
  Zr  Zr95  1  0.09418400  0.88291528  0.70052099  1
  Zr  Zr96  1  0.79862938  0.20265571  0.79943696  1
  Zr  Zr97  1  0.19529885  0.79129527  0.39920854  1
  Zr  Zr98  1  0.41302358  0.38891040  0.00694046  1
  Zr  Zr99  1  0.19935385  0.00881717  0.40892915  1
  Ta  Ta100  1  0.10499345  0.29838854  0.89481084  1
  Ta  Ta101  1  0.90465981  0.69304087  0.69544143  1
  Ta  Ta102  1  0.69602958  0.09916376  0.90318283  1
  Ta  Ta103  1  0.89928866  0.69805011  0.90286707  1
  Ta  Ta104  1  0.41050016  0.00985616  0.41475702  1
  Ta  Ta105  1  0.19936910  0.79729872  0.19422883  1
  Ta  Ta106  1  0.70273546  0.50058489  0.09151541  1
  Ta  Ta107  1  0.31140954  0.10637388  0.70175027  1
  Ta  Ta108  1  0.08947432  0.11659272  0.49953194  1
  Ta  Ta109  1  0.89552609  0.09611778  0.90623512  1
  Ta  Ta110  1  0.09206381  0.88269083  0.50121839  1
  Ta  Ta111  1  0.09327791  0.11049982  0.29987119  1
  Ta  Ta112  1  0.69773421  0.30638351  0.70258933  1
  Ta  Ta113  1  0.59955592  0.39988880  0.80387262  1
  Ta  Ta114  1  0.89972953  0.88857775  0.69607043  1
  Ta  Ta115  1  0.20566714  0.19535388  0.80005250  1
  Ta  Ta116  1  0.09641167  0.70224654  0.09506578  1
  Ta  Ta117  1  0.09874438  0.29544000  0.30181639  1
  Ta  Ta118  1  0.30694462  0.09811731  0.89766367  1
  Ta  Ta119  1  0.69827794  0.90437873  0.49201738  1
  Ta  Ta120  1  0.30844715  0.09973101  0.10463549  1
  Ta  Ta121  1  0.78738451  0.60416074  0.20032899  1
  Ta  Ta122  1  0.59746132  0.20183138  0.80552317  1
  Ta  Ta123  1  0.79992569  0.39953612  0.00187947  1
  Ta  Ta124  1  -0.00722974  0.39865526  0.60092852  1
  Ta  Ta125  1  0.20233890  0.39383782  -0.00351123  1
  Ta  Ta126  1  0.79925004  0.80007636  0.40257975  1
  Ta  Ta127  1  0.00329257  0.60408480  -0.00643321  1
  Ta  Ta128  1  0.89646070  0.89879335  0.09957744  1
  Ta  Ta129  1  0.30157371  0.69923227  0.29777470  1
  Ta  Ta130  1  0.59500856  0.00023541  0.80420616  1
  Ta  Ta131  1  0.78816294  0.80231377  0.01383458  1
  Ta  Ta132  1  0.19491321  0.79264001  0.60127609  1
  Ta  Ta133  1  0.59653162  0.00876823  0.40520219  1
  Ta  Ta134  1  0.29551945  0.49625212  0.50472475  1
  Ta  Ta135  1  0.79716434  -0.00027692  0.00260017  1
  Ta  Ta136  1  0.69575074  0.90820601  0.90464045  1
  Ta  Ta137  1  0.09493673  0.69930296  0.29929607  1
  Ta  Ta138  1  -0.00292532  0.39483059  0.20938711  1
  Ta  Ta139  1  0.40232560  -0.00260418  0.59861729  1
  Ta  Ta140  1  0.00212995  -0.00296066  0.00868283  1
  Ta  Ta141  1  0.09659234  0.68757294  0.69696881  1
  Ta  Ta142  1  0.80026842  0.20331317  0.00137703  1
  Ta  Ta143  1  0.31091058  0.29862046  0.70060828  1
  Ta  Ta144  1  0.00556868  0.60136109  0.40304390  1
  Ta  Ta145  1  0.90178269  0.69321791  0.50090068  1
  Ta  Ta146  1  0.19814464  0.19339204  0.19700469  1
  Ta  Ta147  1  0.10164361  0.10038420  0.89949672  1
  Ta  Ta148  1  0.89918778  0.29896076  0.10580561  1
  Ta  Ta149  1  0.80816023  0.40227678  0.60254516  1
  Ti  Ti150  1  0.60237256  -0.00171379  0.19485350  1
  Ti  Ti151  1  0.00276228  0.59821426  0.20378755  1
  Ti  Ti152  1  -0.00624891  0.78700162  0.79896023  1
  Ti  Ti153  1  0.59970068  0.80841048  0.40258043  1
  Ti  Ti154  1  0.09983770  0.50953039  0.70098079  1
  Ti  Ti155  1  0.41225285  -0.00156528  -0.00024684  1
  Ti  Ti156  1  0.51163054  0.68921791  0.49359744  1
  Ti  Ti157  1  0.39438438  0.80658251  0.79009151  1
  Ti  Ti158  1  0.50014703  0.69408342  0.10131182  1
  Ti  Ti159  1  0.60192568  0.80911964  0.79538916  1
  Ti  Ti160  1  0.20264147  0.79383946  0.00984944  1
  Ti  Ti161  1  0.70596262  0.49293058  0.69998336  1
  Ti  Ti162  1  0.58820597  -0.00246486  0.59070075  1
  Ti  Ti163  1  0.00665172  0.00236734  0.19088179  1
  Ti  Ti164  1  -0.00148037  0.59856137  0.59730142  1
  Ti  Ti165  1  0.40155751  0.79517223  0.00769889  1
  Ti  Ti166  1  0.70040827  0.70204243  0.30323606  1
  Ti  Ti167  1  0.29769292  0.49182910  0.29336830  1
  Ti  Ti168  1  0.90053634  0.50323566  0.69872204  1
  Ti  Ti169  1  0.60649584  0.59665708  0.79825091  1
  Ti  Ti170  1  0.79742317  -0.00178556  0.80505277  1
  Ti  Ti171  1  0.50114139  0.10393433  0.29842075  1
  Ti  Ti172  1  0.00117204  0.40493800  0.79164579  1
  Ti  Ti173  1  0.50197416  0.10197268  0.89775039  1
  Ti  Ti174  1  0.09400784  0.69571519  0.89552087  1
  Ti  Ti175  1  0.19982780  0.39436120  0.40469377  1
  Ti  Ti176  1  0.39552876  0.60144892  0.19703780  1
  Ti  Ti177  1  0.79825613  0.59945947  0.39326567  1
  Ti  Ti178  1  0.79882744  0.00786103  0.40501881  1
  Ti  Ti179  1  0.40021338  0.39542993  0.58939583  1
  Ti  Ti180  1  0.10314527  0.49138413  0.29682875  1
  Ti  Ti181  1  0.40136633  0.19868321  0.58651175  1
  Ti  Ti182  1  0.49026212  0.49637080  0.29038922  1
  Ti  Ti183  1  0.69529815  0.10463301  0.30741802  1
  Ti  Ti184  1  0.50286268  0.89942881  0.90017559  1
  Ti  Ti185  1  0.91209966  0.11592629  0.50150672  1
  Ti  Ti186  1  0.68666465  0.10851478  0.50046411  1
  Ti  Ti187  1  0.39277831  0.60986275  0.00726971  1
  Ti  Ti188  1  0.89367802  0.50578627  0.50225768  1
  Ti  Ti189  1  0.49695614  0.49891045  0.10002267  1
  Ti  Ti190  1  0.69815421  0.30423187  0.09270303  1
  Ti  Ti191  1  0.79722649  0.20739299  0.20144788  1
  Ti  Ti192  1  0.30430788  0.29978298  0.11065393  1
  Ti  Ti193  1  0.10035821  0.50671972  0.88815984  1
  Ti  Ti194  1  0.59289223  0.21231656  -0.00401396  1
  Ti  Ti195  1  0.40408852  0.80717834  0.60548029  1
  Ti  Ti196  1  0.90241970  0.88245236  0.49884633  1
  Ti  Ti197  1  0.70284053  0.49632550  0.90408135  1
  Ti  Ti198  1  0.20151406  0.38995808  0.59322546  1
  Ti  Ti199  1  0.29395161  0.69593948  0.68874593  1
  Mo  Mo200  1  0.49874642  0.29435231  0.50662379  1
  Mo  Mo201  1  0.50241901  0.90577872  0.50068052  1
  Mo  Mo202  1  0.90142890  0.29859601  0.29891776  1
  Mo  Mo203  1  0.40223202  0.19192210  0.80135265  1
  Mo  Mo204  1  0.29953208  0.70124229  0.10172580  1
  Mo  Mo205  1  0.50587331  0.30042701  0.10169030  1
  Mo  Mo206  1  0.80022792  0.59826594  -0.00045157  1
  Mo  Mo207  1  0.60507777  0.40221231  0.00199262  1
  Mo  Mo208  1  0.30971375  0.09727503  0.50615166  1
  Mo  Mo209  1  -0.00074694  0.60104523  0.79696293  1
  Mo  Mo210  1  0.50163967  0.90830054  0.09490894  1
  Mo  Mo211  1  0.79235982  0.40672446  0.79454273  1
  Mo  Mo212  1  0.09920213  0.30291446  0.49954498  1
  Mo  Mo213  1  0.40527150  0.39936098  0.20139896  1
  Mo  Mo214  1  0.30192964  0.30735840  0.50444755  1
  Mo  Mo215  1  0.69811946  0.50337556  0.30329710  1
  Mo  Mo216  1  0.40523888  0.00500786  0.20172596  1
  Mo  Mo217  1  0.00241494  0.20686557  0.40065216  1
  Mo  Mo218  1  0.49553159  0.50094442  0.49945524  1
  Mo  Mo219  1  0.80843959  0.59311075  0.60119967  1
  Mo  Mo220  1  0.49424048  0.29754560  0.29476540  1
  Mo  Mo221  1  0.89808551  0.31830708  0.70123946  1
  Mo  Mo222  1  0.59883990  0.20345842  0.60279870  1
  Mo  Mo223  1  0.40232893  0.39463075  0.79639120  1
  Mo  Mo224  1  0.00125663  0.20570909  0.20428064  1
  Mo  Mo225  1  0.70204957  0.91127333  0.09938476  1
  Mo  Mo226  1  -0.00327756  0.21415696  0.59227858  1
  Mo  Mo227  1  0.09237913  0.69643242  0.50224163  1
  Mo  Mo228  1  -0.00294091  0.79450411  -0.00201147  1
  Mo  Mo229  1  0.19148164  0.59998117  0.79539188  1
  Mo  Mo230  1  0.79566266  0.80049789  0.20115404  1
  Mo  Mo231  1  0.09853714  0.09872704  0.10402741  1
  Mo  Mo232  1  0.30311077  0.70861757  0.90909238  1
  Mo  Mo233  1  0.19828248  0.60166967  0.60111262  1
  Mo  Mo234  1  0.70331489  0.69495829  0.10300811  1
  Mo  Mo235  1  0.30402552  0.88934674  0.69207852  1
  Mo  Mo236  1  0.19801279  0.39727101  0.20604242  1
  Mo  Mo237  1  0.90150986  0.30719066  0.50160102  1
  Mo  Mo238  1  0.59774419  0.19422964  0.40201797  1
  Mo  Mo239  1  0.59727293  0.00348663  -0.00892262  1
  Mo  Mo240  1  -0.00590350  0.79218199  0.40547891  1
  Mo  Mo241  1  0.09758427  0.89508029  0.09724299  1
  Mo  Mo242  1  0.50692509  0.10269679  0.50599982  1
  Mo  Mo243  1  0.40120544  0.20386323  0.19978944  1
  Mo  Mo244  1  0.69764381  0.69402529  0.70272291  1
  Mo  Mo245  1  0.59897690  0.58708491  0.38936312  1
  Mo  Mo246  1  0.80676608  0.40041386  0.40814119  1
  Mo  Mo247  1  0.50879971  0.29953367  0.89554742  1
  Mo  Mo248  1  -0.00359732  0.78829649  0.59928305  1
  Mo  Mo249  1  0.50006541  0.90119010  0.69960846  1
