# generated using pymatgen
data_HfZrTaTiMo
_symmetry_space_group_name_H-M   'P 1'
_cell_length_a   16.88678872
_cell_length_b   16.88533754
_cell_length_c   16.87949868
_cell_angle_alpha   90.04267618
_cell_angle_beta   89.95211093
_cell_angle_gamma   89.92203457
_symmetry_Int_Tables_number   1
_chemical_formula_structural   HfZrTaTiMo
_chemical_formula_sum   'Hf50 Zr50 Ta50 Ti50 Mo50'
_cell_volume   4812.99805037
_cell_formula_units_Z   50
loop_
 _symmetry_equiv_pos_site_id
 _symmetry_equiv_pos_as_xyz
  1  'x, y, z'
loop_
 _atom_site_type_symbol
 _atom_site_label
 _atom_site_symmetry_multiplicity
 _atom_site_fract_x
 _atom_site_fract_y
 _atom_site_fract_z
 _atom_site_occupancy
  Hf  Hf0  1  0.39644765  0.60266046  0.40095502  1
  Hf  Hf1  1  0.69701320  0.09705523  0.29418933  1
  Hf  Hf2  1  0.70142888  0.49802344  0.90404995  1
  Hf  Hf3  1  0.40433150  -0.00121078  0.20551153  1
  Hf  Hf4  1  0.19514022  0.20643575  0.20504554  1
  Hf  Hf5  1  0.19417961  0.38722986  0.59000050  1
  Hf  Hf6  1  0.80029783  0.20389199  0.19918129  1
  Hf  Hf7  1  0.90196332  0.49649545  0.30346519  1
  Hf  Hf8  1  0.59266691  0.20691053  0.39908482  1
  Hf  Hf9  1  0.30376350  0.90490858  0.09856168  1
  Hf  Hf10  1  0.10114091  0.90141456  0.50218716  1
  Hf  Hf11  1  -0.00356926  0.00491583  0.59635743  1
  Hf  Hf12  1  0.69878789  0.09486712  0.90416587  1
  Hf  Hf13  1  0.59681769  0.40901919  0.79249399  1
  Hf  Hf14  1  0.09851166  0.29179672  0.69966914  1
  Hf  Hf15  1  0.80931563  0.00049015  0.40309934  1
  Hf  Hf16  1  0.90577189  0.69521245  0.10457467  1
  Hf  Hf17  1  0.18940287  0.60179307  0.81497340  1
  Hf  Hf18  1  0.30378284  0.10417023  0.10935329  1
  Hf  Hf19  1  0.20205830  -0.00381617  0.80610965  1
  Hf  Hf20  1  0.29358949  0.10406679  0.69358063  1
  Hf  Hf21  1  0.69921861  0.09710596  0.50212409  1
  Hf  Hf22  1  0.80291839  -0.00182581  0.79846693  1
  Hf  Hf23  1  0.80719185  0.79638401  -0.00530944  1
  Hf  Hf24  1  0.50064607  0.09355505  0.69625594  1
  Hf  Hf25  1  0.09467702  0.89719924  0.70243737  1
  Hf  Hf26  1  0.29535202  0.29080093  0.69428382  1
  Hf  Hf27  1  0.69525428  0.69662503  0.89484961  1
  Hf  Hf28  1  0.80908250  0.59792696  0.79797364  1
  Hf  Hf29  1  -0.00286484  0.59783888  0.79918450  1
  Hf  Hf30  1  0.17263693  0.40052578  0.19728222  1
  Hf  Hf31  1  0.80108595  0.19977441  0.78958820  1
  Hf  Hf32  1  0.00090351  0.59761627  0.40469989  1
  Hf  Hf33  1  0.80278256  -0.01313251  0.00294267  1
  Hf  Hf34  1  0.60703719  0.19848360  0.79575454  1
  Hf  Hf35  1  0.00534037  0.00288052  0.00606834  1
  Hf  Hf36  1  0.80254630  0.40798305  0.19876505  1
  Hf  Hf37  1  0.20915892  0.79917469  0.40418270  1
  Hf  Hf38  1  0.10591093  0.50746057  0.50357786  1
  Hf  Hf39  1  0.59345242  0.20243690  0.00668484  1
  Hf  Hf40  1  0.49601209  0.89342188  0.30369670  1
  Hf  Hf41  1  0.60956000  0.80031135  0.01427502  1
  Hf  Hf42  1  0.89301723  0.30988503  0.50156699  1
  Hf  Hf43  1  0.89847244  0.70103254  0.29345057  1
  Hf  Hf44  1  0.39708312  0.60553259  0.00418544  1
  Hf  Hf45  1  0.19747198  0.39577708  0.39422697  1
  Hf  Hf46  1  0.17925914  0.19777276  0.00701722  1
  Hf  Hf47  1  0.19223832  -0.00047525  0.00727802  1
  Hf  Hf48  1  0.59942749  0.40507113  0.59340488  1
  Hf  Hf49  1  0.40118638  0.40894635  0.59684191  1
  Zr  Zr50  1  0.20318878  0.59923908  0.18915826  1
  Zr  Zr51  1  0.60531424  0.60162781  0.19517860  1
  Zr  Zr52  1  0.69904439  0.09769948  0.09747124  1
  Zr  Zr53  1  0.88903046  0.70569963  0.50120945  1
  Zr  Zr54  1  0.00838211  0.60065575  -0.01322356  1
  Zr  Zr55  1  0.09572493  0.71338247  0.09616861  1
  Zr  Zr56  1  0.90151230  0.30147404  0.90448289  1
  Zr  Zr57  1  0.80682909  0.79718049  0.80240185  1
  Zr  Zr58  1  0.58919266  0.00571776  0.40144393  1
  Zr  Zr59  1  0.09436834  0.50125206  0.69516739  1
  Zr  Zr60  1  0.39668368  0.41037830  0.79816908  1
  Zr  Zr61  1  0.70331569  0.89900013  0.30621284  1
  Zr  Zr62  1  0.29973506  0.49665796  0.29713125  1
  Zr  Zr63  1  0.60529557  0.20042686  0.59502666  1
  Zr  Zr64  1  -0.00641765  0.20138281  0.59728263  1
  Zr  Zr65  1  0.00810873  0.20285299  0.18875549  1
  Zr  Zr66  1  0.28489853  0.50577843  0.69353745  1
  Zr  Zr67  1  0.39108063  0.79828173  0.80528007  1
  Zr  Zr68  1  0.50511187  0.89481611  0.70310693  1
  Zr  Zr69  1  0.70727290  0.50273133  0.09865386  1
  Zr  Zr70  1  0.50837783  0.69428066  0.49432595  1
  Zr  Zr71  1  0.79120528  0.20765837  0.40509744  1
  Zr  Zr72  1  0.49678758  0.29904598  0.69479976  1
  Zr  Zr73  1  0.49490938  0.30563513  0.91141865  1
  Zr  Zr74  1  0.78808023  0.80156954  0.18461562  1
  Zr  Zr75  1  0.29875059  0.10692643  0.49311462  1
  Zr  Zr76  1  0.39611580  0.59989782  0.80093343  1
  Zr  Zr77  1  0.40226591  0.19665307  0.80338418  1
  Zr  Zr78  1  0.50314562  0.90138633  0.91028640  1
  Zr  Zr79  1  0.01209832  0.56980899  0.19108547  1
  Zr  Zr80  1  0.30101790  0.30203444  0.91200592  1
  Zr  Zr81  1  0.70412715  0.30949779  0.90441223  1
  Zr  Zr82  1  0.39409387  0.79600218  0.59232060  1
  Zr  Zr83  1  0.30695855  0.30029299  0.09994585  1
  Zr  Zr84  1  0.00586538  0.80232304  0.40106612  1
  Zr  Zr85  1  0.80095381  0.00677544  0.60711883  1
  Zr  Zr86  1  0.70595858  0.69560847  0.30883187  1
  Zr  Zr87  1  0.09071243  0.89417378  0.89953499  1
  Zr  Zr88  1  0.50612914  0.49123289  0.29539664  1
  Zr  Zr89  1  0.10383938  0.69601021  0.29824073  1
  Zr  Zr90  1  0.39336634  -0.00706782  0.80360071  1
  Zr  Zr91  1  0.30459445  0.48748277  0.09435356  1
  Zr  Zr92  1  0.69939288  0.30858001  0.09501732  1
  Zr  Zr93  1  0.90436120  0.30526820  0.30497414  1
  Zr  Zr94  1  0.58426238  0.20387825  0.20226033  1
  Zr  Zr95  1  0.59740464  0.79903929  0.19511478  1
  Zr  Zr96  1  0.90848561  0.10235936  0.30360940  1
  Zr  Zr97  1  0.60178346  0.79469311  0.59898713  1
  Zr  Zr98  1  0.31179858  0.10114858  0.91951754  1
  Zr  Zr99  1  0.10495535  0.09699626  0.30750714  1
  Ta  Ta100  1  0.50427914  0.69543556  0.70551593  1
  Ta  Ta101  1  0.70088161  0.89348068  0.70140754  1
  Ta  Ta102  1  0.49201856  0.30090245  0.49107424  1
  Ta  Ta103  1  0.90402347  0.09832316  0.90027770  1
  Ta  Ta104  1  0.08919735  0.30081011  0.89835918  1
  Ta  Ta105  1  0.00835069  -0.00228646  0.19669425  1
  Ta  Ta106  1  0.20584198  -0.00551010  0.40165224  1
  Ta  Ta107  1  0.19227778  0.39804015  0.80697771  1
  Ta  Ta108  1  0.10121698  0.70166636  0.69429535  1
  Ta  Ta109  1  0.80685369  0.40338036  0.79090922  1
  Ta  Ta110  1  0.29190027  0.89719413  0.69410934  1
  Ta  Ta111  1  0.49730729  0.69896343  0.30162219  1
  Ta  Ta112  1  -0.00405875  0.19998031  0.79831379  1
  Ta  Ta113  1  0.39402565  0.79973413  0.40082449  1
  Ta  Ta114  1  0.89948482  0.49227653  0.90437747  1
  Ta  Ta115  1  0.90042971  0.70204890  0.69197689  1
  Ta  Ta116  1  0.70334087  0.50466740  0.69586102  1
  Ta  Ta117  1  0.39987648  0.60122845  0.59989211  1
  Ta  Ta118  1  0.70490214  0.89294664  0.50276116  1
  Ta  Ta119  1  0.10330015  0.10588343  0.49817238  1
  Ta  Ta120  1  0.39685479  -0.00422027  0.59233072  1
  Ta  Ta121  1  0.59435846  -0.00652869  0.18959188  1
  Ta  Ta122  1  0.10370395  0.10089728  0.69973703  1
  Ta  Ta123  1  0.69121717  0.89957782  0.89655104  1
  Ta  Ta124  1  0.49862131  0.90105958  0.49720979  1
  Ta  Ta125  1  0.20103310  -0.00060227  0.59568267  1
  Ta  Ta126  1  0.90530981  0.89538831  0.29708410  1
  Ta  Ta127  1  0.91625708  0.89167145  0.10307686  1
  Ta  Ta128  1  0.70162809  0.69699422  0.69628593  1
  Ta  Ta129  1  0.79883619  0.58941092  0.40421271  1
  Ta  Ta130  1  0.70909098  0.31096586  0.69063165  1
  Ta  Ta131  1  0.29063527  0.69950001  0.69500949  1
  Ta  Ta132  1  0.80785330  -0.00555898  0.19458821  1
  Ta  Ta133  1  0.90187613  0.09870148  0.09829041  1
  Ta  Ta134  1  0.30094657  0.69989075  0.29730222  1
  Ta  Ta135  1  0.20217120  0.80091612  -0.00215383  1
  Ta  Ta136  1  0.20095712  0.79690260  0.80298191  1
  Ta  Ta137  1  0.39561888  0.79465043  0.19829729  1
  Ta  Ta138  1  0.89538204  0.89458261  0.50309586  1
  Ta  Ta139  1  0.40214040  0.60453181  0.19515875  1
  Ta  Ta140  1  0.50025798  0.50663099  0.90733447  1
  Ta  Ta141  1  0.59572190  0.60533101  0.00503556  1
  Ta  Ta142  1  0.30423372  0.29613751  0.49465315  1
  Ta  Ta143  1  0.50397859  0.09200540  0.91049920  1
  Ta  Ta144  1  0.80150663  0.20226345  0.60323950  1
  Ta  Ta145  1  0.29500837  0.50620278  0.49742489  1
  Ta  Ta146  1  0.90249726  0.30690850  0.09408513  1
  Ta  Ta147  1  0.90665619  0.89172508  0.69876222  1
  Ta  Ta148  1  0.20426075  0.80715559  0.19731268  1
  Ta  Ta149  1  0.50563127  0.70297541  0.89943501  1
  Ti  Ti150  1  0.39978215  0.39838424  0.39894023  1
  Ti  Ti151  1  0.39638510  0.80032331  0.00374744  1
  Ti  Ti152  1  -0.00099206  0.78248650  0.80716496  1
  Ti  Ti153  1  0.49055504  0.09314212  0.09234791  1
  Ti  Ti154  1  0.70634887  0.49764911  0.50539942  1
  Ti  Ti155  1  0.19763019  0.21075082  0.40016809  1
  Ti  Ti156  1  0.31987104  0.29406135  0.29573760  1
  Ti  Ti157  1  0.49345731  0.70352046  0.09974572  1
  Ti  Ti158  1  0.80086960  0.59585453  0.59632142  1
  Ti  Ti159  1  -0.00117103  0.00132773  0.40496763  1
  Ti  Ti160  1  0.60713432  0.00082495  0.79478577  1
  Ti  Ti161  1  0.20424587  0.79961741  0.59567676  1
  Ti  Ti162  1  0.68688759  0.31606858  0.29367063  1
  Ti  Ti163  1  0.80533261  0.19782547  0.00107118  1
  Ti  Ti164  1  0.48337398  0.10977339  0.30460862  1
  Ti  Ti165  1  0.10342745  0.90342303  0.29423048  1
  Ti  Ti166  1  0.89596501  0.49310123  0.68543671  1
  Ti  Ti167  1  0.00582601  0.40496106  0.41094563  1
  Ti  Ti168  1  0.61064758  0.58935181  0.40092872  1
  Ti  Ti169  1  0.91193686  0.90085725  0.89493347  1
  Ti  Ti170  1  0.59947055  0.59505102  0.60109385  1
  Ti  Ti171  1  0.11000517  0.69475866  0.50646029  1
  Ti  Ti172  1  0.78732293  0.40591202  0.40349260  1
  Ti  Ti173  1  0.70716605  0.70175834  0.50089222  1
  Ti  Ti174  1  0.59947163  -0.00269631  0.59897373  1
  Ti  Ti175  1  0.29830781  0.90267919  0.29889642  1
  Ti  Ti176  1  0.49896470  0.50145182  0.49499412  1
  Ti  Ti177  1  0.60167624  0.79869616  0.40302951  1
  Ti  Ti178  1  0.00047096  0.79522353  0.59875929  1
  Ti  Ti179  1  0.29756370  0.49469414  0.90774209  1
  Ti  Ti180  1  0.08787524  0.09947105  0.88786037  1
  Ti  Ti181  1  0.39584572  -0.00138903  0.40592061  1
  Ti  Ti182  1  0.08273182  0.30068434  0.31070274  1
  Ti  Ti183  1  0.00148900  0.19485761  0.00190518  1
  Ti  Ti184  1  0.29592172  0.70350183  0.90675372  1
  Ti  Ti185  1  -0.00521073  0.39846004  0.79416835  1
  Ti  Ti186  1  0.60455453  0.39917125  0.40406279  1
  Ti  Ti187  1  -0.00683230  0.60179501  0.59682879  1
  Ti  Ti188  1  0.00370387  0.40775933  0.01043933  1
  Ti  Ti189  1  0.18539802  0.40062304  -0.00529124  1
  Ti  Ti190  1  -0.00308041  0.39812565  0.59665191  1
  Ti  Ti191  1  0.30137808  0.10448170  0.30246236  1
  Ti  Ti192  1  0.40719849  0.19399022  0.58757772  1
  Ti  Ti193  1  0.19536046  0.60131291  -0.00246634  1
  Ti  Ti194  1  0.58648462  0.41216238  0.01248028  1
  Ti  Ti195  1  0.48888520  0.31351277  0.11289231  1
  Ti  Ti196  1  0.19562942  0.20051337  0.80975409  1
  Ti  Ti197  1  0.90775939  0.09796311  0.70590994  1
  Ti  Ti198  1  0.80751550  0.60138755  0.00040875  1
  Ti  Ti199  1  0.59685700  0.59680165  0.79641962  1
  Mo  Mo200  1  0.59872978  -0.00387064  0.00471908  1
  Mo  Mo201  1  0.09966673  0.09891610  0.10789114  1
  Mo  Mo202  1  0.09808891  0.49434967  0.31526825  1
  Mo  Mo203  1  0.70234979  0.49756003  0.30870757  1
  Mo  Mo204  1  0.80103336  0.80372379  0.40482729  1
  Mo  Mo205  1  0.20324712  -0.00166203  0.21097161  1
  Mo  Mo206  1  0.69732776  0.30663734  0.50013374  1
  Mo  Mo207  1  0.20392612  0.60289532  0.40217619  1
  Mo  Mo208  1  0.59974762  0.40168590  0.19999474  1
  Mo  Mo209  1  0.79756623  0.80171254  0.60502787  1
  Mo  Mo210  1  0.40749049  0.40011373  0.20427598  1
  Mo  Mo211  1  0.49428835  0.09624470  0.50122577  1
  Mo  Mo212  1  0.79746838  0.40590404  0.59912533  1
  Mo  Mo213  1  0.41449999  0.19902242  0.01116480  1
  Mo  Mo214  1  0.69968533  0.09474586  0.69832142  1
  Mo  Mo215  1  0.30079608  0.90320564  0.49906616  1
  Mo  Mo216  1  0.00326521  0.20320484  0.40989207  1
  Mo  Mo217  1  0.90382004  0.69505245  0.89786779  1
  Mo  Mo218  1  0.00965513  0.81201289  0.20322265  1
  Mo  Mo219  1  -0.00307839  0.00677733  0.79518092  1
  Mo  Mo220  1  0.81203761  0.40550237  -0.00064451  1
  Mo  Mo221  1  0.10451779  0.90088814  0.10701141  1
  Mo  Mo222  1  0.09613377  0.29714416  0.49483001  1
  Mo  Mo223  1  -0.00039724  0.80259678  -0.00400341  1
  Mo  Mo224  1  0.40201404  0.19898250  0.20470702  1
  Mo  Mo225  1  0.80551164  0.59807515  0.20414207  1
  Mo  Mo226  1  0.89999114  0.30573757  0.69870038  1
  Mo  Mo227  1  0.49465431  0.89793238  0.10319088  1
  Mo  Mo228  1  0.29647778  0.89292789  0.90590788  1
  Mo  Mo229  1  0.29822570  0.69659984  0.49937445  1
  Mo  Mo230  1  0.10567122  0.49827733  0.08171117  1
  Mo  Mo231  1  0.89798111  0.49857529  0.50297113  1
  Mo  Mo232  1  0.49526082  0.30768714  0.30325181  1
  Mo  Mo233  1  0.90208334  0.49768141  0.09367900  1
  Mo  Mo234  1  0.09192958  0.30352298  0.08856466  1
  Mo  Mo235  1  0.09443186  0.48401750  0.89527513  1
  Mo  Mo236  1  -0.00108981  0.39529806  0.19196031  1
  Mo  Mo237  1  0.29944353  0.70774062  0.09908345  1
  Mo  Mo238  1  0.90330668  0.10291803  0.50024621  1
  Mo  Mo239  1  0.40908889  0.40921445  0.00365555  1
  Mo  Mo240  1  0.20229257  0.61116011  0.59635808  1
  Mo  Mo241  1  0.10323719  0.70705318  0.89688463  1
  Mo  Mo242  1  0.40399863  -0.00363977  0.00696280  1
  Mo  Mo243  1  0.60511034  0.79271843  0.80027674  1
  Mo  Mo244  1  0.40019202  0.20360384  0.39659397  1
  Mo  Mo245  1  0.50692309  0.51488462  0.69464713  1
  Mo  Mo246  1  0.49871400  0.50353713  0.10032294  1
  Mo  Mo247  1  0.69986504  0.90868200  0.09492006  1
  Mo  Mo248  1  0.19657649  0.19656402  0.59210215  1
  Mo  Mo249  1  0.71077894  0.68678766  0.09197390  1
