# generated using pymatgen
data_HfZrTaTiMo
_symmetry_space_group_name_H-M   'P 1'
_cell_length_a   16.87803286
_cell_length_b   16.87767558
_cell_length_c   16.88993633
_cell_angle_alpha   90.03520863
_cell_angle_beta   89.96261918
_cell_angle_gamma   89.96453624
_symmetry_Int_Tables_number   1
_chemical_formula_structural   HfZrTaTiMo
_chemical_formula_sum   'Hf50 Zr50 Ta50 Ti50 Mo50'
_cell_volume   4811.29756377
_cell_formula_units_Z   50
loop_
 _symmetry_equiv_pos_site_id
 _symmetry_equiv_pos_as_xyz
  1  'x, y, z'
loop_
 _atom_site_type_symbol
 _atom_site_label
 _atom_site_symmetry_multiplicity
 _atom_site_fract_x
 _atom_site_fract_y
 _atom_site_fract_z
 _atom_site_occupancy
  Hf  Hf0  1  0.09835152  0.49439363  0.70274260  1
  Hf  Hf1  1  0.30303132  0.69639053  0.90373948  1
  Hf  Hf2  1  0.39074275  0.60175572  0.20119970  1
  Hf  Hf3  1  0.49725115  0.69951681  0.30394783  1
  Hf  Hf4  1  0.90617501  0.09884498  0.08591297  1
  Hf  Hf5  1  0.00746104  0.19565580  0.19071482  1
  Hf  Hf6  1  0.00721386  0.00673895  0.59489830  1
  Hf  Hf7  1  0.19957047  0.59368740  0.59748869  1
  Hf  Hf8  1  0.49150768  0.30649414  0.90198224  1
  Hf  Hf9  1  0.82034914  0.19236119  0.59569840  1
  Hf  Hf10  1  0.09669547  0.10875143  0.90283688  1
  Hf  Hf11  1  0.19951529  0.18980751  0.39733485  1
  Hf  Hf12  1  0.80100989  0.79083625  0.40623546  1
  Hf  Hf13  1  0.18981653  0.81257262  0.79922690  1
  Hf  Hf14  1  0.40192254  0.80263018  0.79828292  1
  Hf  Hf15  1  0.89750239  0.49692187  0.90062764  1
  Hf  Hf16  1  0.80226922  0.80101035  0.00026854  1
  Hf  Hf17  1  0.59212717  0.19988684  0.40974583  1
  Hf  Hf18  1  0.60555554  0.59807855  0.40495866  1
  Hf  Hf19  1  0.19831462  0.40950815  0.19235567  1
  Hf  Hf20  1  0.90100725  0.90303147  0.29574701  1
  Hf  Hf21  1  0.20145078  0.59252525  0.40144480  1
  Hf  Hf22  1  0.30831853  0.91198385  0.10760163  1
  Hf  Hf23  1  0.69861221  0.49893681  0.89713031  1
  Hf  Hf24  1  0.01132089  0.19062121  0.40846408  1
  Hf  Hf25  1  0.40020179  0.00339529  0.60497406  1
  Hf  Hf26  1  0.20127217  0.39508841  0.80656882  1
  Hf  Hf27  1  0.40020328  0.19772931  0.41077147  1
  Hf  Hf28  1  0.60599654  0.39776099  0.00537604  1
  Hf  Hf29  1  0.50209698  0.48877823  0.69997722  1
  Hf  Hf30  1  0.59157726  0.20098367  0.80160721  1
  Hf  Hf31  1  0.49624922  0.69658317  0.09393429  1
  Hf  Hf32  1  0.10085376  0.69637400  0.49797692  1
  Hf  Hf33  1  0.19408157  0.80651089  0.60157118  1
  Hf  Hf34  1  0.49605749  0.89835625  0.30014156  1
  Hf  Hf35  1  0.29584268  0.69879966  0.70095820  1
  Hf  Hf36  1  0.79817919  0.39983845  0.39627873  1
  Hf  Hf37  1  0.00866658  0.80096188  0.40070086  1
  Hf  Hf38  1  0.80390098  0.41135321  0.60748250  1
  Hf  Hf39  1  0.91030978  0.09597019  0.30429815  1
  Hf  Hf40  1  0.60394665  0.79671653  0.19036929  1
  Hf  Hf41  1  0.11350980  0.29407558  0.08401669  1
  Hf  Hf42  1  0.09898894  0.69185627  0.10455559  1
  Hf  Hf43  1  0.40271765  0.59891257  0.60195788  1
  Hf  Hf44  1  0.00518053  0.80436177  0.60312105  1
  Hf  Hf45  1  0.80746965  0.79811811  0.60023304  1
  Hf  Hf46  1  0.00471799  0.79848090  0.20134180  1
  Hf  Hf47  1  0.39800371  0.39574639  0.19606533  1
  Hf  Hf48  1  0.30166834  0.90508909  0.29926851  1
  Hf  Hf49  1  0.39726626  0.00946151  0.40446566  1
  Zr  Zr50  1  0.70253168  0.90000202  0.30223877  1
  Zr  Zr51  1  0.58833761  -0.00305681  -0.01332307  1
  Zr  Zr52  1  0.19326534  0.40009647  0.40455699  1
  Zr  Zr53  1  0.69418011  0.30155237  0.69519975  1
  Zr  Zr54  1  0.30514927  0.89189860  0.50008358  1
  Zr  Zr55  1  0.19630844  0.59190154  0.00599518  1
  Zr  Zr56  1  0.09402130  0.69799282  0.89640847  1
  Zr  Zr57  1  0.00636032  0.40360655  0.39289279  1
  Zr  Zr58  1  0.00723157  0.39735757  0.58871197  1
  Zr  Zr59  1  0.69409579  0.10265372  0.50892734  1
  Zr  Zr60  1  0.69429355  0.70130714  0.89850194  1
  Zr  Zr61  1  0.39345040  0.20112993  0.80337225  1
  Zr  Zr62  1  0.80841279  0.21264916  -0.01271242  1
  Zr  Zr63  1  0.50339926  0.29419357  0.29266170  1
  Zr  Zr64  1  0.10652543  0.90383389  0.11077228  1
  Zr  Zr65  1  0.10116784  0.10189723  0.71287856  1
  Zr  Zr66  1  0.90457853  0.70116150  0.89693425  1
  Zr  Zr67  1  0.70372713  0.90108769  0.09328425  1
  Zr  Zr68  1  0.49197107  0.50206586  0.90873562  1
  Zr  Zr69  1  0.79624156  0.60165995  0.00529410  1
  Zr  Zr70  1  0.79741376  0.80531959  0.79391163  1
  Zr  Zr71  1  0.18881090  0.00486190  0.40716578  1
  Zr  Zr72  1  0.59336654  0.60298864  0.79257922  1
  Zr  Zr73  1  0.89981168  0.69354661  0.29343297  1
  Zr  Zr74  1  0.40480638  0.00357366  0.80331025  1
  Zr  Zr75  1  0.80167375  0.39566234  0.19722057  1
  Zr  Zr76  1  0.59257539  0.80676078  0.79983873  1
  Zr  Zr77  1  0.49122158  0.70511987  0.49763264  1
  Zr  Zr78  1  0.90515291  0.90729369  0.49420543  1
  Zr  Zr79  1  0.90409677  0.29987024  0.70654961  1
  Zr  Zr80  1  0.09801603  0.29175727  0.70817226  1
  Zr  Zr81  1  0.80103898  0.00300083  0.19572216  1
  Zr  Zr82  1  0.49528579  0.10083511  0.28962090  1
  Zr  Zr83  1  0.70573912  0.69076932  0.28191772  1
  Zr  Zr84  1  0.59776379  0.20471488  -0.00690330  1
  Zr  Zr85  1  0.10550957  0.29412097  0.28784003  1
  Zr  Zr86  1  0.69711180  0.10404399  0.69719283  1
  Zr  Zr87  1  0.21206118  0.78551100  0.20856524  1
  Zr  Zr88  1  0.19882619  0.01131414  0.00686977  1
  Zr  Zr89  1  -0.00909012  0.59934639  0.60129702  1
  Zr  Zr90  1  0.79977756  0.60220586  0.59805080  1
  Zr  Zr91  1  0.50305342  0.50270379  0.30073389  1
  Zr  Zr92  1  0.69646070  0.30379453  0.50491156  1
  Zr  Zr93  1  0.49359893  0.10262601  0.10317471  1
  Zr  Zr94  1  0.69339633  0.10509778  0.29745510  1
  Zr  Zr95  1  0.19896165  0.80591947  -0.00019919  1
  Zr  Zr96  1  0.29845053  0.29764285  0.50584167  1
  Zr  Zr97  1  0.69404507  0.90294179  0.50935045  1
  Zr  Zr98  1  0.80460563  0.20378882  0.19816785  1
  Zr  Zr99  1  0.70570419  0.09798222  0.89590109  1
  Ta  Ta100  1  0.90482623  0.89942150  0.09796759  1
  Ta  Ta101  1  0.09979351  0.49441552  0.90274191  1
  Ta  Ta102  1  0.39928067  0.39737834  0.40019589  1
  Ta  Ta103  1  0.50172903  0.89585517  0.50110587  1
  Ta  Ta104  1  0.91208039  0.90495610  0.70741788  1
  Ta  Ta105  1  0.81225606  0.00351612  0.60791828  1
  Ta  Ta106  1  0.56538304  0.21380753  0.59830196  1
  Ta  Ta107  1  0.30122455  0.49804091  0.30168634  1
  Ta  Ta108  1  0.69768790  0.10221003  0.09547897  1
  Ta  Ta109  1  0.38771159  0.19891340  0.00411177  1
  Ta  Ta110  1  0.29869969  0.29690398  0.69504847  1
  Ta  Ta111  1  0.89989466  0.50010926  0.49369679  1
  Ta  Ta112  1  0.80534193  -0.00020353  0.79628601  1
  Ta  Ta113  1  -0.00228048  0.59141191  0.79783827  1
  Ta  Ta114  1  0.00193309  0.59253991  0.39753836  1
  Ta  Ta115  1  0.50026701  0.50318099  0.10081366  1
  Ta  Ta116  1  0.90663921  0.29811949  0.29929834  1
  Ta  Ta117  1  0.60178736  0.79885622  0.40230196  1
  Ta  Ta118  1  0.90894711  0.90314122  0.89469906  1
  Ta  Ta119  1  0.30184939  0.49710626  0.90288031  1
  Ta  Ta120  1  0.10631060  0.68899991  0.29888355  1
  Ta  Ta121  1  0.00424475  -0.00150024  -0.00422723  1
  Ta  Ta122  1  0.80113541  0.59649482  0.40427577  1
  Ta  Ta123  1  0.80731920  0.20143911  0.40144664  1
  Ta  Ta124  1  0.90046697  0.69822702  0.10465298  1
  Ta  Ta125  1  0.00728816  0.58609639  0.20113378  1
  Ta  Ta126  1  0.00250833  0.39614115  -0.00216304  1
  Ta  Ta127  1  0.39751345  0.59818906  0.79728380  1
  Ta  Ta128  1  0.60263314  0.39850184  0.19555784  1
  Ta  Ta129  1  0.29701329  0.90895570  0.89972495  1
  Ta  Ta130  1  0.59848834  0.59749908  0.60132095  1
  Ta  Ta131  1  0.50379491  0.89566419  0.68880064  1
  Ta  Ta132  1  0.49188446  0.69825284  0.90690099  1
  Ta  Ta133  1  0.80039001  0.59349420  0.78345179  1
  Ta  Ta134  1  0.30225064  0.49055625  0.69871070  1
  Ta  Ta135  1  0.80309860  0.01155151  0.40937093  1
  Ta  Ta136  1  0.20099472  0.59171217  0.79990403  1
  Ta  Ta137  1  0.59794416  -0.00129741  0.19280719  1
  Ta  Ta138  1  0.30113408  0.29344788  0.29244724  1
  Ta  Ta139  1  0.69924259  0.50161897  0.29408594  1
  Ta  Ta140  1  0.49223606  0.90145962  0.10170547  1
  Ta  Ta141  1  0.40831528  0.38821248  0.59995741  1
  Ta  Ta142  1  0.69180848  0.70392715  0.69153871  1
  Ta  Ta143  1  0.69810018  0.50983865  0.11120846  1
  Ta  Ta144  1  0.30209080  0.50025937  0.09494764  1
  Ta  Ta145  1  0.00298947  0.80722614  -0.00227391  1
  Ta  Ta146  1  0.90128049  0.49890917  0.10047770  1
  Ta  Ta147  1  0.29631188  0.10240143  0.51875768  1
  Ta  Ta148  1  0.30912667  0.49727414  0.50158557  1
  Ta  Ta149  1  0.59097075  -0.00218306  0.79750795  1
  Ti  Ti150  1  0.59529776  0.00181115  0.40409661  1
  Ti  Ti151  1  0.29633217  0.90841630  0.70528040  1
  Ti  Ti152  1  0.60282660  0.60355971  0.00674782  1
  Ti  Ti153  1  0.49508492  0.10440376  0.69881785  1
  Ti  Ti154  1  0.00602821  0.40425696  0.19319340  1
  Ti  Ti155  1  0.31065552  0.69708556  0.32385874  1
  Ti  Ti156  1  0.19246405  -0.00517880  0.60567942  1
  Ti  Ti157  1  0.80350155  0.20483256  0.80602948  1
  Ti  Ti158  1  0.30376808  0.69581835  0.09311114  1
  Ti  Ti159  1  0.39778132  0.79558252  0.20067700  1
  Ti  Ti160  1  0.69777269  0.29520825  0.10304016  1
  Ti  Ti161  1  0.90894616  0.30377965  0.09498171  1
  Ti  Ti162  1  0.79598752  0.40109869  0.79731494  1
  Ti  Ti163  1  0.09585963  0.69789741  0.70702838  1
  Ti  Ti164  1  0.19011106  0.20073228  0.59754444  1
  Ti  Ti165  1  0.29481137  0.10019933  0.90128919  1
  Ti  Ti166  1  0.50012507  0.49321974  0.49988455  1
  Ti  Ti167  1  0.69527704  0.49535290  0.50399893  1
  Ti  Ti168  1  0.79688100  0.39632963  0.00147010  1
  Ti  Ti169  1  0.39878997  0.79661547  0.60454895  1
  Ti  Ti170  1  0.20929869  0.18488297  0.18719037  1
  Ti  Ti171  1  0.28931545  0.10384206  0.70079838  1
  Ti  Ti172  1  -0.01730066  0.20744222  0.82728658  1
  Ti  Ti173  1  0.20037155  0.79842677  0.40336503  1
  Ti  Ti174  1  -0.00250761  0.39822008  0.80820555  1
  Ti  Ti175  1  0.89660972  0.49940698  0.29398544  1
  Ti  Ti176  1  0.59046110  0.00599564  0.60182534  1
  Ti  Ti177  1  0.29003405  0.30467651  0.91707712  1
  Ti  Ti178  1  0.00425400  0.19588467  0.59125521  1
  Ti  Ti179  1  0.19726434  0.39892688  0.59603801  1
  Ti  Ti180  1  0.01265863  0.00716958  0.19667293  1
  Ti  Ti181  1  0.69392343  0.70224989  0.50593262  1
  Ti  Ti182  1  0.39378006  0.39510234  0.01005514  1
  Ti  Ti183  1  0.10340774  0.90718477  0.30095454  1
  Ti  Ti184  1  0.90394616  0.30124920  0.49285417  1
  Ti  Ti185  1  0.90657803  0.70569416  0.70981323  1
  Ti  Ti186  1  0.59915906  0.39882286  0.39997973  1
  Ti  Ti187  1  0.60404919  0.39512041  0.79847685  1
  Ti  Ti188  1  -0.00004710  0.59191176  0.00438884  1
  Ti  Ti189  1  0.40005628  0.00683432  -0.00460798  1
  Ti  Ti190  1  0.80785878  -0.00106935  -0.01065047  1
  Ti  Ti191  1  0.39172336  0.39579118  0.79824450  1
  Ti  Ti192  1  0.70170889  0.90408087  0.89488011  1
  Ti  Ti193  1  0.20480939  0.20667737  0.81160910  1
  Ti  Ti194  1  0.69747279  0.29768903  0.29836571  1
  Ti  Ti195  1  0.40108942  0.80918878  -0.00354523  1
  Ti  Ti196  1  0.49781817  0.29369681  0.10383308  1
  Ti  Ti197  1  0.90995501  0.09893471  0.71585192  1
  Ti  Ti198  1  0.59542049  0.80316136  -0.00272120  1
  Ti  Ti199  1  0.69562359  0.90457061  0.69393874  1
  Mo  Mo200  1  0.09395535  0.49515528  0.09680245  1
  Mo  Mo201  1  0.80928753  0.59281136  0.19986114  1
  Mo  Mo202  1  0.10399131  0.09475989  0.28646714  1
  Mo  Mo203  1  0.70278397  0.31035977  0.89106032  1
  Mo  Mo204  1  0.59597252  0.59659220  0.19521149  1
  Mo  Mo205  1  0.49586866  0.09282959  0.50830419  1
  Mo  Mo206  1  0.00347307  0.80371557  0.79863067  1
  Mo  Mo207  1  0.20739940  0.20136208  -0.00422392  1
  Mo  Mo208  1  0.20133048  0.40171036  -0.00233087  1
  Mo  Mo209  1  0.39353593  0.19807894  0.60740101  1
  Mo  Mo210  1  0.09525908  0.30045517  0.90183008  1
  Mo  Mo211  1  0.90270467  0.69244956  0.49137224  1
  Mo  Mo212  1  0.49651993  0.70082807  0.69698701  1
  Mo  Mo213  1  0.49735526  0.31132757  0.49561769  1
  Mo  Mo214  1  0.38692557  0.20257135  0.19482682  1
  Mo  Mo215  1  0.00320751  -0.00118295  0.80400728  1
  Mo  Mo216  1  0.80776881  0.79672463  0.18762886  1
  Mo  Mo217  1  0.10154645  0.29358654  0.50654965  1
  Mo  Mo218  1  0.20471109  0.59558309  0.20468198  1
  Mo  Mo219  1  -0.00008070  0.20474424  -0.00357866  1
  Mo  Mo220  1  0.60795326  0.20340760  0.19026213  1
  Mo  Mo221  1  0.90188785  0.09226819  0.89484398  1
  Mo  Mo222  1  0.89638920  0.31461133  0.90105178  1
  Mo  Mo223  1  0.09962584  0.49941055  0.49960119  1
  Mo  Mo224  1  0.10354518  0.50364349  0.29324962  1
  Mo  Mo225  1  0.29993167  0.29934362  0.09880453  1
  Mo  Mo226  1  0.59584280  0.40544567  0.59702197  1
  Mo  Mo227  1  0.10559244  0.09969407  0.51332940  1
  Mo  Mo228  1  0.09858016  0.90746070  0.70428434  1
  Mo  Mo229  1  0.39598244  0.59134097  0.40507056  1
  Mo  Mo230  1  0.40087567  0.80198094  0.40112568  1
  Mo  Mo231  1  0.09716083  0.90936097  0.89663740  1
  Mo  Mo232  1  0.10382696  0.89994350  0.49912206  1
  Mo  Mo233  1  0.39745002  0.59590028  0.00085277  1
  Mo  Mo234  1  0.90117265  0.49680715  0.70632351  1
  Mo  Mo235  1  0.69613165  0.50232679  0.69945163  1
  Mo  Mo236  1  0.49171922  0.89749780  0.90562401  1
  Mo  Mo237  1  0.59947974  0.79766496  0.59973759  1
  Mo  Mo238  1  0.90290821  0.09996037  0.49748470  1
  Mo  Mo239  1  0.30270641  0.10253303  0.09935753  1
  Mo  Mo240  1  0.30014957  0.10156337  0.28897514  1
  Mo  Mo241  1  0.10083508  0.10245158  0.09519245  1
  Mo  Mo242  1  0.49257446  0.30579428  0.70681361  1
  Mo  Mo243  1  0.30000971  0.69849993  0.49830767  1
  Mo  Mo244  1  0.69931737  0.69846426  0.09668709  1
  Mo  Mo245  1  0.39940830  0.00252860  0.20050653  1
  Mo  Mo246  1  0.49000641  0.10203893  0.89922400  1
  Mo  Mo247  1  0.00720673  -0.00034615  0.39736080  1
  Mo  Mo248  1  0.20413135  0.00235454  0.80269930  1
  Mo  Mo249  1  0.20250541  0.01340071  0.20729214  1
