# generated using pymatgen
data_HfZrTaTiMo
_symmetry_space_group_name_H-M   'P 1'
_cell_length_a   16.88887095
_cell_length_b   16.89110046
_cell_length_c   16.88451618
_cell_angle_alpha   89.97680342
_cell_angle_beta   90.02869460
_cell_angle_gamma   90.00179514
_symmetry_Int_Tables_number   1
_chemical_formula_structural   HfZrTaTiMo
_chemical_formula_sum   'Hf50 Zr50 Ta50 Ti50 Mo50'
_cell_volume   4816.67221158
_cell_formula_units_Z   50
loop_
 _symmetry_equiv_pos_site_id
 _symmetry_equiv_pos_as_xyz
  1  'x, y, z'
loop_
 _atom_site_type_symbol
 _atom_site_label
 _atom_site_symmetry_multiplicity
 _atom_site_fract_x
 _atom_site_fract_y
 _atom_site_fract_z
 _atom_site_occupancy
  Hf  Hf0  1  0.19629319  0.39955536  -0.00179123  1
  Hf  Hf1  1  0.10719266  0.70817501  0.49161687  1
  Hf  Hf2  1  0.20862208  0.40172874  0.60402079  1
  Hf  Hf3  1  -0.00488667  0.19455259  0.79066861  1
  Hf  Hf4  1  0.30074450  0.29665783  0.10746740  1
  Hf  Hf5  1  0.49791368  0.09755140  0.70189258  1
  Hf  Hf6  1  0.40293398  0.19716877  0.80683915  1
  Hf  Hf7  1  0.39670790  0.60554123  0.19503949  1
  Hf  Hf8  1  0.69574512  0.90579737  0.70454091  1
  Hf  Hf9  1  0.58630337  0.39358767  0.41151464  1
  Hf  Hf10  1  0.90387732  0.70473964  0.70669547  1
  Hf  Hf11  1  0.10604138  0.29657550  0.69453032  1
  Hf  Hf12  1  0.90002451  0.50190785  0.90507010  1
  Hf  Hf13  1  0.31241305  0.90718143  0.90304341  1
  Hf  Hf14  1  0.10308586  0.91255626  0.49262547  1
  Hf  Hf15  1  0.69121281  0.70227358  0.90206558  1
  Hf  Hf16  1  0.50568281  0.71162678  0.29273444  1
  Hf  Hf17  1  0.79869507  0.58808531  0.60773162  1
  Hf  Hf18  1  0.69816245  0.91229510  0.29561625  1
  Hf  Hf19  1  0.00540364  0.59455989  0.59476838  1
  Hf  Hf20  1  0.30274239  0.90809333  0.70853101  1
  Hf  Hf21  1  0.29839231  0.49359334  0.48501675  1
  Hf  Hf22  1  0.19841768  0.61701997  0.01441667  1
  Hf  Hf23  1  0.90057786  0.71134898  0.29487408  1
  Hf  Hf24  1  0.69141943  0.29544496  0.69529763  1
  Hf  Hf25  1  0.89961930  0.29444308  0.30796559  1
  Hf  Hf26  1  0.49507546  0.06898727  0.90845174  1
  Hf  Hf27  1  0.00416701  0.60627226  0.80670444  1
  Hf  Hf28  1  0.10388871  0.10351510  0.90490373  1
  Hf  Hf29  1  0.70473254  0.08884475  0.09490143  1
  Hf  Hf30  1  0.90140953  0.29457633  0.89936987  1
  Hf  Hf31  1  0.69640909  0.71133001  0.29828468  1
  Hf  Hf32  1  0.79852519  0.79904080  0.80861173  1
  Hf  Hf33  1  0.30474141  0.90380048  0.49700730  1
  Hf  Hf34  1  -0.01560197  0.00719922  0.59159280  1
  Hf  Hf35  1  0.69856395  0.90758008  0.90988488  1
  Hf  Hf36  1  0.30147587  0.71292438  0.30000169  1
  Hf  Hf37  1  0.60288673  0.39548877  -0.00402208  1
  Hf  Hf38  1  0.88981797  0.90928106  0.09838302  1
  Hf  Hf39  1  0.20232596  0.18890667  0.20553321  1
  Hf  Hf40  1  0.49693176  0.50841959  0.90339427  1
  Hf  Hf41  1  0.80889643  0.38705717  0.59942962  1
  Hf  Hf42  1  -0.00360964  0.39064206  0.00479844  1
  Hf  Hf43  1  0.10528985  0.10544313  0.49772008  1
  Hf  Hf44  1  0.59292586  0.58943395  0.39920014  1
  Hf  Hf45  1  0.79027280  0.40507156  0.79990048  1
  Hf  Hf46  1  0.58918953  0.19718788  -0.00293798  1
  Hf  Hf47  1  0.89927715  0.50363247  0.09858585  1
  Hf  Hf48  1  0.00182710  0.38912952  0.19761397  1
  Hf  Hf49  1  0.41388111  0.38404194  -0.00214525  1
  Zr  Zr50  1  0.39731857  0.60071300  0.59912543  1
  Zr  Zr51  1  0.10090092  0.50135622  0.89899427  1
  Zr  Zr52  1  0.19592055  0.60275236  0.19998224  1
  Zr  Zr53  1  0.49629656  0.29560693  0.29502201  1
  Zr  Zr54  1  0.10356884  0.28066408  0.09147510  1
  Zr  Zr55  1  0.49590420  0.50470248  0.70717559  1
  Zr  Zr56  1  0.89840709  0.70229563  0.49620281  1
  Zr  Zr57  1  0.70622990  0.48864075  0.49781060  1
  Zr  Zr58  1  0.79597919  0.60077805  0.19759483  1
  Zr  Zr59  1  0.89280067  0.08949148  0.90005141  1
  Zr  Zr60  1  0.00691174  0.59937703  0.20233594  1
  Zr  Zr61  1  0.69916399  0.28404227  0.10327716  1
  Zr  Zr62  1  0.60095123  0.59181056  0.20041883  1
  Zr  Zr63  1  0.51217235  0.09240814  0.30121302  1
  Zr  Zr64  1  0.69917662  0.09903691  0.48236074  1
  Zr  Zr65  1  0.10391649  0.70752624  0.70601827  1
  Zr  Zr66  1  0.69779329  0.70138555  0.49592258  1
  Zr  Zr67  1  0.80233744  0.39343733  0.19155316  1
  Zr  Zr68  1  0.40542674  0.59806448  0.39714367  1
  Zr  Zr69  1  0.79666594  0.19165456  0.78352593  1
  Zr  Zr70  1  0.59884545  0.39829223  0.19644166  1
  Zr  Zr71  1  0.20461339  0.80197102  0.18881269  1
  Zr  Zr72  1  0.40290158  0.39827875  0.59563095  1
  Zr  Zr73  1  0.59198725  0.20053104  0.58939878  1
  Zr  Zr74  1  0.70360827  0.28675025  0.30956466  1
  Zr  Zr75  1  0.09709022  0.90946627  0.29654404  1
  Zr  Zr76  1  0.00281845  0.59360780  0.39754200  1
  Zr  Zr77  1  0.30346010  0.50880679  0.90354965  1
  Zr  Zr78  1  0.10403715  0.90346010  0.70877993  1
  Zr  Zr79  1  0.89592235  0.91098986  0.29654135  1
  Zr  Zr80  1  0.69391965  0.69974377  0.70217318  1
  Zr  Zr81  1  0.19640907  0.59828897  0.38846412  1
  Zr  Zr82  1  0.29135275  0.29132510  0.90346907  1
  Zr  Zr83  1  0.40462396  0.19878447  0.41027802  1
  Zr  Zr84  1  0.11014665  0.09520937  0.69654481  1
  Zr  Zr85  1  -0.00084457  0.81147448  0.59381178  1
  Zr  Zr86  1  0.90899091  0.49622066  0.70622490  1
  Zr  Zr87  1  0.29700646  0.70708262  0.70855647  1
  Zr  Zr88  1  0.19569232  -0.00769892  0.00341328  1
  Zr  Zr89  1  0.59486264  0.80242649  0.59619903  1
  Zr  Zr90  1  0.30502484  0.49341974  0.10361618  1
  Zr  Zr91  1  0.21213251  0.19771309  0.39727445  1
  Zr  Zr92  1  0.89780525  0.91175194  0.71828184  1
  Zr  Zr93  1  0.40413005  0.80092511  0.60097835  1
  Zr  Zr94  1  0.80397582  0.81382522  0.59530458  1
  Zr  Zr95  1  -0.01772909  0.20396608  0.59881588  1
  Zr  Zr96  1  0.80378247  0.59288197  0.39810845  1
  Zr  Zr97  1  0.60028159  0.39935460  0.80583364  1
  Zr  Zr98  1  0.50242574  0.91366982  0.08746276  1
  Zr  Zr99  1  0.40354893  0.19058384  0.00432162  1
  Ta  Ta100  1  0.50729268  0.70097638  0.71376784  1
  Ta  Ta101  1  0.79144621  0.80672911  0.19135661  1
  Ta  Ta102  1  0.40594709  0.00533075  0.59788488  1
  Ta  Ta103  1  0.00045947  0.80252388  0.00187268  1
  Ta  Ta104  1  0.50177427  0.90506133  0.70971000  1
  Ta  Ta105  1  0.49633192  0.49823427  0.09838466  1
  Ta  Ta106  1  0.89501657  0.09914825  0.30489353  1
  Ta  Ta107  1  0.79268894  0.59549147  0.80620325  1
  Ta  Ta108  1  0.10318273  0.70987550  0.90304936  1
  Ta  Ta109  1  0.20482610  0.19705888  0.79729337  1
  Ta  Ta110  1  0.79449737  0.39788277  -0.00333908  1
  Ta  Ta111  1  0.59602376  0.40026761  0.59811612  1
  Ta  Ta112  1  0.79961599  0.19773921  0.59199290  1
  Ta  Ta113  1  0.89843720  0.90071523  0.90679483  1
  Ta  Ta114  1  0.40485491  0.81131432  0.39455732  1
  Ta  Ta115  1  0.09116937  0.09918739  0.30344200  1
  Ta  Ta116  1  0.50264433  0.91119872  0.49435803  1
  Ta  Ta117  1  0.41245443  0.79999901  0.81158825  1
  Ta  Ta118  1  0.09165577  0.72177027  0.29657281  1
  Ta  Ta119  1  0.59358302  0.80013173  -0.00117116  1
  Ta  Ta120  1  0.39276539  0.39601819  0.79649612  1
  Ta  Ta121  1  0.90115959  0.48397244  0.30806006  1
  Ta  Ta122  1  0.00207664  0.61345864  0.00571834  1
  Ta  Ta123  1  -0.00308042  0.01049301  0.19568964  1
  Ta  Ta124  1  0.49518257  0.29534831  0.70027158  1
  Ta  Ta125  1  0.79665375  0.60746105  0.00091029  1
  Ta  Ta126  1  0.10340812  0.30116771  0.49524735  1
  Ta  Ta127  1  0.10581341  0.49759390  0.69915454  1
  Ta  Ta128  1  0.10403859  0.48751730  0.49806243  1
  Ta  Ta129  1  0.10045539  0.28965145  0.89720882  1
  Ta  Ta130  1  0.29983199  0.70876546  0.90469751  1
  Ta  Ta131  1  0.20409284  0.80346067  0.59578546  1
  Ta  Ta132  1  0.08994237  0.90043140  0.10507276  1
  Ta  Ta133  1  0.40654383  0.19313977  0.19429680  1
  Ta  Ta134  1  0.20629308  0.39821632  0.79419605  1
  Ta  Ta135  1  -0.00541921  0.19469255  0.19835267  1
  Ta  Ta136  1  0.59828531  0.60336232  0.00417578  1
  Ta  Ta137  1  0.59523211  0.81129161  0.39835338  1
  Ta  Ta138  1  -0.00605529  0.81552827  0.40108340  1
  Ta  Ta139  1  0.00039981  -0.00115650  0.00244517  1
  Ta  Ta140  1  0.21242444  0.00689682  0.39178669  1
  Ta  Ta141  1  0.29789820  0.70692672  0.49379047  1
  Ta  Ta142  1  0.40231933  0.81043450  0.19603981  1
  Ta  Ta143  1  0.59337029  0.59136271  0.59721514  1
  Ta  Ta144  1  0.20343456  0.59856404  0.59913229  1
  Ta  Ta145  1  0.79672897  0.01389927  0.60190928  1
  Ta  Ta146  1  0.09722205  0.29255306  0.30747079  1
  Ta  Ta147  1  0.69864340  0.91074759  0.49231311  1
  Ta  Ta148  1  -0.00166037  0.39599124  0.59400894  1
  Ta  Ta149  1  0.59968163  0.00455129  0.59654535  1
  Ti  Ti150  1  0.50561034  0.70673688  0.10339905  1
  Ti  Ti151  1  0.40679743  0.79733967  -0.00069488  1
  Ti  Ti152  1  0.30434359  0.10409220  0.51252169  1
  Ti  Ti153  1  0.10018926  0.47661288  0.31153616  1
  Ti  Ti154  1  0.70248923  0.09351665  0.90164728  1
  Ti  Ti155  1  0.70032357  0.50172963  0.09093849  1
  Ti  Ti156  1  0.20296740  0.00043576  0.20202725  1
  Ti  Ti157  1  0.29694440  0.08919332  0.89609607  1
  Ti  Ti158  1  0.09854359  0.49879829  0.10025715  1
  Ti  Ti159  1  0.80637992  0.19214501  0.19930258  1
  Ti  Ti160  1  0.29953247  0.29808275  0.50205314  1
  Ti  Ti161  1  0.19360646  0.39401774  0.20332435  1
  Ti  Ti162  1  0.59434952  0.20266540  0.40776940  1
  Ti  Ti163  1  0.00490915  0.39186245  0.79566395  1
  Ti  Ti164  1  0.50305506  0.90526160  0.29509365  1
  Ti  Ti165  1  0.70925289  0.48456912  0.30635329  1
  Ti  Ti166  1  0.60281803  0.00093895  0.19100201  1
  Ti  Ti167  1  0.70362116  0.09931746  0.29659051  1
  Ti  Ti168  1  0.19640730  0.80203075  0.00506867  1
  Ti  Ti169  1  0.20524646  0.81414745  0.39312709  1
  Ti  Ti170  1  0.60353694  0.00209037  0.80008642  1
  Ti  Ti171  1  -0.00724378  0.19622489  0.40693451  1
  Ti  Ti172  1  0.30523893  0.30957109  0.29962871  1
  Ti  Ti173  1  0.89832983  0.09996934  0.09645482  1
  Ti  Ti174  1  0.30545102  0.90170079  0.09762766  1
  Ti  Ti175  1  0.69082208  0.70916742  0.10243078  1
  Ti  Ti176  1  0.48188215  0.48521759  0.29481806  1
  Ti  Ti177  1  0.90290902  0.70829666  0.10352298  1
  Ti  Ti178  1  0.30183430  0.48289189  0.29734367  1
  Ti  Ti179  1  0.30120810  0.09852010  0.69998717  1
  Ti  Ti180  1  0.20352174  0.59882484  0.79937043  1
  Ti  Ti181  1  0.20811075  0.00084810  0.59704840  1
  Ti  Ti182  1  0.39895346  0.00184858  0.19521626  1
  Ti  Ti183  1  0.40423046  0.61683270  0.00482003  1
  Ti  Ti184  1  0.30992919  0.09384154  0.29521132  1
  Ti  Ti185  1  0.80483925  0.20008232  0.00086701  1
  Ti  Ti186  1  0.49846398  0.70361284  0.49567604  1
  Ti  Ti187  1  0.40199686  0.00201373  0.39993629  1
  Ti  Ti188  1  0.19723312  0.81240965  0.81548135  1
  Ti  Ti189  1  0.79624665  0.79803522  0.00644905  1
  Ti  Ti190  1  0.90149849  0.70450057  0.90581471  1
  Ti  Ti191  1  0.70208558  0.28839961  0.89893313  1
  Ti  Ti192  1  0.60801498  0.59297577  0.80316381  1
  Ti  Ti193  1  0.30328354  0.28580397  0.69387804  1
  Ti  Ti194  1  0.39679001  0.60923863  0.80428407  1
  Ti  Ti195  1  0.79985220  0.81243871  0.40143225  1
  Ti  Ti196  1  0.00773000  -0.00254648  0.80976781  1
  Ti  Ti197  1  0.09812300  0.09846187  0.09897245  1
  Ti  Ti198  1  0.29927098  0.09448030  0.09579242  1
  Ti  Ti199  1  0.59730174  0.19354319  0.80483096  1
  Mo  Mo200  1  0.89958796  0.29712607  0.49385383  1
  Mo  Mo201  1  0.50032169  0.69714443  0.90250312  1
  Mo  Mo202  1  0.50141783  0.29530521  0.10767044  1
  Mo  Mo203  1  0.29499573  0.50697625  0.70998505  1
  Mo  Mo204  1  0.69273288  0.09732139  0.69748519  1
  Mo  Mo205  1  -0.00232203  0.01002177  0.39755919  1
  Mo  Mo206  1  0.39605180  0.19795673  0.60331463  1
  Mo  Mo207  1  0.20119366  0.18943030  -0.00211572  1
  Mo  Mo208  1  -0.00824907  0.80792845  0.19625563  1
  Mo  Mo209  1  0.38972408  -0.00074990  0.00949108  1
  Mo  Mo210  1  -0.00409969  0.19279799  0.00380294  1
  Mo  Mo211  1  0.30938341  0.91126456  0.29651549  1
  Mo  Mo212  1  0.89277555  0.10292271  0.49103046  1
  Mo  Mo213  1  0.80200615  0.19840715  0.40173407  1
  Mo  Mo214  1  0.70217863  0.50946968  0.91061240  1
  Mo  Mo215  1  0.50302325  0.29976263  0.88602972  1
  Mo  Mo216  1  0.91044698  0.48703106  0.49549958  1
  Mo  Mo217  1  0.59347125  0.80396061  0.80641985  1
  Mo  Mo218  1  0.08889458  0.71173750  0.09967580  1
  Mo  Mo219  1  0.00308395  0.39267452  0.40466484  1
  Mo  Mo220  1  0.50444110  0.89484159  0.89820299  1
  Mo  Mo221  1  0.89768386  0.28426313  0.09555288  1
  Mo  Mo222  1  0.59812150  0.18831190  0.19527280  1
  Mo  Mo223  1  0.89146741  0.09556762  0.69881942  1
  Mo  Mo224  1  0.80148334  0.00899920  0.19998185  1
  Mo  Mo225  1  0.59897316  -0.00172726  0.39717727  1
  Mo  Mo226  1  0.20507443  0.00474160  0.80273706  1
  Mo  Mo227  1  0.39459916  0.39456227  0.39709672  1
  Mo  Mo228  1  0.09594351  0.89836423  0.90650294  1
  Mo  Mo229  1  0.49689313  0.09445623  0.49976158  1
  Mo  Mo230  1  0.19961769  0.38993947  0.39659395  1
  Mo  Mo231  1  0.90228216  0.30103632  0.69931503  1
  Mo  Mo232  1  0.70048677  0.29493546  0.50072431  1
  Mo  Mo233  1  0.69790859  0.89707527  0.09994106  1
  Mo  Mo234  1  0.88901045  0.91298564  0.48911528  1
  Mo  Mo235  1  -0.00094841  0.80300809  0.81990219  1
  Mo  Mo236  1  0.39895710  -0.00109738  0.79357128  1
  Mo  Mo237  1  0.39978593  0.39632939  0.19736594  1
  Mo  Mo238  1  0.21074142  0.20205935  0.59909046  1
  Mo  Mo239  1  0.80007399  0.00471174  0.39841341  1
  Mo  Mo240  1  0.59930156  0.80981380  0.19392120  1
  Mo  Mo241  1  0.79065547  0.00197289  0.80056330  1
  Mo  Mo242  1  0.50497899  0.09697837  0.10601257  1
  Mo  Mo243  1  0.49767486  0.49796209  0.50178288  1
  Mo  Mo244  1  0.31484892  0.71522476  0.09408390  1
  Mo  Mo245  1  0.49430589  0.29938621  0.50476647  1
  Mo  Mo246  1  0.60713235  -0.00060144  -0.00113088  1
  Mo  Mo247  1  0.80685318  0.39182987  0.40758717  1
  Mo  Mo248  1  0.69440932  0.50033991  0.69697720  1
  Mo  Mo249  1  0.80290687  0.00075972  -0.00046736  1
