# generated using pymatgen
data_HfZrTaTiMo
_symmetry_space_group_name_H-M   'P 1'
_cell_length_a   16.88586843
_cell_length_b   16.87971998
_cell_length_c   16.89558277
_cell_angle_alpha   90.03556364
_cell_angle_beta   90.02836570
_cell_angle_gamma   90.05759077
_symmetry_Int_Tables_number   1
_chemical_formula_structural   HfZrTaTiMo
_chemical_formula_sum   'Hf50 Zr50 Ta50 Ti50 Mo50'
_cell_volume   4815.72256116
_cell_formula_units_Z   50
loop_
 _symmetry_equiv_pos_site_id
 _symmetry_equiv_pos_as_xyz
  1  'x, y, z'
loop_
 _atom_site_type_symbol
 _atom_site_label
 _atom_site_symmetry_multiplicity
 _atom_site_fract_x
 _atom_site_fract_y
 _atom_site_fract_z
 _atom_site_occupancy
  Hf  Hf0  1  0.59607365  0.40054417  0.79481395  1
  Hf  Hf1  1  0.70426741  0.30376690  0.10751144  1
  Hf  Hf2  1  0.80559592  0.79982505  0.20149690  1
  Hf  Hf3  1  0.00129403  0.40680504  0.39812485  1
  Hf  Hf4  1  0.49317844  0.90187644  0.68540489  1
  Hf  Hf5  1  0.79814095  0.00103359  0.39491787  1
  Hf  Hf6  1  -0.00064962  0.40222806  0.79099136  1
  Hf  Hf7  1  0.59449423  0.20058241  -0.00111702  1
  Hf  Hf8  1  0.30075118  0.09599780  0.70532269  1
  Hf  Hf9  1  0.39987859  0.79470684  0.00864857  1
  Hf  Hf10  1  0.29894698  0.49763905  0.90224741  1
  Hf  Hf11  1  0.09384020  0.28918151  0.11135533  1
  Hf  Hf12  1  -0.00144358  0.59344028  0.78539044  1
  Hf  Hf13  1  0.69704414  0.10092855  0.50098050  1
  Hf  Hf14  1  0.30033135  0.90808520  0.49854713  1
  Hf  Hf15  1  0.59501789  0.40069851  0.00238881  1
  Hf  Hf16  1  0.90753829  0.70442273  0.68614642  1
  Hf  Hf17  1  0.29428540  0.49755910  0.11361855  1
  Hf  Hf18  1  0.69704800  0.89773217  0.91066848  1
  Hf  Hf19  1  0.39924531  0.60830990  0.19965673  1
  Hf  Hf20  1  0.80380321  0.19442882  0.39901620  1
  Hf  Hf21  1  0.59354217  0.61012271  0.19957515  1
  Hf  Hf22  1  0.80353140  0.79832619  0.79793875  1
  Hf  Hf23  1  0.69437141  0.09321011  0.09695094  1
  Hf  Hf24  1  0.19649024  0.60292951  0.60687563  1
  Hf  Hf25  1  0.09741683  0.11366700  0.28911588  1
  Hf  Hf26  1  0.09957095  0.69048904  0.10549354  1
  Hf  Hf27  1  0.70674717  0.29981880  0.89864080  1
  Hf  Hf28  1  0.70940352  0.49701091  0.29239603  1
  Hf  Hf29  1  0.49401958  0.10461850  0.49167054  1
  Hf  Hf30  1  0.40238808  0.40148659  0.79183534  1
  Hf  Hf31  1  0.30319001  0.90551650  0.10012524  1
  Hf  Hf32  1  0.80378361  0.00308593  0.20299369  1
  Hf  Hf33  1  0.19836377  0.39529688  0.61061411  1
  Hf  Hf34  1  0.70328064  0.29880471  0.30086500  1
  Hf  Hf35  1  0.80753070  0.19741775  0.19693222  1
  Hf  Hf36  1  0.90965000  0.90176837  0.68727939  1
  Hf  Hf37  1  0.30091031  0.70201127  0.50162587  1
  Hf  Hf38  1  0.81157053  0.40029930  0.78231292  1
  Hf  Hf39  1  0.10078970  0.50269206  0.90843955  1
  Hf  Hf40  1  0.70322545  0.90253711  0.68009496  1
  Hf  Hf41  1  0.90670358  0.30288535  0.29635064  1
  Hf  Hf42  1  0.40830104  0.60546103  0.60371751  1
  Hf  Hf43  1  0.70260913  0.70043658  0.91139577  1
  Hf  Hf44  1  0.41560511  0.79824611  0.20190882  1
  Hf  Hf45  1  0.81003354  0.39936108  0.01234267  1
  Hf  Hf46  1  0.19251845  0.20179258  0.40222859  1
  Hf  Hf47  1  0.19787725  0.00690223  0.00298130  1
  Hf  Hf48  1  0.00574726  0.79754940  0.00083307  1
  Hf  Hf49  1  0.29599515  0.49700214  0.49480842  1
  Zr  Zr50  1  0.20351933  0.60027108  0.01187512  1
  Zr  Zr51  1  0.91365803  0.90169633  0.30293369  1
  Zr  Zr52  1  0.90403473  0.50833846  0.91023634  1
  Zr  Zr53  1  0.10316521  0.90763887  0.29791487  1
  Zr  Zr54  1  0.79379099  0.60238467  0.78702576  1
  Zr  Zr55  1  0.19406502  0.80383898  0.79570483  1
  Zr  Zr56  1  0.60134254  0.79334531  0.78792060  1
  Zr  Zr57  1  0.69850071  0.89822220  0.10161757  1
  Zr  Zr58  1  0.80412161  0.59658791  0.59645368  1
  Zr  Zr59  1  0.39321294  0.19995583  0.00764310  1
  Zr  Zr60  1  0.80035434  -0.00191446  0.79847359  1
  Zr  Zr61  1  0.70499645  0.09800623  0.90638876  1
  Zr  Zr62  1  0.49077339  0.49820368  0.30329188  1
  Zr  Zr63  1  0.18939705  0.19231685  0.79554425  1
  Zr  Zr64  1  0.39702145  0.39026838  0.40204090  1
  Zr  Zr65  1  0.18789624  0.00671689  0.59890345  1
  Zr  Zr66  1  0.58569948  0.19335028  0.20272463  1
  Zr  Zr67  1  0.91144992  0.10170396  0.89973101  1
  Zr  Zr68  1  0.92547061  0.10089427  0.09720642  1
  Zr  Zr69  1  0.49651259  0.10383221  0.69353153  1
  Zr  Zr70  1  0.60145391  0.38891214  0.40426192  1
  Zr  Zr71  1  0.90526068  0.09399852  0.69562898  1
  Zr  Zr72  1  0.40995171  0.79684661  0.39935514  1
  Zr  Zr73  1  0.29686670  0.90499156  0.30596430  1
  Zr  Zr74  1  0.00821529  0.18948849  0.59525359  1
  Zr  Zr75  1  0.60372095  0.19638745  0.79770055  1
  Zr  Zr76  1  0.90965413  0.29348713  0.90487974  1
  Zr  Zr77  1  0.09654819  0.29820268  0.90644891  1
  Zr  Zr78  1  0.10464513  0.50196718  0.29855193  1
  Zr  Zr79  1  0.70038784  0.71145388  0.49862231  1
  Zr  Zr80  1  0.40443169  0.00185651  0.20441991  1
  Zr  Zr81  1  0.18826187  0.79689883  0.40907494  1
  Zr  Zr82  1  0.40639866  0.59871933  0.78695471  1
  Zr  Zr83  1  0.29600457  0.69672182  0.89422661  1
  Zr  Zr84  1  0.29720857  0.30193812  0.89679312  1
  Zr  Zr85  1  0.09708908  0.69918482  0.30053739  1
  Zr  Zr86  1  0.59803599  0.59705102  0.78901087  1
  Zr  Zr87  1  0.80195748  0.60292217  0.40184595  1
  Zr  Zr88  1  0.50045409  0.69791465  0.90079407  1
  Zr  Zr89  1  0.59438609  0.61081894  0.40044048  1
  Zr  Zr90  1  0.09769820  0.30610272  0.49470966  1
  Zr  Zr91  1  0.30462316  0.09841861  0.89755877  1
  Zr  Zr92  1  0.50600554  0.49379382  0.50826499  1
  Zr  Zr93  1  0.58631187  0.39710353  0.20179376  1
  Zr  Zr94  1  0.70135994  0.50084750  0.90474636  1
  Zr  Zr95  1  0.59923536  0.61289769  0.61074183  1
  Zr  Zr96  1  0.29877396  0.90359031  0.89794785  1
  Zr  Zr97  1  0.00730123  0.01823695  0.41100813  1
  Zr  Zr98  1  0.59773417  -0.00151506  0.80022044  1
  Zr  Zr99  1  -0.00842910  0.40724106  0.60966192  1
  Ta  Ta100  1  0.70212118  0.29793399  0.68818645  1
  Ta  Ta101  1  0.39246959  0.38682044  0.20197839  1
  Ta  Ta102  1  0.20251487  0.01425308  0.19430340  1
  Ta  Ta103  1  0.01693313  -0.00157507  0.79700990  1
  Ta  Ta104  1  0.19694517  0.79780365  0.00594951  1
  Ta  Ta105  1  0.49534296  0.08667143  0.09086944  1
  Ta  Ta106  1  0.81106921  -0.00457411  0.00253168  1
  Ta  Ta107  1  0.09820668  0.90716200  0.10403743  1
  Ta  Ta108  1  0.20109499  0.19526210  0.01477087  1
  Ta  Ta109  1  0.09439186  0.69407441  0.89923434  1
  Ta  Ta110  1  0.70405145  0.69965289  0.10324355  1
  Ta  Ta111  1  0.70613939  0.50506097  0.10765558  1
  Ta  Ta112  1  0.29331155  0.49909871  0.30377699  1
  Ta  Ta113  1  0.29903559  0.10307747  0.30706576  1
  Ta  Ta114  1  0.90413637  0.69791157  0.29889542  1
  Ta  Ta115  1  0.91204500  0.90311657  0.09875916  1
  Ta  Ta116  1  0.90168509  0.69558145  0.10188520  1
  Ta  Ta117  1  0.69632992  0.48082061  0.67979175  1
  Ta  Ta118  1  0.19827065  0.39512143  0.01555764  1
  Ta  Ta119  1  0.39914706  0.39365338  0.60325665  1
  Ta  Ta120  1  0.20124590  0.19796340  0.59922786  1
  Ta  Ta121  1  0.00215544  0.79982415  0.80250956  1
  Ta  Ta122  1  0.59069763  0.79639194  0.01631366  1
  Ta  Ta123  1  0.59575391  0.80457947  0.39281474  1
  Ta  Ta124  1  0.49291972  0.49812677  0.90923392  1
  Ta  Ta125  1  0.40187150  0.60241235  0.01223725  1
  Ta  Ta126  1  0.80298586  0.80221765  0.39739431  1
  Ta  Ta127  1  0.39066257  0.19788942  0.20036533  1
  Ta  Ta128  1  0.89797267  0.29809330  0.49902187  1
  Ta  Ta129  1  0.00162514  0.79891185  0.19759669  1
  Ta  Ta130  1  0.90079769  0.90077606  0.50054360  1
  Ta  Ta131  1  0.89836064  0.50451366  0.29519125  1
  Ta  Ta132  1  -0.00300393  0.60631216  0.41142306  1
  Ta  Ta133  1  0.49892500  0.29409602  0.69396462  1
  Ta  Ta134  1  0.90553517  0.69835462  0.90600131  1
  Ta  Ta135  1  0.80541339  0.20375667  0.78781940  1
  Ta  Ta136  1  0.91038064  0.90166910  0.90257901  1
  Ta  Ta137  1  0.69921673  0.90285415  0.49459469  1
  Ta  Ta138  1  0.59445958  -0.00484938  0.39390195  1
  Ta  Ta139  1  0.38865760  0.20573033  0.59473943  1
  Ta  Ta140  1  0.49098073  0.29750073  0.89559111  1
  Ta  Ta141  1  0.29343027  0.69356184  0.29915023  1
  Ta  Ta142  1  0.59154491  -0.00697931  0.20484218  1
  Ta  Ta143  1  0.10068461  0.50488034  0.50321079  1
  Ta  Ta144  1  0.40386575  -0.00402357  0.80110674  1
  Ta  Ta145  1  0.40290322  0.80651644  0.79476175  1
  Ta  Ta146  1  0.28847227  0.29770289  0.30070111  1
  Ta  Ta147  1  0.09509423  0.70308704  0.69566352  1
  Ta  Ta148  1  0.19458765  0.80235570  0.60033574  1
  Ta  Ta149  1  0.59527890  0.59907311  0.01152415  1
  Ti  Ti150  1  0.80397468  0.80014383  0.58979446  1
  Ti  Ti151  1  0.29816765  0.90454263  0.69901279  1
  Ti  Ti152  1  0.49290873  0.49699066  0.10036091  1
  Ti  Ti153  1  0.19462158  0.59804584  0.79198171  1
  Ti  Ti154  1  0.19408890  0.60141343  0.40473828  1
  Ti  Ti155  1  0.49180767  0.10109038  0.31223540  1
  Ti  Ti156  1  0.60007213  0.20320302  0.59643268  1
  Ti  Ti157  1  0.90124202  0.49907710  0.50174196  1
  Ti  Ti158  1  0.49169368  0.29745102  0.10070156  1
  Ti  Ti159  1  0.00309164  0.40614420  0.01790445  1
  Ti  Ti160  1  0.30032041  0.09830540  0.48985323  1
  Ti  Ti161  1  0.70424635  0.29847648  0.50314996  1
  Ti  Ti162  1  0.19277748  0.40322292  0.79304878  1
  Ti  Ti163  1  0.30230473  0.29165516  0.70553229  1
  Ti  Ti164  1  0.70202959  0.70525384  0.29416026  1
  Ti  Ti165  1  0.49041491  0.28188700  0.31194332  1
  Ti  Ti166  1  0.80412951  0.40098881  0.40416026  1
  Ti  Ti167  1  0.10108297  0.90210657  0.90228564  1
  Ti  Ti168  1  0.09555842  0.89965537  0.69405614  1
  Ti  Ti169  1  0.68721174  0.10249516  0.30312254  1
  Ti  Ti170  1  0.29525883  0.30093032  0.49722152  1
  Ti  Ti171  1  0.09376388  0.90522221  0.49674156  1
  Ti  Ti172  1  0.91503051  0.10471278  0.29578568  1
  Ti  Ti173  1  0.39343447  0.39678476  0.00780757  1
  Ti  Ti174  1  0.59799391  0.00136796  0.59081018  1
  Ti  Ti175  1  0.89846503  0.50667443  0.11058093  1
  Ti  Ti176  1  0.49809526  0.28841674  0.49915850  1
  Ti  Ti177  1  -0.00043779  0.40239148  0.19672725  1
  Ti  Ti178  1  0.80556385  0.20419648  0.60136392  1
  Ti  Ti179  1  0.80890600  0.80155775  0.00363458  1
  Ti  Ti180  1  0.49936371  0.90580016  0.91262153  1
  Ti  Ti181  1  0.70556174  0.09860662  0.68794075  1
  Ti  Ti182  1  0.49556385  0.90554913  0.49655067  1
  Ti  Ti183  1  0.80174070  0.60199191  0.01013083  1
  Ti  Ti184  1  0.58825955  0.79733123  0.58965641  1
  Ti  Ti185  1  0.69872940  0.48888535  0.50394018  1
  Ti  Ti186  1  0.39508692  0.00540462  0.59598005  1
  Ti  Ti187  1  -0.00080952  0.59484417  0.19889364  1
  Ti  Ti188  1  0.30189261  0.71273925  0.69708236  1
  Ti  Ti189  1  0.89653382  0.09554384  0.50759683  1
  Ti  Ti190  1  0.69448362  0.89608506  0.29847754  1
  Ti  Ti191  1  0.40463252  0.60696816  0.39986411  1
  Ti  Ti192  1  0.19457912  0.39318521  0.20432878  1
  Ti  Ti193  1  0.80859558  0.20043610  0.00693751  1
  Ti  Ti194  1  0.29852108  0.49859629  0.69929083  1
  Ti  Ti195  1  0.09403906  0.10128736  0.90413780  1
  Ti  Ti196  1  0.00887222  0.79432305  0.58141226  1
  Ti  Ti197  1  0.09160510  0.28959178  0.70379795  1
  Ti  Ti198  1  0.20445303  0.79657225  0.19320824  1
  Ti  Ti199  1  0.49420804  0.09559434  0.90309540  1
  Mo  Mo200  1  0.38982078  0.20139945  0.40044996  1
  Mo  Mo201  1  0.00033151  0.20415034  0.20276562  1
  Mo  Mo202  1  0.50431196  0.69932861  0.10239894  1
  Mo  Mo203  1  0.00365125  0.60027775  0.59255357  1
  Mo  Mo204  1  0.90465913  0.70989895  0.49343192  1
  Mo  Mo205  1  0.60604348  0.80012379  0.20466406  1
  Mo  Mo206  1  0.49803008  0.70903782  0.50006885  1
  Mo  Mo207  1  0.50296343  0.48159804  0.69481484  1
  Mo  Mo208  1  0.80279964  0.60494100  0.19905917  1
  Mo  Mo209  1  0.19041117  -0.00366346  0.79890847  1
  Mo  Mo210  1  0.10605978  0.50461567  0.70142471  1
  Mo  Mo211  1  0.01106246  0.19793808  0.00093857  1
  Mo  Mo212  1  0.48847953  0.72015323  0.69319061  1
  Mo  Mo213  1  0.10113076  0.09610023  0.70081222  1
  Mo  Mo214  1  0.09807919  0.30475767  0.29747124  1
  Mo  Mo215  1  0.80031274  -0.00218815  0.58801888  1
  Mo  Mo216  1  0.90747993  0.30026542  0.10287616  1
  Mo  Mo217  1  0.59866828  0.38153986  0.59609307  1
  Mo  Mo218  1  0.50350102  0.90152179  0.10055813  1
  Mo  Mo219  1  0.60082376  0.19560547  0.40015058  1
  Mo  Mo220  1  0.29641469  0.70454934  0.10735447  1
  Mo  Mo221  1  0.00045969  0.19474480  0.79756215  1
  Mo  Mo222  1  0.09721425  0.49250732  0.10697868  1
  Mo  Mo223  1  0.00181603  -0.00644154  0.59670193  1
  Mo  Mo224  1  0.10507845  0.10058771  0.09957662  1
  Mo  Mo225  1  0.00922495  -0.00626901  -0.00581673  1
  Mo  Mo226  1  0.50721046  0.90216061  0.30173823  1
  Mo  Mo227  1  0.50210980  0.70292770  0.30231271  1
  Mo  Mo228  1  0.20496784  0.20185535  0.20221782  1
  Mo  Mo229  1  0.39178522  0.80634013  0.60054124  1
  Mo  Mo230  1  0.81115532  0.40592895  0.19831401  1
  Mo  Mo231  1  -0.00308006  0.59980174  0.00698191  1
  Mo  Mo232  1  0.20353123  0.59855187  0.20775410  1
  Mo  Mo233  1  0.79841223  0.39442791  0.58766988  1
  Mo  Mo234  1  0.40267536  -0.00201501  -0.00330649  1
  Mo  Mo235  1  0.30170237  0.10194771  0.10638570  1
  Mo  Mo236  1  0.89796975  0.29080991  0.69345210  1
  Mo  Mo237  1  -0.00554244  0.20454819  0.40013239  1
  Mo  Mo238  1  0.70708478  0.71825113  0.68979792  1
  Mo  Mo239  1  0.10709842  0.10488155  0.49803678  1
  Mo  Mo240  1  -0.00531440  0.79695882  0.40351755  1
  Mo  Mo241  1  0.19924840  0.40182751  0.39952094  1
  Mo  Mo242  1  0.00830606  -0.00028666  0.19665689  1
  Mo  Mo243  1  0.40208629  0.00379274  0.40162045  1
  Mo  Mo244  1  0.40504540  0.20003186  0.79554573  1
  Mo  Mo245  1  0.89320004  0.50322220  0.68923488  1
  Mo  Mo246  1  0.29434001  0.30202997  0.10922223  1
  Mo  Mo247  1  0.09766245  0.69591175  0.50470949  1
  Mo  Mo248  1  0.20102344  0.00884048  0.39888479  1
  Mo  Mo249  1  0.59166804  -0.00646688  0.00288520  1
