# generated using pymatgen
data_HfZrTaTiMo
_symmetry_space_group_name_H-M   'P 1'
_cell_length_a   16.89806544
_cell_length_b   16.88605593
_cell_length_c   16.88575761
_cell_angle_alpha   90.02616576
_cell_angle_beta   89.99526829
_cell_angle_gamma   89.98421897
_symmetry_Int_Tables_number   1
_chemical_formula_structural   HfZrTaTiMo
_chemical_formula_sum   'Hf50 Zr50 Ta50 Ti50 Mo50'
_cell_volume   4818.20971141
_cell_formula_units_Z   50
loop_
 _symmetry_equiv_pos_site_id
 _symmetry_equiv_pos_as_xyz
  1  'x, y, z'
loop_
 _atom_site_type_symbol
 _atom_site_label
 _atom_site_symmetry_multiplicity
 _atom_site_fract_x
 _atom_site_fract_y
 _atom_site_fract_z
 _atom_site_occupancy
  Hf  Hf0  1  0.90800135  0.90031903  0.68957801  1
  Hf  Hf1  1  0.39047681  0.20061149  0.41151379  1
  Hf  Hf2  1  0.00809649  0.60096738  0.00561170  1
  Hf  Hf3  1  0.49533271  0.49318299  0.31131084  1
  Hf  Hf4  1  0.80594559  0.39773749  -0.00352405  1
  Hf  Hf5  1  0.00171336  0.00181610  0.00319728  1
  Hf  Hf6  1  0.79607332  0.00376559  0.59330733  1
  Hf  Hf7  1  0.39665433  0.00969737  0.79836166  1
  Hf  Hf8  1  0.70494646  0.51149086  0.09743712  1
  Hf  Hf9  1  0.79986553  0.80583039  0.59912413  1
  Hf  Hf10  1  0.29989288  0.89642147  0.69596871  1
  Hf  Hf11  1  0.80909069  0.81118988  0.40431853  1
  Hf  Hf12  1  0.89777099  0.90477619  0.89584105  1
  Hf  Hf13  1  0.50368298  0.69438307  0.10227595  1
  Hf  Hf14  1  0.39509171  0.01063584  0.59204573  1
  Hf  Hf15  1  0.60058476  0.01222243  0.20390515  1
  Hf  Hf16  1  0.89632542  0.68636770  0.89384380  1
  Hf  Hf17  1  0.28140203  0.88824947  0.10291759  1
  Hf  Hf18  1  0.60479304  0.00463578  0.60162224  1
  Hf  Hf19  1  0.80987926  0.58104430  0.60436315  1
  Hf  Hf20  1  0.39256772  0.60110161  0.19702196  1
  Hf  Hf21  1  0.10851863  0.89618950  0.89453248  1
  Hf  Hf22  1  0.48982057  0.30845167  0.69603852  1
  Hf  Hf23  1  0.71121482  0.51310439  0.89630228  1
  Hf  Hf24  1  0.79918073  0.20882248  0.78185515  1
  Hf  Hf25  1  0.80174350  0.19629241  0.39869527  1
  Hf  Hf26  1  0.59368584  0.59489447  0.79903852  1
  Hf  Hf27  1  0.21063607  0.59626151  0.00946116  1
  Hf  Hf28  1  0.09993591  0.50771338  0.89050796  1
  Hf  Hf29  1  0.80479041  0.00042744  0.40259223  1
  Hf  Hf30  1  0.20512375  0.60260856  0.20458362  1
  Hf  Hf31  1  0.39245668  0.41202066  0.00581171  1
  Hf  Hf32  1  0.39337708  0.00049226  0.40363492  1
  Hf  Hf33  1  0.11720010  0.72285225  0.10387488  1
  Hf  Hf34  1  0.00175381  0.39242531  0.79166629  1
  Hf  Hf35  1  0.69223175  0.90347780  0.89799768  1
  Hf  Hf36  1  0.69587929  0.69149592  0.50393684  1
  Hf  Hf37  1  0.60978144  0.20297941  0.60758230  1
  Hf  Hf38  1  0.39937209  0.78672613  0.58029484  1
  Hf  Hf39  1  0.10140839  0.90023961  0.69021832  1
  Hf  Hf40  1  0.00001859  0.01161996  0.79309744  1
  Hf  Hf41  1  0.70343710  0.69969398  0.30975275  1
  Hf  Hf42  1  0.79101702  0.00628158  0.78712012  1
  Hf  Hf43  1  0.79497814  0.79760202  0.79079944  1
  Hf  Hf44  1  0.09722849  0.69900230  0.50348119  1
  Hf  Hf45  1  0.59557922  0.79092311  0.80017422  1
  Hf  Hf46  1  0.80605833  0.40173558  0.79075279  1
  Hf  Hf47  1  0.59723963  0.00868116  0.79164731  1
  Hf  Hf48  1  0.49798994  0.30707585  0.10666527  1
  Hf  Hf49  1  0.19907364  0.39208828  0.79186250  1
  Zr  Zr50  1  0.20223000  0.40091118  0.41001775  1
  Zr  Zr51  1  0.00431957  0.20640988  -0.00643990  1
  Zr  Zr52  1  0.59749465  0.40877223  -0.00039714  1
  Zr  Zr53  1  0.20162038  0.39917164  -0.00248603  1
  Zr  Zr54  1  0.49284708  0.30738531  0.89367834  1
  Zr  Zr55  1  0.79849425  0.40287745  0.39116882  1
  Zr  Zr56  1  0.61729369  0.40053544  0.21342206  1
  Zr  Zr57  1  0.10090136  0.29735443  0.49836645  1
  Zr  Zr58  1  0.00127463  -0.00479881  0.40361618  1
  Zr  Zr59  1  0.69520386  0.90032279  0.09716400  1
  Zr  Zr60  1  0.89924426  0.70037856  0.10626585  1
  Zr  Zr61  1  0.50807504  0.67933736  0.66831634  1
  Zr  Zr62  1  0.20189716  0.19837343  0.19658801  1
  Zr  Zr63  1  -0.00299221  0.78985568  0.79032991  1
  Zr  Zr64  1  0.60133110  0.79582710  0.20114638  1
  Zr  Zr65  1  -0.00319389  0.19237005  0.39988657  1
  Zr  Zr66  1  -0.00053231  0.20978700  0.79863044  1
  Zr  Zr67  1  0.70285954  0.68642434  0.69705292  1
  Zr  Zr68  1  0.79440725  0.21009351  0.21189233  1
  Zr  Zr69  1  0.49064888  0.90473319  0.10550198  1
  Zr  Zr70  1  0.09371724  0.70947491  0.30921271  1
  Zr  Zr71  1  0.00336152  0.19970281  0.19832716  1
  Zr  Zr72  1  0.39478820  0.00747437  0.00224537  1
  Zr  Zr73  1  0.69411274  0.30029108  0.89758440  1
  Zr  Zr74  1  0.39670202  0.79160583  0.00236726  1
  Zr  Zr75  1  0.29244013  0.70132475  0.90114572  1
  Zr  Zr76  1  0.40060596  0.19166970  0.19162110  1
  Zr  Zr77  1  0.79542502  0.79920010  0.00068199  1
  Zr  Zr78  1  0.00183454  0.59772005  0.20322066  1
  Zr  Zr79  1  0.40435694  0.78787705  0.79401578  1
  Zr  Zr80  1  0.70449973  0.10871316  0.09455092  1
  Zr  Zr81  1  0.49687505  0.69706145  0.31102849  1
  Zr  Zr82  1  0.49607601  0.10088963  0.30386552  1
  Zr  Zr83  1  0.10796419  0.10055597  0.89784972  1
  Zr  Zr84  1  0.40074871  0.60033513  0.79550853  1
  Zr  Zr85  1  0.00052909  0.80458219  0.00143767  1
  Zr  Zr86  1  0.00207510  0.39400500  -0.00860250  1
  Zr  Zr87  1  0.30279577  0.30592030  0.29820844  1
  Zr  Zr88  1  0.90708866  0.70123451  0.50383474  1
  Zr  Zr89  1  0.49381116  0.89876393  0.30542752  1
  Zr  Zr90  1  0.20568806  0.59549836  0.41549170  1
  Zr  Zr91  1  0.89856296  0.09986052  0.10104492  1
  Zr  Zr92  1  0.80387908  0.39294848  0.60714405  1
  Zr  Zr93  1  0.49934176  0.30663998  0.31150985  1
  Zr  Zr94  1  0.09612060  0.49235337  0.30792155  1
  Zr  Zr95  1  -0.00216033  0.20537448  0.60353054  1
  Zr  Zr96  1  0.49696986  0.89831745  0.69355269  1
  Zr  Zr97  1  0.49923198  0.49770115  0.51110761  1
  Zr  Zr98  1  0.80127254  0.80272268  0.20468623  1
  Zr  Zr99  1  0.59002164  0.01087819  -0.00190077  1
  Ta  Ta100  1  0.20262549  0.39708326  0.59999007  1
  Ta  Ta101  1  0.90194930  0.50786797  0.89486878  1
  Ta  Ta102  1  0.39499830  0.19891469  0.00074867  1
  Ta  Ta103  1  0.90392522  0.09093569  0.29324786  1
  Ta  Ta104  1  0.80513564  0.40438021  0.20458346  1
  Ta  Ta105  1  0.10342500  0.30489089  0.10410558  1
  Ta  Ta106  1  0.19936407  -0.00072990  0.00125657  1
  Ta  Ta107  1  0.79589127  -0.00150769  0.20789948  1
  Ta  Ta108  1  0.69830359  0.30096245  0.49756225  1
  Ta  Ta109  1  0.10055870  0.30096643  0.29946126  1
  Ta  Ta110  1  0.20599027  0.00621794  0.79265665  1
  Ta  Ta111  1  0.10768906  0.10239438  0.69069461  1
  Ta  Ta112  1  0.69254929  0.90300647  0.30929054  1
  Ta  Ta113  1  0.60414521  0.00810215  0.40652776  1
  Ta  Ta114  1  0.10769248  0.10021495  0.50205907  1
  Ta  Ta115  1  0.30409123  0.49439376  0.69225654  1
  Ta  Ta116  1  0.60613781  0.58804794  0.40391472  1
  Ta  Ta117  1  0.30312319  0.29798964  0.89643865  1
  Ta  Ta118  1  0.10375480  0.09368598  0.29981455  1
  Ta  Ta119  1  0.59003699  0.20098902  0.00329275  1
  Ta  Ta120  1  0.20138215  0.20531158  0.79365638  1
  Ta  Ta121  1  -0.00299736  0.39978963  0.20061638  1
  Ta  Ta122  1  -0.00016425  0.59050078  0.60295671  1
  Ta  Ta123  1  0.89958550  0.30450496  0.10184660  1
  Ta  Ta124  1  0.00183639  0.40444380  0.59831914  1
  Ta  Ta125  1  0.50431347  0.11036413  0.50139878  1
  Ta  Ta126  1  0.20352717  0.00068510  0.59232516  1
  Ta  Ta127  1  0.31057703  0.49869923  0.30722816  1
  Ta  Ta128  1  0.49389682  0.89720229  0.89791242  1
  Ta  Ta129  1  0.90669378  0.70035935  0.30852199  1
  Ta  Ta130  1  0.38609494  0.79804781  0.20594700  1
  Ta  Ta131  1  0.89861251  0.50000461  0.09945250  1
  Ta  Ta132  1  0.29434666  0.09004931  0.29942510  1
  Ta  Ta133  1  0.19750625  -0.00460783  0.40277895  1
  Ta  Ta134  1  0.59795583  0.19828184  0.79472552  1
  Ta  Ta135  1  0.29838051  0.89558089  0.49515519  1
  Ta  Ta136  1  0.20142702  0.59777942  0.78958277  1
  Ta  Ta137  1  0.80676422  0.58979344  0.40008635  1
  Ta  Ta138  1  0.10438452  0.69719330  0.89293960  1
  Ta  Ta139  1  0.29564718  0.90117453  0.89589443  1
  Ta  Ta140  1  0.39221017  0.20153985  0.79580644  1
  Ta  Ta141  1  0.29922983  0.70753209  0.31149753  1
  Ta  Ta142  1  0.80310198  0.59374265  0.21210877  1
  Ta  Ta143  1  0.89828612  0.30175720  0.49897208  1
  Ta  Ta144  1  0.09965528  0.69379239  0.69434306  1
  Ta  Ta145  1  0.80065112  0.00408526  -0.00249378  1
  Ta  Ta146  1  0.60455131  0.20202886  0.20341647  1
  Ta  Ta147  1  0.19921438  0.79771928  0.59187520  1
  Ta  Ta148  1  0.20654467  0.20080696  0.00286703  1
  Ta  Ta149  1  0.69973425  0.10816657  0.89822661  1
  Ti  Ti150  1  0.49641764  0.11000221  0.89797575  1
  Ti  Ti151  1  0.49194685  0.49270428  0.69325860  1
  Ti  Ti152  1  0.59035975  0.60077605  -0.00798721  1
  Ti  Ti153  1  0.49171232  0.11148005  0.69305839  1
  Ti  Ti154  1  0.30322664  0.49727487  0.88698048  1
  Ti  Ti155  1  0.60558571  0.59520766  0.21202778  1
  Ti  Ti156  1  0.91026105  0.30670301  0.30292604  1
  Ti  Ti157  1  0.20112066  0.79499779  0.79130172  1
  Ti  Ti158  1  0.38040346  0.59737300  0.58552626  1
  Ti  Ti159  1  0.20554792  0.19393313  0.40398908  1
  Ti  Ti160  1  -0.00768420  0.58079743  0.40995923  1
  Ti  Ti161  1  0.09658615  0.90082216  0.11512987  1
  Ti  Ti162  1  0.29296150  0.10908609  0.69174692  1
  Ti  Ti163  1  0.30127304  0.30712959  0.10280101  1
  Ti  Ti164  1  0.60192575  0.80447976  0.59696378  1
  Ti  Ti165  1  0.70184738  0.30101039  0.09813536  1
  Ti  Ti166  1  0.49121113  0.49798258  0.89445912  1
  Ti  Ti167  1  0.39726077  0.60779057  0.41476698  1
  Ti  Ti168  1  0.28941011  0.69262961  0.68708565  1
  Ti  Ti169  1  0.00131366  0.81670041  0.41003045  1
  Ti  Ti170  1  0.10595423  0.09349656  0.10504823  1
  Ti  Ti171  1  0.29593336  0.10355563  0.90026125  1
  Ti  Ti172  1  0.70106754  0.10886078  0.49978512  1
  Ti  Ti173  1  0.29615808  0.08771568  0.10642087  1
  Ti  Ti174  1  0.49950609  0.90200044  0.49699279  1
  Ti  Ti175  1  0.59226468  0.79659874  0.41104727  1
  Ti  Ti176  1  0.89164586  0.10348374  0.89736398  1
  Ti  Ti177  1  0.59411366  0.79044910  -0.00876662  1
  Ti  Ti178  1  0.50059990  0.50112595  0.10997883  1
  Ti  Ti179  1  0.20004812  0.80981992  0.40082407  1
  Ti  Ti180  1  0.00143728  0.00266120  0.58674722  1
  Ti  Ti181  1  0.50594293  0.30222409  0.50432939  1
  Ti  Ti182  1  0.89687429  0.10455280  0.68552437  1
  Ti  Ti183  1  0.60313113  0.40386417  0.79097337  1
  Ti  Ti184  1  0.91372921  0.89990342  0.28856790  1
  Ti  Ti185  1  0.80461241  0.20815043  -0.00804796  1
  Ti  Ti186  1  0.69997701  0.68984764  0.09614384  1
  Ti  Ti187  1  0.60921112  0.39988568  0.60621520  1
  Ti  Ti188  1  0.69940197  0.49206862  0.49930696  1
  Ti  Ti189  1  0.20471253  0.40581944  0.20077379  1
  Ti  Ti190  1  0.90393716  0.90590840  0.10875704  1
  Ti  Ti191  1  0.69241132  0.89953465  0.49663663  1
  Ti  Ti192  1  0.10123504  0.49274448  0.10454527  1
  Ti  Ti193  1  0.60799443  0.20186990  0.39535863  1
  Ti  Ti194  1  0.10539605  0.50302043  0.69381091  1
  Ti  Ti195  1  0.38939181  0.39708604  0.42516340  1
  Ti  Ti196  1  0.19694195  -0.00996837  0.21056684  1
  Ti  Ti197  1  0.39644842  0.59645782  0.00548858  1
  Ti  Ti198  1  0.38612414  0.20815978  0.59378163  1
  Ti  Ti199  1  0.70543382  0.69022151  0.90324668  1
  Mo  Mo200  1  0.29277160  0.10165506  0.49840821  1
  Mo  Mo201  1  0.90665079  0.69227470  0.69836558  1
  Mo  Mo202  1  0.60377280  0.39630987  0.41172449  1
  Mo  Mo203  1  0.80074880  0.20015420  0.59216878  1
  Mo  Mo204  1  0.29163023  0.70296402  0.49651816  1
  Mo  Mo205  1  0.69113363  0.30295241  0.69840345  1
  Mo  Mo206  1  0.69186864  0.49537069  0.70217670  1
  Mo  Mo207  1  0.49730862  0.10938101  0.10043270  1
  Mo  Mo208  1  0.39800475  0.80038681  0.40237858  1
  Mo  Mo209  1  0.50892613  0.69235294  0.49490151  1
  Mo  Mo210  1  0.89367284  0.30019781  0.90087541  1
  Mo  Mo211  1  0.10557188  0.89982788  0.50143226  1
  Mo  Mo212  1  0.30004394  0.49781235  0.11215009  1
  Mo  Mo213  1  0.00529195  0.79466797  0.59668943  1
  Mo  Mo214  1  0.69399943  0.89975350  0.69445614  1
  Mo  Mo215  1  0.90899810  0.90282985  0.50733448  1
  Mo  Mo216  1  0.10088411  0.90116768  0.30120003  1
  Mo  Mo217  1  0.90653572  0.49120088  0.49818178  1
  Mo  Mo218  1  0.29997120  0.70135029  0.10723910  1
  Mo  Mo219  1  0.91461755  0.50050359  0.70346253  1
  Mo  Mo220  1  0.29543936  0.29790500  0.50736704  1
  Mo  Mo221  1  0.00553034  0.59662163  0.79185682  1
  Mo  Mo222  1  0.09727268  0.49814522  0.51008517  1
  Mo  Mo223  1  0.80740465  0.59715600  0.79427541  1
  Mo  Mo224  1  0.80544386  0.59709995  0.00565124  1
  Mo  Mo225  1  0.19792978  0.80581999  -0.01392826  1
  Mo  Mo226  1  0.90468922  0.30222736  0.69174921  1
  Mo  Mo227  1  0.29997450  0.49792598  0.50620645  1
  Mo  Mo228  1  0.39251692  0.39452675  0.59952180  1
  Mo  Mo229  1  0.39351769  0.40238765  0.79742989  1
  Mo  Mo230  1  -0.00348338  0.39621139  0.40042506  1
  Mo  Mo231  1  0.00466599  -0.00134983  0.20011696  1
  Mo  Mo232  1  0.10710703  0.29834855  0.69495135  1
  Mo  Mo233  1  0.50196005  0.69453422  0.91098682  1
  Mo  Mo234  1  0.00156680  0.80656086  0.20725103  1
  Mo  Mo235  1  0.11616834  0.29572589  0.90258783  1
  Mo  Mo236  1  0.90099066  0.50090489  0.29899602  1
  Mo  Mo237  1  0.19790314  0.59622639  0.60516166  1
  Mo  Mo238  1  0.70127294  0.50412655  0.30291226  1
  Mo  Mo239  1  0.89971439  0.10261316  0.50303099  1
  Mo  Mo240  1  0.61196033  0.57686419  0.59747167  1
  Mo  Mo241  1  0.19883402  0.80473902  0.22189471  1
  Mo  Mo242  1  0.30083045  0.29767058  0.69800840  1
  Mo  Mo243  1  0.39630152  0.40938100  0.19759207  1
  Mo  Mo244  1  0.70085792  0.09774388  0.30543311  1
  Mo  Mo245  1  0.70026656  0.10533943  0.69932783  1
  Mo  Mo246  1  0.20201808  0.19892227  0.60221141  1
  Mo  Mo247  1  0.29583154  0.89884387  0.30229000  1
  Mo  Mo248  1  0.38649141  -0.00422534  0.20316280  1
  Mo  Mo249  1  0.69688274  0.29731137  0.30707420  1
