# generated using pymatgen
data_HfZrTaTiMo
_symmetry_space_group_name_H-M   'P 1'
_cell_length_a   16.87951482
_cell_length_b   16.87992062
_cell_length_c   16.88553919
_cell_angle_alpha   90.03911676
_cell_angle_beta   89.99803763
_cell_angle_gamma   89.96369845
_symmetry_Int_Tables_number   1
_chemical_formula_structural   HfZrTaTiMo
_chemical_formula_sum   'Hf50 Zr50 Ta50 Ti50 Mo50'
_cell_volume   4811.10797314
_cell_formula_units_Z   50
loop_
 _symmetry_equiv_pos_site_id
 _symmetry_equiv_pos_as_xyz
  1  'x, y, z'
loop_
 _atom_site_type_symbol
 _atom_site_label
 _atom_site_symmetry_multiplicity
 _atom_site_fract_x
 _atom_site_fract_y
 _atom_site_fract_z
 _atom_site_occupancy
  Hf  Hf0  1  0.19657952  0.18865550  0.80798013  1
  Hf  Hf1  1  0.19813086  0.60130434  0.21020884  1
  Hf  Hf2  1  0.30096887  0.29535826  0.90044180  1
  Hf  Hf3  1  0.10222990  0.50090227  0.91087493  1
  Hf  Hf4  1  0.79670502  0.20091866  0.00232623  1
  Hf  Hf5  1  0.61004313  0.40228726  0.20124695  1
  Hf  Hf6  1  0.61229857  0.19461019  0.38538887  1
  Hf  Hf7  1  -0.00238251  0.19249101  0.60125716  1
  Hf  Hf8  1  0.09952718  0.91368205  0.50546728  1
  Hf  Hf9  1  0.79511671  0.80294874  0.80299164  1
  Hf  Hf10  1  0.40963579  0.61112523  0.20050459  1
  Hf  Hf11  1  0.20237651  0.39576259  0.59582129  1
  Hf  Hf12  1  0.10405283  0.09880034  0.30573850  1
  Hf  Hf13  1  0.19831738  0.79538079  0.79898161  1
  Hf  Hf14  1  0.79993461  0.59825085  0.39312805  1
  Hf  Hf15  1  0.09910045  0.69924491  0.50693382  1
  Hf  Hf16  1  0.60376684  0.80365092  0.20061032  1
  Hf  Hf17  1  0.19926277  0.79885268  0.40469943  1
  Hf  Hf18  1  0.39875418  0.00389240  0.59256320  1
  Hf  Hf19  1  0.59201064  0.80351190  0.38516279  1
  Hf  Hf20  1  -0.01258256  0.79980677  0.40195236  1
  Hf  Hf21  1  0.50991702  0.10439271  0.69330355  1
  Hf  Hf22  1  0.10031696  0.50062623  0.09472281  1
  Hf  Hf23  1  0.79732212  0.00647208  0.39632960  1
  Hf  Hf24  1  0.39667986  0.61051426  0.80247481  1
  Hf  Hf25  1  0.79776214  0.39918304  0.80711171  1
  Hf  Hf26  1  0.09555064  0.91083636  0.30862759  1
  Hf  Hf27  1  0.80103946  0.40319046  0.00280200  1
  Hf  Hf28  1  0.40781848  0.39565807  0.80065112  1
  Hf  Hf29  1  0.80961337  0.19104536  0.60302227  1
  Hf  Hf30  1  0.30296756  0.50003784  0.69212414  1
  Hf  Hf31  1  0.60301563  0.60361264  0.20432180  1
  Hf  Hf32  1  0.89508447  0.50340299  0.70121217  1
  Hf  Hf33  1  0.50302472  0.90200506  0.89791310  1
  Hf  Hf34  1  0.89119641  0.09160755  0.10395036  1
  Hf  Hf35  1  0.60428331  0.80220652  0.00373682  1
  Hf  Hf36  1  0.38937519  0.00870491  -0.00662743  1
  Hf  Hf37  1  0.69977976  0.29864747  0.10258473  1
  Hf  Hf38  1  0.29291438  0.90240567  0.69697730  1
  Hf  Hf39  1  -0.00092143  0.41044284  0.80431938  1
  Hf  Hf40  1  0.50024476  0.50280002  0.69787600  1
  Hf  Hf41  1  0.00385777  0.80118178  0.79865724  1
  Hf  Hf42  1  0.49891596  0.70541194  0.69480329  1
  Hf  Hf43  1  0.49717272  0.49629767  0.30779965  1
  Hf  Hf44  1  0.69551168  0.90739190  0.69428724  1
  Hf  Hf45  1  -0.00135620  -0.00259679  0.79572095  1
  Hf  Hf46  1  0.59436578  0.39851851  0.59610178  1
  Hf  Hf47  1  0.00553414  0.59819217  0.60717528  1
  Hf  Hf48  1  0.19668742  0.39606486  0.40042932  1
  Hf  Hf49  1  0.30608639  0.70968945  0.09111581  1
  Zr  Zr50  1  0.61235076  -0.00080511  0.19505960  1
  Zr  Zr51  1  0.69420912  0.70142893  0.69139674  1
  Zr  Zr52  1  -0.00024894  0.18975467  0.80154584  1
  Zr  Zr53  1  0.89965772  0.91032448  0.50394789  1
  Zr  Zr54  1  0.40558881  0.39153408  -0.00222199  1
  Zr  Zr55  1  0.19815707  0.19289965  0.59097694  1
  Zr  Zr56  1  0.41565575  0.80106208  0.21278581  1
  Zr  Zr57  1  0.89888525  0.70539794  0.69661286  1
  Zr  Zr58  1  0.88922972  0.09254100  0.90238193  1
  Zr  Zr59  1  0.70478649  0.29101248  0.49815184  1
  Zr  Zr60  1  0.20148019  0.79822114  0.20490037  1
  Zr  Zr61  1  0.79568739  0.79818067  -0.00091977  1
  Zr  Zr62  1  0.39950653  0.00247134  0.80227713  1
  Zr  Zr63  1  -0.00318142  0.20172887  0.19313432  1
  Zr  Zr64  1  0.29654532  0.28908740  0.28956287  1
  Zr  Zr65  1  0.39742819  0.19165237  0.39893571  1
  Zr  Zr66  1  0.49979594  0.10335774  0.09864202  1
  Zr  Zr67  1  0.49372164  0.90494748  0.09280300  1
  Zr  Zr68  1  0.30889851  0.49893200  0.30644404  1
  Zr  Zr69  1  0.90546653  0.09492589  0.30337114  1
  Zr  Zr70  1  0.69775277  0.70545610  0.49565073  1
  Zr  Zr71  1  0.20246464  0.18627301  -0.00065517  1
  Zr  Zr72  1  -0.00477364  0.59334307  0.39606169  1
  Zr  Zr73  1  -0.00552766  0.39897902  0.20664643  1
  Zr  Zr74  1  0.11169464  0.30182159  0.10471806  1
  Zr  Zr75  1  0.60140308  0.00081896  0.38501284  1
  Zr  Zr76  1  0.29591099  0.50899388  0.09470104  1
  Zr  Zr77  1  0.51061441  0.50870501  0.08740114  1
  Zr  Zr78  1  0.00359602  0.19815411  0.00103528  1
  Zr  Zr79  1  0.19125335  0.60661727  0.78779188  1
  Zr  Zr80  1  0.60462093  0.39634968  0.39430606  1
  Zr  Zr81  1  0.79845026  0.60520909  0.81207643  1
  Zr  Zr82  1  0.00718206  -0.00023585  0.00136838  1
  Zr  Zr83  1  0.30185123  0.90253473  0.30824861  1
  Zr  Zr84  1  0.31241023  0.49960307  0.50330677  1
  Zr  Zr85  1  0.80234298  0.39452607  0.60021781  1
  Zr  Zr86  1  0.29664358  0.50834384  0.90503106  1
  Zr  Zr87  1  0.10413171  0.30075183  0.70628032  1
  Zr  Zr88  1  0.39305403  0.20317625  0.59095179  1
  Zr  Zr89  1  -0.00060298  0.80379829  -0.00360787  1
  Zr  Zr90  1  0.19453290  0.59536407  0.40142972  1
  Zr  Zr91  1  0.09823897  0.69478419  0.09337606  1
  Zr  Zr92  1  0.69278383  0.50364246  0.69887368  1
  Zr  Zr93  1  0.90075777  0.49882569  0.09909825  1
  Zr  Zr94  1  0.69749592  0.90541226  0.50405662  1
  Zr  Zr95  1  -0.00529772  0.80381286  0.20133818  1
  Zr  Zr96  1  0.00047610  0.39621118  0.59954177  1
  Zr  Zr97  1  0.29607474  0.09653874  0.70280794  1
  Zr  Zr98  1  0.40292137  0.39618848  0.19290084  1
  Zr  Zr99  1  0.68610696  0.50420171  0.90775447  1
  Ta  Ta100  1  0.29712026  0.90073457  0.50142169  1
  Ta  Ta101  1  0.30454636  0.30103220  0.70182552  1
  Ta  Ta102  1  0.58992137  0.80589578  0.59496048  1
  Ta  Ta103  1  0.69621026  0.91027902  0.89784834  1
  Ta  Ta104  1  0.60382170  0.19731220  -0.00427641  1
  Ta  Ta105  1  0.11012768  0.90346203  0.10015825  1
  Ta  Ta106  1  0.59871605  0.39053156  -0.00194239  1
  Ta  Ta107  1  0.89204933  0.69565843  0.10646594  1
  Ta  Ta108  1  0.70284205  0.69420598  0.10187316  1
  Ta  Ta109  1  0.50288328  0.50750621  0.90051668  1
  Ta  Ta110  1  0.49772358  0.70868824  0.90565737  1
  Ta  Ta111  1  0.49579132  0.90367256  0.49617525  1
  Ta  Ta112  1  0.50300770  0.28743314  0.09917507  1
  Ta  Ta113  1  0.88998954  0.90595948  0.90159531  1
  Ta  Ta114  1  0.51465695  0.09967389  0.50184609  1
  Ta  Ta115  1  0.40632722  0.19980354  0.80884948  1
  Ta  Ta116  1  0.20255068  0.80501136  -0.00638662  1
  Ta  Ta117  1  0.90476712  0.30507885  0.90611636  1
  Ta  Ta118  1  0.79530917  0.19916321  0.80109546  1
  Ta  Ta119  1  0.60109143  0.59888133  0.39792736  1
  Ta  Ta120  1  0.70105524  0.50017892  0.49687099  1
  Ta  Ta121  1  0.19689301  0.79633686  0.60342431  1
  Ta  Ta122  1  0.59933068  0.20090345  0.80492258  1
  Ta  Ta123  1  0.59546233  0.61341005  0.80859331  1
  Ta  Ta124  1  0.40028698  0.00470908  0.39995561  1
  Ta  Ta125  1  0.80093367  0.40226768  0.39019372  1
  Ta  Ta126  1  0.89041985  0.89972549  0.10322713  1
  Ta  Ta127  1  0.29908549  0.90319257  0.09767819  1
  Ta  Ta128  1  0.20444825  0.19307432  0.40516478  1
  Ta  Ta129  1  0.09947906  0.30899114  0.90611826  1
  Ta  Ta130  1  -0.00154425  0.39944354  0.39697841  1
  Ta  Ta131  1  0.50373847  0.29248011  0.50136520  1
  Ta  Ta132  1  0.80441705  0.60289343  0.58593684  1
  Ta  Ta133  1  0.80220946  0.80657884  0.38724455  1
  Ta  Ta134  1  0.69635335  0.09990327  0.69698320  1
  Ta  Ta135  1  0.39492846  0.79845398  0.80053094  1
  Ta  Ta136  1  0.79565808  0.19907683  0.20545982  1
  Ta  Ta137  1  0.30436524  0.10402197  0.11127015  1
  Ta  Ta138  1  0.69294213  0.29234800  0.70333216  1
  Ta  Ta139  1  0.89697690  0.29348248  0.30664274  1
  Ta  Ta140  1  0.30446841  0.70202830  0.50546014  1
  Ta  Ta141  1  -0.00318023  0.59595587  0.20849388  1
  Ta  Ta142  1  0.79510465  0.60104126  0.00106314  1
  Ta  Ta143  1  0.89132006  0.69985439  0.29025226  1
  Ta  Ta144  1  0.31324380  0.70022777  0.31787256  1
  Ta  Ta145  1  0.20533453  0.00196114  0.20143437  1
  Ta  Ta146  1  0.00335303  0.60219270  0.80230681  1
  Ta  Ta147  1  0.89798242  0.49648589  0.49636610  1
  Ta  Ta148  1  0.09626906  0.29372246  0.49177662  1
  Ta  Ta149  1  0.09886247  0.29128468  0.30547105  1
  Ti  Ti150  1  0.00006787  -0.00667313  0.19782344  1
  Ti  Ti151  1  -0.01200991  0.59809574  -0.00586357  1
  Ti  Ti152  1  0.10758525  0.09410402  0.10879424  1
  Ti  Ti153  1  0.29989884  0.69775552  0.68519260  1
  Ti  Ti154  1  0.39705005  0.00195192  0.20728695  1
  Ti  Ti155  1  0.69698276  0.29761427  0.89772612  1
  Ti  Ti156  1  0.41432098  0.60524284  0.40887038  1
  Ti  Ti157  1  0.89997264  0.29628305  0.48957372  1
  Ti  Ti158  1  -0.00136573  0.19147962  0.41007043  1
  Ti  Ti159  1  0.09330563  0.70091164  0.30261654  1
  Ti  Ti160  1  0.50109679  0.29449989  0.69613065  1
  Ti  Ti161  1  0.20700920  0.39385580  0.00359399  1
  Ti  Ti162  1  0.61029165  0.19517543  0.20244523  1
  Ti  Ti163  1  0.79836588  0.00525532  0.79199959  1
  Ti  Ti164  1  -0.00908356  0.01537121  0.60018652  1
  Ti  Ti165  1  0.10236455  0.90462478  0.69264785  1
  Ti  Ti166  1  0.19682414  0.40520239  0.20775539  1
  Ti  Ti167  1  0.79271355  -0.00904938  0.20438847  1
  Ti  Ti168  1  0.89744175  0.29686232  0.71178728  1
  Ti  Ti169  1  0.40191908  0.38501774  0.41424350  1
  Ti  Ti170  1  0.59256408  0.59919126  0.58249311  1
  Ti  Ti171  1  0.69521307  0.09479116  0.89930489  1
  Ti  Ti172  1  0.50251464  0.90102919  0.69766984  1
  Ti  Ti173  1  0.20322539  0.00279564  -0.00283860  1
  Ti  Ti174  1  0.10340541  0.69503200  0.90726312  1
  Ti  Ti175  1  0.49801833  0.29260441  0.29242359  1
  Ti  Ti176  1  0.10900195  0.08295142  0.69641967  1
  Ti  Ti177  1  -0.00153607  0.79976666  0.60256763  1
  Ti  Ti178  1  0.90145277  0.70148071  0.90312268  1
  Ti  Ti179  1  0.50332509  0.10424187  0.90409658  1
  Ti  Ti180  1  0.40987801  0.60082929  0.59103050  1
  Ti  Ti181  1  0.49579355  0.71059259  0.49513147  1
  Ti  Ti182  1  0.29642630  0.89970017  0.89904520  1
  Ti  Ti183  1  0.59944856  0.00508278  0.79980391  1
  Ti  Ti184  1  0.78047064  -0.00301655  0.01122968  1
  Ti  Ti185  1  0.19980294  0.40402568  0.79850847  1
  Ti  Ti186  1  0.40510515  0.61406420  -0.00382167  1
  Ti  Ti187  1  0.30581980  0.28502288  0.10355215  1
  Ti  Ti188  1  0.80508564  0.79768041  0.59034253  1
  Ti  Ti189  1  0.59297102  0.39216827  0.80575754  1
  Ti  Ti190  1  0.39918453  0.80499383  0.59837923  1
  Ti  Ti191  1  0.79881755  0.39842714  0.20625166  1
  Ti  Ti192  1  0.09926805  0.49797328  0.50474015  1
  Ti  Ti193  1  0.49473370  0.10273981  0.29067698  1
  Ti  Ti194  1  0.60035996  0.79906640  0.80059836  1
  Ti  Ti195  1  0.70737217  0.70367606  0.29372290  1
  Ti  Ti196  1  0.10648021  0.90650875  0.89869838  1
  Ti  Ti197  1  0.79421260  0.58541507  0.20162564  1
  Ti  Ti198  1  0.89273607  0.90670778  0.69369685  1
  Ti  Ti199  1  0.69869326  0.09850680  0.50928366  1
  Mo  Mo200  1  0.89188210  0.29937041  0.10396020  1
  Mo  Mo201  1  0.30129469  0.10042488  0.90163321  1
  Mo  Mo202  1  0.19713929  -0.00446103  0.59866396  1
  Mo  Mo203  1  0.89844609  0.90073122  0.29367026  1
  Mo  Mo204  1  0.29241074  0.08936828  0.49372582  1
  Mo  Mo205  1  0.09582715  0.49028536  0.29692464  1
  Mo  Mo206  1  0.70459033  0.89987018  0.09939173  1
  Mo  Mo207  1  0.70326371  0.50047353  0.30074894  1
  Mo  Mo208  1  0.90287744  0.50548555  0.90278469  1
  Mo  Mo209  1  -0.00201501  0.00667391  0.40630805  1
  Mo  Mo210  1  0.79898470  0.00717488  0.60490764  1
  Mo  Mo211  1  0.40478954  0.39026265  0.60134954  1
  Mo  Mo212  1  0.60725688  0.00538281  -0.00742622  1
  Mo  Mo213  1  0.30274203  0.71032167  0.90317699  1
  Mo  Mo214  1  0.09515400  0.09808045  0.49706468  1
  Mo  Mo215  1  0.40500838  0.19641969  0.20018528  1
  Mo  Mo216  1  0.50180806  0.69363066  0.31344138  1
  Mo  Mo217  1  0.49464240  0.91275465  0.30244530  1
  Mo  Mo218  1  0.10575156  0.08468605  0.89690109  1
  Mo  Mo219  1  0.50302065  0.49554169  0.49925444  1
  Mo  Mo220  1  0.10379406  0.50326929  0.70220315  1
  Mo  Mo221  1  0.20116065  0.60200419  0.59854288  1
  Mo  Mo222  1  0.89782766  0.70166865  0.49592503  1
  Mo  Mo223  1  0.70357566  0.50156560  0.10211633  1
  Mo  Mo224  1  0.70987131  0.29841851  0.29557031  1
  Mo  Mo225  1  0.69247163  0.70422350  0.90307700  1
  Mo  Mo226  1  0.09764721  0.70650129  0.69674410  1
  Mo  Mo227  1  0.70906431  0.89608731  0.29507178  1
  Mo  Mo228  1  0.20004476  0.61191662  -0.00209700  1
  Mo  Mo229  1  0.20215475  0.19149285  0.20376822  1
  Mo  Mo230  1  0.70049608  0.10094582  0.10013103  1
  Mo  Mo231  1  0.19348510  -0.00621087  0.80434998  1
  Mo  Mo232  1  0.79759291  0.80047070  0.19765648  1
  Mo  Mo233  1  0.20415164  0.00504473  0.40393946  1
  Mo  Mo234  1  0.50633214  0.29519083  0.90086635  1
  Mo  Mo235  1  0.50387309  0.70213998  0.08992613  1
  Mo  Mo236  1  0.39509750  0.80722631  -0.00929355  1
  Mo  Mo237  1  0.40105143  0.80276987  0.41056201  1
  Mo  Mo238  1  0.80429113  0.19941053  0.40179550  1
  Mo  Mo239  1  0.30067379  0.29852170  0.49772920  1
  Mo  Mo240  1  0.89037172  0.09500832  0.70209999  1
  Mo  Mo241  1  0.60051600  0.61172609  0.00157960  1
  Mo  Mo242  1  0.90078620  0.10100111  0.49969776  1
  Mo  Mo243  1  -0.00277232  0.39614529  -0.00090351  1
  Mo  Mo244  1  0.29875735  0.09501282  0.29808580  1
  Mo  Mo245  1  0.59574339  -0.00044588  0.59800437  1
  Mo  Mo246  1  0.60344906  0.20007495  0.60299057  1
  Mo  Mo247  1  0.89677706  0.49644333  0.30003268  1
  Mo  Mo248  1  0.40348177  0.19759372  0.00099528  1
  Mo  Mo249  1  0.70932058  0.10222826  0.29307059  1
