# generated using pymatgen
data_HfZrTaTiMo
_symmetry_space_group_name_H-M   'P 1'
_cell_length_a   16.89216191
_cell_length_b   16.88809194
_cell_length_c   16.89050831
_cell_angle_alpha   89.98605055
_cell_angle_beta   90.00116859
_cell_angle_gamma   90.04885022
_symmetry_Int_Tables_number   1
_chemical_formula_structural   HfZrTaTiMo
_chemical_formula_sum   'Hf50 Zr50 Ta50 Ti50 Mo50'
_cell_volume   4818.46122759
_cell_formula_units_Z   50
loop_
 _symmetry_equiv_pos_site_id
 _symmetry_equiv_pos_as_xyz
  1  'x, y, z'
loop_
 _atom_site_type_symbol
 _atom_site_label
 _atom_site_symmetry_multiplicity
 _atom_site_fract_x
 _atom_site_fract_y
 _atom_site_fract_z
 _atom_site_occupancy
  Hf  Hf0  1  0.78345754  -0.00820414  -0.02314673  1
  Hf  Hf1  1  0.29560487  0.10950411  0.30560134  1
  Hf  Hf2  1  0.79261274  0.39842708  0.20205933  1
  Hf  Hf3  1  0.79426890  0.39845349  -0.00177142  1
  Hf  Hf4  1  0.29675874  0.49383635  0.09504520  1
  Hf  Hf5  1  0.50016433  0.68669575  0.70547683  1
  Hf  Hf6  1  0.40517404  0.60096420  0.00157970  1
  Hf  Hf7  1  -0.00310921  0.40156167  0.39467275  1
  Hf  Hf8  1  0.10246202  0.29776923  0.50296133  1
  Hf  Hf9  1  0.71110513  0.09689625  0.71222054  1
  Hf  Hf10  1  0.00402885  0.00181169  0.40351988  1
  Hf  Hf11  1  0.79663490  0.59160668  -0.00064836  1
  Hf  Hf12  1  0.58425124  0.59888836  0.40653875  1
  Hf  Hf13  1  0.00904544  0.59209524  0.80947249  1
  Hf  Hf14  1  0.69219057  0.50648593  0.30804125  1
  Hf  Hf15  1  0.70511667  0.89922279  0.70006247  1
  Hf  Hf16  1  0.19921846  0.40359564  0.60774429  1
  Hf  Hf17  1  0.90378715  0.89923315  0.09509017  1
  Hf  Hf18  1  0.70080404  0.68811999  0.49454670  1
  Hf  Hf19  1  0.40455397  0.21596144  0.20034847  1
  Hf  Hf20  1  0.69089259  0.31034857  0.50475795  1
  Hf  Hf21  1  0.40012013  0.00373848  0.20160953  1
  Hf  Hf22  1  0.80926041  0.79839014  0.59365176  1
  Hf  Hf23  1  0.90827703  0.49389414  0.10777271  1
  Hf  Hf24  1  0.59360258  0.20546177  0.19437720  1
  Hf  Hf25  1  0.79776456  0.59030122  0.80788076  1
  Hf  Hf26  1  0.59240504  0.20323331  0.60711677  1
  Hf  Hf27  1  0.89918764  0.09500077  0.29088070  1
  Hf  Hf28  1  0.19801642  0.00040032  -0.00273183  1
  Hf  Hf29  1  0.81274042  0.00431392  0.59472034  1
  Hf  Hf30  1  0.59509993  -0.00348108  0.59881524  1
  Hf  Hf31  1  0.69419127  0.09295268  0.30327899  1
  Hf  Hf32  1  0.59162982  0.79240439  -0.00127259  1
  Hf  Hf33  1  0.30429592  0.69985754  0.71092976  1
  Hf  Hf34  1  -0.01405970  0.19377474  0.59686577  1
  Hf  Hf35  1  0.69299662  0.68809272  0.10920285  1
  Hf  Hf36  1  0.49437649  0.08913763  0.70961621  1
  Hf  Hf37  1  0.20167062  0.40556030  0.39146208  1
  Hf  Hf38  1  0.60309505  0.21579572  0.79473705  1
  Hf  Hf39  1  0.80729433  0.40174461  0.39631851  1
  Hf  Hf40  1  0.40716483  0.40536977  0.37644177  1
  Hf  Hf41  1  0.51041482  0.90223915  0.30412209  1
  Hf  Hf42  1  0.29762160  0.09036981  0.70067990  1
  Hf  Hf43  1  0.19645854  0.60611577  0.38546592  1
  Hf  Hf44  1  0.39533618  0.79632869  0.40234020  1
  Hf  Hf45  1  0.49628883  0.10047804  0.09191048  1
  Hf  Hf46  1  0.70129911  0.10265846  0.08888850  1
  Hf  Hf47  1  0.59497286  0.79410508  0.59541266  1
  Hf  Hf48  1  0.29907564  0.30397058  0.70144185  1
  Hf  Hf49  1  0.40119763  0.79879510  -0.00478889  1
  Zr  Zr50  1  0.21173998  0.39690094  0.20489143  1
  Zr  Zr51  1  0.40470433  0.80092559  0.60174335  1
  Zr  Zr52  1  0.80599617  0.20416722  0.60318704  1
  Zr  Zr53  1  0.10798375  0.70783036  0.70240608  1
  Zr  Zr54  1  0.40980599  0.01486316  0.40454562  1
  Zr  Zr55  1  0.60159683  0.40548081  -0.00210689  1
  Zr  Zr56  1  0.81648904  0.20586438  0.40938756  1
  Zr  Zr57  1  0.80720940  0.79482475  0.39734330  1
  Zr  Zr58  1  0.00885549  0.19972576  -0.00780287  1
  Zr  Zr59  1  -0.00038565  0.60787727  0.59891231  1
  Zr  Zr60  1  0.39413882  0.60117489  0.39282205  1
  Zr  Zr61  1  0.29235543  0.70036712  0.51109754  1
  Zr  Zr62  1  0.39537439  0.79504071  0.19899405  1
  Zr  Zr63  1  0.50639080  0.70581368  0.29756542  1
  Zr  Zr64  1  0.90739903  0.70870832  0.70922325  1
  Zr  Zr65  1  0.50321477  0.49493565  0.51554949  1
  Zr  Zr66  1  0.68306561  0.29988018  0.32038291  1
  Zr  Zr67  1  0.11601030  0.90297037  0.68785780  1
  Zr  Zr68  1  0.10457575  0.10376479  0.70039639  1
  Zr  Zr69  1  0.00234791  0.00356196  0.58994594  1
  Zr  Zr70  1  0.49866350  0.10270948  0.90058762  1
  Zr  Zr71  1  0.89267804  0.10585406  0.89134222  1
  Zr  Zr72  1  0.89358511  0.09852871  0.09035717  1
  Zr  Zr73  1  0.79149498  0.79396951  -0.00064318  1
  Zr  Zr74  1  0.90411858  0.29789576  0.09455148  1
  Zr  Zr75  1  0.00558865  0.00493825  0.80145361  1
  Zr  Zr76  1  0.90741211  0.70006735  0.10678651  1
  Zr  Zr77  1  0.79339005  0.80505349  0.81104445  1
  Zr  Zr78  1  0.30685316  0.29833228  0.49496719  1
  Zr  Zr79  1  0.11023430  0.10700957  0.29537014  1
  Zr  Zr80  1  0.09857415  0.50531890  0.49955994  1
  Zr  Zr81  1  0.56373717  0.18287801  0.40254174  1
  Zr  Zr82  1  0.30313737  0.10134843  0.90082258  1
  Zr  Zr83  1  0.89198840  0.50939034  0.49553463  1
  Zr  Zr84  1  0.69216225  0.69042414  0.70219228  1
  Zr  Zr85  1  0.29838006  0.31106631  0.90748871  1
  Zr  Zr86  1  0.10051485  0.89947222  0.29610479  1
  Zr  Zr87  1  0.30313270  0.49908158  0.50464646  1
  Zr  Zr88  1  -0.00227268  0.20140087  0.40417688  1
  Zr  Zr89  1  0.40208036  0.21047203  0.79556894  1
  Zr  Zr90  1  0.80453298  0.59762523  0.60593694  1
  Zr  Zr91  1  0.29374585  0.90046704  0.09841613  1
  Zr  Zr92  1  0.69603290  0.09487488  0.49364804  1
  Zr  Zr93  1  0.79693419  0.80018245  0.20443626  1
  Zr  Zr94  1  0.10835208  0.30169128  0.10323155  1
  Zr  Zr95  1  0.61192806  -0.00880187  0.81804026  1
  Zr  Zr96  1  0.91153192  0.70277688  0.90464988  1
  Zr  Zr97  1  0.58230622  0.39364044  0.20561377  1
  Zr  Zr98  1  0.79169988  0.20831430  0.19729505  1
  Zr  Zr99  1  0.19252248  0.60064075  -0.00623512  1
  Ta  Ta100  1  -0.00307706  0.60744728  0.39060220  1
  Ta  Ta101  1  0.29218112  0.90281234  0.50590922  1
  Ta  Ta102  1  0.00994368  0.40368108  -0.00676347  1
  Ta  Ta103  1  0.19953377  0.79911330  0.39822784  1
  Ta  Ta104  1  0.10164044  0.49717274  0.10139299  1
  Ta  Ta105  1  0.29541903  0.69595668  0.09877409  1
  Ta  Ta106  1  0.69257103  0.90020965  0.10034613  1
  Ta  Ta107  1  0.59720227  -0.00628600  -0.00265321  1
  Ta  Ta108  1  0.49508272  0.49895875  0.10255245  1
  Ta  Ta109  1  0.90376064  0.49044173  0.90115856  1
  Ta  Ta110  1  0.20678386  0.80688843  0.81051630  1
  Ta  Ta111  1  0.39489729  0.59706140  0.20079795  1
  Ta  Ta112  1  0.60009464  0.00089607  0.19669214  1
  Ta  Ta113  1  0.69323818  0.50243547  0.10751134  1
  Ta  Ta114  1  0.20499649  0.19955787  0.60173829  1
  Ta  Ta115  1  0.19624233  0.40603939  0.80232179  1
  Ta  Ta116  1  0.19864190  0.79175780  0.20049576  1
  Ta  Ta117  1  0.50484224  0.89831720  0.49189599  1
  Ta  Ta118  1  0.00230281  0.80699373  0.58746862  1
  Ta  Ta119  1  0.09682901  0.49536206  0.70364072  1
  Ta  Ta120  1  0.69630878  0.69552179  0.30245726  1
  Ta  Ta121  1  0.69503737  0.89815919  0.48866310  1
  Ta  Ta122  1  0.09450644  0.29919799  0.70292358  1
  Ta  Ta123  1  0.60162376  0.21308703  -0.00310860  1
  Ta  Ta124  1  0.40135676  -0.00899246  -0.00601388  1
  Ta  Ta125  1  0.49955984  0.31421360  0.89503563  1
  Ta  Ta126  1  0.29707104  0.10979665  0.09918363  1
  Ta  Ta127  1  0.79489092  0.39964706  0.79913577  1
  Ta  Ta128  1  0.49432247  0.69051391  0.88864120  1
  Ta  Ta129  1  0.30135983  0.90002072  0.70236698  1
  Ta  Ta130  1  0.90402681  0.90438351  0.70565380  1
  Ta  Ta131  1  0.91026413  0.89789575  0.29185032  1
  Ta  Ta132  1  0.50217585  0.90034287  0.09991311  1
  Ta  Ta133  1  0.09900731  0.89333941  0.10246139  1
  Ta  Ta134  1  -0.00702135  0.39856605  0.60489948  1
  Ta  Ta135  1  0.19638260  0.20749620  0.80046837  1
  Ta  Ta136  1  0.69080751  0.49545363  0.70210455  1
  Ta  Ta137  1  0.59136510  0.79955219  0.80520162  1
  Ta  Ta138  1  0.00776591  0.60174819  0.19997549  1
  Ta  Ta139  1  0.30339200  0.69825067  0.89485533  1
  Ta  Ta140  1  0.39970968  -0.00430006  0.59891956  1
  Ta  Ta141  1  0.30268255  0.50060194  0.89679569  1
  Ta  Ta142  1  0.40639343  0.19675326  0.59619829  1
  Ta  Ta143  1  0.19993371  0.59680493  0.61250826  1
  Ta  Ta144  1  0.69350941  0.49535890  0.50649791  1
  Ta  Ta145  1  0.91000574  0.89994817  0.90096005  1
  Ta  Ta146  1  0.00341671  0.00057275  0.19001710  1
  Ta  Ta147  1  0.79468014  -0.00880254  0.19997206  1
  Ta  Ta148  1  0.01017438  0.00082898  -0.00121093  1
  Ta  Ta149  1  0.00802863  0.59513939  0.00171594  1
  Ti  Ti150  1  0.49200165  0.89937059  0.71354740  1
  Ti  Ti151  1  0.09362035  0.49870135  0.28924717  1
  Ti  Ti152  1  0.90256653  0.49458441  0.70723406  1
  Ti  Ti153  1  0.59529991  0.39164748  0.62057600  1
  Ti  Ti154  1  0.40317786  0.41153904  0.79737576  1
  Ti  Ti155  1  0.20471066  -0.00643483  0.81103707  1
  Ti  Ti156  1  0.39919085  0.59280747  0.60886957  1
  Ti  Ti157  1  0.20318664  0.20520716  0.00083562  1
  Ti  Ti158  1  0.79961674  0.21118182  0.79877427  1
  Ti  Ti159  1  0.70007565  0.30509651  0.89565615  1
  Ti  Ti160  1  0.68567398  0.68858941  0.89590290  1
  Ti  Ti161  1  0.19972059  -0.00466104  0.40729187  1
  Ti  Ti162  1  0.20105871  0.00019470  0.19692783  1
  Ti  Ti163  1  0.01340864  0.79520108  0.00549887  1
  Ti  Ti164  1  0.40381115  0.40011916  0.61497986  1
  Ti  Ti165  1  0.90203606  0.30077055  0.89672150  1
  Ti  Ti166  1  0.59357907  0.59323788  -0.00294680  1
  Ti  Ti167  1  0.20142215  0.59261215  0.80089228  1
  Ti  Ti168  1  0.80623955  0.59380543  0.21105068  1
  Ti  Ti169  1  0.00494561  0.19520895  0.19409954  1
  Ti  Ti170  1  0.09369197  0.70735368  0.29130012  1
  Ti  Ti171  1  0.29889284  0.10381536  0.49996134  1
  Ti  Ti172  1  0.40539336  0.40078097  0.00395175  1
  Ti  Ti173  1  0.19920548  0.60429743  0.20026530  1
  Ti  Ti174  1  0.59890355  0.80003130  0.19423829  1
  Ti  Ti175  1  0.58551042  0.59649589  0.19944439  1
  Ti  Ti176  1  0.29523090  0.90146189  0.30428433  1
  Ti  Ti177  1  0.10247358  0.30381627  0.89554217  1
  Ti  Ti178  1  0.10507583  0.29204766  0.29616965  1
  Ti  Ti179  1  0.40334199  0.21301081  0.00384075  1
  Ti  Ti180  1  0.69270358  0.89636928  0.30406994  1
  Ti  Ti181  1  0.01018054  0.80897854  0.80107495  1
  Ti  Ti182  1  0.10329459  0.70582099  0.50176427  1
  Ti  Ti183  1  0.91527244  0.30525070  0.28241494  1
  Ti  Ti184  1  0.00371568  0.79654660  0.40278972  1
  Ti  Ti185  1  0.80295859  -0.00836735  0.39300757  1
  Ti  Ti186  1  0.11752368  0.10395583  0.49894163  1
  Ti  Ti187  1  0.49647240  0.30771971  0.49834206  1
  Ti  Ti188  1  0.90396579  0.69934158  0.29826761  1
  Ti  Ti189  1  0.29804415  0.29026174  0.30424500  1
  Ti  Ti190  1  0.10469339  0.10779176  0.89400805  1
  Ti  Ti191  1  0.20028284  0.79651979  -0.00070188  1
  Ti  Ti192  1  0.00175679  0.39821232  0.80241265  1
  Ti  Ti193  1  0.10089570  0.89635408  0.90613457  1
  Ti  Ti194  1  0.10474500  0.70485418  0.89805628  1
  Ti  Ti195  1  0.80311638  0.39651933  0.60864342  1
  Ti  Ti196  1  0.90302159  0.89776209  0.49120253  1
  Ti  Ti197  1  0.90508756  0.29926104  0.70920248  1
  Ti  Ti198  1  0.50700960  0.50316359  0.71293021  1
  Ti  Ti199  1  0.10912893  0.10189639  0.10198143  1
  Mo  Mo200  1  0.20128274  0.80113281  0.59898988  1
  Mo  Mo201  1  0.49191674  0.29667769  0.30579626  1
  Mo  Mo202  1  0.29764413  0.50840308  0.28892486  1
  Mo  Mo203  1  0.78730494  0.21101163  -0.01447121  1
  Mo  Mo204  1  0.89719398  0.10000575  0.71277699  1
  Mo  Mo205  1  0.30324741  0.29975371  0.09213784  1
  Mo  Mo206  1  0.39934203  0.80069324  0.80306559  1
  Mo  Mo207  1  0.90431207  0.50748951  0.29542742  1
  Mo  Mo208  1  0.19706742  0.40283253  -0.00620150  1
  Mo  Mo209  1  0.60003556  0.40394850  0.80176529  1
  Mo  Mo210  1  0.49596539  0.30518962  0.08690313  1
  Mo  Mo211  1  0.59773454  0.59189729  0.80876278  1
  Mo  Mo212  1  0.49683579  0.49880108  0.89997988  1
  Mo  Mo213  1  0.29867057  0.50101443  0.70714059  1
  Mo  Mo214  1  0.70034091  0.12133352  0.90059514  1
  Mo  Mo215  1  0.59318459  0.40500477  0.40558674  1
  Mo  Mo216  1  0.69072599  0.88280873  0.90458223  1
  Mo  Mo217  1  0.89272825  0.08333170  0.48266975  1
  Mo  Mo218  1  0.10132376  0.49390740  0.89846597  1
  Mo  Mo219  1  0.39849975  0.40109624  0.19359302  1
  Mo  Mo220  1  0.90936043  0.70528058  0.48830960  1
  Mo  Mo221  1  0.20850849  0.00408029  0.58831328  1
  Mo  Mo222  1  0.69579567  0.30379703  0.09248102  1
  Mo  Mo223  1  0.59894452  0.59138338  0.60348979  1
  Mo  Mo224  1  0.80278661  0.60021128  0.38895655  1
  Mo  Mo225  1  0.90001355  0.31751062  0.51263685  1
  Mo  Mo226  1  0.39850870  0.58978437  0.80384131  1
  Mo  Mo227  1  0.20100101  0.20338179  0.40490054  1
  Mo  Mo228  1  0.29065980  0.70202889  0.29242856  1
  Mo  Mo229  1  0.49735511  0.69884562  0.50936061  1
  Mo  Mo230  1  0.60063045  -0.00594084  0.39670302  1
  Mo  Mo231  1  0.00230329  0.20964693  0.79877264  1
  Mo  Mo232  1  0.49355102  0.09167358  0.51904158  1
  Mo  Mo233  1  0.00471849  0.79876152  0.20086131  1
  Mo  Mo234  1  0.80728937  -0.00424115  0.79989680  1
  Mo  Mo235  1  0.60402286  0.79608001  0.40307089  1
  Mo  Mo236  1  0.49344837  0.30952041  0.70038048  1
  Mo  Mo237  1  0.49961888  0.69342411  0.10084563  1
  Mo  Mo238  1  0.29808058  0.89590824  0.89896616  1
  Mo  Mo239  1  0.49662620  0.50408461  0.29005371  1
  Mo  Mo240  1  0.49477650  0.89428884  0.90159637  1
  Mo  Mo241  1  0.39636067  0.20348314  0.40396156  1
  Mo  Mo242  1  0.00831019  0.40260522  0.20180800  1
  Mo  Mo243  1  0.10395311  0.69939769  0.10076498  1
  Mo  Mo244  1  0.69779414  0.49967424  0.89735874  1
  Mo  Mo245  1  0.70407753  0.30910078  0.70094707  1
  Mo  Mo246  1  0.20766792  0.20163104  0.19496176  1
  Mo  Mo247  1  0.10716328  0.89325657  0.49371734  1
  Mo  Mo248  1  0.49809238  0.09774757  0.28227569  1
  Mo  Mo249  1  0.39570357  -0.01433671  0.80263478  1
