# generated using pymatgen
data_HfZrTaTiMo
_symmetry_space_group_name_H-M   'P 1'
_cell_length_a   16.88037078
_cell_length_b   16.88604964
_cell_length_c   16.88892831
_cell_angle_alpha   90.00242408
_cell_angle_beta   90.00810846
_cell_angle_gamma   90.04111344
_symmetry_Int_Tables_number   1
_chemical_formula_structural   HfZrTaTiMo
_chemical_formula_sum   'Hf50 Zr50 Ta50 Ti50 Mo50'
_cell_volume   4814.06576870
_cell_formula_units_Z   50
loop_
 _symmetry_equiv_pos_site_id
 _symmetry_equiv_pos_as_xyz
  1  'x, y, z'
loop_
 _atom_site_type_symbol
 _atom_site_label
 _atom_site_symmetry_multiplicity
 _atom_site_fract_x
 _atom_site_fract_y
 _atom_site_fract_z
 _atom_site_occupancy
  Hf  Hf0  1  0.50353850  0.09769585  0.30455963  1
  Hf  Hf1  1  0.39464457  0.21175513  0.80534839  1
  Hf  Hf2  1  0.71552743  0.29782412  0.30030915  1
  Hf  Hf3  1  0.10520505  0.90269573  0.10201331  1
  Hf  Hf4  1  0.40817234  0.59300785  0.80490943  1
  Hf  Hf5  1  0.29457520  0.30572013  0.29622185  1
  Hf  Hf6  1  0.80141791  0.59544277  0.40179568  1
  Hf  Hf7  1  0.40052253  0.19735861  0.19116887  1
  Hf  Hf8  1  0.00262268  0.20166661  0.80039111  1
  Hf  Hf9  1  0.80343424  0.79642651  0.39862891  1
  Hf  Hf10  1  0.80898770  0.39903076  0.00567684  1
  Hf  Hf11  1  0.90005067  0.09659946  0.28806642  1
  Hf  Hf12  1  0.58945668  0.40424482  0.79881001  1
  Hf  Hf13  1  0.60255498  0.40087295  0.60228462  1
  Hf  Hf14  1  0.89831468  0.30069855  0.30451168  1
  Hf  Hf15  1  0.39325448  0.79067322  0.81546232  1
  Hf  Hf16  1  0.09846024  0.30522497  0.90829172  1
  Hf  Hf17  1  0.59237834  0.21450121  0.81336834  1
  Hf  Hf18  1  0.80425712  0.40001474  0.80329335  1
  Hf  Hf19  1  0.50630899  0.89088042  0.08596575  1
  Hf  Hf20  1  0.60915975  0.40006544  0.40529057  1
  Hf  Hf21  1  0.70046797  0.91375700  0.29740527  1
  Hf  Hf22  1  0.09845150  0.68452917  0.50958362  1
  Hf  Hf23  1  0.29733212  0.69256815  0.30458862  1
  Hf  Hf24  1  0.29690944  0.49428687  0.69418275  1
  Hf  Hf25  1  0.89978929  0.90049410  0.89772260  1
  Hf  Hf26  1  -0.00281009  0.79895990  0.61250720  1
  Hf  Hf27  1  0.40441068  0.60081099  0.60245157  1
  Hf  Hf28  1  0.30341633  0.31528332  0.09588713  1
  Hf  Hf29  1  0.90205216  0.09857466  0.50079305  1
  Hf  Hf30  1  0.80531281  0.00713502  0.00050261  1
  Hf  Hf31  1  0.28827889  0.69237616  0.70290538  1
  Hf  Hf32  1  0.19983221  0.40344856  0.80484523  1
  Hf  Hf33  1  0.60469629  0.20683177  0.40632210  1
  Hf  Hf34  1  0.10928677  0.30497991  0.68964518  1
  Hf  Hf35  1  0.69882231  0.09686253  0.50046397  1
  Hf  Hf36  1  0.70495388  0.89818739  0.71297254  1
  Hf  Hf37  1  0.19439111  0.41124305  0.19131881  1
  Hf  Hf38  1  0.90987965  0.90895847  0.10422082  1
  Hf  Hf39  1  0.60005883  0.39809674  0.19616435  1
  Hf  Hf40  1  0.39688139  0.40791989  0.40382060  1
  Hf  Hf41  1  0.89882769  0.30372866  0.69665399  1
  Hf  Hf42  1  0.00141267  0.20374232  0.59742544  1
  Hf  Hf43  1  0.40097523  -0.00217012  0.19109627  1
  Hf  Hf44  1  0.39280621  -0.00185162  0.60531857  1
  Hf  Hf45  1  0.70986976  0.11008321  0.29312509  1
  Hf  Hf46  1  0.70457772  0.10223894  0.71172360  1
  Hf  Hf47  1  -0.00553347  0.40209580  0.19087110  1
  Hf  Hf48  1  0.60403401  0.79163934  0.39534236  1
  Hf  Hf49  1  0.00573319  0.80105592  0.39524048  1
  Zr  Zr50  1  0.80583343  0.60494322  -0.00256798  1
  Zr  Zr51  1  0.39774323  0.79828363  0.19633380  1
  Zr  Zr52  1  0.70268961  0.29434524  0.09409274  1
  Zr  Zr53  1  0.19317407  0.79893051  0.60685113  1
  Zr  Zr54  1  0.39236739  0.59916411  0.18709004  1
  Zr  Zr55  1  0.49318423  0.30383978  0.29571779  1
  Zr  Zr56  1  0.29290423  0.89840534  0.49911765  1
  Zr  Zr57  1  0.00442112  0.79129136  -0.00614091  1
  Zr  Zr58  1  0.00107902  -0.00297103  0.79727749  1
  Zr  Zr59  1  0.19828961  0.78665132  -0.00645070  1
  Zr  Zr60  1  0.59205131  -0.00535784  0.61517112  1
  Zr  Zr61  1  0.59726554  0.20660313  0.60498662  1
  Zr  Zr62  1  0.29615810  0.50066304  0.29900487  1
  Zr  Zr63  1  0.10381508  0.09178458  0.90981814  1
  Zr  Zr64  1  0.80653638  -0.00091905  0.40163444  1
  Zr  Zr65  1  -0.01593472  0.19981904  0.01192691  1
  Zr  Zr66  1  0.70218717  0.10332405  0.09414245  1
  Zr  Zr67  1  0.60859292  0.60054949  0.60396961  1
  Zr  Zr68  1  0.50957237  0.70703024  0.70447204  1
  Zr  Zr69  1  0.70467078  0.50326262  0.90047043  1
  Zr  Zr70  1  0.50188027  0.50733351  0.29497266  1
  Zr  Zr71  1  0.28509952  0.31139924  0.51314803  1
  Zr  Zr72  1  0.19247920  0.00260516  0.39428673  1
  Zr  Zr73  1  0.48711354  0.30420890  0.50946061  1
  Zr  Zr74  1  0.49581822  0.10397357  0.71035109  1
  Zr  Zr75  1  0.29597416  0.08715389  0.89980043  1
  Zr  Zr76  1  0.29112589  0.09127383  0.09150277  1
  Zr  Zr77  1  0.20675968  0.20588158  0.80225771  1
  Zr  Zr78  1  0.09910286  0.08857274  0.10001127  1
  Zr  Zr79  1  0.39408765  0.61030724  -0.01100312  1
  Zr  Zr80  1  0.39888357  0.79547742  0.39787473  1
  Zr  Zr81  1  0.40240670  -0.01856725  0.79520618  1
  Zr  Zr82  1  0.40338034  0.20558477  -0.01140681  1
  Zr  Zr83  1  0.59938844  0.00275985  0.19202368  1
  Zr  Zr84  1  0.90945780  0.69767796  0.10499369  1
  Zr  Zr85  1  0.69634228  0.69732875  0.10004030  1
  Zr  Zr86  1  0.40001875  0.80847761  0.61270200  1
  Zr  Zr87  1  0.70052495  0.89813326  0.50355082  1
  Zr  Zr88  1  0.38801678  0.19165955  0.40891344  1
  Zr  Zr89  1  0.80270026  0.79986903  0.20288545  1
  Zr  Zr90  1  0.90626075  0.69548417  0.50314931  1
  Zr  Zr91  1  0.28655543  0.50733152  0.50138974  1
  Zr  Zr92  1  0.19634737  0.19410508  0.40244851  1
  Zr  Zr93  1  0.00574778  0.19480948  0.39736738  1
  Zr  Zr94  1  0.59481041  0.39508336  -0.01121704  1
  Zr  Zr95  1  0.18915715  0.79732587  0.39377328  1
  Zr  Zr96  1  0.59745525  0.79638720  0.20398608  1
  Zr  Zr97  1  0.71086479  0.50261926  0.70191409  1
  Zr  Zr98  1  0.89120402  0.10088070  0.70449055  1
  Zr  Zr99  1  0.50608160  0.90297433  0.49464110  1
  Ta  Ta100  1  0.09957592  0.31042130  0.49868214  1
  Ta  Ta101  1  0.90336159  0.30448537  0.90156423  1
  Ta  Ta102  1  0.29351527  0.09573385  0.28819205  1
  Ta  Ta103  1  0.90894534  0.90330050  0.29425415  1
  Ta  Ta104  1  0.70102353  0.68302941  0.29490643  1
  Ta  Ta105  1  0.49742848  0.90770808  0.30568071  1
  Ta  Ta106  1  0.18872660  0.79650628  0.80297594  1
  Ta  Ta107  1  0.60435190  0.59790361  0.40293769  1
  Ta  Ta108  1  0.80722848  0.59008136  0.19905703  1
  Ta  Ta109  1  0.69391828  0.50476411  0.10348182  1
  Ta  Ta110  1  0.50149462  0.69986487  0.09026196  1
  Ta  Ta111  1  0.69846184  0.10226689  0.90260849  1
  Ta  Ta112  1  0.09508785  0.50101893  0.30024843  1
  Ta  Ta113  1  0.10859638  0.09813976  0.69552010  1
  Ta  Ta114  1  0.60016258  0.60431582  0.80719711  1
  Ta  Ta115  1  0.90608475  0.69174814  0.29726896  1
  Ta  Ta116  1  0.89600166  0.30889815  0.49408338  1
  Ta  Ta117  1  0.00665601  0.20154394  0.19976709  1
  Ta  Ta118  1  0.01450709  0.79466563  0.20818570  1
  Ta  Ta119  1  0.90931028  0.50694551  0.89506587  1
  Ta  Ta120  1  0.70388692  0.90092297  0.09078588  1
  Ta  Ta121  1  0.38535988  0.19328735  0.60427994  1
  Ta  Ta122  1  0.00227973  0.79214573  0.79908322  1
  Ta  Ta123  1  -0.00171816  0.40905054  0.00137149  1
  Ta  Ta124  1  0.40658023  -0.00962400  -0.00804830  1
  Ta  Ta125  1  0.80596733  0.40743708  0.19500458  1
  Ta  Ta126  1  0.70299641  0.49950235  0.29567907  1
  Ta  Ta127  1  0.59766947  -0.00407649  0.81467607  1
  Ta  Ta128  1  0.80210433  0.79376844  0.61098291  1
  Ta  Ta129  1  0.59169136  0.20332462  0.19127112  1
  Ta  Ta130  1  0.80400181  -0.00716918  0.60588111  1
  Ta  Ta131  1  0.70807735  0.29925940  0.70114289  1
  Ta  Ta132  1  0.09006601  0.90805187  0.50576861  1
  Ta  Ta133  1  0.19039217  0.60581964  0.19230627  1
  Ta  Ta134  1  0.00297779  0.40675145  0.79676478  1
  Ta  Ta135  1  0.80537046  0.60334452  0.60408407  1
  Ta  Ta136  1  0.29434667  0.90394765  0.28966143  1
  Ta  Ta137  1  0.50676691  0.09773983  0.08207833  1
  Ta  Ta138  1  0.19223409  0.20141645  0.19962259  1
  Ta  Ta139  1  0.90546127  0.90054283  0.50477494  1
  Ta  Ta140  1  0.49954626  0.50531366  0.50128670  1
  Ta  Ta141  1  0.80386829  0.78939797  0.80459836  1
  Ta  Ta142  1  0.49522412  0.49899953  0.09346545  1
  Ta  Ta143  1  0.19775385  0.59637238  0.00148689  1
  Ta  Ta144  1  0.59330364  0.59974999  -0.00824593  1
  Ta  Ta145  1  0.10109142  0.30820269  0.30168829  1
  Ta  Ta146  1  0.39036655  0.00400982  0.39965748  1
  Ta  Ta147  1  0.10376620  0.09528291  0.51385674  1
  Ta  Ta148  1  0.00185448  0.41107487  0.59843353  1
  Ta  Ta149  1  0.50273779  0.69700467  0.49826542  1
  Ti  Ti150  1  0.49217895  0.30810352  0.09439308  1
  Ti  Ti151  1  0.61076966  0.79252695  0.80948309  1
  Ti  Ti152  1  0.09886529  0.90497141  0.90519172  1
  Ti  Ti153  1  0.90366125  0.50068359  0.50244005  1
  Ti  Ti154  1  0.00189454  0.59517867  0.39700317  1
  Ti  Ti155  1  0.10063708  0.90351570  0.70118036  1
  Ti  Ti156  1  0.70945055  0.49657849  0.49871717  1
  Ti  Ti157  1  0.09431188  0.68623757  0.89222618  1
  Ti  Ti158  1  0.29451996  0.89311861  0.90674606  1
  Ti  Ti159  1  0.70235271  0.69853223  0.50407245  1
  Ti  Ti160  1  0.89411271  0.89996234  0.70693568  1
  Ti  Ti161  1  0.19366793  0.79317397  0.20253957  1
  Ti  Ti162  1  0.29620447  0.89646872  0.09428728  1
  Ti  Ti163  1  0.60965813  0.79154392  -0.01170445  1
  Ti  Ti164  1  0.48218235  0.31275786  0.69870142  1
  Ti  Ti165  1  0.80354905  0.40248364  0.59561535  1
  Ti  Ti166  1  0.19685319  0.41356850  0.00164598  1
  Ti  Ti167  1  0.20507662  0.21013394  0.00074835  1
  Ti  Ti168  1  0.29750375  0.69179486  0.50025365  1
  Ti  Ti169  1  0.80135791  0.79467304  -0.00765717  1
  Ti  Ti170  1  0.20136330  -0.01210357  0.79771390  1
  Ti  Ti171  1  0.90578304  0.68974409  0.70617454  1
  Ti  Ti172  1  0.79641324  0.20570898  0.59230495  1
  Ti  Ti173  1  0.82217863  0.20449285  0.17339565  1
  Ti  Ti174  1  0.60774208  0.79744044  0.60553815  1
  Ti  Ti175  1  0.50586865  0.88926171  0.90345631  1
  Ti  Ti176  1  0.29936893  0.31009786  0.69220127  1
  Ti  Ti177  1  0.10020297  0.30163237  0.09746912  1
  Ti  Ti178  1  0.09497080  0.67880444  0.70296444  1
  Ti  Ti179  1  0.80221000  0.61096012  0.80202652  1
  Ti  Ti180  1  0.90140405  0.49909573  0.30117253  1
  Ti  Ti181  1  0.70548848  0.90250956  0.90260573  1
  Ti  Ti182  1  0.09115287  0.51221707  0.09865957  1
  Ti  Ti183  1  0.49830112  0.09644140  0.50110056  1
  Ti  Ti184  1  0.59237597  0.20685094  -0.01109832  1
  Ti  Ti185  1  0.79896104  0.20643003  0.81342502  1
  Ti  Ti186  1  0.30464853  0.49333101  0.90368752  1
  Ti  Ti187  1  0.09253180  0.50432175  0.89835871  1
  Ti  Ti188  1  0.00108631  0.60101429  0.00022648  1
  Ti  Ti189  1  0.29718971  0.70449343  0.09493203  1
  Ti  Ti190  1  0.00807910  -0.00029336  0.39315521  1
  Ti  Ti191  1  0.18694250  0.59655789  0.39660260  1
  Ti  Ti192  1  -0.00381721  -0.00171296  0.60642168  1
  Ti  Ti193  1  0.00242195  0.40738611  0.40368031  1
  Ti  Ti194  1  0.89687908  0.09928550  0.89949961  1
  Ti  Ti195  1  0.19749163  0.59272881  0.80661127  1
  Ti  Ti196  1  0.20248157  -0.00244427  0.60405324  1
  Ti  Ti197  1  0.29019325  0.09787444  0.70036482  1
  Ti  Ti198  1  0.90761320  0.50783956  0.70197272  1
  Ti  Ti199  1  0.50168657  0.68874460  0.29895773  1
  Mo  Mo200  1  -0.00010615  0.00008434  -0.00410438  1
  Mo  Mo201  1  0.18882182  0.40699437  0.59997886  1
  Mo  Mo202  1  0.70846563  0.29421526  0.89845160  1
  Mo  Mo203  1  0.29391860  0.50505547  0.09256795  1
  Mo  Mo204  1  0.40897144  0.60454058  0.40838707  1
  Mo  Mo205  1  0.40316277  0.40640255  0.60369473  1
  Mo  Mo206  1  0.60448906  -0.00751426  -0.00888155  1
  Mo  Mo207  1  0.09188388  0.49923342  0.49563540  1
  Mo  Mo208  1  0.51238958  0.70487887  0.90325670  1
  Mo  Mo209  1  0.29485986  0.09468243  0.51007053  1
  Mo  Mo210  1  0.09993777  0.50292972  0.69727771  1
  Mo  Mo211  1  0.18703997  0.40457648  0.39768483  1
  Mo  Mo212  1  0.28111859  0.69216084  0.89356594  1
  Mo  Mo213  1  0.90467301  0.69838542  0.89364960  1
  Mo  Mo214  1  0.39943000  0.41069785  -0.00541926  1
  Mo  Mo215  1  0.10057514  0.90313603  0.29442479  1
  Mo  Mo216  1  0.00067501  0.59607461  0.20539059  1
  Mo  Mo217  1  0.09831681  0.68930997  0.29865101  1
  Mo  Mo218  1  0.10027997  0.10151361  0.29187398  1
  Mo  Mo219  1  0.70880892  0.70196659  0.70444243  1
  Mo  Mo220  1  0.90512518  0.30638297  0.09960251  1
  Mo  Mo221  1  0.70306111  0.70238068  0.89863680  1
  Mo  Mo222  1  0.80183035  0.20474245  0.41364624  1
  Mo  Mo223  1  0.10121189  0.69469793  0.10246082  1
  Mo  Mo224  1  0.00158367  0.59770004  0.80136824  1
  Mo  Mo225  1  0.49789946  0.50412317  0.89883204  1
  Mo  Mo226  1  0.59885161  0.59609223  0.19355477  1
  Mo  Mo227  1  0.20515714  -0.01830102  -0.00276845  1
  Mo  Mo228  1  0.90392364  0.09501379  0.10341552  1
  Mo  Mo229  1  0.28145447  0.89422852  0.71023091  1
  Mo  Mo230  1  0.48443394  0.31503562  0.89928984  1
  Mo  Mo231  1  0.50484939  0.08949089  0.90574814  1
  Mo  Mo232  1  0.71596889  0.30387767  0.50336713  1
  Mo  Mo233  1  0.29486402  0.31782115  0.90689206  1
  Mo  Mo234  1  0.79425696  -0.00202735  0.80677377  1
  Mo  Mo235  1  0.20374821  -0.00400255  0.19878304  1
  Mo  Mo236  1  0.90299167  0.50399596  0.09616801  1
  Mo  Mo237  1  0.80288524  0.20095240  -0.01157321  1
  Mo  Mo238  1  0.39997542  0.40397609  0.18870592  1
  Mo  Mo239  1  0.39540326  0.79998630  -0.00311339  1
  Mo  Mo240  1  0.19266944  0.59800817  0.60154555  1
  Mo  Mo241  1  0.80644626  0.40843073  0.39969557  1
  Mo  Mo242  1  0.39636881  0.40145284  0.80105854  1
  Mo  Mo243  1  0.49805191  0.49789471  0.69853296  1
  Mo  Mo244  1  0.00838205  -0.00076645  0.20858999  1
  Mo  Mo245  1  0.80698092  -0.00023739  0.19289540  1
  Mo  Mo246  1  -0.00409709  0.59127743  0.60836780  1
  Mo  Mo247  1  0.51592386  0.89193796  0.71419036  1
  Mo  Mo248  1  0.59299340  0.00774234  0.39734673  1
  Mo  Mo249  1  0.20100192  0.19383685  0.60120116  1
