# generated using pymatgen
data_HfZrTaTiMo
_symmetry_space_group_name_H-M   'P 1'
_cell_length_a   16.88847157
_cell_length_b   16.87778618
_cell_length_c   16.88754549
_cell_angle_alpha   89.96812507
_cell_angle_beta   89.96750331
_cell_angle_gamma   89.99814968
_symmetry_Int_Tables_number   1
_chemical_formula_structural   HfZrTaTiMo
_chemical_formula_sum   'Hf50 Zr50 Ta50 Ti50 Mo50'
_cell_volume   4813.62464747
_cell_formula_units_Z   50
loop_
 _symmetry_equiv_pos_site_id
 _symmetry_equiv_pos_as_xyz
  1  'x, y, z'
loop_
 _atom_site_type_symbol
 _atom_site_label
 _atom_site_symmetry_multiplicity
 _atom_site_fract_x
 _atom_site_fract_y
 _atom_site_fract_z
 _atom_site_occupancy
  Hf  Hf0  1  0.60373162  0.60569506  0.41048179  1
  Hf  Hf1  1  0.69596120  0.70507303  0.69179548  1
  Hf  Hf2  1  0.50020549  0.89799057  0.50952975  1
  Hf  Hf3  1  0.29507433  0.09813209  0.30365328  1
  Hf  Hf4  1  0.30172895  0.69630205  0.09408865  1
  Hf  Hf5  1  0.81032081  0.79964796  0.41462980  1
  Hf  Hf6  1  0.39713945  0.39986181  0.39299292  1
  Hf  Hf7  1  0.30455890  0.30021002  0.90155586  1
  Hf  Hf8  1  0.80514530  0.39598922  0.19534402  1
  Hf  Hf9  1  0.39632303  0.00063021  0.80939012  1
  Hf  Hf10  1  0.79330149  0.40699665  0.79317015  1
  Hf  Hf11  1  0.49452797  0.10025248  0.69188549  1
  Hf  Hf12  1  0.91010366  0.49572569  0.08816065  1
  Hf  Hf13  1  0.90126726  0.09510444  0.70727554  1
  Hf  Hf14  1  0.10025154  0.90094456  0.89523415  1
  Hf  Hf15  1  0.20023107  0.19622968  0.19953053  1
  Hf  Hf16  1  0.30040629  0.29916797  0.50569595  1
  Hf  Hf17  1  0.70035696  0.70870831  0.30431639  1
  Hf  Hf18  1  0.39626152  0.60015182  0.80951538  1
  Hf  Hf19  1  0.60192465  0.00919609  0.79733355  1
  Hf  Hf20  1  0.18258228  0.40211179  0.81115848  1
  Hf  Hf21  1  0.89420750  0.28610624  0.30968572  1
  Hf  Hf22  1  0.29422999  0.90658339  0.09436499  1
  Hf  Hf23  1  0.30221406  0.10469781  0.69983808  1
  Hf  Hf24  1  0.09965725  0.49891126  0.09742804  1
  Hf  Hf25  1  0.40924989  0.19962409  0.39134855  1
  Hf  Hf26  1  0.70090206  0.49254338  0.29815033  1
  Hf  Hf27  1  0.00113262  0.59822614  0.80540525  1
  Hf  Hf28  1  0.60028100  0.59682206  0.19289517  1
  Hf  Hf29  1  0.49117701  0.70126210  0.69545358  1
  Hf  Hf30  1  0.20259612  0.59747397  0.20629155  1
  Hf  Hf31  1  0.10128246  0.09756501  0.09631869  1
  Hf  Hf32  1  -0.00611185  -0.00255592  0.40221847  1
  Hf  Hf33  1  -0.00152773  0.79785889  0.80729950  1
  Hf  Hf34  1  0.29571218  0.90384962  0.30268979  1
  Hf  Hf35  1  0.19951572  0.79146746  0.39766127  1
  Hf  Hf36  1  0.79662665  0.20140036  0.79891505  1
  Hf  Hf37  1  0.08921914  0.30095057  0.49713283  1
  Hf  Hf38  1  0.39444454  0.80484763  0.81039496  1
  Hf  Hf39  1  0.48927334  0.50239936  0.51187089  1
  Hf  Hf40  1  0.30006117  0.49626530  0.50856544  1
  Hf  Hf41  1  0.39283323  0.58956042  0.19967061  1
  Hf  Hf42  1  0.59364598  0.80288171  0.80260288  1
  Hf  Hf43  1  0.60077688  0.20520564  0.80267706  1
  Hf  Hf44  1  0.19191369  0.79817637  0.19649591  1
  Hf  Hf45  1  0.89971671  0.09761253  0.10395228  1
  Hf  Hf46  1  0.80954250  0.59983437  0.40536935  1
  Hf  Hf47  1  0.80789130  0.59383198  0.19315882  1
  Hf  Hf48  1  0.79850358  0.79393133  0.80650339  1
  Hf  Hf49  1  0.50543598  0.09742100  0.50778492  1
  Zr  Zr50  1  -0.00375998  0.41106688  0.39142659  1
  Zr  Zr51  1  0.20062016  0.59526350  -0.01101662  1
  Zr  Zr52  1  0.39612025  0.40264613  0.19405843  1
  Zr  Zr53  1  0.90762100  0.69969389  0.29490278  1
  Zr  Zr54  1  0.60518561  0.40135326  0.61479920  1
  Zr  Zr55  1  0.30684296  0.69735722  0.51415688  1
  Zr  Zr56  1  0.90322674  0.30217411  0.89356661  1
  Zr  Zr57  1  0.10259503  0.71195989  0.70246667  1
  Zr  Zr58  1  0.70067311  0.49645009  0.50327216  1
  Zr  Zr59  1  0.70411375  0.28624224  0.49631000  1
  Zr  Zr60  1  -0.00004145  0.19521418  0.20297187  1
  Zr  Zr61  1  0.69839067  0.90278273  0.69080148  1
  Zr  Zr62  1  0.00363687  0.80439089  0.18548409  1
  Zr  Zr63  1  0.30190681  0.89933380  0.69369161  1
  Zr  Zr64  1  -0.00712875  0.59747349  0.60012395  1
  Zr  Zr65  1  0.50439670  0.70099082  0.30141168  1
  Zr  Zr66  1  -0.00752941  0.19561454  0.60366978  1
  Zr  Zr67  1  0.09916849  0.29865664  0.30174422  1
  Zr  Zr68  1  0.69213961  0.88959820  0.50401434  1
  Zr  Zr69  1  0.39815358  0.79685633  0.39835398  1
  Zr  Zr70  1  0.70447297  0.90731520  0.90318166  1
  Zr  Zr71  1  0.50969572  0.49251696  0.29903489  1
  Zr  Zr72  1  0.59923690  0.40517586  0.80800338  1
  Zr  Zr73  1  0.89294482  0.70356734  0.69459479  1
  Zr  Zr74  1  0.71111844  0.91239813  0.11047579  1
  Zr  Zr75  1  0.80666404  0.39988419  0.61018231  1
  Zr  Zr76  1  0.60204071  0.80049118  -0.00092798  1
  Zr  Zr77  1  0.19204765  0.59764658  0.60515090  1
  Zr  Zr78  1  0.60353595  0.01059109  0.00492389  1
  Zr  Zr79  1  0.40708391  0.00841830  0.20472963  1
  Zr  Zr80  1  0.80937952  0.79976718  0.19386476  1
  Zr  Zr81  1  0.49738142  0.29516859  0.51470127  1
  Zr  Zr82  1  0.39769656  0.79707236  0.20100689  1
  Zr  Zr83  1  0.30254754  0.49637407  0.70181848  1
  Zr  Zr84  1  0.18602377  -0.00048687  0.60127905  1
  Zr  Zr85  1  0.30104530  0.30410818  0.70155589  1
  Zr  Zr86  1  0.69809675  0.69209533  0.09213590  1
  Zr  Zr87  1  0.59894150  0.19740655  0.19679656  1
  Zr  Zr88  1  0.89855996  0.49831515  0.89839776  1
  Zr  Zr89  1  0.71357053  0.10135184  0.29843619  1
  Zr  Zr90  1  0.50102866  0.30100601  0.07950424  1
  Zr  Zr91  1  0.49611583  0.11451779  0.91440464  1
  Zr  Zr92  1  0.82003136  0.78826082  0.00148016  1
  Zr  Zr93  1  0.10253889  0.30692922  0.10008593  1
  Zr  Zr94  1  0.19496570  0.79588630  -0.01010874  1
  Zr  Zr95  1  0.90153407  0.90994615  0.89729722  1
  Zr  Zr96  1  0.30653787  0.09801663  0.50417896  1
  Zr  Zr97  1  0.49717345  0.90493827  0.09905979  1
  Zr  Zr98  1  0.40415480  0.20326563  0.20044546  1
  Zr  Zr99  1  0.18795738  0.19886553  0.60277658  1
  Ta  Ta100  1  0.50265720  0.70484846  0.50867459  1
  Ta  Ta101  1  0.70186698  0.90128958  0.30319591  1
  Ta  Ta102  1  0.69728351  0.49485297  0.08342992  1
  Ta  Ta103  1  0.29696719  0.30233603  0.09308060  1
  Ta  Ta104  1  0.00651265  0.00153934  -0.00249580  1
  Ta  Ta105  1  0.09600389  0.90011979  0.30266360  1
  Ta  Ta106  1  0.49228112  0.50126234  0.70293931  1
  Ta  Ta107  1  0.50220641  0.69312568  0.90533599  1
  Ta  Ta108  1  0.60018883  0.80318142  0.19887246  1
  Ta  Ta109  1  0.80394648  0.39935751  0.39983496  1
  Ta  Ta110  1  0.19695402  0.59586018  0.39521351  1
  Ta  Ta111  1  0.89918915  0.90259178  0.69751648  1
  Ta  Ta112  1  0.60085493  0.60011984  0.60404873  1
  Ta  Ta113  1  0.00471289  0.19878882  -0.00825473  1
  Ta  Ta114  1  0.08888361  0.29864505  0.70937441  1
  Ta  Ta115  1  0.29227788  0.30104178  0.29992314  1
  Ta  Ta116  1  0.09800805  0.89645089  0.49759151  1
  Ta  Ta117  1  0.29969682  0.10286701  0.09108777  1
  Ta  Ta118  1  0.40222359  0.20407947  0.80669743  1
  Ta  Ta119  1  0.01931557  0.39936328  -0.02277425  1
  Ta  Ta120  1  0.39815511  0.59355875  -0.00419271  1
  Ta  Ta121  1  0.19994040  -0.00050096  0.80447521  1
  Ta  Ta122  1  0.19824307  0.40727121  0.39791922  1
  Ta  Ta123  1  0.80534175  0.00120357  0.59339183  1
  Ta  Ta124  1  0.09683834  0.49908104  0.50028709  1
  Ta  Ta125  1  0.50681978  0.49884170  0.08528929  1
  Ta  Ta126  1  0.80361245  0.20378526  0.00200451  1
  Ta  Ta127  1  0.89866008  0.29527815  0.49786946  1
  Ta  Ta128  1  -0.00211067  -0.00337399  0.59839570  1
  Ta  Ta129  1  0.80225902  -0.00286305  0.40541642  1
  Ta  Ta130  1  0.90253250  0.49691694  0.50254433  1
  Ta  Ta131  1  0.51368270  0.89935974  0.30684035  1
  Ta  Ta132  1  0.90425683  0.09848671  0.89931869  1
  Ta  Ta133  1  0.00202529  0.60033235  0.40032303  1
  Ta  Ta134  1  0.39558779  0.79718818  -0.00915589  1
  Ta  Ta135  1  -0.00299726  0.80047531  0.40465850  1
  Ta  Ta136  1  0.19428034  0.80506218  0.59825029  1
  Ta  Ta137  1  0.71085357  0.10224410  0.10398989  1
  Ta  Ta138  1  0.19019220  -0.00143497  0.19927805  1
  Ta  Ta139  1  0.60483948  0.00181488  0.40058459  1
  Ta  Ta140  1  0.70204928  0.29897152  0.30265065  1
  Ta  Ta141  1  0.29768181  0.70616106  0.70353818  1
  Ta  Ta142  1  0.19737724  0.19767463  -0.00892164  1
  Ta  Ta143  1  0.18430044  0.39848358  0.60309836  1
  Ta  Ta144  1  0.40956108  -0.00005291  0.39870788  1
  Ta  Ta145  1  0.09246793  0.09451964  0.71389462  1
  Ta  Ta146  1  0.09538655  0.70147568  0.49894343  1
  Ta  Ta147  1  0.49859401  0.69413901  0.09150259  1
  Ta  Ta148  1  0.30113571  0.90350008  0.50168298  1
  Ta  Ta149  1  0.38987639  0.59967875  0.39335126  1
  Ti  Ti150  1  0.19954585  0.00567496  -0.01007132  1
  Ti  Ti151  1  0.61018746  0.39086714  0.18342580  1
  Ti  Ti152  1  0.09516270  0.69869522  0.30166811  1
  Ti  Ti153  1  0.61641555  0.20788421  0.00431380  1
  Ti  Ti154  1  0.70235710  0.29426389  0.69948457  1
  Ti  Ti155  1  0.69785650  0.30583977  0.90774418  1
  Ti  Ti156  1  0.60177071  0.39426636  0.40600865  1
  Ti  Ti157  1  0.09131652  0.10152182  0.49201905  1
  Ti  Ti158  1  0.79348264  0.39479161  -0.00006004  1
  Ti  Ti159  1  0.48936350  0.30358381  0.70240779  1
  Ti  Ti160  1  0.51206381  0.30412448  0.29802165  1
  Ti  Ti161  1  0.79913494  0.20952466  0.18987177  1
  Ti  Ti162  1  0.09109417  0.49528917  0.70411204  1
  Ti  Ti163  1  0.49988929  0.90494637  0.90809531  1
  Ti  Ti164  1  0.30243602  0.49294560  0.89728767  1
  Ti  Ti165  1  -0.00479734  0.40551699  0.20767902  1
  Ti  Ti166  1  0.79545698  0.59630395  0.79782123  1
  Ti  Ti167  1  0.60024763  0.00558781  0.20631238  1
  Ti  Ti168  1  0.19268476  0.19749701  0.39844685  1
  Ti  Ti169  1  0.20034920  0.40162986  -0.00449705  1
  Ti  Ti170  1  0.60088195  0.19300908  0.39388811  1
  Ti  Ti171  1  0.38731461  0.00296334  -0.00914707  1
  Ti  Ti172  1  0.90895171  0.91056604  0.09592548  1
  Ti  Ti173  1  0.20841090  0.41167192  0.20581172  1
  Ti  Ti174  1  0.70757960  0.10454810  0.90602600  1
  Ti  Ti175  1  0.69577025  0.68724749  0.90140784  1
  Ti  Ti176  1  0.70078827  0.09670577  0.50523718  1
  Ti  Ti177  1  0.79775688  0.60108811  0.59606752  1
  Ti  Ti178  1  0.60854781  0.19483573  0.61151081  1
  Ti  Ti179  1  0.19457284  0.19416561  0.80932915  1
  Ti  Ti180  1  -0.00791564  0.39883445  0.61127273  1
  Ti  Ti181  1  0.79414161  0.00633745  0.79517316  1
  Ti  Ti182  1  0.49444793  0.10511127  0.09327301  1
  Ti  Ti183  1  0.00580991  -0.00197201  0.20374241  1
  Ti  Ti184  1  0.60170979  0.59317504  0.80168221  1
  Ti  Ti185  1  0.90966610  0.30395524  0.09040047  1
  Ti  Ti186  1  0.89407560  0.10682544  0.49269997  1
  Ti  Ti187  1  0.08773698  0.69247575  0.08924307  1
  Ti  Ti188  1  0.80545771  0.60080036  -0.00682600  1
  Ti  Ti189  1  0.19113007  0.00050613  0.39955955  1
  Ti  Ti190  1  0.40511790  0.40658093  -0.00975186  1
  Ti  Ti191  1  0.80599850  0.00825923  0.00131341  1
  Ti  Ti192  1  0.49917057  0.90466320  0.68596596  1
  Ti  Ti193  1  0.00302496  0.19997826  0.80645461  1
  Ti  Ti194  1  0.80115008  0.19458445  0.60539288  1
  Ti  Ti195  1  0.89742921  0.90466972  0.29614539  1
  Ti  Ti196  1  0.89720164  0.10030881  0.30267907  1
  Ti  Ti197  1  -0.00520836  0.80811376  0.59323849  1
  Ti  Ti198  1  0.19752433  0.60835813  0.80877300  1
  Ti  Ti199  1  0.00283578  0.59063618  0.20664702  1
  Mo  Mo200  1  0.89957592  0.69278178  0.90164310  1
  Mo  Mo201  1  0.49747393  0.30349339  0.89878559  1
  Mo  Mo202  1  0.10270464  0.29248526  0.89710686  1
  Mo  Mo203  1  0.20088433  0.80202150  0.79599809  1
  Mo  Mo204  1  0.09878928  0.09842882  0.89773089  1
  Mo  Mo205  1  0.80813251  0.80285849  0.59960071  1
  Mo  Mo206  1  0.59559082  0.59399725  -0.00905752  1
  Mo  Mo207  1  0.79920512  0.19487427  0.40620616  1
  Mo  Mo208  1  0.90308510  0.29495981  0.70043265  1
  Mo  Mo209  1  0.90000741  0.49902899  0.29883229  1
  Mo  Mo210  1  0.29514145  0.49483452  0.30603344  1
  Mo  Mo211  1  0.39673335  0.39924842  0.61039196  1
  Mo  Mo212  1  0.60663282  0.40104238  -0.00591420  1
  Mo  Mo213  1  0.69821242  0.51732108  0.70453422  1
  Mo  Mo214  1  0.70368937  0.10083761  0.69110843  1
  Mo  Mo215  1  0.38660985  0.20107777  0.00111250  1
  Mo  Mo216  1  0.30221824  0.70142207  0.89569550  1
  Mo  Mo217  1  0.90488744  0.69894907  0.50243327  1
  Mo  Mo218  1  0.09862887  0.70256615  0.89949155  1
  Mo  Mo219  1  0.29401050  0.69281976  0.29955039  1
  Mo  Mo220  1  0.30246322  0.48984679  0.08878324  1
  Mo  Mo221  1  0.81118946  -0.00103674  0.20763696  1
  Mo  Mo222  1  0.00326289  0.60339604  -0.00639502  1
  Mo  Mo223  1  0.60386933  0.80149746  0.40168308  1
  Mo  Mo224  1  0.09893686  0.90954315  0.09541542  1
  Mo  Mo225  1  0.70153088  0.50715464  0.90430501  1
  Mo  Mo226  1  0.39501427  0.80247033  0.60305828  1
  Mo  Mo227  1  0.10108245  0.08999607  0.30506050  1
  Mo  Mo228  1  0.29460813  0.10321426  0.89891101  1
  Mo  Mo229  1  0.10097228  0.50468000  0.89771557  1
  Mo  Mo230  1  0.91663562  0.68139740  0.09146772  1
  Mo  Mo231  1  0.40867962  0.39996976  0.80787925  1
  Mo  Mo232  1  0.00200005  -0.00185389  0.79730280  1
  Mo  Mo233  1  0.59397566  0.79427308  0.60153769  1
  Mo  Mo234  1  0.50104851  0.50122229  0.90028822  1
  Mo  Mo235  1  0.70478087  0.29997846  0.09708421  1
  Mo  Mo236  1  0.39723226  -0.00030797  0.59429592  1
  Mo  Mo237  1  0.00253391  0.79848514  0.00065528  1
  Mo  Mo238  1  0.40325936  0.20297137  0.60663828  1
  Mo  Mo239  1  0.70115202  0.70051482  0.50819247  1
  Mo  Mo240  1  0.90250738  0.90178234  0.50610916  1
  Mo  Mo241  1  0.51050491  0.09371304  0.30871947  1
  Mo  Mo242  1  0.09950112  0.50366741  0.29913035  1
  Mo  Mo243  1  -0.00460821  0.18845995  0.40402311  1
  Mo  Mo244  1  -0.00377742  0.40025578  0.79013316  1
  Mo  Mo245  1  0.40234227  0.60135601  0.60536803  1
  Mo  Mo246  1  0.60626044  0.00408464  0.59882015  1
  Mo  Mo247  1  0.29488129  0.90461371  0.90092682  1
  Mo  Mo248  1  0.09375075  0.90358539  0.69690409  1
  Mo  Mo249  1  0.89536456  0.50245991  0.69795805  1
