# generated using pymatgen
data_HfZrTaTiMo
_symmetry_space_group_name_H-M   'P 1'
_cell_length_a   16.87660974
_cell_length_b   16.89240393
_cell_length_c   16.87955576
_cell_angle_alpha   90.06099643
_cell_angle_beta   89.97507731
_cell_angle_gamma   90.07611080
_symmetry_Int_Tables_number   1
_chemical_formula_structural   HfZrTaTiMo
_chemical_formula_sum   'Hf50 Zr50 Ta50 Ti50 Mo50'
_cell_volume   4812.12619527
_cell_formula_units_Z   50
loop_
 _symmetry_equiv_pos_site_id
 _symmetry_equiv_pos_as_xyz
  1  'x, y, z'
loop_
 _atom_site_type_symbol
 _atom_site_label
 _atom_site_symmetry_multiplicity
 _atom_site_fract_x
 _atom_site_fract_y
 _atom_site_fract_z
 _atom_site_occupancy
  Hf  Hf0  1  0.10650655  0.69317540  0.90110338  1
  Hf  Hf1  1  0.20458527  0.79676511  0.60649386  1
  Hf  Hf2  1  0.79034863  0.40420729  0.60521738  1
  Hf  Hf3  1  0.21152689  0.00403186  0.39938558  1
  Hf  Hf4  1  0.29455290  0.89590374  0.89974096  1
  Hf  Hf5  1  0.68729221  0.51207187  0.49697439  1
  Hf  Hf6  1  0.69428868  0.49487225  0.09491753  1
  Hf  Hf7  1  -0.00961579  -0.00072324  0.80069684  1
  Hf  Hf8  1  -0.00727059  0.60759213  0.39987782  1
  Hf  Hf9  1  0.20981547  0.00284853  0.20457309  1
  Hf  Hf10  1  0.09852334  0.70883652  0.50325313  1
  Hf  Hf11  1  0.80679891  0.00375914  0.79524383  1
  Hf  Hf12  1  0.80261859  0.19411685  0.60077410  1
  Hf  Hf13  1  0.89759999  0.29812403  0.69987868  1
  Hf  Hf14  1  0.90641429  0.89273439  0.90708347  1
  Hf  Hf15  1  0.69530203  0.10736766  0.10669068  1
  Hf  Hf16  1  0.79632282  -0.00306869  -0.00946860  1
  Hf  Hf17  1  0.69600218  0.30970935  0.90030273  1
  Hf  Hf18  1  0.31129149  0.90325280  0.50098858  1
  Hf  Hf19  1  0.80358805  0.20596936  0.00671437  1
  Hf  Hf20  1  0.90877498  0.09123634  0.09552085  1
  Hf  Hf21  1  0.19966840  0.00688941  0.58905610  1
  Hf  Hf22  1  0.60103383  0.00467533  -0.00632804  1
  Hf  Hf23  1  0.30816108  0.29588073  0.10019862  1
  Hf  Hf24  1  0.90454602  0.30288277  0.49601331  1
  Hf  Hf25  1  0.69901946  0.09324183  0.50204246  1
  Hf  Hf26  1  0.49649027  0.90107958  0.29628067  1
  Hf  Hf27  1  0.89906608  0.30443529  0.90139275  1
  Hf  Hf28  1  0.49601548  0.11135463  0.11145005  1
  Hf  Hf29  1  0.79559574  0.80527589  0.80201652  1
  Hf  Hf30  1  0.20315977  0.19692919  0.39934375  1
  Hf  Hf31  1  0.90062251  0.70419346  0.70139300  1
  Hf  Hf32  1  0.20079645  0.59925236  0.60440712  1
  Hf  Hf33  1  0.20413895  0.39548184  0.60768750  1
  Hf  Hf34  1  0.60084619  0.19243701  0.38630584  1
  Hf  Hf35  1  0.90021928  0.10105286  0.30341436  1
  Hf  Hf36  1  0.30536665  0.29602728  0.50336494  1
  Hf  Hf37  1  0.89701703  0.49710965  0.49834776  1
  Hf  Hf38  1  0.69686836  0.71470280  0.09874767  1
  Hf  Hf39  1  0.79607028  0.41468878  0.79000803  1
  Hf  Hf40  1  0.10302457  0.89258606  0.30467268  1
  Hf  Hf41  1  0.60133218  0.60948541  0.20478461  1
  Hf  Hf42  1  0.59632394  0.79721563  0.40176932  1
  Hf  Hf43  1  0.09575499  0.89386746  0.70013800  1
  Hf  Hf44  1  0.58409469  0.18602515  0.60555452  1
  Hf  Hf45  1  0.90315065  0.50916271  0.89694103  1
  Hf  Hf46  1  0.00170294  -0.00630304  0.41122270  1
  Hf  Hf47  1  0.40593555  0.79788059  0.59995813  1
  Hf  Hf48  1  0.29330788  0.69873450  0.09598769  1
  Hf  Hf49  1  -0.00915708  0.00032454  0.60303925  1
  Zr  Zr50  1  0.49589101  0.69301024  0.88872392  1
  Zr  Zr51  1  0.19650456  0.59771412  0.20188218  1
  Zr  Zr52  1  0.59712126  0.60660788  0.00055303  1
  Zr  Zr53  1  0.79951162  0.79716748  0.40057077  1
  Zr  Zr54  1  0.29926663  0.89287999  0.10065186  1
  Zr  Zr55  1  0.10520328  0.10054308  0.70097121  1
  Zr  Zr56  1  0.10324221  0.89662772  0.09286540  1
  Zr  Zr57  1  0.70112463  0.12085293  0.88963457  1
  Zr  Zr58  1  0.31285089  0.10313265  0.69952428  1
  Zr  Zr59  1  0.50563073  0.89893088  0.10946689  1
  Zr  Zr60  1  0.39717079  0.60346093  0.39692656  1
  Zr  Zr61  1  0.00154869  0.20620615  0.19774748  1
  Zr  Zr62  1  -0.00655398  0.60657319  0.19651473  1
  Zr  Zr63  1  0.89630365  0.49227544  0.30284946  1
  Zr  Zr64  1  0.50132611  0.49657920  0.89262447  1
  Zr  Zr65  1  0.09371218  0.09756029  0.29878814  1
  Zr  Zr66  1  0.69605042  0.69977595  0.51106417  1
  Zr  Zr67  1  0.90216817  0.90239477  0.30098037  1
  Zr  Zr68  1  0.59469363  0.38649437  0.39731972  1
  Zr  Zr69  1  0.50199773  0.30128044  0.89163469  1
  Zr  Zr70  1  0.78311087  0.38962122  0.39509681  1
  Zr  Zr71  1  0.49096789  0.90270204  0.89573258  1
  Zr  Zr72  1  0.09305961  0.30948941  0.09533804  1
  Zr  Zr73  1  0.60722486  0.38827843  0.20377603  1
  Zr  Zr74  1  0.19698766  0.59866806  0.40200202  1
  Zr  Zr75  1  0.39646770  0.00442443  0.00523304  1
  Zr  Zr76  1  0.69238933  0.89742520  0.10495867  1
  Zr  Zr77  1  0.58941689  0.00038439  0.40731189  1
  Zr  Zr78  1  0.08825465  0.48161412  0.29867672  1
  Zr  Zr79  1  0.39773143  0.59525961  0.00674734  1
  Zr  Zr80  1  0.60119468  0.00277814  0.79919174  1
  Zr  Zr81  1  0.10420296  0.50455982  0.70692294  1
  Zr  Zr82  1  -0.00519627  0.19304049  0.80123279  1
  Zr  Zr83  1  -0.00253702  0.60389681  0.60044891  1
  Zr  Zr84  1  0.30827984  0.91186560  0.70234122  1
  Zr  Zr85  1  0.29532345  0.49419571  0.29899803  1
  Zr  Zr86  1  0.40252362  0.39024554  0.39725029  1
  Zr  Zr87  1  0.40185849  0.40159431  0.19881197  1
  Zr  Zr88  1  0.50426967  0.50872748  0.30350282  1
  Zr  Zr89  1  0.79694720  -0.00164963  0.20339764  1
  Zr  Zr90  1  0.19922052  0.19973089  -0.00343171  1
  Zr  Zr91  1  0.59900504  0.39386121  0.60222810  1
  Zr  Zr92  1  0.00418124  0.40281049  0.79656750  1
  Zr  Zr93  1  0.10038593  0.09043136  0.90638399  1
  Zr  Zr94  1  0.60307103  0.80054985  0.79616378  1
  Zr  Zr95  1  0.31499533  0.29696859  0.89481292  1
  Zr  Zr96  1  0.80456362  0.60289667  0.00224573  1
  Zr  Zr97  1  0.49630085  0.50877207  0.69947565  1
  Zr  Zr98  1  0.80084385  0.60468423  0.20388310  1
  Zr  Zr99  1  0.20806265  0.40636966  -0.00535217  1
  Ta  Ta100  1  0.30558698  0.68766432  0.70657720  1
  Ta  Ta101  1  0.50028709  0.69251733  0.69661530  1
  Ta  Ta102  1  0.30550387  0.69650968  0.50401737  1
  Ta  Ta103  1  0.79758261  0.20875386  0.20281469  1
  Ta  Ta104  1  0.40412191  0.40494849  0.00105583  1
  Ta  Ta105  1  0.20246663  0.20816423  0.79689510  1
  Ta  Ta106  1  0.09531505  0.49999295  0.09226080  1
  Ta  Ta107  1  0.69672827  0.90172141  0.51053960  1
  Ta  Ta108  1  0.40107235  0.80035001  0.40041711  1
  Ta  Ta109  1  0.40042679  0.79394197  -0.00090069  1
  Ta  Ta110  1  0.80508187  -0.00260377  0.60261498  1
  Ta  Ta111  1  0.69887653  0.09876311  0.69942954  1
  Ta  Ta112  1  0.09854423  0.48800616  0.49844717  1
  Ta  Ta113  1  0.10347803  0.89399920  0.90272484  1
  Ta  Ta114  1  0.10636045  0.70133167  0.09518175  1
  Ta  Ta115  1  0.09889741  0.70925272  0.30043082  1
  Ta  Ta116  1  -0.00388274  0.79519708  0.19824072  1
  Ta  Ta117  1  0.00091840  0.19763276  0.59793475  1
  Ta  Ta118  1  0.09775723  0.30158799  0.50206698  1
  Ta  Ta119  1  0.50143252  0.29846518  0.09413928  1
  Ta  Ta120  1  0.60244646  0.40246412  0.78790910  1
  Ta  Ta121  1  0.20588831  0.39739716  0.79908979  1
  Ta  Ta122  1  0.59896356  0.20742409  0.00358943  1
  Ta  Ta123  1  0.39683090  0.79391130  0.20659864  1
  Ta  Ta124  1  -0.00962825  0.79395017  0.40397531  1
  Ta  Ta125  1  0.49193878  0.11279420  0.89469915  1
  Ta  Ta126  1  0.89940110  0.10228327  0.49511625  1
  Ta  Ta127  1  0.30912493  0.10336804  0.89189881  1
  Ta  Ta128  1  0.69577402  0.28360711  0.71051806  1
  Ta  Ta129  1  0.49228085  0.28692656  0.50327621  1
  Ta  Ta130  1  0.50156462  0.69121144  0.50484814  1
  Ta  Ta131  1  0.79906162  0.40242890  0.00271514  1
  Ta  Ta132  1  0.00267717  0.79344611  0.00090125  1
  Ta  Ta133  1  0.20267604  0.20160354  0.59811409  1
  Ta  Ta134  1  0.80152797  0.79554039  0.20688024  1
  Ta  Ta135  1  0.29592924  0.69458565  0.89770890  1
  Ta  Ta136  1  0.39739958  0.79740808  0.79446746  1
  Ta  Ta137  1  0.20054758  0.19914197  0.20383880  1
  Ta  Ta138  1  0.79696117  0.19916246  0.39523152  1
  Ta  Ta139  1  0.49687542  0.50570590  0.50535182  1
  Ta  Ta140  1  0.10400741  0.50626675  0.90371155  1
  Ta  Ta141  1  0.90691031  0.30526759  0.29930528  1
  Ta  Ta142  1  0.79853420  0.39176364  0.19501961  1
  Ta  Ta143  1  0.80040525  0.59629746  0.61022778  1
  Ta  Ta144  1  0.69839779  0.90305991  0.69101621  1
  Ta  Ta145  1  0.20064314  0.79167114  0.79532024  1
  Ta  Ta146  1  0.49891447  0.90967052  0.69444081  1
  Ta  Ta147  1  0.69593579  0.50547673  0.89466054  1
  Ta  Ta148  1  0.10032764  0.09426752  0.09780671  1
  Ta  Ta149  1  0.30394316  0.49603139  0.50801932  1
  Ti  Ti150  1  0.40535180  0.39510612  0.60491197  1
  Ti  Ti151  1  0.39968124  0.00527321  0.39794677  1
  Ti  Ti152  1  0.90840349  0.48915165  0.09787920  1
  Ti  Ti153  1  0.00133809  0.60560149  0.79450983  1
  Ti  Ti154  1  0.29735532  0.50294606  0.10460732  1
  Ti  Ti155  1  0.60140865  0.02179693  0.22265357  1
  Ti  Ti156  1  0.20371397  0.79955760  0.20778593  1
  Ti  Ti157  1  0.31456502  0.29686219  0.70268529  1
  Ti  Ti158  1  -0.00098604  0.40266826  0.60463760  1
  Ti  Ti159  1  0.80021714  0.61362246  0.39900956  1
  Ti  Ti160  1  0.69398357  0.89718247  0.29913350  1
  Ti  Ti161  1  0.38985491  0.00812991  0.21331560  1
  Ti  Ti162  1  0.69787209  0.50862441  0.30573112  1
  Ti  Ti163  1  -0.00172592  0.19658823  -0.00460963  1
  Ti  Ti164  1  0.89925219  0.89349473  0.09478220  1
  Ti  Ti165  1  0.90584796  0.30999674  0.09850812  1
  Ti  Ti166  1  0.20138473  0.00049103  0.80186290  1
  Ti  Ti167  1  0.39851662  0.18396009  0.39721563  1
  Ti  Ti168  1  0.69539303  0.69226986  0.70092984  1
  Ti  Ti169  1  0.30102638  0.29186257  0.29625180  1
  Ti  Ti170  1  0.70671155  0.69720071  0.89802726  1
  Ti  Ti171  1  0.79595740  -0.00291390  0.40320039  1
  Ti  Ti172  1  0.89653404  0.89269485  0.50796272  1
  Ti  Ti173  1  0.59300644  0.80587796  0.60079803  1
  Ti  Ti174  1  0.49907684  0.70970427  0.10680831  1
  Ti  Ti175  1  0.60223267  0.80601408  -0.01392792  1
  Ti  Ti176  1  0.80337001  0.80110172  0.60488733  1
  Ti  Ti177  1  0.19527915  0.39089921  0.20127133  1
  Ti  Ti178  1  0.42278733  0.01626296  0.58615738  1
  Ti  Ti179  1  0.30131002  0.50677151  0.88796877  1
  Ti  Ti180  1  0.00344992  -0.00962073  0.19498478  1
  Ti  Ti181  1  0.49924071  0.70113208  0.29931594  1
  Ti  Ti182  1  0.50320152  0.49736077  0.10160259  1
  Ti  Ti183  1  0.21208008  0.80024987  0.39956857  1
  Ti  Ti184  1  0.00002320  0.60379847  0.00433401  1
  Ti  Ti185  1  0.10066778  0.29684160  0.69773243  1
  Ti  Ti186  1  0.20510175  0.00311237  0.00131097  1
  Ti  Ti187  1  0.09805630  0.30689336  0.90084896  1
  Ti  Ti188  1  0.19694127  0.39038109  0.40022629  1
  Ti  Ti189  1  0.09557386  0.10845719  0.50014035  1
  Ti  Ti190  1  0.10069935  0.89018234  0.50185257  1
  Ti  Ti191  1  0.89929567  0.70103718  0.89968698  1
  Ti  Ti192  1  0.89673233  0.71240285  0.09356396  1
  Ti  Ti193  1  0.69342386  0.28867204  0.50500614  1
  Ti  Ti194  1  0.30287864  0.10957739  0.10031418  1
  Ti  Ti195  1  0.00391728  0.20766998  0.39903695  1
  Ti  Ti196  1  0.00420861  0.79514620  0.79854237  1
  Ti  Ti197  1  0.30095877  0.69970896  0.29788039  1
  Ti  Ti198  1  0.30849506  0.50090385  0.70529798  1
  Ti  Ti199  1  0.49341379  0.27670823  0.28397855  1
  Mo  Mo200  1  0.59835482  0.79536832  0.21321296  1
  Mo  Mo201  1  0.60169812  0.20160781  0.19979125  1
  Mo  Mo202  1  0.49503059  0.29988575  0.69987738  1
  Mo  Mo203  1  0.49848896  0.09749622  0.70716011  1
  Mo  Mo204  1  0.70918121  0.09902407  0.30171751  1
  Mo  Mo205  1  0.30543204  0.89415011  0.30440946  1
  Mo  Mo206  1  0.40402299  0.60951048  0.19631441  1
  Mo  Mo207  1  0.49936993  0.89770395  0.50124882  1
  Mo  Mo208  1  0.00190968  -0.00918302  0.00232404  1
  Mo  Mo209  1  0.59388657  0.20300075  0.79496340  1
  Mo  Mo210  1  0.19964667  0.79381134  -0.00944888  1
  Mo  Mo211  1  0.48940245  0.09856205  0.29752485  1
  Mo  Mo212  1  0.79816355  0.60768699  0.80068775  1
  Mo  Mo213  1  0.80226192  0.19924158  0.79744471  1
  Mo  Mo214  1  0.00264919  0.39269600  0.40600323  1
  Mo  Mo215  1  -0.00638275  0.40014027  0.19378300  1
  Mo  Mo216  1  0.90154813  0.70411675  0.29909446  1
  Mo  Mo217  1  0.59961664  -0.00277018  0.60215650  1
  Mo  Mo218  1  0.60005910  0.40093449  -0.00109322  1
  Mo  Mo219  1  0.59702975  0.60612279  0.40160085  1
  Mo  Mo220  1  0.39301239  0.19906266  0.20050379  1
  Mo  Mo221  1  0.89838569  0.50701254  0.69974633  1
  Mo  Mo222  1  0.89360575  0.70123244  0.50572983  1
  Mo  Mo223  1  0.20539147  0.59560631  0.80174117  1
  Mo  Mo224  1  0.39699988  0.59818694  0.59725700  1
  Mo  Mo225  1  0.70120851  0.89201620  0.89946433  1
  Mo  Mo226  1  0.70531571  0.29110252  0.29388017  1
  Mo  Mo227  1  0.59914296  0.60357697  0.60202428  1
  Mo  Mo228  1  0.30183518  0.10261169  0.29961910  1
  Mo  Mo229  1  0.49720640  0.10214824  0.49176792  1
  Mo  Mo230  1  0.10093635  0.70317880  0.70722546  1
  Mo  Mo231  1  0.80505231  0.79905063  -0.00025564  1
  Mo  Mo232  1  0.69541076  0.51376157  0.70101723  1
  Mo  Mo233  1  0.60979942  0.60128717  0.79543172  1
  Mo  Mo234  1  0.40386684  0.20081356  0.79027804  1
  Mo  Mo235  1  0.39645417  0.60058609  0.79827495  1
  Mo  Mo236  1  0.89721898  0.89282628  0.69735165  1
  Mo  Mo237  1  0.19925972  0.59365478  -0.00061266  1
  Mo  Mo238  1  0.40506226  0.20114401  0.00039724  1
  Mo  Mo239  1  0.30858192  0.10342587  0.50019874  1
  Mo  Mo240  1  0.69923363  0.70249091  0.30152686  1
  Mo  Mo241  1  -0.00281931  0.40960258  -0.00366461  1
  Mo  Mo242  1  0.90121669  0.10208725  0.90788002  1
  Mo  Mo243  1  0.39668625  0.40246899  0.79262119  1
  Mo  Mo244  1  0.69995530  0.30205938  0.09822244  1
  Mo  Mo245  1  -0.00656659  0.80500248  0.59680399  1
  Mo  Mo246  1  0.40097368  0.19892021  0.59764424  1
  Mo  Mo247  1  0.40261659  0.00167026  0.80227080  1
  Mo  Mo248  1  0.89605977  0.10044859  0.69177156  1
  Mo  Mo249  1  0.10432180  0.30049737  0.30280884  1
