# generated using pymatgen
data_HfZrTaTiMo
_symmetry_space_group_name_H-M   'P 1'
_cell_length_a   16.88817714
_cell_length_b   16.89750877
_cell_length_c   16.89098677
_cell_angle_alpha   89.98526434
_cell_angle_beta   90.02422976
_cell_angle_gamma   89.98914392
_symmetry_Int_Tables_number   1
_chemical_formula_structural   HfZrTaTiMo
_chemical_formula_sum   'Hf50 Zr50 Ta50 Ti50 Mo50'
_cell_volume   4820.14848567
_cell_formula_units_Z   50
loop_
 _symmetry_equiv_pos_site_id
 _symmetry_equiv_pos_as_xyz
  1  'x, y, z'
loop_
 _atom_site_type_symbol
 _atom_site_label
 _atom_site_symmetry_multiplicity
 _atom_site_fract_x
 _atom_site_fract_y
 _atom_site_fract_z
 _atom_site_occupancy
  Hf  Hf0  1  0.30478136  0.29535333  0.48948315  1
  Hf  Hf1  1  0.70134780  0.49607584  0.30326058  1
  Hf  Hf2  1  0.69846120  0.90069227  0.49421740  1
  Hf  Hf3  1  0.19692898  0.81512980  0.58179453  1
  Hf  Hf4  1  0.10196368  0.08665653  0.70396839  1
  Hf  Hf5  1  0.81131776  0.00130819  0.80460783  1
  Hf  Hf6  1  0.09945502  0.49011850  0.30040414  1
  Hf  Hf7  1  0.60093060  0.61075468  0.39381749  1
  Hf  Hf8  1  0.89554975  0.69721435  0.91043332  1
  Hf  Hf9  1  0.80291768  0.19445677  0.59964528  1
  Hf  Hf10  1  0.10192780  0.29110695  0.70913343  1
  Hf  Hf11  1  -0.00724823  0.60146609  0.39618738  1
  Hf  Hf12  1  0.80485207  -0.00193199  0.00276085  1
  Hf  Hf13  1  0.49155415  0.30094891  0.49969947  1
  Hf  Hf14  1  0.28786502  0.90643502  0.89991709  1
  Hf  Hf15  1  0.38822617  0.00984832  0.60238201  1
  Hf  Hf16  1  0.00441866  0.60087948  0.00058673  1
  Hf  Hf17  1  0.20763904  0.19903481  -0.00646022  1
  Hf  Hf18  1  0.21287737  0.39344611  0.19989168  1
  Hf  Hf19  1  0.09949442  0.69555911  0.49123103  1
  Hf  Hf20  1  0.69830375  0.10188782  0.49424743  1
  Hf  Hf21  1  0.69746147  0.49425831  0.48744444  1
  Hf  Hf22  1  -0.01029814  0.19373404  0.59706402  1
  Hf  Hf23  1  0.80042041  0.39181362  0.59562553  1
  Hf  Hf24  1  0.31485444  0.29404411  0.09800442  1
  Hf  Hf25  1  0.40870385  0.60146643  0.59747194  1
  Hf  Hf26  1  0.49014766  0.90551722  0.70732217  1
  Hf  Hf27  1  0.19682732  0.81132114  0.38513034  1
  Hf  Hf28  1  0.39912417  0.40337701  0.80510312  1
  Hf  Hf29  1  0.39948190  0.60404126  0.80200817  1
  Hf  Hf30  1  0.10371797  0.09825587  0.48918197  1
  Hf  Hf31  1  0.80422223  0.39206352  0.20052970  1
  Hf  Hf32  1  0.11015728  0.29818679  0.30536997  1
  Hf  Hf33  1  0.49884680  0.09884703  0.89596347  1
  Hf  Hf34  1  0.80778135  -0.00365321  0.20285444  1
  Hf  Hf35  1  0.69638527  0.09994540  0.29289469  1
  Hf  Hf36  1  -0.01687723  0.38603592  0.39881444  1
  Hf  Hf37  1  0.60382233  0.60169118  0.59582960  1
  Hf  Hf38  1  0.80391207  -0.00509195  0.39258362  1
  Hf  Hf39  1  -0.00180701  0.20229987  0.20554063  1
  Hf  Hf40  1  0.70322979  0.70063832  0.70576848  1
  Hf  Hf41  1  0.70050110  0.89999906  0.70360680  1
  Hf  Hf42  1  0.49808387  0.90449554  0.90106707  1
  Hf  Hf43  1  0.49988268  0.69941951  0.90967549  1
  Hf  Hf44  1  0.59501337  0.00696025  0.60104278  1
  Hf  Hf45  1  0.58747557  -0.00429591  0.38326940  1
  Hf  Hf46  1  0.80202374  0.79359543  0.58431285  1
  Hf  Hf47  1  0.59352364  0.80536413  0.20248832  1
  Hf  Hf48  1  0.09269494  0.29286994  0.90400601  1
  Hf  Hf49  1  0.29080280  0.51033432  0.69565362  1
  Zr  Zr50  1  0.50041598  0.29563404  0.70369084  1
  Zr  Zr51  1  0.21128987  0.18527635  0.60319089  1
  Zr  Zr52  1  0.10608413  0.09772014  0.30603129  1
  Zr  Zr53  1  0.69243516  0.09509465  0.09948883  1
  Zr  Zr54  1  0.10198103  0.49147440  0.10557365  1
  Zr  Zr55  1  0.90132056  0.89336572  0.70348537  1
  Zr  Zr56  1  0.91493190  0.10240230  0.92412500  1
  Zr  Zr57  1  0.90086502  0.70887170  0.10237343  1
  Zr  Zr58  1  0.70566493  0.70560458  0.09708933  1
  Zr  Zr59  1  0.40084015  0.60204227  0.38948732  1
  Zr  Zr60  1  0.90227887  0.71111765  0.29970453  1
  Zr  Zr61  1  -0.00284593  0.39760830  0.59922780  1
  Zr  Zr62  1  0.69647955  0.29517565  0.71289155  1
  Zr  Zr63  1  -0.00681668  0.79782649  0.58313230  1
  Zr  Zr64  1  0.39182309  0.00373245  0.00118676  1
  Zr  Zr65  1  0.59973607  0.20592980  -0.00549528  1
  Zr  Zr66  1  0.19945999  0.39781463  0.80972426  1
  Zr  Zr67  1  0.29100166  0.69902104  0.28007671  1
  Zr  Zr68  1  0.88799056  0.49939911  0.49260708  1
  Zr  Zr69  1  0.60181440  0.39814945  0.59928719  1
  Zr  Zr70  1  0.49689248  0.10724513  0.10536478  1
  Zr  Zr71  1  0.40571253  -0.00734900  0.20696812  1
  Zr  Zr72  1  0.29857669  0.10438915  0.29797503  1
  Zr  Zr73  1  0.28478025  0.70488932  0.69289938  1
  Zr  Zr74  1  0.30277216  0.29585885  0.69650057  1
  Zr  Zr75  1  0.49795399  0.30385815  0.10081933  1
  Zr  Zr76  1  0.29832381  0.70053011  0.49553667  1
  Zr  Zr77  1  0.79087235  0.58916984  0.81006571  1
  Zr  Zr78  1  0.59407471  0.20526309  0.39429701  1
  Zr  Zr79  1  0.80551728  0.19048920  0.80401499  1
  Zr  Zr80  1  0.39033730  0.19369252  0.80488175  1
  Zr  Zr81  1  -0.00146324  0.18370236  0.80234672  1
  Zr  Zr82  1  0.11525676  0.70501732  0.10914148  1
  Zr  Zr83  1  0.01999495  0.81407427  0.20703336  1
  Zr  Zr84  1  0.68883590  0.90407806  0.90718770  1
  Zr  Zr85  1  0.59893411  0.79431999  0.59903130  1
  Zr  Zr86  1  0.49323227  0.89826353  0.50141853  1
  Zr  Zr87  1  0.89832676  0.30904191  0.71741031  1
  Zr  Zr88  1  0.89805707  0.69206176  0.70365858  1
  Zr  Zr89  1  0.70372465  0.30103539  0.09820389  1
  Zr  Zr90  1  0.39480089  0.79539157  0.80155820  1
  Zr  Zr91  1  0.69958979  0.69814805  0.91457527  1
  Zr  Zr92  1  0.10293521  0.89774755  0.70390097  1
  Zr  Zr93  1  0.19248672  0.40387503  0.60451410  1
  Zr  Zr94  1  0.30264299  0.50531912  0.91224201  1
  Zr  Zr95  1  0.18254591  0.60592448  0.80799013  1
  Zr  Zr96  1  0.79903386  0.60206506  0.20259204  1
  Zr  Zr97  1  0.29785605  0.49491992  0.49403489  1
  Zr  Zr98  1  0.10958097  0.29437581  0.49162847  1
  Zr  Zr99  1  0.00914088  0.78767570  0.81138145  1
  Ta  Ta100  1  0.80715433  0.19810390  0.20271429  1
  Ta  Ta101  1  0.50121887  0.30351434  0.90059898  1
  Ta  Ta102  1  0.60219794  0.40770333  -0.00166480  1
  Ta  Ta103  1  0.59609840  0.19416870  0.60238229  1
  Ta  Ta104  1  0.19837485  0.59401857  0.39195788  1
  Ta  Ta105  1  0.50226992  0.49434518  0.48891498  1
  Ta  Ta106  1  0.39755524  0.80996988  0.38659268  1
  Ta  Ta107  1  0.49735021  0.70527053  0.49261718  1
  Ta  Ta108  1  0.59900238  0.59667785  0.80375938  1
  Ta  Ta109  1  0.39878389  -0.00291441  0.39610755  1
  Ta  Ta110  1  0.29344172  0.70683153  0.91672066  1
  Ta  Ta111  1  0.40210881  0.80448912  0.19340321  1
  Ta  Ta112  1  -0.01494373  0.19713601  0.39688565  1
  Ta  Ta113  1  0.10133594  0.49893524  0.49339189  1
  Ta  Ta114  1  -0.00608707  -0.00278117  0.59060611  1
  Ta  Ta115  1  0.29172111  0.90566685  0.70580201  1
  Ta  Ta116  1  0.29967090  0.70137927  0.10093737  1
  Ta  Ta117  1  0.50256553  0.50326406  0.90547929  1
  Ta  Ta118  1  -0.00186326  0.59310510  0.59869822  1
  Ta  Ta119  1  0.89756870  0.49321404  0.29608001  1
  Ta  Ta120  1  0.50544187  0.50102202  0.70398034  1
  Ta  Ta121  1  0.19969951  0.60100717  0.00557934  1
  Ta  Ta122  1  0.48993326  0.10726329  0.49770070  1
  Ta  Ta123  1  0.91333125  0.90449684  0.09978515  1
  Ta  Ta124  1  0.00064520  0.39847969  0.00234783  1
  Ta  Ta125  1  0.70727919  0.30654305  0.90082652  1
  Ta  Ta126  1  0.10342739  0.09936649  0.09803190  1
  Ta  Ta127  1  0.00005345  0.59354658  0.20145628  1
  Ta  Ta128  1  0.20492848  0.20324599  0.19697826  1
  Ta  Ta129  1  0.90642141  0.29826679  0.09547881  1
  Ta  Ta130  1  0.80691186  0.00109507  0.59848858  1
  Ta  Ta131  1  0.29782901  0.10129863  0.10121249  1
  Ta  Ta132  1  0.59953484  0.40812489  0.19511300  1
  Ta  Ta133  1  0.59682974  0.79480664  0.80255578  1
  Ta  Ta134  1  0.01194533  0.80936841  -0.00262478  1
  Ta  Ta135  1  0.20171778  -0.00569576  0.58768954  1
  Ta  Ta136  1  0.89785779  0.30517995  0.90984135  1
  Ta  Ta137  1  0.89595952  0.50035592  0.70543104  1
  Ta  Ta138  1  0.50372393  0.49715789  0.29704829  1
  Ta  Ta139  1  0.89461014  0.49180042  0.90629955  1
  Ta  Ta140  1  0.60500050  0.40894062  0.81067686  1
  Ta  Ta141  1  0.69342751  0.10180047  0.89822328  1
  Ta  Ta142  1  0.00207992  -0.01161767  0.81751780  1
  Ta  Ta143  1  0.39952165  0.80270918  0.01190536  1
  Ta  Ta144  1  0.59989423  0.79945885  0.39144684  1
  Ta  Ta145  1  0.00285670  0.00411955  0.20344112  1
  Ta  Ta146  1  0.59493300  0.60126124  0.19525337  1
  Ta  Ta147  1  0.89983780  0.49409807  0.09874442  1
  Ta  Ta148  1  0.70472844  0.50228340  0.09398897  1
  Ta  Ta149  1  0.69736055  0.09870532  0.70378635  1
  Ti  Ti150  1  0.59153153  0.80088444  0.00954987  1
  Ti  Ti151  1  0.59481959  0.20496990  0.20658885  1
  Ti  Ti152  1  0.59692979  0.00744556  0.79560099  1
  Ti  Ti153  1  0.89864381  0.09320662  0.49141720  1
  Ti  Ti154  1  0.59491918  0.59429378  0.01033214  1
  Ti  Ti155  1  0.79945113  0.81804911  0.20613712  1
  Ti  Ti156  1  0.69785085  0.30417969  0.30124916  1
  Ti  Ti157  1  0.20467615  0.39550729  0.00117801  1
  Ti  Ti158  1  0.70347356  0.70977978  0.29684403  1
  Ti  Ti159  1  0.80227583  0.80188955  0.40062804  1
  Ti  Ti160  1  0.79753632  0.61778716  0.40449567  1
  Ti  Ti161  1  0.08107597  0.90887884  0.47550382  1
  Ti  Ti162  1  0.40493590  0.19886184  0.38283410  1
  Ti  Ti163  1  0.39221467  0.80279955  0.59775540  1
  Ti  Ti164  1  0.49447983  0.70269517  0.29353622  1
  Ti  Ti165  1  0.18974823  0.79607334  0.81179851  1
  Ti  Ti166  1  0.40419019  0.60449992  0.01179981  1
  Ti  Ti167  1  0.79833679  0.60355278  0.59228499  1
  Ti  Ti168  1  0.80760437  0.20644269  0.39122078  1
  Ti  Ti169  1  0.80176777  0.19994055  0.00524500  1
  Ti  Ti170  1  0.70302448  0.49683339  0.70153631  1
  Ti  Ti171  1  0.00339390  0.59381236  0.80197540  1
  Ti  Ti172  1  0.10035100  0.69257851  0.68601628  1
  Ti  Ti173  1  0.29029312  0.08675632  0.71966157  1
  Ti  Ti174  1  0.69841913  0.30008036  0.48838759  1
  Ti  Ti175  1  0.91798442  0.90075134  0.31123426  1
  Ti  Ti176  1  0.50129582  0.70056659  0.70010377  1
  Ti  Ti177  1  0.80834229  0.81683829  0.00263532  1
  Ti  Ti178  1  0.10835637  0.91115961  0.09259961  1
  Ti  Ti179  1  0.10512873  0.69328081  0.29431808  1
  Ti  Ti180  1  0.21430602  -0.00995206  0.40360080  1
  Ti  Ti181  1  0.40286793  0.40840495  0.60341732  1
  Ti  Ti182  1  0.30478401  0.10611350  0.48975804  1
  Ti  Ti183  1  0.40422723  0.40861327  0.19825021  1
  Ti  Ti184  1  0.30076728  0.50086273  0.29380797  1
  Ti  Ti185  1  0.50907191  0.91124469  0.09672946  1
  Ti  Ti186  1  0.80011637  0.80531651  0.81460462  1
  Ti  Ti187  1  0.49661566  0.30716790  0.29317796  1
  Ti  Ti188  1  0.39872466  0.39997410  0.38551008  1
  Ti  Ti189  1  0.00196381  0.41040338  0.80459651  1
  Ti  Ti190  1  0.09809826  0.49631860  0.90763138  1
  Ti  Ti191  1  0.19952467  -0.00575564  0.20132439  1
  Ti  Ti192  1  0.09744674  0.29804518  0.10007048  1
  Ti  Ti193  1  0.69297468  0.90648555  0.10326722  1
  Ti  Ti194  1  0.40598139  0.40638237  0.00111034  1
  Ti  Ti195  1  0.91096309  0.10134690  0.10157946  1
  Ti  Ti196  1  0.41010700  0.59890743  0.18971858  1
  Ti  Ti197  1  0.28971931  0.89680712  0.09959926  1
  Ti  Ti198  1  0.30154662  0.50634021  0.10254980  1
  Ti  Ti199  1  0.11022122  0.08605536  0.90828086  1
  Mo  Mo200  1  0.20468683  0.58675137  0.19932744  1
  Mo  Mo201  1  0.30006085  0.90198911  0.29354053  1
  Mo  Mo202  1  0.60204593  -0.00675166  0.19769435  1
  Mo  Mo203  1  0.49467838  0.69958590  0.10201074  1
  Mo  Mo204  1  0.50200423  0.50261396  0.10108387  1
  Mo  Mo205  1  0.40408301  0.18536389  0.60366371  1
  Mo  Mo206  1  0.39241784  -0.00030710  0.79755648  1
  Mo  Mo207  1  0.80483809  0.58840677  0.00546068  1
  Mo  Mo208  1  0.89671595  0.29725970  0.29517659  1
  Mo  Mo209  1  0.59320280  0.39714768  0.39058939  1
  Mo  Mo210  1  0.69601695  0.49954023  0.91148081  1
  Mo  Mo211  1  0.79786077  0.40460415  0.80741731  1
  Mo  Mo212  1  0.10477407  0.91600090  0.29997997  1
  Mo  Mo213  1  0.19991840  0.18801250  0.80905917  1
  Mo  Mo214  1  0.21352411  0.20308545  0.39627146  1
  Mo  Mo215  1  0.89915643  0.90077202  0.49099772  1
  Mo  Mo216  1  0.30778829  0.30157459  0.91063985  1
  Mo  Mo217  1  0.69874850  0.70127605  0.48985229  1
  Mo  Mo218  1  0.21173576  0.40360284  0.39451162  1
  Mo  Mo219  1  -0.00874369  0.00553082  0.39684612  1
  Mo  Mo220  1  0.49728596  0.89498681  0.29692572  1
  Mo  Mo221  1  0.60226741  0.20145376  0.80160554  1
  Mo  Mo222  1  0.79331917  0.38300355  0.39478098  1
  Mo  Mo223  1  0.08561160  0.50550484  0.70145542  1
  Mo  Mo224  1  0.20009780  0.00360905  0.00725431  1
  Mo  Mo225  1  0.00890369  -0.00186189  0.01035823  1
  Mo  Mo226  1  0.01023350  0.20343373  0.01053022  1
  Mo  Mo227  1  0.31099278  0.30225024  0.29473554  1
  Mo  Mo228  1  0.10355265  0.89965543  0.90766623  1
  Mo  Mo229  1  0.20633802  0.81786438  0.19695324  1
  Mo  Mo230  1  0.50029393  0.10202033  0.69877437  1
  Mo  Mo231  1  0.60035001  0.00044370  -0.00001042  1
  Mo  Mo232  1  0.90310046  0.08415699  0.69247138  1
  Mo  Mo233  1  0.89865192  0.10142698  0.29705382  1
  Mo  Mo234  1  0.90624823  0.89682936  0.91016952  1
  Mo  Mo235  1  0.80257643  0.39724086  0.00119770  1
  Mo  Mo236  1  0.00487733  0.80099383  0.39391768  1
  Mo  Mo237  1  0.39741777  0.20241135  -0.00637345  1
  Mo  Mo238  1  0.20307805  0.80229559  0.00524232  1
  Mo  Mo239  1  0.89810972  0.69733952  0.49490218  1
  Mo  Mo240  1  0.10293674  0.69885866  0.91306830  1
  Mo  Mo241  1  0.88907043  0.28909629  0.49311391  1
  Mo  Mo242  1  0.18350120  0.59863833  0.59267970  1
  Mo  Mo243  1  0.49808421  0.10403287  0.29966765  1
  Mo  Mo244  1  0.29350862  0.09876182  0.89996185  1
  Mo  Mo245  1  0.70028927  0.89410240  0.29691180  1
  Mo  Mo246  1  0.40107553  0.20146875  0.20525312  1
  Mo  Mo247  1  0.30473467  0.90379573  0.49577885  1
  Mo  Mo248  1  0.19435826  -0.00287337  0.80802780  1
  Mo  Mo249  1  -0.00445944  0.39662790  0.19663641  1
