# generated using pymatgen
data_HfZrTaTiMo
_symmetry_space_group_name_H-M   'P 1'
_cell_length_a   16.88439067
_cell_length_b   16.90064964
_cell_length_c   16.88680526
_cell_angle_alpha   90.04173194
_cell_angle_beta   89.98974910
_cell_angle_gamma   89.98907123
_symmetry_Int_Tables_number   1
_chemical_formula_structural   HfZrTaTiMo
_chemical_formula_sum   'Hf50 Zr50 Ta50 Ti50 Mo50'
_cell_volume   4818.76953478
_cell_formula_units_Z   50
loop_
 _symmetry_equiv_pos_site_id
 _symmetry_equiv_pos_as_xyz
  1  'x, y, z'
loop_
 _atom_site_type_symbol
 _atom_site_label
 _atom_site_symmetry_multiplicity
 _atom_site_fract_x
 _atom_site_fract_y
 _atom_site_fract_z
 _atom_site_occupancy
  Hf  Hf0  1  0.60245939  0.39813271  0.20688157  1
  Hf  Hf1  1  0.60342018  0.59516550  0.60829943  1
  Hf  Hf2  1  0.10452695  0.90400830  0.90024393  1
  Hf  Hf3  1  0.50005286  0.71408186  0.89808338  1
  Hf  Hf4  1  0.88802031  0.08487848  0.69890879  1
  Hf  Hf5  1  0.50239489  0.91074924  0.50474524  1
  Hf  Hf6  1  0.20105761  0.39342539  0.00051304  1
  Hf  Hf7  1  0.10211017  0.29612443  0.29733202  1
  Hf  Hf8  1  0.30368243  0.69707359  0.70280788  1
  Hf  Hf9  1  0.39960929  0.81290450  0.80049026  1
  Hf  Hf10  1  -0.00113589  0.40495191  0.60368768  1
  Hf  Hf11  1  0.10318525  0.70284612  0.90196506  1
  Hf  Hf12  1  0.31228304  0.49226308  0.10366885  1
  Hf  Hf13  1  0.69410058  0.09681048  0.69763763  1
  Hf  Hf14  1  0.69845010  0.10247812  0.50485572  1
  Hf  Hf15  1  0.30116146  0.30779954  0.49475965  1
  Hf  Hf16  1  0.69942250  0.90807661  0.30247055  1
  Hf  Hf17  1  0.30475138  0.10861787  0.70674096  1
  Hf  Hf18  1  -0.00667619  0.80224144  0.39687504  1
  Hf  Hf19  1  0.80652155  0.80967585  0.80212285  1
  Hf  Hf20  1  0.00630450  0.00011230  0.59696079  1
  Hf  Hf21  1  0.59718587  0.19522017  0.00374099  1
  Hf  Hf22  1  0.79831663  0.20287580  0.80185964  1
  Hf  Hf23  1  0.10625746  0.30936894  0.49455614  1
  Hf  Hf24  1  0.00150600  0.19011912  0.40007429  1
  Hf  Hf25  1  0.59917100  0.00792579  0.19227324  1
  Hf  Hf26  1  0.69323872  0.90553352  0.50799638  1
  Hf  Hf27  1  -0.00070445  0.80599432  0.59813757  1
  Hf  Hf28  1  0.10122044  0.09754470  0.90052817  1
  Hf  Hf29  1  0.59235663  0.79922561  0.20538481  1
  Hf  Hf30  1  0.59657932  0.58939347  0.00153117  1
  Hf  Hf31  1  0.70755402  0.49952394  0.30493551  1
  Hf  Hf32  1  0.40011447  0.78898777  0.39297332  1
  Hf  Hf33  1  0.80417843  0.39468392  0.60873630  1
  Hf  Hf34  1  0.40728172  0.39682369  0.60522932  1
  Hf  Hf35  1  0.29669030  0.70344531  0.09637412  1
  Hf  Hf36  1  0.89770571  0.09705638  0.09995932  1
  Hf  Hf37  1  0.39436150  0.80467995  0.19956522  1
  Hf  Hf38  1  0.09982514  0.70397121  0.09909162  1
  Hf  Hf39  1  0.41608453  0.38933474  0.79811217  1
  Hf  Hf40  1  0.59667557  0.80006067  0.39556652  1
  Hf  Hf41  1  0.30323227  0.48826509  0.89518475  1
  Hf  Hf42  1  -0.00509113  0.60450662  0.39814744  1
  Hf  Hf43  1  0.69554623  0.70374275  0.89684436  1
  Hf  Hf44  1  0.59206106  0.60437629  0.38902483  1
  Hf  Hf45  1  0.10000862  0.49304813  0.89495294  1
  Hf  Hf46  1  -0.00215799  0.38390168  -0.00477206  1
  Hf  Hf47  1  0.80291347  0.80371284  0.00124707  1
  Hf  Hf48  1  0.89813637  0.50444436  0.10304363  1
  Hf  Hf49  1  0.20228043  0.80618758  0.59444727  1
  Zr  Zr50  1  0.20568810  0.19174361  0.00168689  1
  Zr  Zr51  1  0.30702315  0.29610419  0.29738623  1
  Zr  Zr52  1  0.10656966  0.70937667  0.70652842  1
  Zr  Zr53  1  0.00324653  0.59412771  0.60257572  1
  Zr  Zr54  1  0.20382864  0.19703813  0.59449205  1
  Zr  Zr55  1  0.68951655  0.30174685  0.90139731  1
  Zr  Zr56  1  0.19339710  0.40214645  0.20027612  1
  Zr  Zr57  1  0.49584327  0.11095571  0.29978225  1
  Zr  Zr58  1  -0.00184340  0.20011227  0.59941243  1
  Zr  Zr59  1  0.39866537  0.79768061  0.59822892  1
  Zr  Zr60  1  0.41540906  0.59592094  0.21082027  1
  Zr  Zr61  1  0.50628631  0.49371455  0.50323568  1
  Zr  Zr62  1  -0.00660010  0.80798644  -0.00310017  1
  Zr  Zr63  1  0.28859502  0.69388027  0.29580463  1
  Zr  Zr64  1  0.30152669  0.90972074  0.69968454  1
  Zr  Zr65  1  0.79978320  0.39221771  0.00356256  1
  Zr  Zr66  1  0.80957063  0.39421823  0.79641626  1
  Zr  Zr67  1  0.31079455  0.29766675  0.10738691  1
  Zr  Zr68  1  0.08447164  0.50714132  0.09757851  1
  Zr  Zr69  1  -0.01453563  0.20484302  0.80510206  1
  Zr  Zr70  1  0.89390133  0.49221326  0.29696059  1
  Zr  Zr71  1  0.10281365  0.09855437  0.71191920  1
  Zr  Zr72  1  0.80100800  0.79943061  0.20095059  1
  Zr  Zr73  1  0.80193518  0.60069822  0.60556887  1
  Zr  Zr74  1  0.59274650  0.58757419  0.79975355  1
  Zr  Zr75  1  0.19353187  0.81029408  0.39878921  1
  Zr  Zr76  1  0.00856431  -0.00419288  0.40064226  1
  Zr  Zr77  1  0.10357979  0.70161755  0.28852366  1
  Zr  Zr78  1  0.20006714  0.18736348  0.39785185  1
  Zr  Zr79  1  0.49977983  0.70193796  0.09383082  1
  Zr  Zr80  1  -0.01053480  0.39667451  0.79085874  1
  Zr  Zr81  1  0.31113513  0.91242153  0.49104613  1
  Zr  Zr82  1  0.80429359  0.80034930  0.60351200  1
  Zr  Zr83  1  0.39900159  0.00372584  0.19335162  1
  Zr  Zr84  1  0.40556480  0.58830557  -0.00990588  1
  Zr  Zr85  1  0.40720157  0.19438806  -0.01264417  1
  Zr  Zr86  1  0.70265836  0.49256846  0.49296789  1
  Zr  Zr87  1  0.90345792  0.51124273  0.90764071  1
  Zr  Zr88  1  0.89805098  0.29179504  0.10697735  1
  Zr  Zr89  1  0.69303639  0.90867480  0.89873299  1
  Zr  Zr90  1  0.19778186  0.58620164  0.79079049  1
  Zr  Zr91  1  0.88703854  0.29554385  0.48885008  1
  Zr  Zr92  1  0.29534922  0.70542575  0.89908599  1
  Zr  Zr93  1  0.49279358  0.89916611  0.08462831  1
  Zr  Zr94  1  0.89190663  0.49670287  0.48751260  1
  Zr  Zr95  1  0.11658576  0.30200413  0.70956637  1
  Zr  Zr96  1  0.50269890  0.69869972  0.51035073  1
  Zr  Zr97  1  0.88760130  0.91155540  0.50184026  1
  Zr  Zr98  1  0.10558053  0.69517801  0.49719003  1
  Zr  Zr99  1  0.69520470  0.49104075  0.90269864  1
  Ta  Ta100  1  0.90164952  0.90921638  0.10375685  1
  Ta  Ta101  1  0.79778656  0.60732246  0.00336353  1
  Ta  Ta102  1  0.89930511  0.90988160  0.29237584  1
  Ta  Ta103  1  0.80282012  0.79752291  0.39766874  1
  Ta  Ta104  1  0.79139214  0.19500394  0.19889308  1
  Ta  Ta105  1  0.09714242  0.28702044  0.10220700  1
  Ta  Ta106  1  0.58674443  0.20161261  0.80404645  1
  Ta  Ta107  1  0.69183233  0.71328927  0.70432116  1
  Ta  Ta108  1  0.90523599  0.69761921  0.09999585  1
  Ta  Ta109  1  0.10277183  0.90673380  0.71067004  1
  Ta  Ta110  1  0.50181880  0.90494960  0.90029045  1
  Ta  Ta111  1  0.40583865  0.00919355  0.80860333  1
  Ta  Ta112  1  0.39888272  0.59635096  0.40125373  1
  Ta  Ta113  1  0.89332211  0.09913402  0.29873126  1
  Ta  Ta114  1  0.19587882  0.00084423  0.39771025  1
  Ta  Ta115  1  0.88393747  0.10110843  0.50061590  1
  Ta  Ta116  1  0.79909191  0.60776082  0.20017206  1
  Ta  Ta117  1  0.20538744  0.59043542  0.59652305  1
  Ta  Ta118  1  0.40795276  0.40269470  0.39601079  1
  Ta  Ta119  1  0.19933368  0.59262452  0.00162610  1
  Ta  Ta120  1  0.50020621  0.10188061  0.69986690  1
  Ta  Ta121  1  0.69922056  0.70545633  0.50193935  1
  Ta  Ta122  1  0.31082784  0.09767335  0.49617215  1
  Ta  Ta123  1  0.69760464  0.90890122  0.70047438  1
  Ta  Ta124  1  0.90099553  0.70358971  0.70588259  1
  Ta  Ta125  1  0.69833430  0.10411760  0.30348391  1
  Ta  Ta126  1  0.29378655  0.90774098  0.29434124  1
  Ta  Ta127  1  0.30213543  0.49345724  0.30336809  1
  Ta  Ta128  1  0.00464968  0.40136510  0.39477656  1
  Ta  Ta129  1  0.20109593  0.41361402  0.60331400  1
  Ta  Ta130  1  0.51107551  0.90638396  0.69924667  1
  Ta  Ta131  1  0.50523381  0.70680749  0.70395846  1
  Ta  Ta132  1  0.79862615  0.60233770  0.79626279  1
  Ta  Ta133  1  0.89508082  0.29282649  0.30021616  1
  Ta  Ta134  1  0.59285504  0.01123283  0.40216366  1
  Ta  Ta135  1  0.19670839  0.00426368  0.59136262  1
  Ta  Ta136  1  0.70137231  0.09878980  0.90037447  1
  Ta  Ta137  1  0.70173792  0.50159020  0.10561357  1
  Ta  Ta138  1  0.49903272  0.29711665  0.29810793  1
  Ta  Ta139  1  -0.00250373  0.60097841  0.79443785  1
  Ta  Ta140  1  0.10757925  0.29276110  0.89627367  1
  Ta  Ta141  1  -0.00551627  0.80879784  0.79976568  1
  Ta  Ta142  1  0.09868528  0.08929256  0.28774746  1
  Ta  Ta143  1  0.49817747  0.29658528  0.10898654  1
  Ta  Ta144  1  0.40731915  0.20445235  0.59936314  1
  Ta  Ta145  1  0.69813371  0.69729144  0.10074142  1
  Ta  Ta146  1  0.00056914  0.19040054  0.20071329  1
  Ta  Ta147  1  0.21243275  0.00256821  0.81007546  1
  Ta  Ta148  1  0.69006991  0.29486495  0.69391914  1
  Ta  Ta149  1  0.09780476  0.90806261  0.10692541  1
  Ti  Ti150  1  0.70320015  0.29013842  0.30815945  1
  Ti  Ti151  1  0.59008726  0.20115691  0.59850660  1
  Ti  Ti152  1  -0.00893735  0.60708823  0.20928988  1
  Ti  Ti153  1  0.19980490  0.00079334  0.19402899  1
  Ti  Ti154  1  0.00020421  0.19526083  0.00162313  1
  Ti  Ti155  1  0.39845657  0.59415387  0.60281212  1
  Ti  Ti156  1  0.80725489  0.62216571  0.39677163  1
  Ti  Ti157  1  0.89354934  0.09554676  0.90503207  1
  Ti  Ti158  1  0.49057301  0.91137720  0.30741520  1
  Ti  Ti159  1  0.41181296  0.58863425  0.79614386  1
  Ti  Ti160  1  0.20456136  0.81357802  0.00882372  1
  Ti  Ti161  1  0.79263811  0.00578918  0.19656132  1
  Ti  Ti162  1  0.50286072  0.48432318  0.10206774  1
  Ti  Ti163  1  0.59385961  0.00726392  0.80316354  1
  Ti  Ti164  1  0.90346883  0.69635039  0.90043018  1
  Ti  Ti165  1  0.29910359  0.29133118  0.88588996  1
  Ti  Ti166  1  0.60504494  0.80377282  0.00180906  1
  Ti  Ti167  1  0.40699087  0.01328412  0.60100347  1
  Ti  Ti168  1  0.60046443  0.39150009  0.39690602  1
  Ti  Ti169  1  0.39846284  0.00819374  -0.00485821  1
  Ti  Ti170  1  0.69998167  0.90238572  0.09941924  1
  Ti  Ti171  1  0.79322847  0.39062473  0.20285198  1
  Ti  Ti172  1  0.50690372  0.30135003  0.50035050  1
  Ti  Ti173  1  0.30515015  0.49262864  0.70340107  1
  Ti  Ti174  1  0.20699525  0.00350657  0.00819399  1
  Ti  Ti175  1  0.41591233  0.38967060  -0.01000319  1
  Ti  Ti176  1  0.00401833  0.00475255  0.00615708  1
  Ti  Ti177  1  0.59728960  0.20118225  0.40508954  1
  Ti  Ti178  1  0.69411264  0.48747963  0.70350363  1
  Ti  Ti179  1  0.30465836  0.09649526  0.30028315  1
  Ti  Ti180  1  0.00085615  0.39387111  0.20352743  1
  Ti  Ti181  1  0.19831507  0.18673617  0.19568054  1
  Ti  Ti182  1  0.40645287  0.20027857  0.40900094  1
  Ti  Ti183  1  0.79206655  0.00478012  0.00434148  1
  Ti  Ti184  1  0.60228023  0.19653142  0.19446759  1
  Ti  Ti185  1  0.59494041  0.01285771  0.00447068  1
  Ti  Ti186  1  0.90043962  0.92306253  0.89611139  1
  Ti  Ti187  1  0.30696835  0.10185229  0.10226734  1
  Ti  Ti188  1  0.59976230  0.59727046  0.20236216  1
  Ti  Ti189  1  0.30169245  0.49721437  0.49592855  1
  Ti  Ti190  1  0.30344358  0.90296233  0.90932145  1
  Ti  Ti191  1  0.20304845  0.59007943  0.40638830  1
  Ti  Ti192  1  0.70013895  0.70009644  0.29701552  1
  Ti  Ti193  1  0.10249165  0.50031655  0.30515057  1
  Ti  Ti194  1  0.19977986  0.58931860  0.19433076  1
  Ti  Ti195  1  -0.00084153  0.80862168  0.20330776  1
  Ti  Ti196  1  0.79570331  0.00461276  0.39639935  1
  Ti  Ti197  1  0.30138256  0.29673399  0.70592365  1
  Ti  Ti198  1  0.69697546  0.29742119  0.09898162  1
  Ti  Ti199  1  0.69993500  0.29604602  0.50187596  1
  Mo  Mo200  1  -0.00508961  0.00047017  0.19941034  1
  Mo  Mo201  1  0.90419666  0.90287987  0.70856327  1
  Mo  Mo202  1  0.59606578  0.39360128  0.78364268  1
  Mo  Mo203  1  0.39346055  0.81114649  -0.00519580  1
  Mo  Mo204  1  0.60443529  0.39105953  0.59883930  1
  Mo  Mo205  1  0.59834479  0.81052574  0.79792493  1
  Mo  Mo206  1  0.39829342  0.00619185  0.39331689  1
  Mo  Mo207  1  0.79666859  0.00252125  0.80599025  1
  Mo  Mo208  1  0.79262190  0.19433143  0.39406087  1
  Mo  Mo209  1  0.88704212  0.28185837  0.68313686  1
  Mo  Mo210  1  0.40493646  0.19935777  0.79589841  1
  Mo  Mo211  1  0.50285188  0.49222239  0.30389443  1
  Mo  Mo212  1  0.10566239  0.90358010  0.50547540  1
  Mo  Mo213  1  0.50031882  0.10353100  0.09668811  1
  Mo  Mo214  1  0.89675850  0.51398372  0.70438140  1
  Mo  Mo215  1  0.79368668  0.19134295  0.00139520  1
  Mo  Mo216  1  0.40050179  0.19787875  0.19710758  1
  Mo  Mo217  1  0.21048925  0.19666127  0.80829465  1
  Mo  Mo218  1  0.59504232  0.39515246  0.01838859  1
  Mo  Mo219  1  0.50348209  0.48280449  0.90011266  1
  Mo  Mo220  1  0.19826787  0.81806099  0.19364666  1
  Mo  Mo221  1  0.20109396  0.81634253  0.80445142  1
  Mo  Mo222  1  0.60338686  0.80173488  0.60644204  1
  Mo  Mo223  1  0.50655856  0.29317247  0.69528831  1
  Mo  Mo224  1  0.49854395  0.10752412  0.50226192  1
  Mo  Mo225  1  0.50511175  0.29765721  0.89917113  1
  Mo  Mo226  1  0.10654828  0.09649117  0.49393899  1
  Mo  Mo227  1  0.89929519  0.70779976  0.29373680  1
  Mo  Mo228  1  0.79061879  0.19845933  0.59883279  1
  Mo  Mo229  1  0.10141556  0.90459372  0.28664448  1
  Mo  Mo230  1  0.10551799  0.49753737  0.49489695  1
  Mo  Mo231  1  -0.00380631  -0.00225827  0.80476300  1
  Mo  Mo232  1  0.89954576  0.28053599  0.91555346  1
  Mo  Mo233  1  0.10055881  0.49809657  0.69813749  1
  Mo  Mo234  1  0.59480762  0.00473582  0.60233724  1
  Mo  Mo235  1  -0.00189563  0.60969848  -0.00622648  1
  Mo  Mo236  1  0.79438331  -0.00068391  0.60462796  1
  Mo  Mo237  1  0.30169546  0.67913888  0.50160288  1
  Mo  Mo238  1  0.89298845  0.70502007  0.49803812  1
  Mo  Mo239  1  0.20978374  0.39293132  0.79684639  1
  Mo  Mo240  1  0.20105862  0.41365729  0.40193074  1
  Mo  Mo241  1  0.50081087  0.69576688  0.29937016  1
  Mo  Mo242  1  0.41050358  0.39852252  0.20952399  1
  Mo  Mo243  1  0.30383584  0.09345435  0.90106799  1
  Mo  Mo244  1  0.50448493  0.09506943  0.89670762  1
  Mo  Mo245  1  0.09851980  0.09646379  0.10041564  1
  Mo  Mo246  1  0.70277248  0.10023414  0.09950532  1
  Mo  Mo247  1  0.79238353  0.38252512  0.39224897  1
  Mo  Mo248  1  0.29348965  0.90722758  0.09532371  1
  Mo  Mo249  1  0.49915125  0.49955972  0.69830311  1
