# generated using pymatgen
data_HfZrTaTiMo
_symmetry_space_group_name_H-M   'P 1'
_cell_length_a   16.88402096
_cell_length_b   16.88703977
_cell_length_c   16.88985600
_cell_angle_alpha   90.03555126
_cell_angle_beta   89.99341168
_cell_angle_gamma   90.02864055
_symmetry_Int_Tables_number   1
_chemical_formula_structural   HfZrTaTiMo
_chemical_formula_sum   'Hf50 Zr50 Ta50 Ti50 Mo50'
_cell_volume   4815.65332730
_cell_formula_units_Z   50
loop_
 _symmetry_equiv_pos_site_id
 _symmetry_equiv_pos_as_xyz
  1  'x, y, z'
loop_
 _atom_site_type_symbol
 _atom_site_label
 _atom_site_symmetry_multiplicity
 _atom_site_fract_x
 _atom_site_fract_y
 _atom_site_fract_z
 _atom_site_occupancy
  Hf  Hf0  1  0.39203537  0.79378753  0.19694405  1
  Hf  Hf1  1  0.81131415  0.00989508  0.19589261  1
  Hf  Hf2  1  0.51504109  0.69423503  0.10235224  1
  Hf  Hf3  1  0.58127815  0.38733964  0.79911459  1
  Hf  Hf4  1  0.00424887  0.59954667  0.79531522  1
  Hf  Hf5  1  0.60284304  0.39128931  0.19548351  1
  Hf  Hf6  1  0.20580133  0.00459711  0.60172631  1
  Hf  Hf7  1  0.39305384  0.80030425  0.00221928  1
  Hf  Hf8  1  -0.01198480  0.18787043  0.20721462  1
  Hf  Hf9  1  0.00532867  0.79758995  0.79823800  1
  Hf  Hf10  1  0.10065432  0.48815503  0.29986400  1
  Hf  Hf11  1  0.40869199  0.00185880  0.60482817  1
  Hf  Hf12  1  -0.00468946  0.40193364  0.59742790  1
  Hf  Hf13  1  0.10098559  0.30001911  0.09997548  1
  Hf  Hf14  1  0.09727354  0.29920321  0.69641599  1
  Hf  Hf15  1  0.10085857  0.49445965  0.09748689  1
  Hf  Hf16  1  0.20101223  -0.00150425  0.80591559  1
  Hf  Hf17  1  0.79920092  0.60649400  -0.00040859  1
  Hf  Hf18  1  0.20175188  0.60826541  0.19852234  1
  Hf  Hf19  1  0.79626575  0.00420178  0.00477904  1
  Hf  Hf20  1  0.20168235  0.59871500  0.38307615  1
  Hf  Hf21  1  0.19200206  0.78947278  0.38793056  1
  Hf  Hf22  1  0.41141204  0.20417413  0.01026392  1
  Hf  Hf23  1  0.08585984  0.70162783  0.08656556  1
  Hf  Hf24  1  0.49601882  0.50334964  0.50538582  1
  Hf  Hf25  1  0.09516747  0.11146200  0.90423069  1
  Hf  Hf26  1  0.19671993  0.79443492  0.61226017  1
  Hf  Hf27  1  0.49290643  0.11215358  0.29560716  1
  Hf  Hf28  1  0.51431864  0.10506045  0.89411668  1
  Hf  Hf29  1  0.10202373  0.30415965  0.48743316  1
  Hf  Hf30  1  0.90629740  0.50300139  0.09397857  1
  Hf  Hf31  1  0.79640494  0.00285035  0.60826777  1
  Hf  Hf32  1  0.40018196  0.79228263  0.39320353  1
  Hf  Hf33  1  0.20534079  0.40083099  0.59931879  1
  Hf  Hf34  1  0.51148977  0.69623879  0.69816558  1
  Hf  Hf35  1  0.30589515  0.28915698  0.29346433  1
  Hf  Hf36  1  0.40101533  0.00084582  0.19943743  1
  Hf  Hf37  1  0.89222493  0.28607559  0.09557313  1
  Hf  Hf38  1  0.90658656  0.90225786  0.49566254  1
  Hf  Hf39  1  0.09532943  0.10176555  0.70170783  1
  Hf  Hf40  1  0.00463056  0.79303483  0.60462151  1
  Hf  Hf41  1  0.29685396  0.90406762  0.49639735  1
  Hf  Hf42  1  0.79588929  0.80070434  0.60593231  1
  Hf  Hf43  1  0.69766069  0.90207810  0.89593436  1
  Hf  Hf44  1  0.40784276  0.00242948  0.00305754  1
  Hf  Hf45  1  0.00203871  0.79669033  0.20230074  1
  Hf  Hf46  1  0.10332198  0.29456135  0.29887000  1
  Hf  Hf47  1  -0.00360749  0.40202179  0.79672063  1
  Hf  Hf48  1  0.90245152  0.90328128  0.70619107  1
  Hf  Hf49  1  0.09688110  0.90565516  0.49445715  1
  Zr  Zr50  1  0.09925517  0.09974421  0.49517339  1
  Zr  Zr51  1  0.59977911  0.59703615  0.39987126  1
  Zr  Zr52  1  0.89434730  0.69227570  0.49498416  1
  Zr  Zr53  1  0.79730164  0.60081233  0.80216123  1
  Zr  Zr54  1  0.49523241  0.49815079  0.28733606  1
  Zr  Zr55  1  0.49992402  0.89856109  0.50086326  1
  Zr  Zr56  1  0.51127447  0.69871259  0.89941832  1
  Zr  Zr57  1  0.39384457  0.39397237  0.61446985  1
  Zr  Zr58  1  0.91246768  0.70384675  0.91389346  1
  Zr  Zr59  1  0.20727880  0.20991882  0.79889895  1
  Zr  Zr60  1  0.00194423  -0.00115493  0.01089517  1
  Zr  Zr61  1  0.39951711  0.79528973  0.60604489  1
  Zr  Zr62  1  0.59746075  0.39430077  0.59991293  1
  Zr  Zr63  1  0.50989109  0.89734867  0.09438436  1
  Zr  Zr64  1  0.21343798  0.20581151  0.59691545  1
  Zr  Zr65  1  0.29512792  0.49783659  0.49536280  1
  Zr  Zr66  1  0.69092212  0.50430558  0.09515535  1
  Zr  Zr67  1  0.80042367  0.19672810  0.40110328  1
  Zr  Zr68  1  0.29353559  0.90417147  0.30006826  1
  Zr  Zr69  1  0.68450464  0.49572208  0.90248150  1
  Zr  Zr70  1  0.68833975  0.28294821  0.90921289  1
  Zr  Zr71  1  0.09927010  0.10640472  0.10582736  1
  Zr  Zr72  1  0.79779571  0.00054082  0.39963719  1
  Zr  Zr73  1  0.20733372  0.40811218  0.78814922  1
  Zr  Zr74  1  0.39595936  0.60288279  0.38646704  1
  Zr  Zr75  1  0.80637308  0.59999920  0.20434313  1
  Zr  Zr76  1  0.69717555  0.10864519  0.29284419  1
  Zr  Zr77  1  0.79079423  0.39393326  0.00318980  1
  Zr  Zr78  1  0.90756575  0.89120066  0.09780100  1
  Zr  Zr79  1  0.21464536  0.20992011  0.00522983  1
  Zr  Zr80  1  0.29784672  0.69460507  0.50453577  1
  Zr  Zr81  1  0.40383294  0.80097855  0.80116870  1
  Zr  Zr82  1  0.59696713  0.20667956  0.40402799  1
  Zr  Zr83  1  0.60454961  0.00208494  0.19343076  1
  Zr  Zr84  1  0.89919007  0.49894619  0.49503844  1
  Zr  Zr85  1  0.50160531  0.50238246  0.09689719  1
  Zr  Zr86  1  0.79530788  0.20081364  0.60080284  1
  Zr  Zr87  1  0.09026886  0.67920255  0.50439165  1
  Zr  Zr88  1  0.39560998  0.60655892  0.00345922  1
  Zr  Zr89  1  0.89710869  0.10701425  0.90912025  1
  Zr  Zr90  1  0.10055521  0.50250651  0.90844694  1
  Zr  Zr91  1  0.20513726  0.00083683  0.00328748  1
  Zr  Zr92  1  0.30057446  0.49976003  0.90285610  1
  Zr  Zr93  1  0.59932517  0.80203937  0.40108972  1
  Zr  Zr94  1  0.70578957  0.70291570  0.30834007  1
  Zr  Zr95  1  0.70234821  0.49694059  0.49977104  1
  Zr  Zr96  1  0.79998470  0.19691217  0.79652618  1
  Zr  Zr97  1  0.31916462  0.10378689  0.89315864  1
  Zr  Zr98  1  0.31805276  0.10318287  0.70887082  1
  Zr  Zr99  1  0.68470336  0.10014935  0.71067960  1
  Ta  Ta100  1  0.70064151  0.70609823  0.09795040  1
  Ta  Ta101  1  0.29104299  0.70144893  0.89786552  1
  Ta  Ta102  1  0.09757338  0.89430950  0.90471729  1
  Ta  Ta103  1  0.29031425  0.90285360  0.10287604  1
  Ta  Ta104  1  0.90238145  0.09742632  0.50087543  1
  Ta  Ta105  1  0.90073810  0.29908178  0.90214341  1
  Ta  Ta106  1  0.09993718  0.90614843  0.70464237  1
  Ta  Ta107  1  0.69704679  0.90133106  0.50453278  1
  Ta  Ta108  1  -0.00938342  0.39735431  0.20262051  1
  Ta  Ta109  1  0.79678855  0.39751562  0.79836625  1
  Ta  Ta110  1  0.39774773  0.39950851  0.38967104  1
  Ta  Ta111  1  0.89572509  0.30188010  0.69856860  1
  Ta  Ta112  1  0.89997010  0.69397655  0.69704188  1
  Ta  Ta113  1  0.20388729  0.60473092  0.00550151  1
  Ta  Ta114  1  0.89191929  0.29896713  0.30060746  1
  Ta  Ta115  1  0.59611832  -0.00252977  0.60314299  1
  Ta  Ta116  1  0.30342428  0.90259959  0.70802073  1
  Ta  Ta117  1  0.10582403  0.70044360  0.90250416  1
  Ta  Ta118  1  0.80243194  0.80240308  0.20027619  1
  Ta  Ta119  1  0.69660182  0.69791012  0.51038105  1
  Ta  Ta120  1  0.68947698  0.09664352  0.50551589  1
  Ta  Ta121  1  0.49186241  0.30289071  0.49193273  1
  Ta  Ta122  1  0.19834972  0.79951610  0.79884457  1
  Ta  Ta123  1  0.69416990  0.49967305  0.70127638  1
  Ta  Ta124  1  0.30463210  0.10866801  0.11693676  1
  Ta  Ta125  1  0.30883115  0.31235710  0.90061675  1
  Ta  Ta126  1  0.79528409  0.59833423  0.60598245  1
  Ta  Ta127  1  0.50345759  0.69916324  0.28756591  1
  Ta  Ta128  1  0.79736297  0.79919093  0.79768653  1
  Ta  Ta129  1  -0.00577307  0.20512081  0.79748659  1
  Ta  Ta130  1  0.31182121  0.10387164  0.48601329  1
  Ta  Ta131  1  0.70333562  0.29975447  0.29508378  1
  Ta  Ta132  1  -0.00325179  0.60138114  0.20348733  1
  Ta  Ta133  1  0.59744958  0.00074319  0.40170755  1
  Ta  Ta134  1  0.40396738  0.20423755  0.59637740  1
  Ta  Ta135  1  0.09161614  0.90935058  0.29863945  1
  Ta  Ta136  1  0.90733944  0.90381370  0.30265546  1
  Ta  Ta137  1  0.19418994  0.00594665  0.20369093  1
  Ta  Ta138  1  0.40538133  0.39266143  0.00658932  1
  Ta  Ta139  1  0.61023306  0.80234557  0.20280917  1
  Ta  Ta140  1  0.09965799  0.30504349  0.90628847  1
  Ta  Ta141  1  -0.00590831  0.19525591  0.39748312  1
  Ta  Ta142  1  0.79956401  0.40049610  0.20266131  1
  Ta  Ta143  1  0.30118408  0.49152644  0.10127220  1
  Ta  Ta144  1  0.20876757  0.39483365  0.19895097  1
  Ta  Ta145  1  0.09883445  0.49678307  0.49286893  1
  Ta  Ta146  1  0.89607361  0.30204428  0.49645905  1
  Ta  Ta147  1  -0.00975628  0.20103726  0.59825429  1
  Ta  Ta148  1  0.90029094  0.49578681  0.90229531  1
  Ta  Ta149  1  0.39628942  0.59692660  0.79646812  1
  Ti  Ti150  1  0.59933875  0.39988624  0.39200662  1
  Ti  Ti151  1  0.79668395  0.39801392  0.60526394  1
  Ti  Ti152  1  0.00433725  0.79311925  0.39411751  1
  Ti  Ti153  1  0.49544739  0.29761275  0.29395063  1
  Ti  Ti154  1  0.60775013  0.80131513  -0.00163248  1
  Ti  Ti155  1  0.80079860  0.79841257  0.00135766  1
  Ti  Ti156  1  0.40331774  0.00361178  0.39462252  1
  Ti  Ti157  1  0.80141700  0.00101029  0.79877720  1
  Ti  Ti158  1  0.50983324  0.90184900  0.89943062  1
  Ti  Ti159  1  0.69850959  0.11685803  0.09383536  1
  Ti  Ti160  1  -0.00311523  0.59543132  0.38344403  1
  Ti  Ti161  1  0.79981580  0.80476603  0.40235591  1
  Ti  Ti162  1  0.19821045  0.00975296  0.39057755  1
  Ti  Ti163  1  0.39037077  0.59983187  0.61440807  1
  Ti  Ti164  1  0.38279659  0.60658775  0.19880731  1
  Ti  Ti165  1  0.68981950  0.09708907  0.90377292  1
  Ti  Ti166  1  0.69526834  0.70521360  0.89766675  1
  Ti  Ti167  1  0.69405284  0.29881045  0.70210514  1
  Ti  Ti168  1  0.60582812  0.81064726  0.61250618  1
  Ti  Ti169  1  0.09708313  0.50924484  0.68652314  1
  Ti  Ti170  1  -0.00328935  0.00586105  0.60431623  1
  Ti  Ti171  1  0.89817481  0.70390912  0.30338721  1
  Ti  Ti172  1  0.59232688  -0.01501957  0.78896488  1
  Ti  Ti173  1  0.49814662  0.10406582  0.49685694  1
  Ti  Ti174  1  0.79903435  0.58626379  0.39056802  1
  Ti  Ti175  1  -0.00294947  0.00443730  0.80415324  1
  Ti  Ti176  1  -0.00358588  0.39508855  -0.00131314  1
  Ti  Ti177  1  0.69544948  0.69745540  0.70220731  1
  Ti  Ti178  1  0.19225561  0.79897336  0.19812105  1
  Ti  Ti179  1  0.20285822  0.60061384  0.61255157  1
  Ti  Ti180  1  -0.01098511  0.39723770  0.39257703  1
  Ti  Ti181  1  0.41747724  0.23174894  0.79761795  1
  Ti  Ti182  1  0.19900201  0.80310807  0.00274275  1
  Ti  Ti183  1  0.59891768  0.59535941  0.80035755  1
  Ti  Ti184  1  0.30048096  0.89958588  0.89915504  1
  Ti  Ti185  1  0.70383864  0.90131597  0.30127475  1
  Ti  Ti186  1  0.20339789  0.18863406  0.38862483  1
  Ti  Ti187  1  0.50779703  0.69334459  0.51031122  1
  Ti  Ti188  1  0.90094252  0.89813126  0.90075915  1
  Ti  Ti189  1  0.89217770  0.50119463  0.69872422  1
  Ti  Ti190  1  0.30360629  0.29765382  0.48334528  1
  Ti  Ti191  1  0.20278537  0.60732262  0.79083736  1
  Ti  Ti192  1  0.49970594  0.49615558  0.90680849  1
  Ti  Ti193  1  0.61435341  0.59914959  0.20955960  1
  Ti  Ti194  1  0.70172463  0.30475461  0.49468955  1
  Ti  Ti195  1  0.70110976  0.89748482  0.09628617  1
  Ti  Ti196  1  0.49903184  0.50402346  0.70191009  1
  Ti  Ti197  1  0.49981742  0.10559436  0.70827083  1
  Ti  Ti198  1  0.59104214  0.20174564  0.60020762  1
  Ti  Ti199  1  0.50354402  0.89889068  0.29724472  1
  Mo  Mo200  1  0.09969618  0.09690865  0.30220986  1
  Mo  Mo201  1  0.30154967  0.50741954  0.70284054  1
  Mo  Mo202  1  0.29854395  0.69823446  0.70931904  1
  Mo  Mo203  1  0.29850873  0.10031158  0.30110426  1
  Mo  Mo204  1  0.10860787  0.89728221  0.10467024  1
  Mo  Mo205  1  0.50136710  0.29327792  0.68812005  1
  Mo  Mo206  1  0.90259493  0.09713337  0.30455254  1
  Mo  Mo207  1  0.79654411  0.20272833  0.19883259  1
  Mo  Mo208  1  0.20650921  0.39912514  0.39512443  1
  Mo  Mo209  1  0.69832547  0.28927009  0.10603071  1
  Mo  Mo210  1  0.39927397  0.39254142  0.19533317  1
  Mo  Mo211  1  0.60527718  0.61020762  -0.00736837  1
  Mo  Mo212  1  0.28660840  0.70800755  0.09463032  1
  Mo  Mo213  1  -0.00057366  0.20764892  -0.00440767  1
  Mo  Mo214  1  0.50254183  0.29753443  0.10644598  1
  Mo  Mo215  1  0.59790734  0.19551277  0.01193722  1
  Mo  Mo216  1  0.40145872  0.20477353  0.40260210  1
  Mo  Mo217  1  0.69965162  0.89926518  0.70352999  1
  Mo  Mo218  1  0.30510219  0.30266189  0.10339001  1
  Mo  Mo219  1  0.30871399  0.30140511  0.70761179  1
  Mo  Mo220  1  0.60917100  0.80145754  0.79738543  1
  Mo  Mo221  1  0.20274205  0.19748483  0.20371738  1
  Mo  Mo222  1  0.20840897  0.39960529  0.00512992  1
  Mo  Mo223  1  0.30071870  0.49034871  0.28928845  1
  Mo  Mo224  1  0.40604176  0.40642395  0.80559919  1
  Mo  Mo225  1  0.79563143  0.19392272  0.00131132  1
  Mo  Mo226  1  0.58752358  0.38605758  0.00363788  1
  Mo  Mo227  1  0.40406160  0.20076619  0.19798011  1
  Mo  Mo228  1  0.60393855  0.59889333  0.60691493  1
  Mo  Mo229  1  0.70463927  0.48823241  0.30190521  1
  Mo  Mo230  1  0.60707239  0.00362189  -0.00136130  1
  Mo  Mo231  1  0.89515863  0.70061812  0.10447122  1
  Mo  Mo232  1  0.29868295  0.70353840  0.28890125  1
  Mo  Mo233  1  0.00288272  0.59524828  -0.00185562  1
  Mo  Mo234  1  0.79624901  0.39472919  0.39280241  1
  Mo  Mo235  1  -0.00148018  0.00616965  0.39601760  1
  Mo  Mo236  1  0.50699880  0.10342751  0.10085050  1
  Mo  Mo237  1  0.09116734  0.69888809  0.29498419  1
  Mo  Mo238  1  0.10095385  0.69366259  0.70546880  1
  Mo  Mo239  1  0.59758166  0.20578241  0.19561354  1
  Mo  Mo240  1  0.89635769  0.10201786  0.10174849  1
  Mo  Mo241  1  0.50273639  0.89787631  0.70234621  1
  Mo  Mo242  1  0.00635696  0.80495156  -0.00363934  1
  Mo  Mo243  1  0.41199978  -0.01443880  0.80212880  1
  Mo  Mo244  1  0.00191439  -0.00193897  0.20662034  1
  Mo  Mo245  1  -0.00526199  0.59258442  0.60499832  1
  Mo  Mo246  1  0.90683233  0.10002149  0.69954793  1
  Mo  Mo247  1  0.90340547  0.49275171  0.29724073  1
  Mo  Mo248  1  0.59342898  0.20284467  0.79381943  1
  Mo  Mo249  1  0.50020941  0.30094256  0.91126395  1
