# generated using pymatgen
data_HfZrTaTiMo
_symmetry_space_group_name_H-M   'P 1'
_cell_length_a   16.89009106
_cell_length_b   16.89190827
_cell_length_c   16.89031351
_cell_angle_alpha   89.91773476
_cell_angle_beta   89.98980399
_cell_angle_gamma   90.03404657
_symmetry_Int_Tables_number   1
_chemical_formula_structural   HfZrTaTiMo
_chemical_formula_sum   'Hf50 Zr50 Ta50 Ti50 Mo50'
_cell_volume   4818.89967843
_cell_formula_units_Z   50
loop_
 _symmetry_equiv_pos_site_id
 _symmetry_equiv_pos_as_xyz
  1  'x, y, z'
loop_
 _atom_site_type_symbol
 _atom_site_label
 _atom_site_symmetry_multiplicity
 _atom_site_fract_x
 _atom_site_fract_y
 _atom_site_fract_z
 _atom_site_occupancy
  Hf  Hf0  1  0.70497951  0.30130547  0.29611977  1
  Hf  Hf1  1  0.40317453  0.00173484  0.20280175  1
  Hf  Hf2  1  0.80033111  0.19944971  0.39953668  1
  Hf  Hf3  1  0.29464721  0.10153836  0.10502260  1
  Hf  Hf4  1  0.90885173  0.69510211  0.69135856  1
  Hf  Hf5  1  0.50834164  0.09971196  0.09521482  1
  Hf  Hf6  1  -0.01138774  0.20170357  -0.00674501  1
  Hf  Hf7  1  0.30019229  0.29311445  0.50095760  1
  Hf  Hf8  1  0.88711828  0.31349240  0.09151588  1
  Hf  Hf9  1  0.80168576  0.59444906  0.18928040  1
  Hf  Hf10  1  0.70138030  0.90487218  0.50231692  1
  Hf  Hf11  1  0.39377768  0.79391402  0.40103420  1
  Hf  Hf12  1  -0.00820550  0.60610406  0.40599346  1
  Hf  Hf13  1  0.60706054  0.60142207  0.81083078  1
  Hf  Hf14  1  0.61078614  0.00040537  0.79748128  1
  Hf  Hf15  1  0.20580268  0.60955042  0.20324103  1
  Hf  Hf16  1  0.30119459  0.10105763  0.30432954  1
  Hf  Hf17  1  0.41218786  0.01219205  0.79458313  1
  Hf  Hf18  1  0.50284681  0.71082560  0.70931565  1
  Hf  Hf19  1  0.39872288  0.60515748  0.59628939  1
  Hf  Hf20  1  0.59563345  0.60498197  0.60151764  1
  Hf  Hf21  1  -0.00200889  0.80606196  0.00596688  1
  Hf  Hf22  1  0.30094439  0.90819924  0.89434535  1
  Hf  Hf23  1  0.89776344  0.70784780  0.89496713  1
  Hf  Hf24  1  0.49746439  0.90269536  0.30504134  1
  Hf  Hf25  1  0.09700468  0.29987114  0.29768696  1
  Hf  Hf26  1  0.81293108  0.80287743  0.60311778  1
  Hf  Hf27  1  0.40887895  0.00872991  0.60055060  1
  Hf  Hf28  1  0.40475379  0.39432457  0.40076557  1
  Hf  Hf29  1  0.40589180  0.19751966  -0.00348507  1
  Hf  Hf30  1  0.60067872  0.40308256  0.19204836  1
  Hf  Hf31  1  -0.00556871  0.00117434  0.40475665  1
  Hf  Hf32  1  0.40736438  0.61749803  0.40366121  1
  Hf  Hf33  1  0.59852036  0.00410469  0.60442147  1
  Hf  Hf34  1  0.69930307  0.49818164  0.50048060  1
  Hf  Hf35  1  -0.00271450  0.19239151  0.60538970  1
  Hf  Hf36  1  0.89406425  0.90220878  0.29816192  1
  Hf  Hf37  1  0.69785387  0.70677165  0.10189043  1
  Hf  Hf38  1  0.59863167  0.39098835  0.00897412  1
  Hf  Hf39  1  0.40025192  0.80230656  0.00107047  1
  Hf  Hf40  1  0.79817543  0.59766144  0.00023283  1
  Hf  Hf41  1  0.70002284  0.69924827  0.50829187  1
  Hf  Hf42  1  0.10164088  0.29438536  0.10385997  1
  Hf  Hf43  1  0.19948357  0.79771452  0.40136245  1
  Hf  Hf44  1  0.89475184  0.49497085  0.30243740  1
  Hf  Hf45  1  0.79737934  0.59859528  0.80302896  1
  Hf  Hf46  1  0.90262647  0.48412850  0.90824892  1
  Hf  Hf47  1  0.20166398  0.59792640  -0.00153954  1
  Hf  Hf48  1  0.70043753  0.49668165  0.69667902  1
  Hf  Hf49  1  0.30898913  0.50328737  0.29924293  1
  Zr  Zr50  1  0.19013018  0.40574384  0.80001796  1
  Zr  Zr51  1  0.19802343  0.19927058  -0.00972681  1
  Zr  Zr52  1  0.10054386  0.10206723  0.29792731  1
  Zr  Zr53  1  0.59629577  0.39160722  0.80137939  1
  Zr  Zr54  1  0.70039009  0.49965955  0.30405638  1
  Zr  Zr55  1  0.69615413  0.09903537  0.09542000  1
  Zr  Zr56  1  0.00029118  0.81239947  0.77710605  1
  Zr  Zr57  1  0.59187522  0.78446989  0.40013118  1
  Zr  Zr58  1  0.49466846  0.51338577  0.10093052  1
  Zr  Zr59  1  0.69286222  0.28266408  0.69416771  1
  Zr  Zr60  1  0.51122256  0.89921363  0.09388570  1
  Zr  Zr61  1  0.50622549  0.29346269  0.30259310  1
  Zr  Zr62  1  0.88972229  0.90815471  0.11308067  1
  Zr  Zr63  1  0.70518183  0.90239714  0.29411992  1
  Zr  Zr64  1  0.40276178  0.39474816  0.00638034  1
  Zr  Zr65  1  0.80533251  0.39101268  0.80011985  1
  Zr  Zr66  1  0.30063925  0.70611714  0.89572810  1
  Zr  Zr67  1  0.40131154  0.79532969  0.58657612  1
  Zr  Zr68  1  0.09833761  0.50447559  0.09922146  1
  Zr  Zr69  1  0.70127222  0.10256030  0.50035954  1
  Zr  Zr70  1  0.50426346  0.70278842  0.90442744  1
  Zr  Zr71  1  0.29613128  0.29461228  0.10851764  1
  Zr  Zr72  1  0.19681508  0.39867354  0.40014189  1
  Zr  Zr73  1  0.00347542  0.58872253  0.80593291  1
  Zr  Zr74  1  0.80567973  0.79472017  0.40454256  1
  Zr  Zr75  1  0.20244827  0.61143703  0.40687781  1
  Zr  Zr76  1  0.29494190  0.69456950  0.70278710  1
  Zr  Zr77  1  0.49148186  0.49298487  0.70426193  1
  Zr  Zr78  1  0.00255470  0.79985439  0.19796285  1
  Zr  Zr79  1  0.09446238  0.09672665  0.10590549  1
  Zr  Zr80  1  0.41233749  0.19855122  0.60266200  1
  Zr  Zr81  1  0.19140370  0.39421519  0.60159057  1
  Zr  Zr82  1  -0.01038542  0.19944443  0.39977516  1
  Zr  Zr83  1  0.09670463  0.91473725  0.89388112  1
  Zr  Zr84  1  0.30093224  0.49934871  0.50904287  1
  Zr  Zr85  1  0.09870218  0.09890499  0.88905948  1
  Zr  Zr86  1  0.81080764  0.19303693  0.80214395  1
  Zr  Zr87  1  0.30568379  0.30222125  0.70253086  1
  Zr  Zr88  1  -0.00033113  0.39244475  0.60407358  1
  Zr  Zr89  1  0.30752324  0.90565560  0.70238752  1
  Zr  Zr90  1  0.09348432  0.50304189  0.30331255  1
  Zr  Zr91  1  0.30267414  0.90009995  0.10340196  1
  Zr  Zr92  1  -0.00749797  0.40503474  0.19406293  1
  Zr  Zr93  1  0.79753182  -0.00257149  -0.01043003  1
  Zr  Zr94  1  0.30014737  0.29934912  0.89182100  1
  Zr  Zr95  1  0.19660584  0.80521134  0.59650848  1
  Zr  Zr96  1  0.29763458  0.09815650  0.49702822  1
  Zr  Zr97  1  0.88543948  0.08769305  0.28851701  1
  Zr  Zr98  1  0.09777627  0.69957457  0.90115061  1
  Zr  Zr99  1  0.19003140  0.80667250  0.79129031  1
  Ta  Ta100  1  0.89432922  0.29946718  0.50305867  1
  Ta  Ta101  1  0.50739993  0.10268825  0.30505769  1
  Ta  Ta102  1  0.19584402  0.40388977  -0.00294835  1
  Ta  Ta103  1  0.51613084  0.10012902  0.90495620  1
  Ta  Ta104  1  0.19389439  0.00385753  0.60263932  1
  Ta  Ta105  1  0.70356298  0.89383539  0.69895982  1
  Ta  Ta106  1  0.08821718  0.29979536  0.88648099  1
  Ta  Ta107  1  0.69732529  0.10292080  0.89893912  1
  Ta  Ta108  1  0.09969092  0.09743741  0.50195581  1
  Ta  Ta109  1  0.19634196  -0.00832453  0.20301686  1
  Ta  Ta110  1  0.80093365  0.79882144  -0.00093519  1
  Ta  Ta111  1  0.50892079  0.89056158  0.70274904  1
  Ta  Ta112  1  0.80357035  -0.00280772  0.79028619  1
  Ta  Ta113  1  0.39852135  0.59682656  0.80449974  1
  Ta  Ta114  1  0.50482662  0.90208143  0.50029143  1
  Ta  Ta115  1  0.70154472  0.29189371  0.90862113  1
  Ta  Ta116  1  0.49494306  0.49943433  0.90319377  1
  Ta  Ta117  1  -0.01570575  0.20263344  0.19804495  1
  Ta  Ta118  1  0.50417079  0.70227952  0.10009351  1
  Ta  Ta119  1  0.29063847  0.10718426  0.70555129  1
  Ta  Ta120  1  0.50734274  0.50139540  0.49480735  1
  Ta  Ta121  1  0.89410413  0.70097140  0.29351122  1
  Ta  Ta122  1  0.80374695  0.60324091  0.40711212  1
  Ta  Ta123  1  0.09740155  0.90133115  0.30199888  1
  Ta  Ta124  1  0.59927786  0.60523632  0.20401685  1
  Ta  Ta125  1  0.50386389  0.50661712  0.30476239  1
  Ta  Ta126  1  0.80209313  0.19913742  -0.00381764  1
  Ta  Ta127  1  0.89588214  0.09646099  0.10237024  1
  Ta  Ta128  1  0.41206786  0.19958487  0.79973871  1
  Ta  Ta129  1  0.80808234  0.59630637  0.59805115  1
  Ta  Ta130  1  0.89953672  0.90186406  0.88920825  1
  Ta  Ta131  1  0.40240958  0.39537194  0.20382048  1
  Ta  Ta132  1  0.59507465  0.39103957  0.59558235  1
  Ta  Ta133  1  0.09638736  0.50371189  0.69683821  1
  Ta  Ta134  1  0.09336231  0.90341452  0.50172964  1
  Ta  Ta135  1  0.70312596  0.71081541  0.70630883  1
  Ta  Ta136  1  0.18662737  0.19911584  0.60469794  1
  Ta  Ta137  1  0.80116374  0.39492925  0.60119065  1
  Ta  Ta138  1  0.60060087  0.39594454  0.40494873  1
  Ta  Ta139  1  0.29841367  0.90395630  0.30479300  1
  Ta  Ta140  1  -0.00340946  -0.00156657  0.60698875  1
  Ta  Ta141  1  0.09978336  0.70148547  0.10108158  1
  Ta  Ta142  1  0.08780455  0.70010829  0.51428881  1
  Ta  Ta143  1  0.19377711  0.80657509  0.00917031  1
  Ta  Ta144  1  0.69317188  0.10219761  0.29867356  1
  Ta  Ta145  1  0.69839466  0.89676280  0.10039382  1
  Ta  Ta146  1  -0.00267110  0.79821190  0.40603442  1
  Ta  Ta147  1  0.50597800  0.90083789  0.89437807  1
  Ta  Ta148  1  0.30494056  0.49719800  0.89804264  1
  Ta  Ta149  1  0.20893551  0.40023138  0.20226266  1
  Ti  Ti150  1  -0.00764422  0.60037910  0.00759889  1
  Ti  Ti151  1  0.51148075  0.29028914  0.49948267  1
  Ti  Ti152  1  0.19755343  -0.00373617  0.00543255  1
  Ti  Ti153  1  0.52497480  0.12234198  0.70493586  1
  Ti  Ti154  1  0.00847670  0.39830952  -0.00520054  1
  Ti  Ti155  1  0.79726367  0.20396406  0.19192944  1
  Ti  Ti156  1  0.60969771  0.80050736  -0.00939520  1
  Ti  Ti157  1  0.09825184  0.09841588  0.70821826  1
  Ti  Ti158  1  0.09290002  0.50600087  0.50765281  1
  Ti  Ti159  1  0.90223160  0.49338731  0.50167787  1
  Ti  Ti160  1  0.50555732  0.29322750  0.89558948  1
  Ti  Ti161  1  0.70313508  0.69526804  0.29945417  1
  Ti  Ti162  1  0.40322209  0.19981146  0.39795912  1
  Ti  Ti163  1  0.19603455  -0.00393934  0.40196268  1
  Ti  Ti164  1  0.30293606  0.49964448  0.10208627  1
  Ti  Ti165  1  0.09718718  0.68550019  0.68812750  1
  Ti  Ti166  1  0.89880188  0.90710881  0.50407053  1
  Ti  Ti167  1  0.09037316  0.29629621  0.49389004  1
  Ti  Ti168  1  0.40312631  0.00479756  -0.00600012  1
  Ti  Ti169  1  0.40320497  0.20382907  0.20300934  1
  Ti  Ti170  1  0.89395272  0.30983456  0.29852579  1
  Ti  Ti171  1  0.88730641  0.09380942  0.51151469  1
  Ti  Ti172  1  0.60061204  0.00202778  0.39811831  1
  Ti  Ti173  1  0.60948281  0.59705593  0.00248552  1
  Ti  Ti174  1  0.30064450  0.70463678  0.10149917  1
  Ti  Ti175  1  0.29442587  0.09799410  0.88769366  1
  Ti  Ti176  1  -0.00998992  0.60554274  0.19084233  1
  Ti  Ti177  1  0.29980340  0.49853416  0.70327186  1
  Ti  Ti178  1  0.60095069  0.20799112  0.19012175  1
  Ti  Ti179  1  0.39987865  0.79349472  0.20686551  1
  Ti  Ti180  1  0.60112180  0.00040958  0.20147717  1
  Ti  Ti181  1  0.30432591  0.91274957  0.49494035  1
  Ti  Ti182  1  0.59560919  0.79377331  0.20585184  1
  Ti  Ti183  1  0.39450785  0.60403195  0.00000747  1
  Ti  Ti184  1  0.80028513  0.39702909  0.40953307  1
  Ti  Ti185  1  0.90449746  0.29266294  0.70316715  1
  Ti  Ti186  1  0.70437576  0.89013889  0.89111380  1
  Ti  Ti187  1  0.40185374  0.61321757  0.20438412  1
  Ti  Ti188  1  0.69929602  0.48695487  0.90717465  1
  Ti  Ti189  1  0.90847097  0.08995493  0.89196516  1
  Ti  Ti190  1  0.50725719  0.10308744  0.48726238  1
  Ti  Ti191  1  0.70031795  0.29351740  0.50330853  1
  Ti  Ti192  1  0.19957923  0.80159449  0.20243321  1
  Ti  Ti193  1  0.19789846  0.59315591  0.80230763  1
  Ti  Ti194  1  0.71154941  0.10239399  0.69124502  1
  Ti  Ti195  1  0.19790250  0.20290064  0.40040496  1
  Ti  Ti196  1  0.09339875  0.70270461  0.29925488  1
  Ti  Ti197  1  0.90444096  0.49552874  0.69849236  1
  Ti  Ti198  1  -0.00199473  -0.00408112  0.00799645  1
  Ti  Ti199  1  0.41101061  0.39427427  0.59781772  1
  Mo  Mo200  1  0.89950843  0.50077979  0.09227843  1
  Mo  Mo201  1  0.89787101  0.09552568  0.69797989  1
  Mo  Mo202  1  0.30157535  0.29504303  0.30089542  1
  Mo  Mo203  1  0.50941075  0.69953258  0.50468161  1
  Mo  Mo204  1  0.80113780  0.80289453  0.79930337  1
  Mo  Mo205  1  0.40760522  -0.00037774  0.40169831  1
  Mo  Mo206  1  0.70274805  0.70762549  0.90417812  1
  Mo  Mo207  1  0.60539351  0.19667255  0.80693961  1
  Mo  Mo208  1  -0.00848047  0.39978902  0.40814563  1
  Mo  Mo209  1  0.10102169  0.49470403  0.90169161  1
  Mo  Mo210  1  0.60357836  0.80499792  0.60311129  1
  Mo  Mo211  1  0.19346982  0.59658191  0.60511014  1
  Mo  Mo212  1  0.79739288  0.00245934  0.40313442  1
  Mo  Mo213  1  0.78188775  0.00456412  0.19534654  1
  Mo  Mo214  1  0.40251524  0.40164023  0.80588434  1
  Mo  Mo215  1  0.20451633  0.20298981  0.21195338  1
  Mo  Mo216  1  0.90125809  0.69625591  0.50058019  1
  Mo  Mo217  1  0.60202959  0.19880736  0.59212483  1
  Mo  Mo218  1  0.90117998  0.69983569  0.09785926  1
  Mo  Mo219  1  0.30116411  0.70927617  0.29072780  1
  Mo  Mo220  1  0.19560629  0.20105908  0.79294670  1
  Mo  Mo221  1  0.60289609  0.20413332  -0.00051293  1
  Mo  Mo222  1  0.80616832  0.20178387  0.59898998  1
  Mo  Mo223  1  0.90101007  0.29974860  0.90260237  1
  Mo  Mo224  1  0.40830377  0.80559161  0.80467922  1
  Mo  Mo225  1  0.20375401  0.00751593  0.79158418  1
  Mo  Mo226  1  0.70317263  0.29665217  0.09980243  1
  Mo  Mo227  1  0.28466857  0.69839680  0.50478983  1
  Mo  Mo228  1  0.60286211  0.59689048  0.39667711  1
  Mo  Mo229  1  0.89732527  0.90531878  0.69579745  1
  Mo  Mo230  1  0.10376646  0.90102017  0.10455442  1
  Mo  Mo231  1  0.80288965  -0.00051043  0.60363847  1
  Mo  Mo232  1  0.09753914  0.91868931  0.69200916  1
  Mo  Mo233  1  0.69820026  0.50021767  0.09733194  1
  Mo  Mo234  1  0.60321975  0.20082325  0.39911195  1
  Mo  Mo235  1  0.49969512  0.69941767  0.28912804  1
  Mo  Mo236  1  0.60919990  0.80286683  0.80305658  1
  Mo  Mo237  1  -0.00119541  0.39474207  0.79693954  1
  Mo  Mo238  1  0.60582166  -0.01087513  -0.01034673  1
  Mo  Mo239  1  0.00729590  0.00127793  0.20087847  1
  Mo  Mo240  1  -0.00876568  0.00581967  0.78875816  1
  Mo  Mo241  1  -0.00299975  0.19933672  0.79641791  1
  Mo  Mo242  1  0.50119244  0.29742657  0.70061227  1
  Mo  Mo243  1  0.09437887  0.28977180  0.70877129  1
  Mo  Mo244  1  0.49832614  0.29077348  0.10715242  1
  Mo  Mo245  1  0.79382549  0.40343250  0.19000839  1
  Mo  Mo246  1  0.78742543  0.39918739  0.00047893  1
  Mo  Mo247  1  0.79626526  0.79130501  0.19725262  1
  Mo  Mo248  1  -0.00301541  0.58842457  0.59749249  1
  Mo  Mo249  1  0.00147456  0.80754336  0.59242448  1
