# generated using pymatgen
data_HfZrTaTiMo
_symmetry_space_group_name_H-M   'P 1'
_cell_length_a   16.88788806
_cell_length_b   16.88413508
_cell_length_c   16.88687376
_cell_angle_alpha   89.96547844
_cell_angle_beta   89.99985896
_cell_angle_gamma   90.05285578
_symmetry_Int_Tables_number   1
_chemical_formula_structural   HfZrTaTiMo
_chemical_formula_sum   'Hf50 Zr50 Ta50 Ti50 Mo50'
_cell_volume   4815.07607241
_cell_formula_units_Z   50
loop_
 _symmetry_equiv_pos_site_id
 _symmetry_equiv_pos_as_xyz
  1  'x, y, z'
loop_
 _atom_site_type_symbol
 _atom_site_label
 _atom_site_symmetry_multiplicity
 _atom_site_fract_x
 _atom_site_fract_y
 _atom_site_fract_z
 _atom_site_occupancy
  Hf  Hf0  1  0.60683865  0.20450756  -0.00375860  1
  Hf  Hf1  1  0.89764374  0.50049676  0.69863576  1
  Hf  Hf2  1  0.19276306  0.20075513  0.59759003  1
  Hf  Hf3  1  0.70808946  0.09125598  0.29276074  1
  Hf  Hf4  1  0.19414825  0.20123535  0.39193524  1
  Hf  Hf5  1  0.61296656  0.20716890  0.39206581  1
  Hf  Hf6  1  0.40444051  0.59468205  0.80540492  1
  Hf  Hf7  1  0.50156314  0.89702855  0.70909454  1
  Hf  Hf8  1  0.49166472  0.28305749  0.69855055  1
  Hf  Hf9  1  0.40994982  -0.00046362  0.60317553  1
  Hf  Hf10  1  -0.00304015  0.00826610  0.40627730  1
  Hf  Hf11  1  0.20228326  0.00023127  -0.00077871  1
  Hf  Hf12  1  0.79967392  0.19804662  0.58970569  1
  Hf  Hf13  1  0.29179401  0.70016504  0.70175344  1
  Hf  Hf14  1  0.50437126  0.29696558  0.50198171  1
  Hf  Hf15  1  0.89837235  0.70817020  0.10791288  1
  Hf  Hf16  1  0.10263524  0.69725062  0.49835993  1
  Hf  Hf17  1  0.78338365  0.82431155  0.19858109  1
  Hf  Hf18  1  0.10054865  0.09965113  0.90148459  1
  Hf  Hf19  1  0.09334073  0.90095255  0.11177443  1
  Hf  Hf20  1  0.39990414  0.40350941  0.39239990  1
  Hf  Hf21  1  0.29681382  0.90310404  0.11292535  1
  Hf  Hf22  1  0.90095444  0.10216057  0.69686336  1
  Hf  Hf23  1  0.68551068  0.48684457  0.30061682  1
  Hf  Hf24  1  0.52317915  0.32381084  0.29382826  1
  Hf  Hf25  1  0.39524539  -0.00415504  -0.00802916  1
  Hf  Hf26  1  0.59994965  0.58869286  0.00150526  1
  Hf  Hf27  1  0.19495414  0.80373348  0.60789961  1
  Hf  Hf28  1  0.90360285  0.10018712  0.10836402  1
  Hf  Hf29  1  0.40456540  0.79554934  0.39597857  1
  Hf  Hf30  1  0.50511831  0.70283976  0.89950028  1
  Hf  Hf31  1  0.00270328  0.40236188  0.59009019  1
  Hf  Hf32  1  0.40010639  0.39854882  0.80284323  1
  Hf  Hf33  1  0.70424566  0.10751175  0.89465380  1
  Hf  Hf34  1  0.29659026  0.89719745  0.30273222  1
  Hf  Hf35  1  0.10042159  0.49346118  0.70461560  1
  Hf  Hf36  1  0.10147881  0.69855139  0.10115910  1
  Hf  Hf37  1  0.79806296  0.39967265  0.80450778  1
  Hf  Hf38  1  0.90115549  0.30138524  0.69321984  1
  Hf  Hf39  1  -0.00322715  0.81087634  0.40487350  1
  Hf  Hf40  1  0.60364522  0.60416592  0.40249627  1
  Hf  Hf41  1  0.39696560  0.80123869  0.00691673  1
  Hf  Hf42  1  0.40289597  0.60500793  0.59728207  1
  Hf  Hf43  1  0.49524964  0.68253194  0.10944921  1
  Hf  Hf44  1  0.40611523  0.20638002  0.39023222  1
  Hf  Hf45  1  0.10154942  0.50117454  0.90339026  1
  Hf  Hf46  1  0.29948458  0.50568500  0.29698157  1
  Hf  Hf47  1  0.89612094  0.30137820  0.10596788  1
  Hf  Hf48  1  0.60286051  -0.00812088  0.60000090  1
  Hf  Hf49  1  0.10127296  0.69860042  0.90539261  1
  Zr  Zr50  1  0.39914670  0.40057500  0.59943296  1
  Zr  Zr51  1  0.11095382  0.30873489  0.89188914  1
  Zr  Zr52  1  0.29143249  0.50159142  0.69875840  1
  Zr  Zr53  1  -0.00409265  0.20813474  0.80093977  1
  Zr  Zr54  1  0.80353424  -0.00474653  0.59477272  1
  Zr  Zr55  1  0.79940948  -0.00416640  0.79804749  1
  Zr  Zr56  1  0.90785341  0.90541577  0.28743280  1
  Zr  Zr57  1  -0.00783121  0.00154607  0.80950616  1
  Zr  Zr58  1  -0.00186194  0.20308056  -0.00281923  1
  Zr  Zr59  1  0.59316285  0.80569750  0.20149409  1
  Zr  Zr60  1  0.40330361  0.80312446  0.59750861  1
  Zr  Zr61  1  0.29037414  0.49632179  0.90525007  1
  Zr  Zr62  1  0.49362530  0.10149005  0.10775351  1
  Zr  Zr63  1  0.32368282  0.11878637  0.70544269  1
  Zr  Zr64  1  0.59737502  -0.00042300  -0.00021622  1
  Zr  Zr65  1  0.30341165  0.29623496  0.10175086  1
  Zr  Zr66  1  0.90031347  0.30911831  0.49097302  1
  Zr  Zr67  1  0.89814563  0.48477963  0.30602569  1
  Zr  Zr68  1  0.50539430  0.49843272  0.49260508  1
  Zr  Zr69  1  0.18928975  0.00488153  0.39934155  1
  Zr  Zr70  1  0.51155450  0.09428476  0.29452552  1
  Zr  Zr71  1  0.80352255  0.58609838  -0.00031278  1
  Zr  Zr72  1  0.50425679  0.70334765  0.71118198  1
  Zr  Zr73  1  -0.00030049  0.58730416  0.20056394  1
  Zr  Zr74  1  0.61235551  -0.02083758  0.19001743  1
  Zr  Zr75  1  0.29688568  0.89726322  0.49660115  1
  Zr  Zr76  1  0.60856421  0.60250580  0.60163205  1
  Zr  Zr77  1  0.89520747  0.70361360  0.29928225  1
  Zr  Zr78  1  0.50497429  0.30784366  0.09502776  1
  Zr  Zr79  1  0.49551224  0.10156950  0.87915290  1
  Zr  Zr80  1  0.89452809  0.70051150  0.90611060  1
  Zr  Zr81  1  0.80825487  0.00761134  -0.00599846  1
  Zr  Zr82  1  0.31257166  0.10564089  0.49631716  1
  Zr  Zr83  1  0.70659349  0.70063084  0.70232978  1
  Zr  Zr84  1  -0.00240655  0.59881327  0.59466443  1
  Zr  Zr85  1  0.30867319  0.09681177  0.28831709  1
  Zr  Zr86  1  0.70379778  0.69625549  0.09981304  1
  Zr  Zr87  1  0.29214231  0.69513814  0.90580566  1
  Zr  Zr88  1  0.21184268  -0.00691682  0.79898093  1
  Zr  Zr89  1  0.69681646  0.09507019  0.49177479  1
  Zr  Zr90  1  0.19389460  0.39983272  0.02002445  1
  Zr  Zr91  1  0.59811980  0.80978604  0.01096181  1
  Zr  Zr92  1  0.60454528  0.39468702  0.80241364  1
  Zr  Zr93  1  0.00063821  0.79737484  0.79792745  1
  Zr  Zr94  1  0.20265914  0.00596253  0.60559494  1
  Zr  Zr95  1  0.30091004  0.10479193  0.10826364  1
  Zr  Zr96  1  0.80001633  0.80720311  0.79906540  1
  Zr  Zr97  1  0.70042249  0.70263382  0.30369538  1
  Zr  Zr98  1  0.28830131  0.50927685  0.49853065  1
  Zr  Zr99  1  0.09473502  0.70572253  0.30197431  1
  Ta  Ta100  1  0.09002206  0.10189443  0.29168425  1
  Ta  Ta101  1  0.89557842  0.48682592  0.10486756  1
  Ta  Ta102  1  0.00168004  0.80273632  0.00497303  1
  Ta  Ta103  1  0.90691338  0.90680587  0.09957883  1
  Ta  Ta104  1  0.09868341  0.90081835  0.50369138  1
  Ta  Ta105  1  0.29574248  0.30066290  0.70093217  1
  Ta  Ta106  1  0.70521387  0.89226271  0.48992338  1
  Ta  Ta107  1  0.60766526  0.39808577  0.60732004  1
  Ta  Ta108  1  0.50887766  0.49953765  0.70260369  1
  Ta  Ta109  1  0.61219867  0.58828944  0.80680808  1
  Ta  Ta110  1  0.80679291  0.19876902  0.39369626  1
  Ta  Ta111  1  -0.00778437  0.59663916  0.80509242  1
  Ta  Ta112  1  0.69664697  0.10421684  0.70319293  1
  Ta  Ta113  1  0.49796456  0.89664762  0.89369255  1
  Ta  Ta114  1  0.79749089  0.59739817  0.40613544  1
  Ta  Ta115  1  0.09782066  0.30026576  0.49201982  1
  Ta  Ta116  1  0.79504875  0.58641180  0.20338641  1
  Ta  Ta117  1  0.50554592  0.09966778  0.49745484  1
  Ta  Ta118  1  0.28886133  0.69877805  0.49308563  1
  Ta  Ta119  1  0.10159978  0.89608296  0.90436148  1
  Ta  Ta120  1  0.70258653  0.29312155  0.69804188  1
  Ta  Ta121  1  0.09594792  0.90294110  0.70154465  1
  Ta  Ta122  1  0.90403018  0.89645937  0.69035464  1
  Ta  Ta123  1  0.80932836  -0.00455036  0.39923352  1
  Ta  Ta124  1  0.18850191  0.40107077  0.20446696  1
  Ta  Ta125  1  0.19565521  0.39631522  0.39641026  1
  Ta  Ta126  1  0.39698364  0.79266559  0.20538482  1
  Ta  Ta127  1  0.19062189  0.60217695  0.79743355  1
  Ta  Ta128  1  0.19253257  0.39231439  0.59709424  1
  Ta  Ta129  1  -0.00267793  0.40198916  0.00537437  1
  Ta  Ta130  1  -0.00317786  0.80187553  0.59815502  1
  Ta  Ta131  1  0.60731697  0.80233917  0.59387887  1
  Ta  Ta132  1  0.40000469  0.41062639  0.19438980  1
  Ta  Ta133  1  -0.00129209  0.19835486  0.39803368  1
  Ta  Ta134  1  0.79647918  0.58988414  0.80254043  1
  Ta  Ta135  1  0.70254353  0.49471739  0.50019615  1
  Ta  Ta136  1  0.49880583  0.69080553  0.29552863  1
  Ta  Ta137  1  0.09268384  0.09986297  0.69807364  1
  Ta  Ta138  1  0.70083740  0.70016896  0.90299077  1
  Ta  Ta139  1  0.29830815  0.30093260  0.49935529  1
  Ta  Ta140  1  0.41948277  -0.01068282  0.39902036  1
  Ta  Ta141  1  0.20234749  0.80403220  0.00290463  1
  Ta  Ta142  1  0.09556872  0.09980243  0.10430298  1
  Ta  Ta143  1  -0.00253293  0.58985105  0.00525542  1
  Ta  Ta144  1  0.29767552  0.29741490  0.89685447  1
  Ta  Ta145  1  0.90449861  0.30158945  0.29856651  1
  Ta  Ta146  1  0.79891559  0.59804406  0.59460453  1
  Ta  Ta147  1  0.89120674  0.70438026  0.49856939  1
  Ta  Ta148  1  0.19658699  0.59452410  0.19998632  1
  Ta  Ta149  1  0.89756403  0.69785541  0.69553178  1
  Ti  Ti150  1  -0.01179799  0.59096863  0.40694113  1
  Ti  Ti151  1  0.29615759  0.30687863  0.29440269  1
  Ti  Ti152  1  0.59719847  0.80536750  0.40047857  1
  Ti  Ti153  1  0.79383720  0.20724737  0.20348773  1
  Ti  Ti154  1  0.60726770  -0.00495195  0.79451572  1
  Ti  Ti155  1  0.50449259  0.50964187  0.28079106  1
  Ti  Ti156  1  0.09694364  0.69667642  0.70066945  1
  Ti  Ti157  1  0.69580801  0.49078645  0.10245001  1
  Ti  Ti158  1  0.71008770  0.10171560  0.10100408  1
  Ti  Ti159  1  0.29750330  0.11492577  0.89658116  1
  Ti  Ti160  1  0.09420978  0.49229090  0.30538079  1
  Ti  Ti161  1  0.70290060  0.48530760  0.91146628  1
  Ti  Ti162  1  0.50005443  0.30277831  0.90374683  1
  Ti  Ti163  1  0.19508729  0.20427388  0.78929089  1
  Ti  Ti164  1  0.59987209  0.19260360  0.60298057  1
  Ti  Ti165  1  0.60201314  0.20366846  0.79795060  1
  Ti  Ti166  1  0.39227682  -0.00818351  0.80137593  1
  Ti  Ti167  1  0.10405832  0.50100683  0.49250496  1
  Ti  Ti168  1  0.18843071  0.21095261  0.20004652  1
  Ti  Ti169  1  0.90032268  0.10300522  0.29183432  1
  Ti  Ti170  1  0.39910135  0.59061194  0.00421394  1
  Ti  Ti171  1  0.69753748  0.30438697  0.50102772  1
  Ti  Ti172  1  0.39917608  0.40457167  0.00309995  1
  Ti  Ti173  1  0.29819645  0.50806890  0.10423013  1
  Ti  Ti174  1  0.79870627  0.80123604  0.59382664  1
  Ti  Ti175  1  0.88413333  0.30299475  0.91414292  1
  Ti  Ti176  1  0.00432732  0.19545350  0.58872551  1
  Ti  Ti177  1  -0.00027185  0.00210944  0.59160324  1
  Ti  Ti178  1  0.39889152  0.60747029  0.39396240  1
  Ti  Ti179  1  0.50408708  0.49192490  0.90686267  1
  Ti  Ti180  1  0.80247655  0.20457415  0.80449271  1
  Ti  Ti181  1  0.00626736  0.21005485  0.20306791  1
  Ti  Ti182  1  0.90675778  0.89733356  0.91172102  1
  Ti  Ti183  1  0.18920785  0.00194738  0.20830001  1
  Ti  Ti184  1  0.19747203  0.60397389  0.38963790  1
  Ti  Ti185  1  0.38159215  0.80965819  0.80605632  1
  Ti  Ti186  1  0.61509647  0.21189200  0.19496217  1
  Ti  Ti187  1  0.29491811  0.69147001  0.10607024  1
  Ti  Ti188  1  0.50412436  0.70385050  0.49730695  1
  Ti  Ti189  1  0.79418840  0.40509599  0.59979060  1
  Ti  Ti190  1  0.70608456  0.30933993  0.08645296  1
  Ti  Ti191  1  0.79028718  0.39364550  0.39964106  1
  Ti  Ti192  1  0.40081592  0.20052976  -0.00782273  1
  Ti  Ti193  1  0.70124515  0.89568454  0.90651706  1
  Ti  Ti194  1  0.20045646  0.79360006  0.21021318  1
  Ti  Ti195  1  0.19559655  0.20258896  0.00692487  1
  Ti  Ti196  1  0.61152679  0.80558456  0.80071962  1
  Ti  Ti197  1  0.78968357  0.39376911  0.20238628  1
  Ti  Ti198  1  0.40959687  0.21644787  0.20776196  1
  Ti  Ti199  1  -0.00714436  0.39918782  0.80747798  1
  Mo  Mo200  1  0.80362123  0.00687365  0.19845354  1
  Mo  Mo201  1  0.39932062  0.21036434  0.81112954  1
  Mo  Mo202  1  0.69957846  0.89774069  0.69278866  1
  Mo  Mo203  1  0.00364462  -0.00243682  0.00202995  1
  Mo  Mo204  1  0.70039606  0.90456858  0.31848151  1
  Mo  Mo205  1  0.40372885  0.19925471  0.58817862  1
  Mo  Mo206  1  0.29630037  0.89230581  0.90240330  1
  Mo  Mo207  1  0.90076415  0.89868331  0.50467889  1
  Mo  Mo208  1  0.79960359  0.39823423  0.00258777  1
  Mo  Mo209  1  0.79817993  0.20338068  0.00149193  1
  Mo  Mo210  1  0.60219195  0.59340214  0.19892329  1
  Mo  Mo211  1  0.88930360  0.50201295  0.49591311  1
  Mo  Mo212  1  0.80536192  0.80796602  -0.00015921  1
  Mo  Mo213  1  0.19560630  0.80022808  0.40145985  1
  Mo  Mo214  1  0.48064740  0.89921090  0.10269029  1
  Mo  Mo215  1  0.09512812  0.29764204  0.10753773  1
  Mo  Mo216  1  0.29677306  0.69699733  0.29951046  1
  Mo  Mo217  1  0.50974256  0.89699528  0.49582860  1
  Mo  Mo218  1  0.60697131  0.39907649  0.41464830  1
  Mo  Mo219  1  0.00539366  0.39380421  0.20010355  1
  Mo  Mo220  1  0.09361503  0.49820104  0.10472336  1
  Mo  Mo221  1  0.60291862  0.40041803  -0.00479623  1
  Mo  Mo222  1  0.20146456  0.39529431  0.79159510  1
  Mo  Mo223  1  0.09126716  0.10414231  0.50118926  1
  Mo  Mo224  1  0.00227010  0.00806131  0.20183181  1
  Mo  Mo225  1  0.09594151  0.29959680  0.29936698  1
  Mo  Mo226  1  0.50030502  0.89220146  0.30016134  1
  Mo  Mo227  1  0.60194900  0.40401639  0.18176568  1
  Mo  Mo228  1  0.70544011  0.70465623  0.49837868  1
  Mo  Mo229  1  0.19207776  0.79975587  0.80066055  1
  Mo  Mo230  1  0.49210394  0.49784865  0.09740132  1
  Mo  Mo231  1  0.70298169  0.29662745  0.89787656  1
  Mo  Mo232  1  0.89768575  0.11266882  0.90274482  1
  Mo  Mo233  1  0.60245584  -0.01011051  0.40067708  1
  Mo  Mo234  1  0.09845463  0.29788369  0.69165671  1
  Mo  Mo235  1  0.00937277  0.39921771  0.39770314  1
  Mo  Mo236  1  0.39139232  0.59990885  0.20124348  1
  Mo  Mo237  1  0.70988511  0.29999647  0.29453243  1
  Mo  Mo238  1  0.51141697  0.09914488  0.69969646  1
  Mo  Mo239  1  0.41204208  -0.01899021  0.20687455  1
  Mo  Mo240  1  0.29958177  0.89564466  0.70674217  1
  Mo  Mo241  1  0.70347506  0.49530527  0.69687577  1
  Mo  Mo242  1  0.19665625  0.60192191  0.01178951  1
  Mo  Mo243  1  0.80137015  0.80205276  0.40338758  1
  Mo  Mo244  1  0.19333806  0.60256484  0.59927837  1
  Mo  Mo245  1  0.71860910  0.90484879  0.08065321  1
  Mo  Mo246  1  0.90054359  0.10347851  0.49411878  1
  Mo  Mo247  1  0.00307064  0.80423512  0.19858190  1
  Mo  Mo248  1  0.90464390  0.49431874  0.90226734  1
  Mo  Mo249  1  0.10352074  0.90302794  0.30120026  1
