# generated using pymatgen
data_HfZrTaTiMo
_symmetry_space_group_name_H-M   'P 1'
_cell_length_a   16.90201307
_cell_length_b   16.87879046
_cell_length_c   16.88494151
_cell_angle_alpha   89.94600825
_cell_angle_beta   90.07790934
_cell_angle_gamma   90.02336223
_symmetry_Int_Tables_number   1
_chemical_formula_structural   HfZrTaTiMo
_chemical_formula_sum   'Hf50 Zr50 Ta50 Ti50 Mo50'
_cell_volume   4817.02261748
_cell_formula_units_Z   50
loop_
 _symmetry_equiv_pos_site_id
 _symmetry_equiv_pos_as_xyz
  1  'x, y, z'
loop_
 _atom_site_type_symbol
 _atom_site_label
 _atom_site_symmetry_multiplicity
 _atom_site_fract_x
 _atom_site_fract_y
 _atom_site_fract_z
 _atom_site_occupancy
  Hf  Hf0  1  0.40712526  0.40233276  0.80090895  1
  Hf  Hf1  1  0.40845570  0.20505871  0.79690054  1
  Hf  Hf2  1  0.78914350  0.19457708  0.39101648  1
  Hf  Hf3  1  0.00058162  0.00839911  0.59406630  1
  Hf  Hf4  1  0.59716178  0.79796196  0.20519619  1
  Hf  Hf5  1  0.09033456  0.49820523  0.89816710  1
  Hf  Hf6  1  0.49498317  0.89917785  0.69658053  1
  Hf  Hf7  1  0.90025016  0.69799390  0.29471007  1
  Hf  Hf8  1  0.80318535  0.19510022  0.80998243  1
  Hf  Hf9  1  0.59928915  0.79858246  0.81136870  1
  Hf  Hf10  1  0.80254661  0.39890164  -0.00569204  1
  Hf  Hf11  1  0.69694785  0.30603083  0.49689619  1
  Hf  Hf12  1  -0.00260615  0.00334483  0.81019708  1
  Hf  Hf13  1  -0.00124664  0.00380361  0.19639400  1
  Hf  Hf14  1  0.20119312  0.79625911  0.20341941  1
  Hf  Hf15  1  0.70085808  0.68843006  0.70709062  1
  Hf  Hf16  1  0.08982033  0.50146040  0.09899810  1
  Hf  Hf17  1  0.30098939  0.89684514  0.90645694  1
  Hf  Hf18  1  0.70333678  0.89661252  0.30145388  1
  Hf  Hf19  1  0.59722995  0.00225078  0.19839125  1
  Hf  Hf20  1  0.60504071  -0.00169260  0.59858394  1
  Hf  Hf21  1  0.70925810  0.90285534  0.70409039  1
  Hf  Hf22  1  0.69968221  0.49826505  0.69440847  1
  Hf  Hf23  1  0.10125098  0.29831995  0.70253136  1
  Hf  Hf24  1  0.00082689  0.39852277  0.40248299  1
  Hf  Hf25  1  0.69727253  0.69381897  0.49770502  1
  Hf  Hf26  1  0.30815499  0.50522612  0.10398369  1
  Hf  Hf27  1  0.69293649  0.29069994  0.69983893  1
  Hf  Hf28  1  0.79758605  0.40254680  0.20192589  1
  Hf  Hf29  1  0.60191555  -0.00438636  0.00183618  1
  Hf  Hf30  1  0.70383250  0.51366381  0.88934471  1
  Hf  Hf31  1  0.10005981  0.89655036  0.49682803  1
  Hf  Hf32  1  0.10187502  0.11196033  0.70529821  1
  Hf  Hf33  1  0.10275950  0.90508851  0.30208736  1
  Hf  Hf34  1  0.00978185  0.79108120  0.20197240  1
  Hf  Hf35  1  0.88815849  0.49335411  0.50204884  1
  Hf  Hf36  1  0.21489539  0.59753007  0.79465401  1
  Hf  Hf37  1  0.29733526  0.90721651  0.10023388  1
  Hf  Hf38  1  0.60726306  0.80103418  -0.00790640  1
  Hf  Hf39  1  0.89696116  0.09660101  0.70096163  1
  Hf  Hf40  1  0.59671795  0.19885014  0.20596871  1
  Hf  Hf41  1  0.90366688  0.70224072  0.49585100  1
  Hf  Hf42  1  0.09256523  0.49599440  0.70645245  1
  Hf  Hf43  1  0.20450790  0.40504067  -0.00511680  1
  Hf  Hf44  1  0.59404189  0.00631215  0.39338299  1
  Hf  Hf45  1  0.49026631  0.69776132  0.09891365  1
  Hf  Hf46  1  0.30762993  0.29913698  0.10273917  1
  Hf  Hf47  1  0.09396232  0.30913239  0.09716226  1
  Hf  Hf48  1  0.20711090  0.59105301  0.59757165  1
  Hf  Hf49  1  0.31572797  0.30007531  0.91124690  1
  Zr  Zr50  1  0.58798570  0.40379018  -0.00899285  1
  Zr  Zr51  1  0.89653298  0.29995978  0.09707127  1
  Zr  Zr52  1  0.89844367  0.88844653  0.09865938  1
  Zr  Zr53  1  0.19608589  0.19590213  0.00429535  1
  Zr  Zr54  1  0.21024487  0.00562934  0.39939093  1
  Zr  Zr55  1  0.20529897  0.40090618  0.60149324  1
  Zr  Zr56  1  -0.00078647  0.00638978  -0.00063865  1
  Zr  Zr57  1  0.80056813  0.39605029  0.80549887  1
  Zr  Zr58  1  0.50747017  0.10130886  0.69982765  1
  Zr  Zr59  1  0.19793227  0.61791208  0.20609088  1
  Zr  Zr60  1  0.10019982  0.50244103  0.29068773  1
  Zr  Zr61  1  0.88239066  0.30555153  0.49686751  1
  Zr  Zr62  1  -0.00355202  0.02334168  0.40548316  1
  Zr  Zr63  1  0.09658095  0.70292304  0.89980532  1
  Zr  Zr64  1  0.12735978  0.12891960  0.49641116  1
  Zr  Zr65  1  0.39769901  0.39103973  0.59891977  1
  Zr  Zr66  1  0.20166819  0.60292855  -0.00205728  1
  Zr  Zr67  1  0.88466048  0.91403429  0.49890356  1
  Zr  Zr68  1  0.71095045  0.08291940  0.49521543  1
  Zr  Zr69  1  0.69934297  0.50092625  0.10050939  1
  Zr  Zr70  1  0.39536265  0.79134220  0.78941538  1
  Zr  Zr71  1  0.90039726  0.30082184  0.69757268  1
  Zr  Zr72  1  0.40818089  0.19936567  0.39785333  1
  Zr  Zr73  1  0.20598960  -0.00101186  0.79676007  1
  Zr  Zr74  1  0.09948942  0.70253705  0.49924019  1
  Zr  Zr75  1  0.59380081  0.79378846  0.60002657  1
  Zr  Zr76  1  0.39279405  0.79139591  0.21249677  1
  Zr  Zr77  1  0.00197970  0.59284285  0.39392051  1
  Zr  Zr78  1  0.90050879  0.89846761  0.30454678  1
  Zr  Zr79  1  0.80041569  0.79761450  0.60212680  1
  Zr  Zr80  1  0.58142868  0.61245774  0.80536381  1
  Zr  Zr81  1  0.10580614  0.29553642  0.30332287  1
  Zr  Zr82  1  0.20079665  0.40391039  0.41305424  1
  Zr  Zr83  1  0.69724615  0.49421329  0.49975136  1
  Zr  Zr84  1  -0.00021662  0.19860562  0.19653809  1
  Zr  Zr85  1  0.60523787  -0.00540808  0.80955735  1
  Zr  Zr86  1  0.41082389  0.39783440  0.20798918  1
  Zr  Zr87  1  0.09921778  0.90138834  0.69958869  1
  Zr  Zr88  1  0.30688564  0.09695440  0.90474696  1
  Zr  Zr89  1  -0.00289732  0.20351976  0.58274465  1
  Zr  Zr90  1  0.58855061  0.39353160  0.80427465  1
  Zr  Zr91  1  0.50258010  0.51013166  0.68787835  1
  Zr  Zr92  1  0.60129214  0.60978303  -0.00453330  1
  Zr  Zr93  1  0.09554144  0.29959672  0.89274407  1
  Zr  Zr94  1  0.49775887  0.29777561  0.09881465  1
  Zr  Zr95  1  0.09853001  0.69877047  0.69642337  1
  Zr  Zr96  1  0.31184819  0.50943998  0.30724396  1
  Zr  Zr97  1  0.48740031  0.89777944  0.09369642  1
  Zr  Zr98  1  0.31048168  0.89938822  0.49658052  1
  Zr  Zr99  1  0.59643061  0.59751829  0.20167868  1
  Ta  Ta100  1  0.70336886  0.10421111  0.09964435  1
  Ta  Ta101  1  0.20583943  0.79846242  0.79248045  1
  Ta  Ta102  1  0.21883398  0.40404224  0.79722634  1
  Ta  Ta103  1  0.89683033  0.49801806  0.69779349  1
  Ta  Ta104  1  0.90501997  0.50538507  0.09803281  1
  Ta  Ta105  1  0.79947379  0.59506976  0.39331528  1
  Ta  Ta106  1  0.49703042  0.89814662  0.49418156  1
  Ta  Ta107  1  0.09973370  0.89143584  0.90577279  1
  Ta  Ta108  1  0.80309674  0.60657198  -0.00187792  1
  Ta  Ta109  1  0.50256380  0.49764116  0.31215954  1
  Ta  Ta110  1  0.79731589  0.79409700  0.39735095  1
  Ta  Ta111  1  0.70287649  0.69591752  0.29848706  1
  Ta  Ta112  1  0.69527241  0.49715893  0.30563191  1
  Ta  Ta113  1  0.59037675  0.39357784  0.59269864  1
  Ta  Ta114  1  0.69915584  0.29360176  0.09883466  1
  Ta  Ta115  1  0.49928725  0.09492255  0.90357415  1
  Ta  Ta116  1  -0.00640990  0.80313436  0.60344389  1
  Ta  Ta117  1  -0.01392623  0.60421390  0.79572983  1
  Ta  Ta118  1  0.89167034  0.29925868  0.29942172  1
  Ta  Ta119  1  0.20564316  0.79328077  0.39334140  1
  Ta  Ta120  1  0.69487377  0.28827621  0.90740611  1
  Ta  Ta121  1  0.89786921  0.90196886  0.70515514  1
  Ta  Ta122  1  0.59564352  0.20059365  0.39725940  1
  Ta  Ta123  1  0.88603557  0.10636601  0.09834783  1
  Ta  Ta124  1  0.59600438  0.19211710  0.00286231  1
  Ta  Ta125  1  0.70854431  0.89543234  0.10273261  1
  Ta  Ta126  1  0.79284521  0.18874114  0.60102197  1
  Ta  Ta127  1  0.90032701  0.89327764  0.90096341  1
  Ta  Ta128  1  0.10368987  0.89915397  0.09589568  1
  Ta  Ta129  1  0.59822393  0.60081258  0.40020591  1
  Ta  Ta130  1  0.19408833  0.00218634  0.00102833  1
  Ta  Ta131  1  0.30297350  0.90790346  0.29761847  1
  Ta  Ta132  1  0.21237905  0.80150654  0.60252331  1
  Ta  Ta133  1  0.10867713  0.10414854  0.29544600  1
  Ta  Ta134  1  0.71375171  0.70621835  0.10642700  1
  Ta  Ta135  1  0.30943652  0.10488491  0.50871030  1
  Ta  Ta136  1  0.80540492  0.60107415  0.60341862  1
  Ta  Ta137  1  0.88994570  0.10527026  0.29467530  1
  Ta  Ta138  1  0.20943022  0.00270474  0.60330307  1
  Ta  Ta139  1  0.30540886  0.29708431  0.30097665  1
  Ta  Ta140  1  0.30562095  0.69686173  0.49590968  1
  Ta  Ta141  1  0.29364984  0.28039786  0.50353353  1
  Ta  Ta142  1  0.89991135  0.70357551  0.90156123  1
  Ta  Ta143  1  -0.01052353  0.19637204  -0.00979547  1
  Ta  Ta144  1  -0.00578240  0.79902399  0.79793334  1
  Ta  Ta145  1  0.20706655  0.19817114  0.19812563  1
  Ta  Ta146  1  0.69953182  0.10122047  0.90438052  1
  Ta  Ta147  1  0.79848033  -0.00084957  -0.00271215  1
  Ta  Ta148  1  0.00742618  0.40244462  0.59066578  1
  Ta  Ta149  1  0.79538480  0.00437128  0.19841465  1
  Ti  Ti150  1  0.19809584  0.79798005  0.00401077  1
  Ti  Ti151  1  0.49736496  0.69426972  0.50094688  1
  Ti  Ti152  1  0.40298861  0.00759290  0.19764278  1
  Ti  Ti153  1  0.49165541  0.68674118  0.30639987  1
  Ti  Ti154  1  0.79799688  0.79802945  -0.00569603  1
  Ti  Ti155  1  0.60286395  0.19336607  0.59029939  1
  Ti  Ti156  1  0.47689801  0.70360968  0.91285053  1
  Ti  Ti157  1  0.30284202  0.09516121  0.10507137  1
  Ti  Ti158  1  0.41127639  0.38780199  0.40932747  1
  Ti  Ti159  1  -0.01269077  0.39610848  0.80691953  1
  Ti  Ti160  1  0.39659308  -0.00051192  0.79494451  1
  Ti  Ti161  1  0.10222756  0.10763360  0.89374360  1
  Ti  Ti162  1  0.48918844  0.50625105  0.09539238  1
  Ti  Ti163  1  0.30666530  0.10885824  0.69211044  1
  Ti  Ti164  1  0.48210665  0.90207985  0.90597431  1
  Ti  Ti165  1  0.39762344  -0.00111711  0.60134503  1
  Ti  Ti166  1  0.90108030  0.50501621  0.90038979  1
  Ti  Ti167  1  -0.00870005  0.60431066  -0.00254285  1
  Ti  Ti168  1  0.10551839  0.09721435  0.10416109  1
  Ti  Ti169  1  0.39650797  0.79373721  0.60102103  1
  Ti  Ti170  1  0.08938069  0.69988461  0.09152879  1
  Ti  Ti171  1  0.49198682  0.90006918  0.30503251  1
  Ti  Ti172  1  0.39594679  0.60552293  0.79213847  1
  Ti  Ti173  1  0.19928826  0.60176858  0.40374955  1
  Ti  Ti174  1  0.69946926  0.89803351  0.49227020  1
  Ti  Ti175  1  0.39966201  0.79325561  0.39868813  1
  Ti  Ti176  1  0.21613082  0.20950557  0.79681792  1
  Ti  Ti177  1  0.80501029  0.59469891  0.20081823  1
  Ti  Ti178  1  0.39785416  0.60826600  0.60451788  1
  Ti  Ti179  1  0.30135089  0.70329005  0.90537511  1
  Ti  Ti180  1  0.31050361  0.69702368  0.09302868  1
  Ti  Ti181  1  0.20498084  0.39890741  0.20169602  1
  Ti  Ti182  1  0.50240679  0.50329259  0.49638725  1
  Ti  Ti183  1  0.49534639  0.09918958  0.50564141  1
  Ti  Ti184  1  0.69397432  0.30673589  0.30112485  1
  Ti  Ti185  1  0.59622268  0.39953460  0.20316831  1
  Ti  Ti186  1  -0.01102437  0.40551099  0.20642185  1
  Ti  Ti187  1  0.31793732  0.50536275  0.90563918  1
  Ti  Ti188  1  -0.00516422  0.59688961  0.60156582  1
  Ti  Ti189  1  0.30101723  0.10085379  0.29140384  1
  Ti  Ti190  1  -0.00482321  0.20360378  0.39940336  1
  Ti  Ti191  1  0.80290224  0.79360799  0.80475580  1
  Ti  Ti192  1  0.79941106  0.00086545  0.81004673  1
  Ti  Ti193  1  0.41022006  0.18574059  0.00993649  1
  Ti  Ti194  1  0.50601305  0.28904362  0.69073414  1
  Ti  Ti195  1  0.89918675  0.69917197  0.09958598  1
  Ti  Ti196  1  0.40336346  0.00545401  0.39771416  1
  Ti  Ti197  1  0.31884121  0.50708094  0.49517026  1
  Ti  Ti198  1  0.59432409  0.79492680  0.39766295  1
  Ti  Ti199  1  0.49205143  0.10403020  0.29165916  1
  Mo  Mo200  1  0.89996581  0.70014411  0.70080846  1
  Mo  Mo201  1  0.71684654  0.89934577  0.90288709  1
  Mo  Mo202  1  0.79308678  0.39997970  0.61123425  1
  Mo  Mo203  1  0.40936432  0.60284193  0.40917468  1
  Mo  Mo204  1  0.59693235  0.59757742  0.59193717  1
  Mo  Mo205  1  0.00395550  0.79566176  0.40149953  1
  Mo  Mo206  1  0.90076813  0.29460301  0.90320760  1
  Mo  Mo207  1  0.81334221  0.60279965  0.79974791  1
  Mo  Mo208  1  0.40519130  0.19756945  0.59934716  1
  Mo  Mo209  1  0.30022082  0.69948396  0.68957331  1
  Mo  Mo210  1  0.48770296  0.51742199  0.90244500  1
  Mo  Mo211  1  0.40518973  0.41101235  -0.00348778  1
  Mo  Mo212  1  0.39766911  0.60277229  -0.00171361  1
  Mo  Mo213  1  0.30230913  0.69974963  0.31500774  1
  Mo  Mo214  1  0.30227069  0.90169037  0.69429454  1
  Mo  Mo215  1  0.78967564  0.20264177  0.20102794  1
  Mo  Mo216  1  0.49893917  0.09673681  0.10068987  1
  Mo  Mo217  1  0.89081993  0.10428906  0.49394166  1
  Mo  Mo218  1  -0.00795649  0.40385083  -0.00558501  1
  Mo  Mo219  1  0.79922844  0.79503209  0.20075292  1
  Mo  Mo220  1  0.09910443  0.70400365  0.30799858  1
  Mo  Mo221  1  0.40262982  0.59904260  0.20718432  1
  Mo  Mo222  1  0.71659226  0.70467887  0.90065592  1
  Mo  Mo223  1  0.00003239  0.79779948  -0.00082758  1
  Mo  Mo224  1  0.89417057  0.49800432  0.29319710  1
  Mo  Mo225  1  0.79338750  0.19752399  0.00170291  1
  Mo  Mo226  1  0.38940875  0.79845881  -0.00089876  1
  Mo  Mo227  1  0.79685705  -0.00143744  0.38306266  1
  Mo  Mo228  1  0.30400062  0.29981104  0.70331936  1
  Mo  Mo229  1  0.21231877  0.20328433  0.61682864  1
  Mo  Mo230  1  0.10937810  0.30465698  0.49882814  1
  Mo  Mo231  1  0.79898173  0.00104915  0.61527924  1
  Mo  Mo232  1  0.30800769  0.50247428  0.70234497  1
  Mo  Mo233  1  0.50493966  0.29191555  0.50248111  1
  Mo  Mo234  1  0.39824399  0.00388710  0.00100856  1
  Mo  Mo235  1  0.79498732  0.40132512  0.38390904  1
  Mo  Mo236  1  0.21553672  0.20102875  0.38517321  1
  Mo  Mo237  1  0.50300815  0.28056299  0.90488483  1
  Mo  Mo238  1  0.50500784  0.30346553  0.30650078  1
  Mo  Mo239  1  0.49576239  0.70105290  0.68789984  1
  Mo  Mo240  1  0.09323974  0.50331878  0.50615723  1
  Mo  Mo241  1  -0.00561655  0.19858928  0.81258267  1
  Mo  Mo242  1  0.19987611  0.00535758  0.19569490  1
  Mo  Mo243  1  0.69701171  0.09775246  0.29350044  1
  Mo  Mo244  1  0.89286324  0.09599290  0.90539971  1
  Mo  Mo245  1  0.70392648  0.09876354  0.70421839  1
  Mo  Mo246  1  0.59266970  0.39880469  0.39825751  1
  Mo  Mo247  1  0.39835858  0.19255594  0.20249747  1
  Mo  Mo248  1  0.60018062  0.19657340  0.81089131  1
  Mo  Mo249  1  -0.00499373  0.60339443  0.18980141  1
