# generated using pymatgen
data_HfZrTaTiMo
_symmetry_space_group_name_H-M   'P 1'
_cell_length_a   16.88901736
_cell_length_b   16.87762842
_cell_length_c   16.89242105
_cell_angle_alpha   89.98311283
_cell_angle_beta   89.95063189
_cell_angle_gamma   90.01643921
_symmetry_Int_Tables_number   1
_chemical_formula_structural   HfZrTaTiMo
_chemical_formula_sum   'Hf50 Zr50 Ta50 Ti50 Mo50'
_cell_volume   4815.12430633
_cell_formula_units_Z   50
loop_
 _symmetry_equiv_pos_site_id
 _symmetry_equiv_pos_as_xyz
  1  'x, y, z'
loop_
 _atom_site_type_symbol
 _atom_site_label
 _atom_site_symmetry_multiplicity
 _atom_site_fract_x
 _atom_site_fract_y
 _atom_site_fract_z
 _atom_site_occupancy
  Hf  Hf0  1  0.70576537  0.09410119  0.09951210  1
  Hf  Hf1  1  0.29401510  0.09737476  0.49752280  1
  Hf  Hf2  1  0.70702610  0.90110078  0.29659022  1
  Hf  Hf3  1  0.20128035  0.79238034  0.20432430  1
  Hf  Hf4  1  0.20148082  0.80538075  0.78670524  1
  Hf  Hf5  1  0.50312362  0.30297091  0.89328451  1
  Hf  Hf6  1  0.89827307  0.50098867  0.50427516  1
  Hf  Hf7  1  0.80104315  0.78936816  0.19657819  1
  Hf  Hf8  1  0.40785616  0.59613861  0.60436427  1
  Hf  Hf9  1  0.69896522  0.89154209  0.49215547  1
  Hf  Hf10  1  0.48640913  0.28589890  0.10519649  1
  Hf  Hf11  1  0.01316686  0.80607151  0.60214945  1
  Hf  Hf12  1  0.50240667  0.48742230  0.30870928  1
  Hf  Hf13  1  0.59942989  0.00174251  0.59919680  1
  Hf  Hf14  1  0.59357427  0.19035414  -0.00487837  1
  Hf  Hf15  1  0.30768380  0.70214281  0.08960580  1
  Hf  Hf16  1  0.60222379  0.79833072  0.19691627  1
  Hf  Hf17  1  0.00494719  0.01228471  0.39710844  1
  Hf  Hf18  1  0.59253243  0.18729467  0.20786213  1
  Hf  Hf19  1  0.30149813  0.90759579  0.30230612  1
  Hf  Hf20  1  0.40167993  0.60249743  0.40202759  1
  Hf  Hf21  1  -0.00098941  0.00799412  -0.00460432  1
  Hf  Hf22  1  -0.00450463  0.39553033  0.60670839  1
  Hf  Hf23  1  0.79913601  0.59393581  0.20249269  1
  Hf  Hf24  1  0.89707263  0.69591916  0.69402570  1
  Hf  Hf25  1  0.10643773  0.90031205  0.90214290  1
  Hf  Hf26  1  0.50990758  0.70250813  0.50504682  1
  Hf  Hf27  1  0.09735263  0.28178012  0.50695661  1
  Hf  Hf28  1  0.29869750  0.50406594  0.10055260  1
  Hf  Hf29  1  0.30849300  0.10441837  0.09777457  1
  Hf  Hf30  1  0.00498543  0.79637154  0.79293221  1
  Hf  Hf31  1  0.40503352  0.20635621  0.60480907  1
  Hf  Hf32  1  0.81194161  0.00855687  -0.00285191  1
  Hf  Hf33  1  0.60063798  0.39874872  0.00369845  1
  Hf  Hf34  1  0.90201894  0.89840448  0.10592124  1
  Hf  Hf35  1  0.50288076  0.50785078  0.90244443  1
  Hf  Hf36  1  0.69989325  0.69664785  0.50175442  1
  Hf  Hf37  1  0.29957661  0.28931194  0.49440246  1
  Hf  Hf38  1  -0.00722720  0.40278714  0.21334799  1
  Hf  Hf39  1  0.39672969  0.79448850  0.39728307  1
  Hf  Hf40  1  0.19671336  0.00882304  0.20553809  1
  Hf  Hf41  1  0.79860875  0.00856352  0.59406943  1
  Hf  Hf42  1  0.60558971  0.79824696  0.00527349  1
  Hf  Hf43  1  0.31163691  0.90257472  0.09406318  1
  Hf  Hf44  1  0.59578755  0.00047110  0.19905316  1
  Hf  Hf45  1  0.70122091  0.49548636  0.51334682  1
  Hf  Hf46  1  0.60554300  0.39695264  0.20367798  1
  Hf  Hf47  1  0.70097561  0.90254264  0.90957782  1
  Hf  Hf48  1  0.40219503  0.39929490  0.79174082  1
  Hf  Hf49  1  0.20298850  0.20279426  0.20309619  1
  Zr  Zr50  1  0.58867544  -0.00509890  0.80093102  1
  Zr  Zr51  1  0.19987596  0.80540260  0.59954694  1
  Zr  Zr52  1  0.09293239  0.51279231  0.30467338  1
  Zr  Zr53  1  0.39937550  0.60769654  0.21468996  1
  Zr  Zr54  1  0.59831795  0.79983187  0.80328139  1
  Zr  Zr55  1  0.89750964  0.49285331  0.09530766  1
  Zr  Zr56  1  0.49382409  0.69849863  0.90360669  1
  Zr  Zr57  1  0.09448369  0.29972380  0.09962110  1
  Zr  Zr58  1  0.81166978  0.00594107  0.40249654  1
  Zr  Zr59  1  0.89883276  0.30298052  0.10195280  1
  Zr  Zr60  1  0.79429281  0.78981773  0.80442016  1
  Zr  Zr61  1  0.79783345  0.59905625  0.80410123  1
  Zr  Zr62  1  0.49515643  0.09507049  0.69857711  1
  Zr  Zr63  1  0.29727656  0.50341904  0.70299904  1
  Zr  Zr64  1  -0.00756212  0.21398034  0.79907264  1
  Zr  Zr65  1  0.19659476  0.39958702  0.59975038  1
  Zr  Zr66  1  0.49390976  0.28789394  0.30809335  1
  Zr  Zr67  1  0.60914286  0.59897757  0.20223957  1
  Zr  Zr68  1  0.89748689  0.69926203  0.50129338  1
  Zr  Zr69  1  0.09618790  0.89758403  0.10279924  1
  Zr  Zr70  1  0.49659207  0.69635501  0.08993465  1
  Zr  Zr71  1  0.69452672  0.10133443  0.89343851  1
  Zr  Zr72  1  0.00098392  0.80650229  0.39862271  1
  Zr  Zr73  1  0.49553439  0.50353068  0.09816604  1
  Zr  Zr74  1  0.20030839  0.79711800  0.40003869  1
  Zr  Zr75  1  0.70684830  0.29921925  0.10103682  1
  Zr  Zr76  1  0.29974994  0.09726728  0.70077988  1
  Zr  Zr77  1  0.19956243  0.39587328  0.19855234  1
  Zr  Zr78  1  0.11511727  0.10153196  0.89893078  1
  Zr  Zr79  1  0.10384901  0.11408267  0.68300968  1
  Zr  Zr80  1  0.10865192  0.69521686  0.89290648  1
  Zr  Zr81  1  0.80001953  0.20495937  0.21073555  1
  Zr  Zr82  1  0.30234254  0.49732277  0.50230573  1
  Zr  Zr83  1  0.18888659  0.59682972  0.00199108  1
  Zr  Zr84  1  -0.00290026  0.20361366  -0.01150651  1
  Zr  Zr85  1  0.00185375  0.00302086  0.79197890  1
  Zr  Zr86  1  0.19381868  0.39594718  0.39751980  1
  Zr  Zr87  1  0.20400279  0.21010378  0.80331451  1
  Zr  Zr88  1  0.59602919  0.80934399  0.60909509  1
  Zr  Zr89  1  0.10224947  0.50571229  0.70805364  1
  Zr  Zr90  1  0.89994883  0.88681586  0.90237214  1
  Zr  Zr91  1  -0.00175885  0.00627028  0.58894050  1
  Zr  Zr92  1  0.80693923  0.00733327  0.79761457  1
  Zr  Zr93  1  0.20648620  0.61240433  0.39988417  1
  Zr  Zr94  1  0.59933808  0.00713459  0.39660974  1
  Zr  Zr95  1  0.70206861  0.30208915  0.89052124  1
  Zr  Zr96  1  0.50910424  0.30356920  0.49132431  1
  Zr  Zr97  1  0.80044132  0.59080566  0.39200388  1
  Zr  Zr98  1  0.70515646  0.30610020  0.69943898  1
  Zr  Zr99  1  0.38878423  0.39530969  0.00122281  1
  Ta  Ta100  1  -0.00382013  0.59891570  -0.00532237  1
  Ta  Ta101  1  0.89836335  0.49958970  0.89853724  1
  Ta  Ta102  1  -0.01004513  0.19539509  0.40333827  1
  Ta  Ta103  1  0.90296650  0.10332615  0.10905758  1
  Ta  Ta104  1  0.49610455  0.90307356  0.09488088  1
  Ta  Ta105  1  0.70687163  0.90280150  0.70147003  1
  Ta  Ta106  1  0.09650351  0.90333364  0.29577837  1
  Ta  Ta107  1  0.39847201  -0.01238073  0.59819103  1
  Ta  Ta108  1  0.49958507  0.89750676  0.30174532  1
  Ta  Ta109  1  0.89214554  0.49999835  0.69740347  1
  Ta  Ta110  1  0.90885233  0.69462596  0.29839423  1
  Ta  Ta111  1  0.80060861  0.20208029  0.40584994  1
  Ta  Ta112  1  0.70737262  0.90390531  0.09744327  1
  Ta  Ta113  1  0.19529514  0.61277090  0.60247107  1
  Ta  Ta114  1  0.60072721  0.39857520  0.60797472  1
  Ta  Ta115  1  0.89655070  0.89905200  0.69319321  1
  Ta  Ta116  1  0.70907582  0.49928234  0.09213572  1
  Ta  Ta117  1  0.49647301  0.10418981  0.49580325  1
  Ta  Ta118  1  0.38792623  0.38824209  0.20332900  1
  Ta  Ta119  1  0.60275677  0.20435986  0.59869363  1
  Ta  Ta120  1  -0.00226624  0.78575226  0.00089142  1
  Ta  Ta121  1  0.19254673  0.40021207  0.81112301  1
  Ta  Ta122  1  0.60399542  0.59288984  0.39986199  1
  Ta  Ta123  1  0.30816789  0.70476427  0.70305370  1
  Ta  Ta124  1  0.69862777  0.70411870  0.30967861  1
  Ta  Ta125  1  -0.00566109  0.39800560  0.40446645  1
  Ta  Ta126  1  0.59137864  0.20215219  0.78956063  1
  Ta  Ta127  1  0.49588606  0.89755435  0.49523484  1
  Ta  Ta128  1  0.30770526  0.10333858  0.30681518  1
  Ta  Ta129  1  0.81146956  0.19825812  -0.01364099  1
  Ta  Ta130  1  0.69347163  0.68683803  0.68806592  1
  Ta  Ta131  1  0.30432217  0.89741509  0.90055105  1
  Ta  Ta132  1  0.89484589  0.11667005  0.69291873  1
  Ta  Ta133  1  0.69213229  0.30041468  0.31854511  1
  Ta  Ta134  1  0.69999613  0.49887830  0.90125204  1
  Ta  Ta135  1  0.30392758  0.70400354  0.89565603  1
  Ta  Ta136  1  0.00432651  0.60062775  0.60367297  1
  Ta  Ta137  1  0.29968930  0.49776397  0.29934693  1
  Ta  Ta138  1  0.49717501  0.70114511  0.70253864  1
  Ta  Ta139  1  0.40114341  0.60214941  0.79828200  1
  Ta  Ta140  1  0.40193832  0.20198704  0.80208419  1
  Ta  Ta141  1  -0.00180981  0.59777874  0.80237604  1
  Ta  Ta142  1  0.19973332  -0.00618216  0.59835559  1
  Ta  Ta143  1  0.09131496  0.29298372  0.30857197  1
  Ta  Ta144  1  0.30712052  0.09007777  0.89963522  1
  Ta  Ta145  1  0.09860139  0.10510818  0.10100529  1
  Ta  Ta146  1  0.29455792  0.50906759  0.89569285  1
  Ta  Ta147  1  0.19425802  0.39930464  -0.00581225  1
  Ta  Ta148  1  -0.00224619  0.40005109  0.80280623  1
  Ta  Ta149  1  0.89250289  0.30299943  0.50417151  1
  Ti  Ti150  1  0.40371924  0.79956594  0.20447635  1
  Ti  Ti151  1  0.39789612  0.19574856  -0.01214208  1
  Ti  Ti152  1  0.30949255  0.70570102  0.51476076  1
  Ti  Ti153  1  0.80663685  0.40078137  0.79686802  1
  Ti  Ti154  1  0.80787978  0.79916219  0.39353053  1
  Ti  Ti155  1  0.19877051  0.79905953  0.00152545  1
  Ti  Ti156  1  0.20413138  0.00239833  0.00422376  1
  Ti  Ti157  1  0.79642291  0.39882253  0.40025927  1
  Ti  Ti158  1  0.08655239  0.70022538  0.29587150  1
  Ti  Ti159  1  0.50885903  0.49527650  0.50161097  1
  Ti  Ti160  1  0.40804620  0.00727750  0.20588604  1
  Ti  Ti161  1  0.39926751  -0.01071148  0.79850546  1
  Ti  Ti162  1  0.20547561  0.20906434  0.00042136  1
  Ti  Ti163  1  0.80522588  0.39550240  -0.01270926  1
  Ti  Ti164  1  0.09359569  0.50040694  0.10144756  1
  Ti  Ti165  1  0.51557069  0.50294690  0.70373183  1
  Ti  Ti166  1  0.70605809  0.10002912  0.30273244  1
  Ti  Ti167  1  0.70749771  0.68827524  0.92204913  1
  Ti  Ti168  1  0.10980707  0.91257881  0.48928339  1
  Ti  Ti169  1  0.29545096  0.30157638  0.69673522  1
  Ti  Ti170  1  0.20332956  -0.00873679  0.78861162  1
  Ti  Ti171  1  0.00251375  0.00855766  0.20282211  1
  Ti  Ti172  1  0.70186254  0.10693072  0.70040133  1
  Ti  Ti173  1  0.40981170  0.39748778  0.60532425  1
  Ti  Ti174  1  0.30234280  0.90283661  0.49737472  1
  Ti  Ti175  1  0.20019314  0.60596612  0.20352393  1
  Ti  Ti176  1  0.49230624  0.08879179  0.08627475  1
  Ti  Ti177  1  0.89407064  0.69506447  0.09038705  1
  Ti  Ti178  1  0.89490897  0.30400889  0.30902847  1
  Ti  Ti179  1  0.79866561  0.20768483  0.59619151  1
  Ti  Ti180  1  0.00782812  0.40291517  -0.01646100  1
  Ti  Ti181  1  0.48922236  0.90237913  0.91186946  1
  Ti  Ti182  1  0.29980400  0.30216667  0.89960875  1
  Ti  Ti183  1  0.39441291  0.39844675  0.39989496  1
  Ti  Ti184  1  0.09123331  0.69210250  0.49584571  1
  Ti  Ti185  1  0.40447955  0.00206909  0.40164350  1
  Ti  Ti186  1  0.79665079  0.80227482  0.60383874  1
  Ti  Ti187  1  0.89657728  0.09906648  0.29464997  1
  Ti  Ti188  1  0.89710151  0.89573746  0.50242577  1
  Ti  Ti189  1  0.00161550  0.19633244  0.21128728  1
  Ti  Ti190  1  0.60578974  0.60141873  0.80039012  1
  Ti  Ti191  1  0.09523092  0.50685109  0.49829162  1
  Ti  Ti192  1  -0.00880566  0.59859518  0.19694055  1
  Ti  Ti193  1  0.51126710  0.70526375  0.30801483  1
  Ti  Ti194  1  0.18537688  0.18338232  0.39434794  1
  Ti  Ti195  1  0.90594473  0.89801205  0.28862310  1
  Ti  Ti196  1  0.30324500  0.28906487  0.30708736  1
  Ti  Ti197  1  0.10164199  0.29835038  0.69730505  1
  Ti  Ti198  1  0.09000857  0.69939795  0.10678191  1
  Ti  Ti199  1  0.69614440  0.11405888  0.49714834  1
  Mo  Mo200  1  0.60701346  0.19466061  0.40356259  1
  Mo  Mo201  1  0.09984870  0.91026557  0.69706622  1
  Mo  Mo202  1  0.39889938  0.80383974  0.79916779  1
  Mo  Mo203  1  0.39961025  0.80403742  0.60131365  1
  Mo  Mo204  1  0.40032526  0.00153110  -0.00733192  1
  Mo  Mo205  1  0.69673053  0.49890060  0.70699648  1
  Mo  Mo206  1  0.20616039  0.60422037  0.79703266  1
  Mo  Mo207  1  0.80112142  0.40006673  0.60456025  1
  Mo  Mo208  1  0.48849254  0.89435290  0.69661960  1
  Mo  Mo209  1  -0.01148213  0.20563002  0.59715740  1
  Mo  Mo210  1  0.60582448  0.40274486  0.40830614  1
  Mo  Mo211  1  0.48975956  0.10014754  0.89448149  1
  Mo  Mo212  1  0.79640475  0.40321436  0.22250254  1
  Mo  Mo213  1  0.30261002  0.70164177  0.29346163  1
  Mo  Mo214  1  0.89344004  0.30688320  0.69706091  1
  Mo  Mo215  1  0.89772445  0.11107191  0.88798374  1
  Mo  Mo216  1  0.90468097  0.69181697  0.90553029  1
  Mo  Mo217  1  0.39518261  0.19306545  0.20306331  1
  Mo  Mo218  1  0.40174192  0.19200953  0.40207698  1
  Mo  Mo219  1  0.59302684  -0.00391477  0.00479198  1
  Mo  Mo220  1  0.60149418  0.40939012  0.79710393  1
  Mo  Mo221  1  0.61474578  0.59600123  0.00122238  1
  Mo  Mo222  1  0.70309219  0.30161624  0.50275418  1
  Mo  Mo223  1  0.49128640  0.09322307  0.30584873  1
  Mo  Mo224  1  0.80130713  0.79118465  0.00836981  1
  Mo  Mo225  1  -0.00175953  0.78755877  0.19753741  1
  Mo  Mo226  1  0.09543704  0.49979500  0.89872491  1
  Mo  Mo227  1  0.30263212  0.90115219  0.70133203  1
  Mo  Mo228  1  0.89674656  0.11492399  0.50269149  1
  Mo  Mo229  1  0.10247625  0.30711933  0.90147466  1
  Mo  Mo230  1  0.00018960  0.59886707  0.40518286  1
  Mo  Mo231  1  0.80435662  0.59432575  -0.00008987  1
  Mo  Mo232  1  0.09483613  0.10390788  0.29706470  1
  Mo  Mo233  1  0.79951658  0.20274680  0.79400320  1
  Mo  Mo234  1  0.89874781  0.49656535  0.30472810  1
  Mo  Mo235  1  0.39843071  0.80610422  -0.00454504  1
  Mo  Mo236  1  0.10127301  0.69443002  0.69684548  1
  Mo  Mo237  1  0.59698990  0.79994108  0.39616200  1
  Mo  Mo238  1  0.89725000  0.31117977  0.89465397  1
  Mo  Mo239  1  0.50441155  0.30359464  0.69845945  1
  Mo  Mo240  1  0.69992755  0.49089231  0.30361267  1
  Mo  Mo241  1  0.59660149  0.59388569  0.60455009  1
  Mo  Mo242  1  0.10167158  0.10021845  0.49484458  1
  Mo  Mo243  1  0.20638842  0.19960703  0.60057113  1
  Mo  Mo244  1  0.29915534  0.29417352  0.09107330  1
  Mo  Mo245  1  0.19903672  0.00056322  0.39898968  1
  Mo  Mo246  1  0.79877950  0.59658402  0.60562356  1
  Mo  Mo247  1  0.70752874  0.69562455  0.09698636  1
  Mo  Mo248  1  0.38733289  0.60036847  -0.01103377  1
  Mo  Mo249  1  0.80617007  0.00062520  0.20010719  1
