# generated using pymatgen
data_HfZrTaTiMo
_symmetry_space_group_name_H-M   'P 1'
_cell_length_a   16.88314762
_cell_length_b   16.88369841
_cell_length_c   16.87794780
_cell_angle_alpha   90.10631271
_cell_angle_beta   90.02214783
_cell_angle_gamma   89.99744034
_symmetry_Int_Tables_number   1
_chemical_formula_structural   HfZrTaTiMo
_chemical_formula_sum   'Hf50 Zr50 Ta50 Ti50 Mo50'
_cell_volume   4811.04990876
_cell_formula_units_Z   50
loop_
 _symmetry_equiv_pos_site_id
 _symmetry_equiv_pos_as_xyz
  1  'x, y, z'
loop_
 _atom_site_type_symbol
 _atom_site_label
 _atom_site_symmetry_multiplicity
 _atom_site_fract_x
 _atom_site_fract_y
 _atom_site_fract_z
 _atom_site_occupancy
  Hf  Hf0  1  0.60418570  0.19770493  0.40620535  1
  Hf  Hf1  1  0.49301002  0.30364459  0.89991997  1
  Hf  Hf2  1  0.09066514  0.08996169  0.70977972  1
  Hf  Hf3  1  0.30693100  0.29480017  0.49868757  1
  Hf  Hf4  1  0.89517997  0.30659124  0.31220947  1
  Hf  Hf5  1  0.60146322  0.19931489  0.79673361  1
  Hf  Hf6  1  0.89480335  0.29711709  0.10105515  1
  Hf  Hf7  1  0.60238847  0.00261083  0.60329278  1
  Hf  Hf8  1  0.59362299  0.19561412  -0.00129520  1
  Hf  Hf9  1  -0.00887391  0.00670595  0.18845694  1
  Hf  Hf10  1  0.09721563  0.30870238  0.89590342  1
  Hf  Hf11  1  0.49697225  0.69556139  0.90213473  1
  Hf  Hf12  1  0.59732373  0.81232215  0.00747056  1
  Hf  Hf13  1  0.10042677  0.08942527  0.50215724  1
  Hf  Hf14  1  0.49557905  0.49133157  0.09425297  1
  Hf  Hf15  1  0.70755972  0.49517563  0.69747834  1
  Hf  Hf16  1  0.00323259  0.39953953  0.60341086  1
  Hf  Hf17  1  0.49922818  0.30541183  0.10706867  1
  Hf  Hf18  1  0.10115679  0.09996703  0.09042798  1
  Hf  Hf19  1  0.89924615  0.90450285  0.49198936  1
  Hf  Hf20  1  0.09366538  0.09631064  0.30492672  1
  Hf  Hf21  1  0.79962145  0.60230894  0.39717917  1
  Hf  Hf22  1  0.70765093  0.90680481  0.49950128  1
  Hf  Hf23  1  0.69883501  0.70362255  0.89719129  1
  Hf  Hf24  1  0.70633075  0.90166812  0.30185207  1
  Hf  Hf25  1  0.60008847  0.39292107  0.59590643  1
  Hf  Hf26  1  0.88748329  0.09402820  0.50530109  1
  Hf  Hf27  1  0.20296372  0.20155866  0.39923150  1
  Hf  Hf28  1  0.19389359  0.20488590  0.60403962  1
  Hf  Hf29  1  0.49325025  0.89731493  0.30048517  1
  Hf  Hf30  1  0.70352199  0.49664972  0.89420607  1
  Hf  Hf31  1  0.29822164  0.09920058  0.09790794  1
  Hf  Hf32  1  0.30297546  0.70681009  0.29704831  1
  Hf  Hf33  1  0.78623019  -0.00720810  0.78349523  1
  Hf  Hf34  1  0.60040520  0.59512762  0.00006804  1
  Hf  Hf35  1  0.49410881  0.29170622  0.69395020  1
  Hf  Hf36  1  0.28887976  0.07909567  0.69872025  1
  Hf  Hf37  1  0.19140159  0.41128055  0.00111636  1
  Hf  Hf38  1  0.19900630  0.21046006  0.79014980  1
  Hf  Hf39  1  0.00556137  0.60154622  0.79971849  1
  Hf  Hf40  1  0.89981196  0.48738499  0.48979498  1
  Hf  Hf41  1  0.79808711  0.79643739  0.60409729  1
  Hf  Hf42  1  0.30890072  0.49634313  0.10191691  1
  Hf  Hf43  1  0.19649359  0.80293520  0.40167934  1
  Hf  Hf44  1  0.28861293  0.70292315  0.69929572  1
  Hf  Hf45  1  0.29600895  0.09353301  0.89926145  1
  Hf  Hf46  1  0.10470095  0.89542013  0.08510665  1
  Hf  Hf47  1  0.19686110  0.20451351  -0.00203162  1
  Hf  Hf48  1  0.28566936  0.90148255  0.51875099  1
  Hf  Hf49  1  0.28980498  0.90017746  0.90600078  1
  Zr  Zr50  1  0.40356683  0.59614324  0.40451165  1
  Zr  Zr51  1  0.90595618  0.88439601  0.09520545  1
  Zr  Zr52  1  0.71637060  0.71472052  0.10688532  1
  Zr  Zr53  1  0.30402542  0.30579266  0.90186978  1
  Zr  Zr54  1  0.90074774  0.89817400  0.30156272  1
  Zr  Zr55  1  0.60667189  0.60445812  0.20386003  1
  Zr  Zr56  1  -0.00361651  0.20434141  0.40845489  1
  Zr  Zr57  1  0.90476733  0.50096328  0.10187989  1
  Zr  Zr58  1  0.59819448  0.00771114  0.40054799  1
  Zr  Zr59  1  0.20242827  0.40492006  0.59960849  1
  Zr  Zr60  1  0.91071276  0.08885099  0.87859982  1
  Zr  Zr61  1  0.39780958  0.80816643  0.79658825  1
  Zr  Zr62  1  0.90234202  0.49575176  0.89239574  1
  Zr  Zr63  1  0.90536858  0.90423454  0.70178359  1
  Zr  Zr64  1  0.70358941  0.49692446  0.50190559  1
  Zr  Zr65  1  0.70906904  0.11459835  0.10396950  1
  Zr  Zr66  1  0.00391243  0.79566709  0.59885884  1
  Zr  Zr67  1  0.49986497  0.49010179  0.28876402  1
  Zr  Zr68  1  0.70067587  0.48717917  0.30246434  1
  Zr  Zr69  1  0.80533700  0.59792049  0.20678754  1
  Zr  Zr70  1  0.79908128  0.00306384  0.19263676  1
  Zr  Zr71  1  0.59774279  0.38985869  0.40348815  1
  Zr  Zr72  1  0.69831759  0.30530241  0.10420407  1
  Zr  Zr73  1  0.09360761  0.90093124  0.30384671  1
  Zr  Zr74  1  0.69602408  0.09686592  0.89327997  1
  Zr  Zr75  1  0.48979360  0.29292368  0.50403177  1
  Zr  Zr76  1  0.10977945  0.69438950  0.50716758  1
  Zr  Zr77  1  -0.00469379  0.20673151  0.60659001  1
  Zr  Zr78  1  0.20196693  0.40078203  0.20723050  1
  Zr  Zr79  1  0.31347897  0.50350023  0.90919241  1
  Zr  Zr80  1  0.39902717  0.80452095  0.00174163  1
  Zr  Zr81  1  0.80902384  0.00161038  0.00152351  1
  Zr  Zr82  1  0.90299357  0.70873518  0.90527809  1
  Zr  Zr83  1  0.20288082  0.40400667  0.39820025  1
  Zr  Zr84  1  0.69716485  0.90204766  0.90048592  1
  Zr  Zr85  1  0.20544576  0.59131325  0.40086797  1
  Zr  Zr86  1  0.40037299  0.59965953  0.79988270  1
  Zr  Zr87  1  0.80619567  0.21014075  -0.02406495  1
  Zr  Zr88  1  -0.00805580  0.19816244  0.19865408  1
  Zr  Zr89  1  0.38993222  0.00006008  0.40698366  1
  Zr  Zr90  1  0.50343655  0.50013887  0.69353647  1
  Zr  Zr91  1  0.48350043  0.10851881  0.50979999  1
  Zr  Zr92  1  -0.00050888  0.59489674  0.59957989  1
  Zr  Zr93  1  0.30374513  0.10510811  0.29937090  1
  Zr  Zr94  1  0.79960326  0.59717550  0.00209660  1
  Zr  Zr95  1  0.20136955  -0.00427102  0.20209936  1
  Zr  Zr96  1  0.01893524  0.60017542  -0.00123754  1
  Zr  Zr97  1  0.60337174  0.81016987  0.20138100  1
  Zr  Zr98  1  0.48934746  0.70049071  0.10739597  1
  Zr  Zr99  1  0.50406429  0.70052393  0.69211017  1
  Ta  Ta100  1  0.40410327  0.19392903  0.00209701  1
  Ta  Ta101  1  0.09479684  0.30893370  0.49543009  1
  Ta  Ta102  1  0.59692122  0.60626091  0.40186652  1
  Ta  Ta103  1  0.59848948  0.39776257  0.79997695  1
  Ta  Ta104  1  0.39370593  0.40790962  0.39917626  1
  Ta  Ta105  1  0.80390596  0.39995971  0.20623867  1
  Ta  Ta106  1  0.59621392  0.00746211  0.19610493  1
  Ta  Ta107  1  0.39946548  0.80063304  0.41037837  1
  Ta  Ta108  1  0.39559337  0.59693693  0.59225595  1
  Ta  Ta109  1  0.40655719  -0.00209369  0.19262289  1
  Ta  Ta110  1  0.40831704  0.00209028  0.00391158  1
  Ta  Ta111  1  0.69593910  0.69985114  0.50422733  1
  Ta  Ta112  1  0.00119017  0.79150760  0.40191672  1
  Ta  Ta113  1  0.40408652  -0.00479591  0.79820152  1
  Ta  Ta114  1  0.70268179  0.29591436  0.69573771  1
  Ta  Ta115  1  0.11261294  0.89348086  0.69642150  1
  Ta  Ta116  1  0.01191630  0.80203107  0.80133636  1
  Ta  Ta117  1  0.79941951  0.60777228  0.79027930  1
  Ta  Ta118  1  0.60236911  0.59648290  0.79946183  1
  Ta  Ta119  1  0.00161255  0.39917924  -0.00048137  1
  Ta  Ta120  1  -0.00279971  0.20213262  -0.00893117  1
  Ta  Ta121  1  0.90615360  0.70191998  0.29432322  1
  Ta  Ta122  1  0.10807924  0.50677337  0.70262885  1
  Ta  Ta123  1  0.39953633  0.40278392  0.79139504  1
  Ta  Ta124  1  0.40024261  0.80392936  0.60114712  1
  Ta  Ta125  1  0.49465881  0.10157826  0.69972544  1
  Ta  Ta126  1  0.20243397  0.60691008  0.00369561  1
  Ta  Ta127  1  0.59938614  0.79490438  0.40443687  1
  Ta  Ta128  1  0.30024207  0.89853724  0.10011630  1
  Ta  Ta129  1  0.89313788  0.49582875  0.70059050  1
  Ta  Ta130  1  -0.00248641  0.40366943  0.20419265  1
  Ta  Ta131  1  0.91333707  0.70317993  0.10402376  1
  Ta  Ta132  1  0.59975273  0.80751528  0.79028451  1
  Ta  Ta133  1  0.29909773  0.70224624  0.50889322  1
  Ta  Ta134  1  0.49548343  0.70651916  0.30237169  1
  Ta  Ta135  1  0.09542753  0.30349215  0.10182786  1
  Ta  Ta136  1  0.80401080  0.60451946  0.60119217  1
  Ta  Ta137  1  0.39305026  0.59841053  0.20492073  1
  Ta  Ta138  1  0.09197773  0.50386670  0.29895978  1
  Ta  Ta139  1  0.59229023  -0.00479322  0.78672456  1
  Ta  Ta140  1  0.00360560  -0.00729756  0.59888876  1
  Ta  Ta141  1  0.19909524  0.60185285  0.19698646  1
  Ta  Ta142  1  0.89032025  0.09790834  0.31388214  1
  Ta  Ta143  1  -0.00316433  0.21278731  0.79720520  1
  Ta  Ta144  1  0.30759967  0.30213792  0.10032358  1
  Ta  Ta145  1  0.59863118  0.19548848  0.21172960  1
  Ta  Ta146  1  0.59178075  0.00184234  0.01401937  1
  Ta  Ta147  1  0.79719769  0.78859168  0.39701686  1
  Ta  Ta148  1  -0.00144693  0.59821788  0.39680647  1
  Ta  Ta149  1  0.79612945  0.79875447  0.79272719  1
  Ti  Ti150  1  0.09236806  0.30485890  0.30065935  1
  Ti  Ti151  1  0.19680383  0.20736937  0.20047857  1
  Ti  Ti152  1  0.01064490  0.79241235  0.19735625  1
  Ti  Ti153  1  0.19243355  -0.01541027  0.80440107  1
  Ti  Ti154  1  0.89525532  0.30428195  0.70157479  1
  Ti  Ti155  1  0.30197089  0.70068102  0.09965495  1
  Ti  Ti156  1  0.19811789  0.79452926  0.19453010  1
  Ti  Ti157  1  0.79872821  0.38660189  0.80458454  1
  Ti  Ti158  1  0.60126797  0.39903226  -0.01202376  1
  Ti  Ti159  1  0.00331702  -0.00230771  -0.01069732  1
  Ti  Ti160  1  0.49806550  0.89861586  0.50274259  1
  Ti  Ti161  1  0.50196976  0.90697840  0.89846606  1
  Ti  Ti162  1  0.30331565  0.89492173  0.29518483  1
  Ti  Ti163  1  0.20371146  0.40483137  0.79456752  1
  Ti  Ti164  1  0.29557180  0.50824064  0.69758907  1
  Ti  Ti165  1  0.10797107  0.70872480  0.89834326  1
  Ti  Ti166  1  0.37672964  0.19406827  0.61369234  1
  Ti  Ti167  1  0.49323966  0.10451576  0.30223607  1
  Ti  Ti168  1  0.10076686  0.09368350  0.89627752  1
  Ti  Ti169  1  0.71120416  0.10399655  0.30584230  1
  Ti  Ti170  1  0.70487925  0.10912140  0.68579151  1
  Ti  Ti171  1  0.49359135  0.29822640  0.29801108  1
  Ti  Ti172  1  0.80304304  0.20574352  0.79431050  1
  Ti  Ti173  1  0.90816254  0.89486265  0.89412760  1
  Ti  Ti174  1  0.00536180  0.40282143  0.79432039  1
  Ti  Ti175  1  0.50095952  0.70367328  0.50202295  1
  Ti  Ti176  1  0.69375078  0.69703854  0.69550167  1
  Ti  Ti177  1  0.89884780  0.69861253  0.49672300  1
  Ti  Ti178  1  0.70607279  0.29574485  0.29848707  1
  Ti  Ti179  1  0.09732646  0.50391747  0.11030279  1
  Ti  Ti180  1  0.39197286  0.19663690  0.79644816  1
  Ti  Ti181  1  0.59788114  0.59696915  0.59037092  1
  Ti  Ti182  1  0.80342213  0.38519199  0.59210471  1
  Ti  Ti183  1  0.39988041  -0.00900488  0.60964364  1
  Ti  Ti184  1  0.89753938  0.09680351  0.69558341  1
  Ti  Ti185  1  0.31450075  0.29965915  0.29362898  1
  Ti  Ti186  1  0.19987469  0.78989196  -0.00217834  1
  Ti  Ti187  1  0.09752360  0.69357260  0.29436884  1
  Ti  Ti188  1  0.69671480  0.48675755  0.10420594  1
  Ti  Ti189  1  0.79325599  0.20780029  0.41584749  1
  Ti  Ti190  1  0.79982830  0.80806393  -0.00147224  1
  Ti  Ti191  1  0.90303666  0.70008753  0.70416710  1
  Ti  Ti192  1  0.80151509  0.39523208  -0.00673145  1
  Ti  Ti193  1  0.11147474  0.69939443  0.70185984  1
  Ti  Ti194  1  0.49565174  0.09561377  0.89350373  1
  Ti  Ti195  1  0.59925178  0.80770233  0.60150890  1
  Ti  Ti196  1  0.19932270  0.59903862  0.81372984  1
  Ti  Ti197  1  0.20030194  -0.00305215  0.40602167  1
  Ti  Ti198  1  0.40585832  0.19540238  0.19610063  1
  Ti  Ti199  1  0.39439266  0.41137483  0.59588178  1
  Mo  Mo200  1  0.60899659  0.19654500  0.60175235  1
  Mo  Mo201  1  0.39918272  0.39516808  0.20505461  1
  Mo  Mo202  1  0.69805765  0.30499084  0.88999932  1
  Mo  Mo203  1  0.39097296  0.80348711  0.20362290  1
  Mo  Mo204  1  0.00888379  -0.01103182  0.79778508  1
  Mo  Mo205  1  -0.00397260  -0.00375096  0.40335842  1
  Mo  Mo206  1  0.29263391  0.69956382  0.90580160  1
  Mo  Mo207  1  0.90508674  0.30674100  0.89128269  1
  Mo  Mo208  1  0.90660604  0.10839333  0.08482978  1
  Mo  Mo209  1  0.70573352  0.29230635  0.50751129  1
  Mo  Mo210  1  0.00550143  0.40486344  0.39879197  1
  Mo  Mo211  1  0.80770219  0.79723894  0.20598336  1
  Mo  Mo212  1  0.39680600  0.60277486  0.00618639  1
  Mo  Mo213  1  0.69798582  0.70437162  0.30982410  1
  Mo  Mo214  1  0.00757706  0.79612879  -0.00676245  1
  Mo  Mo215  1  0.10881128  0.70281728  0.10327051  1
  Mo  Mo216  1  0.29387522  0.09722463  0.50680968  1
  Mo  Mo217  1  0.09579865  0.89982616  0.50120991  1
  Mo  Mo218  1  0.89675334  0.30150039  0.50223786  1
  Mo  Mo219  1  0.19279429  -0.00286549  0.60394258  1
  Mo  Mo220  1  0.69869537  0.90792934  0.10191036  1
  Mo  Mo221  1  0.20096211  0.79840367  0.60530437  1
  Mo  Mo222  1  0.69464397  0.89154815  0.69409153  1
  Mo  Mo223  1  0.40249677  0.39379041  -0.00126799  1
  Mo  Mo224  1  0.29877457  0.89763466  0.70516545  1
  Mo  Mo225  1  0.09990458  0.89509345  0.89835572  1
  Mo  Mo226  1  0.20114167  0.00018306  -0.00412475  1
  Mo  Mo227  1  0.80210811  0.20391408  0.60604161  1
  Mo  Mo228  1  0.79915607  0.00442397  0.60170810  1
  Mo  Mo229  1  0.10590603  0.50072559  0.89224126  1
  Mo  Mo230  1  0.09951632  0.31141284  0.70489536  1
  Mo  Mo231  1  0.29960157  0.50370374  0.29546704  1
  Mo  Mo232  1  0.79521993  0.00507798  0.39908413  1
  Mo  Mo233  1  0.79853180  0.20063145  0.21592113  1
  Mo  Mo234  1  0.30303594  0.50118230  0.50417510  1
  Mo  Mo235  1  0.50603578  0.49516898  0.89728398  1
  Mo  Mo236  1  0.19647104  0.79600721  0.80358287  1
  Mo  Mo237  1  0.49759830  0.50328854  0.49821055  1
  Mo  Mo238  1  0.20289470  0.59516764  0.60313713  1
  Mo  Mo239  1  0.70447316  0.10396599  0.50729282  1
  Mo  Mo240  1  0.60478244  0.38676119  0.20310382  1
  Mo  Mo241  1  0.00738829  0.60300749  0.20318571  1
  Mo  Mo242  1  0.49604822  0.90795583  0.10443584  1
  Mo  Mo243  1  0.79867629  0.39239978  0.40199667  1
  Mo  Mo244  1  0.39891659  0.20409705  0.38863814  1
  Mo  Mo245  1  0.90533472  0.50018291  0.30153343  1
  Mo  Mo246  1  0.49885139  0.90407759  0.69376620  1
  Mo  Mo247  1  0.49839015  0.10539210  0.10863131  1
  Mo  Mo248  1  0.09632573  0.49850450  0.49678815  1
  Mo  Mo249  1  0.30592347  0.31133964  0.70097232  1
