# generated using pymatgen
data_HfZrTaTiMo
_symmetry_space_group_name_H-M   'P 1'
_cell_length_a   16.89290962
_cell_length_b   16.89500059
_cell_length_c   16.89970521
_cell_angle_alpha   89.99410389
_cell_angle_beta   89.99045566
_cell_angle_gamma   90.01467349
_symmetry_Int_Tables_number   1
_chemical_formula_structural   HfZrTaTiMo
_chemical_formula_sum   'Hf50 Zr50 Ta50 Ti50 Mo50'
_cell_volume   4823.27224794
_cell_formula_units_Z   50
loop_
 _symmetry_equiv_pos_site_id
 _symmetry_equiv_pos_as_xyz
  1  'x, y, z'
loop_
 _atom_site_type_symbol
 _atom_site_label
 _atom_site_symmetry_multiplicity
 _atom_site_fract_x
 _atom_site_fract_y
 _atom_site_fract_z
 _atom_site_occupancy
  Hf  Hf0  1  0.09448403  0.29850807  0.69451657  1
  Hf  Hf1  1  0.50602263  0.89546354  0.89890326  1
  Hf  Hf2  1  -0.00456700  0.79738858  0.18791674  1
  Hf  Hf3  1  0.40163006  0.79214889  0.00035322  1
  Hf  Hf4  1  0.20010882  0.79752986  0.79922877  1
  Hf  Hf5  1  0.60408191  0.39224300  0.00603063  1
  Hf  Hf6  1  0.09893786  0.70346738  0.69752531  1
  Hf  Hf7  1  0.19577492  0.19744200  0.80362812  1
  Hf  Hf8  1  -0.00308354  0.60080551  0.80596565  1
  Hf  Hf9  1  0.10347221  0.91141266  0.10189650  1
  Hf  Hf10  1  0.40469548  0.40928791  0.39684784  1
  Hf  Hf11  1  0.70110718  0.30013789  0.50378394  1
  Hf  Hf12  1  0.59562799  0.80587072  0.59567022  1
  Hf  Hf13  1  0.39994900  0.19583151  0.60019948  1
  Hf  Hf14  1  0.89458283  0.91073283  0.69611579  1
  Hf  Hf15  1  0.50064538  0.68589927  0.09547683  1
  Hf  Hf16  1  0.79889395  0.59726570  0.39599144  1
  Hf  Hf17  1  0.19646672  0.59323575  0.80143264  1
  Hf  Hf18  1  0.79846724  0.20718139  0.19886247  1
  Hf  Hf19  1  0.00037248  0.60057767  0.19977842  1
  Hf  Hf20  1  0.30627474  0.69331204  0.50753409  1
  Hf  Hf21  1  0.08968201  0.49510805  0.09991595  1
  Hf  Hf22  1  0.60165969  -0.00389641  0.20445065  1
  Hf  Hf23  1  0.30586080  0.90614555  0.89540108  1
  Hf  Hf24  1  0.80186287  0.60659325  0.80681329  1
  Hf  Hf25  1  0.80091125  0.00571269  0.81785050  1
  Hf  Hf26  1  0.90469449  0.31000435  0.90145999  1
  Hf  Hf27  1  0.68995737  0.69674805  0.50274183  1
  Hf  Hf28  1  0.09866296  0.69737207  0.30134437  1
  Hf  Hf29  1  0.50319699  0.30498841  0.11470352  1
  Hf  Hf30  1  0.78918957  0.81704017  0.59574248  1
  Hf  Hf31  1  0.60830773  0.01099288  -0.00366839  1
  Hf  Hf32  1  0.40762754  -0.00244218  0.59525747  1
  Hf  Hf33  1  0.00460296  0.59444364  0.59889985  1
  Hf  Hf34  1  0.30401378  0.49796604  0.90735297  1
  Hf  Hf35  1  0.10258266  0.70448262  0.50374358  1
  Hf  Hf36  1  0.50095779  0.09523287  0.70786016  1
  Hf  Hf37  1  0.69495374  0.50701023  0.09997624  1
  Hf  Hf38  1  0.59900663  0.41492286  0.39576449  1
  Hf  Hf39  1  0.49692857  0.51403017  0.52006784  1
  Hf  Hf40  1  0.69027836  0.30657448  0.29444446  1
  Hf  Hf41  1  0.89904483  0.90475085  0.30209754  1
  Hf  Hf42  1  0.20573722  0.79638132  0.20128638  1
  Hf  Hf43  1  0.29817406  0.90477003  0.10316367  1
  Hf  Hf44  1  0.70881583  0.09709776  0.50201676  1
  Hf  Hf45  1  0.69807035  0.50725502  0.51320873  1
  Hf  Hf46  1  0.70246983  0.50099891  0.90281213  1
  Hf  Hf47  1  0.79883587  0.40942524  0.39172244  1
  Hf  Hf48  1  0.29726857  0.49785805  0.29374950  1
  Hf  Hf49  1  0.61207557  -0.00278489  0.80280080  1
  Zr  Zr50  1  0.20316855  0.59444057  0.40119512  1
  Zr  Zr51  1  0.19646694  0.40413345  0.79514298  1
  Zr  Zr52  1  0.31166236  0.50118869  0.10239340  1
  Zr  Zr53  1  0.79267062  0.80838150  0.40057310  1
  Zr  Zr54  1  0.19594019  0.00604074  0.79626646  1
  Zr  Zr55  1  0.50025758  0.31009681  0.50610699  1
  Zr  Zr56  1  -0.00591469  0.00588346  0.20119935  1
  Zr  Zr57  1  0.40501907  0.79227453  0.79903690  1
  Zr  Zr58  1  0.29923294  0.69472808  0.69379575  1
  Zr  Zr59  1  0.09897474  0.89954689  0.89750861  1
  Zr  Zr60  1  0.80077764  0.19893684  0.39536922  1
  Zr  Zr61  1  0.19586773  0.19458350  0.40025088  1
  Zr  Zr62  1  0.71025844  0.10325648  0.69504130  1
  Zr  Zr63  1  0.89579730  0.10388104  0.10278648  1
  Zr  Zr64  1  0.30452351  0.90696738  0.49389864  1
  Zr  Zr65  1  0.00952504  0.40995314  0.59549914  1
  Zr  Zr66  1  0.79381920  0.20238232  -0.00215811  1
  Zr  Zr67  1  0.79886055  0.79969064  0.19249902  1
  Zr  Zr68  1  0.59701346  0.19939268  0.60058444  1
  Zr  Zr69  1  0.40410164  0.79850291  0.37935109  1
  Zr  Zr70  1  0.30629220  0.29528913  0.90897437  1
  Zr  Zr71  1  0.89394758  0.70340873  0.69047440  1
  Zr  Zr72  1  0.41352331  0.00396769  0.00313137  1
  Zr  Zr73  1  0.09991641  0.90350605  0.30011270  1
  Zr  Zr74  1  0.29452593  0.31170047  0.50179615  1
  Zr  Zr75  1  0.79963660  0.59499819  0.20894214  1
  Zr  Zr76  1  0.68915220  0.70390459  0.29907877  1
  Zr  Zr77  1  0.89751421  0.10768345  0.68374889  1
  Zr  Zr78  1  0.40492333  0.19643440  0.40123956  1
  Zr  Zr79  1  0.19732794  0.20372704  0.19873729  1
  Zr  Zr80  1  0.19667012  0.38684501  0.00755812  1
  Zr  Zr81  1  -0.01216040  0.00382490  -0.00565689  1
  Zr  Zr82  1  0.50115642  0.68926538  0.68611539  1
  Zr  Zr83  1  0.89236450  0.68044177  0.08410213  1
  Zr  Zr84  1  0.09142611  0.09862309  0.69038774  1
  Zr  Zr85  1  0.50279649  0.50852567  0.91678899  1
  Zr  Zr86  1  0.88970476  0.49690431  0.70011706  1
  Zr  Zr87  1  -0.00887915  0.79710628  -0.00320176  1
  Zr  Zr88  1  -0.00356821  0.59110275  0.40539971  1
  Zr  Zr89  1  0.31055902  0.10384312  0.89940114  1
  Zr  Zr90  1  0.60977674  -0.01519615  0.59682184  1
  Zr  Zr91  1  0.19701412  0.79277083  0.00271842  1
  Zr  Zr92  1  0.30287580  0.30492822  0.69528667  1
  Zr  Zr93  1  0.69440797  0.89557043  0.09699015  1
  Zr  Zr94  1  0.20643403  0.80385407  0.39784436  1
  Zr  Zr95  1  -0.00737317  0.00713489  0.80917539  1
  Zr  Zr96  1  0.30021413  0.10465066  0.10062200  1
  Zr  Zr97  1  0.19676505  0.38971158  0.19650592  1
  Zr  Zr98  1  0.90674865  0.30043664  0.49436589  1
  Zr  Zr99  1  0.40722401  -0.01149108  0.20973096  1
  Ta  Ta100  1  0.00231354  0.20468805  0.20216689  1
  Ta  Ta101  1  0.79628677  0.40037992  0.19715498  1
  Ta  Ta102  1  0.58585201  0.60381081  0.39412445  1
  Ta  Ta103  1  0.19180554  0.57705318  0.60435807  1
  Ta  Ta104  1  0.30037581  0.09164075  0.30069678  1
  Ta  Ta105  1  0.30516311  0.90655880  0.69791781  1
  Ta  Ta106  1  0.30437274  0.68691469  0.90666931  1
  Ta  Ta107  1  0.59938010  0.19210681  0.39369101  1
  Ta  Ta108  1  0.79981983  0.79694139  -0.00538935  1
  Ta  Ta109  1  0.60052640  0.40026965  0.79974350  1
  Ta  Ta110  1  0.40551217  0.19668991  0.20889234  1
  Ta  Ta111  1  0.41041609  0.40026852  0.80205397  1
  Ta  Ta112  1  0.58775822  0.79865207  0.20678020  1
  Ta  Ta113  1  0.08958822  0.30519831  0.30876569  1
  Ta  Ta114  1  0.89939522  0.49289366  0.09485889  1
  Ta  Ta115  1  0.69580881  0.50496009  0.70098802  1
  Ta  Ta116  1  0.40398459  0.59611286  0.80346416  1
  Ta  Ta117  1  0.79660377  0.39480106  0.00780202  1
  Ta  Ta118  1  0.30383888  0.49552548  0.50806262  1
  Ta  Ta119  1  0.59799130  0.60312130  0.80352967  1
  Ta  Ta120  1  0.00311129  0.00828916  0.40892827  1
  Ta  Ta121  1  0.09167844  0.30003042  0.90503962  1
  Ta  Ta122  1  0.50145981  0.50000891  0.70264435  1
  Ta  Ta123  1  0.19932638  0.19301158  0.59419690  1
  Ta  Ta124  1  0.09949180  0.48891756  0.30155563  1
  Ta  Ta125  1  0.80242183  0.20431997  0.80307763  1
  Ta  Ta126  1  0.30505797  0.30133985  0.29951651  1
  Ta  Ta127  1  0.30237295  0.68933557  0.10461896  1
  Ta  Ta128  1  0.79727665  0.80243139  0.80475970  1
  Ta  Ta129  1  0.19302761  0.59962946  0.00518859  1
  Ta  Ta130  1  0.69871991  0.69706885  0.69930502  1
  Ta  Ta131  1  0.40771431  0.20357659  0.79851194  1
  Ta  Ta132  1  0.09010358  0.49419115  0.90930229  1
  Ta  Ta133  1  0.10131443  0.10601485  0.09830360  1
  Ta  Ta134  1  0.00085475  0.81214391  0.59543145  1
  Ta  Ta135  1  0.60378893  0.20106982  0.00308930  1
  Ta  Ta136  1  0.89711242  0.70395632  0.50332544  1
  Ta  Ta137  1  0.19452266  0.01383265  -0.00541732  1
  Ta  Ta138  1  0.60140175  0.19466982  0.20274399  1
  Ta  Ta139  1  0.40728294  0.60133774  0.39675403  1
  Ta  Ta140  1  0.90806753  0.30466171  0.29880108  1
  Ta  Ta141  1  -0.01053943  0.79991957  0.80170062  1
  Ta  Ta142  1  0.69725301  0.69639971  0.90626708  1
  Ta  Ta143  1  0.40488186  0.80431983  0.59363650  1
  Ta  Ta144  1  0.10257848  0.30516721  0.49175492  1
  Ta  Ta145  1  0.80071240  -0.00357553  -0.00451957  1
  Ta  Ta146  1  0.60380599  -0.00862419  0.39194798  1
  Ta  Ta147  1  0.19932184  0.81586065  0.60083736  1
  Ta  Ta148  1  0.19593608  0.00303787  0.39895429  1
  Ta  Ta149  1  0.70566051  0.30408420  0.70245506  1
  Ti  Ti150  1  0.60162280  0.78707601  0.00248986  1
  Ti  Ti151  1  0.00184844  -0.00692461  0.58205064  1
  Ti  Ti152  1  0.41705380  0.20145790  0.00253225  1
  Ti  Ti153  1  0.09821341  0.10181459  0.29807426  1
  Ti  Ti154  1  0.89750156  0.09942605  0.49957474  1
  Ti  Ti155  1  0.70452089  0.09488263  0.30030814  1
  Ti  Ti156  1  0.59865864  0.59950562  0.20203573  1
  Ti  Ti157  1  0.60551216  0.79446149  0.79684459  1
  Ti  Ti158  1  0.00770428  0.19718690  0.57966216  1
  Ti  Ti159  1  0.50307466  0.29865770  0.89863252  1
  Ti  Ti160  1  0.00021638  0.40569494  0.79833526  1
  Ti  Ti161  1  0.50070008  0.88932132  0.10170350  1
  Ti  Ti162  1  0.50416261  0.10483654  0.10689832  1
  Ti  Ti163  1  0.50527130  0.09092319  0.49141734  1
  Ti  Ti164  1  0.50143716  0.49607484  0.28173967  1
  Ti  Ti165  1  0.60108825  0.40215371  0.61178251  1
  Ti  Ti166  1  0.89121118  0.50224087  0.50512843  1
  Ti  Ti167  1  0.79695704  -0.00442622  0.19829348  1
  Ti  Ti168  1  0.40895492  0.39821245  0.00726154  1
  Ti  Ti169  1  0.70078391  0.10166400  0.10331261  1
  Ti  Ti170  1  -0.00550624  0.19561943  0.80777385  1
  Ti  Ti171  1  0.79892220  -0.00586443  0.40364158  1
  Ti  Ti172  1  0.31443578  0.29382900  0.10372338  1
  Ti  Ti173  1  0.89981737  0.29625168  0.69643295  1
  Ti  Ti174  1  0.09681133  0.90251477  0.69698188  1
  Ti  Ti175  1  0.90869786  0.30895873  0.10355239  1
  Ti  Ti176  1  0.49707359  0.90077003  0.70828697  1
  Ti  Ti177  1  0.50218611  0.89640297  0.48146750  1
  Ti  Ti178  1  0.50408320  0.10512674  0.89366888  1
  Ti  Ti179  1  0.31228964  0.49551630  0.69241235  1
  Ti  Ti180  1  0.69816071  0.88903851  0.90319070  1
  Ti  Ti181  1  0.30472058  0.09407586  0.70023338  1
  Ti  Ti182  1  0.50340080  0.30369239  0.70490955  1
  Ti  Ti183  1  0.91239667  0.48643482  0.29268486  1
  Ti  Ti184  1  0.90489712  0.70678547  0.30915738  1
  Ti  Ti185  1  0.30327717  0.68959408  0.28851561  1
  Ti  Ti186  1  0.90275054  0.10400852  0.30557161  1
  Ti  Ti187  1  0.79966337  0.39718972  0.60355758  1
  Ti  Ti188  1  0.60628891  0.20376549  0.80477298  1
  Ti  Ti189  1  0.69943855  0.30162650  0.89470923  1
  Ti  Ti190  1  0.09505489  0.69295221  0.90699514  1
  Ti  Ti191  1  -0.00285001  0.81352139  0.41493357  1
  Ti  Ti192  1  0.49972233  0.09400438  0.30625308  1
  Ti  Ti193  1  0.79834882  0.39839664  0.80070405  1
  Ti  Ti194  1  0.50109096  0.30252795  0.29709663  1
  Ti  Ti195  1  0.30117067  0.09419610  0.49513005  1
  Ti  Ti196  1  0.40762303  0.59879794  0.20341356  1
  Ti  Ti197  1  0.90060495  0.50225127  0.91581189  1
  Ti  Ti198  1  0.00177056  0.20273447  0.00290420  1
  Ti  Ti199  1  0.19535361  0.00174372  0.59249397  1
  Mo  Mo200  1  0.89523351  0.69998838  0.89769539  1
  Mo  Mo201  1  -0.00041893  0.19358770  0.39364265  1
  Mo  Mo202  1  0.39353706  0.59799222  0.60271024  1
  Mo  Mo203  1  0.10153716  0.90606660  0.50234342  1
  Mo  Mo204  1  0.40773943  0.00306357  0.79410719  1
  Mo  Mo205  1  0.40171987  0.39316670  0.20526294  1
  Mo  Mo206  1  -0.00753273  0.39696940  0.00051386  1
  Mo  Mo207  1  0.09344405  0.11437136  0.90820297  1
  Mo  Mo208  1  0.90131767  0.90618440  0.49762365  1
  Mo  Mo209  1  0.89156998  0.89145909  0.89983208  1
  Mo  Mo210  1  0.59932891  0.40562798  0.20142979  1
  Mo  Mo211  1  0.11400218  0.48936456  0.49138516  1
  Mo  Mo212  1  0.10029805  0.10048017  0.49800582  1
  Mo  Mo213  1  0.40508257  0.00170601  0.39841896  1
  Mo  Mo214  1  0.50523652  0.69823295  0.89750070  1
  Mo  Mo215  1  0.00038799  0.59412470  -0.00443089  1
  Mo  Mo216  1  0.69150477  0.69744674  0.09433632  1
  Mo  Mo217  1  0.89653258  0.11873617  0.90288622  1
  Mo  Mo218  1  0.59228268  0.80044480  0.39708617  1
  Mo  Mo219  1  0.79869618  0.60545833  0.59999063  1
  Mo  Mo220  1  0.39946395  0.79323130  0.19472519  1
  Mo  Mo221  1  0.50160142  0.49834592  0.10821176  1
  Mo  Mo222  1  0.69477883  0.90177304  0.48644286  1
  Mo  Mo223  1  0.10538954  0.68959496  0.10245736  1
  Mo  Mo224  1  0.18583200  0.19933989  0.00028182  1
  Mo  Mo225  1  0.19970409  0.40157764  0.59741114  1
  Mo  Mo226  1  0.69772254  0.11367281  0.90000721  1
  Mo  Mo227  1  0.68978110  0.50300340  0.29629593  1
  Mo  Mo228  1  0.40431291  0.40274120  0.61065729  1
  Mo  Mo229  1  0.20043216  0.00678334  0.20388489  1
  Mo  Mo230  1  -0.00126821  0.40415090  0.39892951  1
  Mo  Mo231  1  0.29777278  0.91157203  0.29640878  1
  Mo  Mo232  1  0.50395410  0.89350685  0.30003272  1
  Mo  Mo233  1  0.79659277  0.59519742  -0.00432613  1
  Mo  Mo234  1  0.80891581  0.21187852  0.60250123  1
  Mo  Mo235  1  0.88898390  0.90286520  0.09600430  1
  Mo  Mo236  1  0.49721265  0.70172036  0.49259445  1
  Mo  Mo237  1  0.80405149  -0.00544026  0.58490725  1
  Mo  Mo238  1  0.09452853  0.49749387  0.71274555  1
  Mo  Mo239  1  0.20003227  0.39785568  0.39674687  1
  Mo  Mo240  1  0.60284265  0.60152702  0.60667945  1
  Mo  Mo241  1  0.19576347  0.60115994  0.19697634  1
  Mo  Mo242  1  0.70059077  0.89245237  0.71338155  1
  Mo  Mo243  1  0.39790754  0.60003432  0.00133783  1
  Mo  Mo244  1  0.08276517  0.29509076  0.10011948  1
  Mo  Mo245  1  0.60333243  0.60440002  0.00094111  1
  Mo  Mo246  1  0.69626196  0.30137538  0.10569619  1
  Mo  Mo247  1  0.69788645  0.90404990  0.29606905  1
  Mo  Mo248  1  -0.00386400  0.39684823  0.19950688  1
  Mo  Mo249  1  0.49620476  0.69375169  0.29144050  1
