# generated using pymatgen
data_HfZrTaTiMo
_symmetry_space_group_name_H-M   'P 1'
_cell_length_a   16.89449280
_cell_length_b   16.89680093
_cell_length_c   16.89765302
_cell_angle_alpha   89.99536861
_cell_angle_beta   89.98088971
_cell_angle_gamma   89.98301795
_symmetry_Int_Tables_number   1
_chemical_formula_structural   HfZrTaTiMo
_chemical_formula_sum   'Hf50 Zr50 Ta50 Ti50 Mo50'
_cell_volume   4823.65222995
_cell_formula_units_Z   50
loop_
 _symmetry_equiv_pos_site_id
 _symmetry_equiv_pos_as_xyz
  1  'x, y, z'
loop_
 _atom_site_type_symbol
 _atom_site_label
 _atom_site_symmetry_multiplicity
 _atom_site_fract_x
 _atom_site_fract_y
 _atom_site_fract_z
 _atom_site_occupancy
  Hf  Hf0  1  0.08926017  0.30200194  0.69904839  1
  Hf  Hf1  1  0.80116835  0.38933453  0.20548067  1
  Hf  Hf2  1  0.19585978  0.59041346  0.19305967  1
  Hf  Hf3  1  0.69615198  0.89174814  0.89847591  1
  Hf  Hf4  1  0.09158272  0.29045277  0.90378769  1
  Hf  Hf5  1  0.39549070  0.80115910  -0.00785962  1
  Hf  Hf6  1  0.49621573  0.70060713  0.10384128  1
  Hf  Hf7  1  0.30508057  0.88605840  0.12154565  1
  Hf  Hf8  1  0.20372827  0.21029945  0.02042798  1
  Hf  Hf9  1  0.30301131  0.52261881  0.89983464  1
  Hf  Hf10  1  0.10586270  0.30039874  0.30085150  1
  Hf  Hf11  1  0.70387832  0.30685992  0.90472371  1
  Hf  Hf12  1  0.39595293  0.19943318  0.59428246  1
  Hf  Hf13  1  0.70548984  0.90034683  0.69642467  1
  Hf  Hf14  1  0.50907492  0.31126605  0.49053853  1
  Hf  Hf15  1  0.28443723  0.31841867  0.49502086  1
  Hf  Hf16  1  0.10003959  0.10028541  0.69343634  1
  Hf  Hf17  1  0.20098657  0.80387438  0.39728481  1
  Hf  Hf18  1  0.68258873  0.10181823  0.11270980  1
  Hf  Hf19  1  0.70649844  0.30228982  0.70157210  1
  Hf  Hf20  1  0.61139857  0.60458981  0.40131201  1
  Hf  Hf21  1  0.80877490  0.79259780  0.00563815  1
  Hf  Hf22  1  0.58927289  -0.00638213  0.79096327  1
  Hf  Hf23  1  0.50017437  0.49535075  0.30018359  1
  Hf  Hf24  1  0.20335351  -0.00355974  0.20891775  1
  Hf  Hf25  1  0.58914489  -0.00957760  0.00271546  1
  Hf  Hf26  1  0.69067501  0.69606600  0.09512913  1
  Hf  Hf27  1  0.20502119  0.19325877  0.59702309  1
  Hf  Hf28  1  0.29460009  0.69638873  0.50058910  1
  Hf  Hf29  1  0.39551246  0.41518933  0.58791246  1
  Hf  Hf30  1  0.49145528  0.10386234  0.89441331  1
  Hf  Hf31  1  0.40209907  0.21170963  0.01682894  1
  Hf  Hf32  1  0.29538250  0.69726093  0.70426398  1
  Hf  Hf33  1  0.59747110  0.79502514  0.60437530  1
  Hf  Hf34  1  0.90780084  0.09428882  0.09665683  1
  Hf  Hf35  1  0.80053510  0.79434291  0.19774953  1
  Hf  Hf36  1  0.09961621  0.70626190  0.10695113  1
  Hf  Hf37  1  0.79892322  0.19811471  0.00373090  1
  Hf  Hf38  1  0.59803643  0.40079860  0.79971338  1
  Hf  Hf39  1  0.80571647  0.00149249  0.80264795  1
  Hf  Hf40  1  0.19705690  0.40715658  0.01115631  1
  Hf  Hf41  1  0.68697960  0.10083080  0.90411286  1
  Hf  Hf42  1  0.61110205  0.60517357  0.59470473  1
  Hf  Hf43  1  0.50229225  0.10337611  0.29549005  1
  Hf  Hf44  1  0.00292681  0.59774414  0.39689858  1
  Hf  Hf45  1  0.29460814  0.30525623  0.29875474  1
  Hf  Hf46  1  -0.00016454  0.59917385  0.00700680  1
  Hf  Hf47  1  0.69951816  0.49952913  0.09444074  1
  Hf  Hf48  1  -0.00059952  0.00216901  0.79632451  1
  Hf  Hf49  1  0.60497607  0.79760589  0.39187350  1
  Zr  Zr50  1  0.90209600  0.89137674  0.30358425  1
  Zr  Zr51  1  0.39736163  -0.00377463  0.00786470  1
  Zr  Zr52  1  0.11188989  0.90341756  0.69751344  1
  Zr  Zr53  1  0.30507325  0.69396297  0.10099940  1
  Zr  Zr54  1  -0.00240125  0.79575237  0.40944406  1
  Zr  Zr55  1  0.92253733  0.89887007  0.10752864  1
  Zr  Zr56  1  0.30244903  0.10163429  0.89799793  1
  Zr  Zr57  1  0.79140612  -0.00596540  0.20909746  1
  Zr  Zr58  1  0.30169651  0.29858634  0.89453867  1
  Zr  Zr59  1  0.39228711  0.40216439  0.00907651  1
  Zr  Zr60  1  0.49798690  0.09664905  0.11872930  1
  Zr  Zr61  1  0.70869718  0.49994709  0.90538500  1
  Zr  Zr62  1  -0.00235164  0.80734530  0.60224753  1
  Zr  Zr63  1  0.39567776  0.20321399  0.40336759  1
  Zr  Zr64  1  0.09811461  0.30516108  0.49168567  1
  Zr  Zr65  1  0.81336067  0.79485163  0.59607920  1
  Zr  Zr66  1  0.89760068  0.49898650  0.10204658  1
  Zr  Zr67  1  -0.00036557  0.20722062  0.20403373  1
  Zr  Zr68  1  0.81417122  0.79650794  0.79360648  1
  Zr  Zr69  1  0.60245278  -0.01082892  0.39091977  1
  Zr  Zr70  1  0.29344885  0.31165995  0.69327646  1
  Zr  Zr71  1  0.49552324  0.70329161  0.49389883  1
  Zr  Zr72  1  -0.00438271  0.00149264  0.40394179  1
  Zr  Zr73  1  0.79075088  -0.00502110  0.00963690  1
  Zr  Zr74  1  0.30182870  0.90656623  0.69986875  1
  Zr  Zr75  1  0.20759075  -0.00294811  0.00795055  1
  Zr  Zr76  1  0.69665066  0.69473465  0.90162422  1
  Zr  Zr77  1  0.80458680  0.39372648  0.58873878  1
  Zr  Zr78  1  0.28858653  0.51065393  0.69940257  1
  Zr  Zr79  1  0.58478627  0.39492284  0.00597510  1
  Zr  Zr80  1  0.49850124  0.30342042  0.69309863  1
  Zr  Zr81  1  0.10784941  0.68598957  0.50822622  1
  Zr  Zr82  1  0.60234675  0.60890724  0.78830136  1
  Zr  Zr83  1  0.80412346  0.20008928  0.80832302  1
  Zr  Zr84  1  0.90152598  0.49671642  0.29941825  1
  Zr  Zr85  1  0.19284638  0.40579421  0.80573944  1
  Zr  Zr86  1  0.70706601  0.89851577  0.49681347  1
  Zr  Zr87  1  0.80364668  0.20006630  0.21126500  1
  Zr  Zr88  1  0.09626838  0.09956641  0.10051429  1
  Zr  Zr89  1  0.90111386  0.11006710  0.69736242  1
  Zr  Zr90  1  -0.00096452  0.79783975  0.79554870  1
  Zr  Zr91  1  0.50324073  0.09883459  0.49356913  1
  Zr  Zr92  1  0.10769363  0.90225030  0.90352630  1
  Zr  Zr93  1  0.90916971  0.90793388  0.91271858  1
  Zr  Zr94  1  0.69899612  0.09971953  0.69309408  1
  Zr  Zr95  1  0.50027946  0.50522643  0.69492282  1
  Zr  Zr96  1  0.60371409  0.60146358  0.20983231  1
  Zr  Zr97  1  -0.01110508  0.20325472  0.58060300  1
  Zr  Zr98  1  0.39555480  0.59502066  0.40021575  1
  Zr  Zr99  1  0.49838041  0.51626384  0.90567205  1
  Ta  Ta100  1  0.90360113  0.49410081  0.69847432  1
  Ta  Ta101  1  0.10341210  0.09671276  0.49419106  1
  Ta  Ta102  1  0.00458626  0.40102925  0.00246177  1
  Ta  Ta103  1  0.20326796  -0.00401476  0.39779588  1
  Ta  Ta104  1  0.10228573  0.68399941  0.70514815  1
  Ta  Ta105  1  0.69941662  0.10130209  0.49472534  1
  Ta  Ta106  1  0.40042848  0.40826429  0.80069037  1
  Ta  Ta107  1  0.49798590  0.89035090  0.11827738  1
  Ta  Ta108  1  0.71344873  0.49606584  0.70108420  1
  Ta  Ta109  1  0.40149677  0.80100230  0.60281898  1
  Ta  Ta110  1  0.19892064  0.19484770  0.79345288  1
  Ta  Ta111  1  0.09756982  0.10509576  0.90295029  1
  Ta  Ta112  1  0.90299824  0.30161621  0.09225925  1
  Ta  Ta113  1  0.49265017  0.89907786  0.49937898  1
  Ta  Ta114  1  0.39356220  -0.00867818  0.39595313  1
  Ta  Ta115  1  0.80921162  0.59530317  0.79723189  1
  Ta  Ta116  1  0.09510847  0.50871249  0.90118140  1
  Ta  Ta117  1  0.90223928  0.30520687  0.70476924  1
  Ta  Ta118  1  0.09952177  0.89402695  0.29356458  1
  Ta  Ta119  1  0.59409788  0.20214112  0.79663364  1
  Ta  Ta120  1  0.69109424  0.10469500  0.30086368  1
  Ta  Ta121  1  0.79855642  0.20520208  0.58259100  1
  Ta  Ta122  1  0.50386616  0.30838837  0.30045170  1
  Ta  Ta123  1  0.80351675  0.01012291  0.39669717  1
  Ta  Ta124  1  0.58561564  0.80047297  -0.00735946  1
  Ta  Ta125  1  0.29431911  0.49871315  0.29546988  1
  Ta  Ta126  1  0.90516539  0.49453179  0.49964925  1
  Ta  Ta127  1  0.49499474  0.09846601  0.69597810  1
  Ta  Ta128  1  0.10672734  0.10304199  0.30547720  1
  Ta  Ta129  1  0.49259173  0.51265816  0.10495401  1
  Ta  Ta130  1  0.39956341  0.60272304  0.59717803  1
  Ta  Ta131  1  0.58889277  0.20906191  0.00701808  1
  Ta  Ta132  1  0.80429240  0.20371543  0.39833071  1
  Ta  Ta133  1  0.91401600  0.67331609  0.69364570  1
  Ta  Ta134  1  0.10109516  0.49492625  0.29825226  1
  Ta  Ta135  1  0.48854504  0.69661452  0.89657335  1
  Ta  Ta136  1  0.59373399  -0.00268318  0.59726844  1
  Ta  Ta137  1  -0.00315652  0.40325685  0.80487283  1
  Ta  Ta138  1  0.30256836  0.89944497  0.88659816  1
  Ta  Ta139  1  0.00326631  0.79143388  0.00123391  1
  Ta  Ta140  1  0.70638421  0.49514086  0.30488383  1
  Ta  Ta141  1  0.30374222  0.09909581  0.29908332  1
  Ta  Ta142  1  0.80449639  0.60389873  0.40334044  1
  Ta  Ta143  1  0.10458240  0.69463626  0.89899023  1
  Ta  Ta144  1  -0.00672158  -0.00171919  0.59098823  1
  Ta  Ta145  1  0.51250819  0.49864953  0.49500909  1
  Ta  Ta146  1  0.60437081  0.20037929  0.59490693  1
  Ta  Ta147  1  0.29669534  0.70018405  0.29345503  1
  Ta  Ta148  1  0.69775281  0.30042384  0.10150048  1
  Ta  Ta149  1  0.58711661  0.79754593  0.79190176  1
  Ti  Ti150  1  0.39420521  0.40805424  0.40004840  1
  Ti  Ti151  1  0.00771987  0.39903989  0.19253451  1
  Ti  Ti152  1  0.48932799  0.70228221  0.29345279  1
  Ti  Ti153  1  0.01818809  0.57035796  0.59987227  1
  Ti  Ti154  1  0.91966008  0.10775035  0.91074225  1
  Ti  Ti155  1  0.79918595  0.59265098  0.59444620  1
  Ti  Ti156  1  0.91162532  0.69543975  0.28713005  1
  Ti  Ti157  1  0.61116721  0.40104098  0.59293184  1
  Ti  Ti158  1  0.80314328  0.60234547  0.20186109  1
  Ti  Ti159  1  -0.01452278  0.19613153  0.39269996  1
  Ti  Ti160  1  0.80626192  0.78979321  0.40509593  1
  Ti  Ti161  1  0.20415717  0.79762831  -0.00421274  1
  Ti  Ti162  1  0.20692933  0.01240360  0.79677358  1
  Ti  Ti163  1  0.81129306  0.00338622  0.58806574  1
  Ti  Ti164  1  0.90943326  0.69090126  0.89386666  1
  Ti  Ti165  1  0.40386845  0.79619180  0.79251985  1
  Ti  Ti166  1  0.61262652  0.21354956  0.39685377  1
  Ti  Ti167  1  0.71558551  0.69733979  0.69804454  1
  Ti  Ti168  1  0.60355183  0.39692759  0.20285151  1
  Ti  Ti169  1  0.20179119  0.79343579  0.80683597  1
  Ti  Ti170  1  -0.00575211  0.39553538  0.39955902  1
  Ti  Ti171  1  0.90294137  0.30354984  0.90280590  1
  Ti  Ti172  1  0.16885592  0.42592077  0.59745389  1
  Ti  Ti173  1  0.89655819  0.49305672  0.89961671  1
  Ti  Ti174  1  0.39597948  0.40337398  0.19425815  1
  Ti  Ti175  1  0.67951725  0.88810022  0.11223278  1
  Ti  Ti176  1  0.10139814  0.70031612  0.29401081  1
  Ti  Ti177  1  0.30484068  0.10356419  0.12075997  1
  Ti  Ti178  1  0.79838425  0.38571639  0.39864882  1
  Ti  Ti179  1  0.40156020  -0.00092700  0.60122841  1
  Ti  Ti180  1  0.81064704  0.60512789  0.00059867  1
  Ti  Ti181  1  0.20092288  0.79886712  0.60121819  1
  Ti  Ti182  1  0.39253407  0.19789643  0.78459037  1
  Ti  Ti183  1  0.20530005  0.19153647  0.40087616  1
  Ti  Ti184  1  0.70532936  0.49481477  0.49147549  1
  Ti  Ti185  1  0.29647305  0.08547333  0.49959625  1
  Ti  Ti186  1  0.00302965  0.00623423  0.21443139  1
  Ti  Ti187  1  0.40046690  0.21477574  0.20176139  1
  Ti  Ti188  1  0.19794662  0.39837566  0.18727040  1
  Ti  Ti189  1  0.10047889  0.89381344  0.10680421  1
  Ti  Ti190  1  0.10860371  0.90696511  0.50296479  1
  Ti  Ti191  1  0.70947530  0.70173795  0.30004109  1
  Ti  Ti192  1  0.30043516  0.90171472  0.50488573  1
  Ti  Ti193  1  0.49304942  0.89483887  0.29194352  1
  Ti  Ti194  1  0.39316202  0.80603681  0.39591169  1
  Ti  Ti195  1  0.19905205  0.59978017  0.00389302  1
  Ti  Ti196  1  0.27258664  0.51021023  0.49099946  1
  Ti  Ti197  1  0.49244363  0.29585681  0.89080961  1
  Ti  Ti198  1  0.48855558  0.90016292  0.88732914  1
  Ti  Ti199  1  0.90629024  0.68228394  0.51056165  1
  Mo  Mo200  1  0.81106970  0.40428863  0.80282574  1
  Mo  Mo201  1  0.01322061  0.00006731  -0.00023560  1
  Mo  Mo202  1  0.29956723  0.30381270  0.11659211  1
  Mo  Mo203  1  0.39884038  0.00057238  0.79343442  1
  Mo  Mo204  1  0.61034488  0.40492079  0.39512418  1
  Mo  Mo205  1  0.09740800  0.49959962  0.10009971  1
  Mo  Mo206  1  0.89887343  0.30370176  0.48790378  1
  Mo  Mo207  1  0.59973833  0.79583318  0.20849537  1
  Mo  Mo208  1  0.50106946  0.30726011  0.11808251  1
  Mo  Mo209  1  0.30019798  0.89722472  0.30796278  1
  Mo  Mo210  1  0.49592290  0.89930701  0.69282075  1
  Mo  Mo211  1  -0.00205679  0.20433810  0.00133704  1
  Mo  Mo212  1  0.00317388  0.59979976  0.20370195  1
  Mo  Mo213  1  0.59998802  0.21891295  0.20581410  1
  Mo  Mo214  1  0.00119174  0.20308162  0.80660965  1
  Mo  Mo215  1  0.69725545  0.30203734  0.30169269  1
  Mo  Mo216  1  0.19307611  0.60647903  0.80624246  1
  Mo  Mo217  1  0.89887925  0.91447558  0.69046918  1
  Mo  Mo218  1  0.20020723  0.00070902  0.58796375  1
  Mo  Mo219  1  0.19727834  0.59987828  0.38598826  1
  Mo  Mo220  1  0.69933152  0.29651688  0.49524061  1
  Mo  Mo221  1  0.30319485  0.09707105  0.69696449  1
  Mo  Mo222  1  0.70771789  0.89174557  0.30057157  1
  Mo  Mo223  1  0.90646733  0.30269102  0.30117414  1
  Mo  Mo224  1  0.39587551  0.59433767  0.20388112  1
  Mo  Mo225  1  0.20405997  0.19560123  0.20743304  1
  Mo  Mo226  1  0.09646659  0.30549334  0.10348781  1
  Mo  Mo227  1  0.71482919  0.69723296  0.49586756  1
  Mo  Mo228  1  0.89985224  0.10204033  0.30149322  1
  Mo  Mo229  1  0.29547543  0.70729383  0.89826754  1
  Mo  Mo230  1  0.39641688  0.60624187  0.00324918  1
  Mo  Mo231  1  0.30200381  0.50052017  0.10275516  1
  Mo  Mo232  1  0.59859561  -0.01737874  0.20782940  1
  Mo  Mo233  1  0.39786764  0.60887589  0.79531528  1
  Mo  Mo234  1  -0.00468424  0.40163916  0.60050921  1
  Mo  Mo235  1  0.89375793  0.10212351  0.49436215  1
  Mo  Mo236  1  0.19569435  0.40930091  0.39140037  1
  Mo  Mo237  1  0.19543230  0.59661102  0.60386347  1
  Mo  Mo238  1  0.39918305  -0.00617300  0.21324378  1
  Mo  Mo239  1  0.19734890  0.79771381  0.20807894  1
  Mo  Mo240  1  0.09526221  0.49670338  0.48371792  1
  Mo  Mo241  1  0.89537257  0.90610295  0.49774748  1
  Mo  Mo242  1  -0.00295074  0.59426293  0.80702390  1
  Mo  Mo243  1  0.90357165  0.69555984  0.10470215  1
  Mo  Mo244  1  0.00311407  0.79397704  0.20098311  1
  Mo  Mo245  1  0.40127135  0.79446194  0.21294044  1
  Mo  Mo246  1  0.09021932  0.50128668  0.71486422  1
  Mo  Mo247  1  0.58987678  0.60599222  0.00274946  1
  Mo  Mo248  1  0.48806885  0.70203615  0.69911468  1
  Mo  Mo249  1  0.80841889  0.39408106  0.00265701  1
