# generated using pymatgen
data_HfZrTaTiMo
_symmetry_space_group_name_H-M   'P 1'
_cell_length_a   16.88554946
_cell_length_b   16.88623057
_cell_length_c   16.88899289
_cell_angle_alpha   89.97289876
_cell_angle_beta   90.03204767
_cell_angle_gamma   89.98914729
_symmetry_Int_Tables_number   1
_chemical_formula_structural   HfZrTaTiMo
_chemical_formula_sum   'Hf50 Zr50 Ta50 Ti50 Mo50'
_cell_volume   4815.61258498
_cell_formula_units_Z   50
loop_
 _symmetry_equiv_pos_site_id
 _symmetry_equiv_pos_as_xyz
  1  'x, y, z'
loop_
 _atom_site_type_symbol
 _atom_site_label
 _atom_site_symmetry_multiplicity
 _atom_site_fract_x
 _atom_site_fract_y
 _atom_site_fract_z
 _atom_site_occupancy
  Hf  Hf0  1  0.78829623  0.59887495  0.39586542  1
  Hf  Hf1  1  -0.00148713  0.39243317  0.80415932  1
  Hf  Hf2  1  0.90813336  0.90262814  0.50019750  1
  Hf  Hf3  1  0.40175945  0.00769327  0.79660511  1
  Hf  Hf4  1  0.09710306  0.50615282  0.89638596  1
  Hf  Hf5  1  0.40390825  0.79409680  0.40031557  1
  Hf  Hf6  1  0.19529779  -0.01309508  0.21241393  1
  Hf  Hf7  1  0.00428160  0.79483682  0.60002108  1
  Hf  Hf8  1  0.68849759  0.69799671  0.68802323  1
  Hf  Hf9  1  0.29055578  0.70147498  0.10857259  1
  Hf  Hf10  1  0.49240425  0.30468286  0.89898360  1
  Hf  Hf11  1  -0.00029949  0.78233891  0.79242317  1
  Hf  Hf12  1  0.30238035  0.29839302  0.50587030  1
  Hf  Hf13  1  0.79350570  0.40215884  0.59183428  1
  Hf  Hf14  1  0.59942033  0.59760788  0.40112230  1
  Hf  Hf15  1  0.90851244  0.70763981  0.09850655  1
  Hf  Hf16  1  0.40245283  -0.00569120  0.60601236  1
  Hf  Hf17  1  0.20717178  0.60021174  -0.00012024  1
  Hf  Hf18  1  0.79453741  0.79969176  0.79307867  1
  Hf  Hf19  1  0.40419442  0.20212826  0.40137779  1
  Hf  Hf20  1  0.50926746  0.09487650  0.30549465  1
  Hf  Hf21  1  0.80284106  -0.00215634  0.19945899  1
  Hf  Hf22  1  0.79582442  0.00932844  0.00672355  1
  Hf  Hf23  1  0.89698997  0.50518561  0.90183973  1
  Hf  Hf24  1  0.29998981  0.09565853  0.49693607  1
  Hf  Hf25  1  0.10198684  0.10049989  0.89850436  1
  Hf  Hf26  1  0.09651870  0.89660260  0.89724114  1
  Hf  Hf27  1  0.79103447  0.19781801  0.18872132  1
  Hf  Hf28  1  0.11260871  0.29907560  0.09926161  1
  Hf  Hf29  1  0.09462632  0.87981040  0.09706592  1
  Hf  Hf30  1  0.90544364  0.91311180  0.69355222  1
  Hf  Hf31  1  0.29707445  0.69434344  0.51053303  1
  Hf  Hf32  1  0.40284426  0.19604106  0.20459640  1
  Hf  Hf33  1  0.10698828  0.90530525  0.49585029  1
  Hf  Hf34  1  0.40132248  0.59983052  0.20582447  1
  Hf  Hf35  1  0.10346943  0.10045494  0.09956436  1
  Hf  Hf36  1  0.89525318  0.29302374  0.49695873  1
  Hf  Hf37  1  0.79588391  0.80695560  0.39924743  1
  Hf  Hf38  1  -0.00437281  0.00153834  0.00108853  1
  Hf  Hf39  1  0.50473656  0.71098798  0.10566229  1
  Hf  Hf40  1  0.60595583  0.19891763  0.00879709  1
  Hf  Hf41  1  0.58795534  0.19348378  0.80075371  1
  Hf  Hf42  1  0.89622579  0.50233521  0.70429481  1
  Hf  Hf43  1  0.89319989  0.29660411  0.30478919  1
  Hf  Hf44  1  0.11180584  0.49694493  0.10493961  1
  Hf  Hf45  1  0.48977309  0.31309859  0.10061331  1
  Hf  Hf46  1  0.90080237  0.69693555  0.49159737  1
  Hf  Hf47  1  0.29836389  0.30288828  0.09862584  1
  Hf  Hf48  1  0.30614024  0.29524509  0.70245383  1
  Hf  Hf49  1  0.69148306  0.10127137  0.50372496  1
  Zr  Zr50  1  0.31241621  0.68859461  0.70255060  1
  Zr  Zr51  1  0.10484560  0.69714044  0.49481956  1
  Zr  Zr52  1  0.10531813  0.30112969  0.30307463  1
  Zr  Zr53  1  0.68002039  0.71905867  0.29335314  1
  Zr  Zr54  1  0.29704528  0.09632388  0.10008369  1
  Zr  Zr55  1  0.10350202  0.09919753  0.30968232  1
  Zr  Zr56  1  0.21009931  0.40336110  0.40768027  1
  Zr  Zr57  1  0.10182853  0.50422785  0.29969428  1
  Zr  Zr58  1  0.49308766  0.69953372  0.89735046  1
  Zr  Zr59  1  0.00230968  0.60055598  0.60519837  1
  Zr  Zr60  1  0.10589332  0.50891529  0.49924893  1
  Zr  Zr61  1  0.30016668  0.10976139  0.89866936  1
  Zr  Zr62  1  0.59481259  0.40375186  0.79295685  1
  Zr  Zr63  1  0.40211133  -0.00877327  0.20599528  1
  Zr  Zr64  1  0.80234157  -0.00174491  0.39514747  1
  Zr  Zr65  1  0.90796269  0.10247558  0.50104158  1
  Zr  Zr66  1  0.00058696  0.39955309  0.59846736  1
  Zr  Zr67  1  0.60336769  0.59456074  0.19541648  1
  Zr  Zr68  1  0.79779360  0.01274409  0.79393045  1
  Zr  Zr69  1  0.09496755  0.69763379  0.90626946  1
  Zr  Zr70  1  0.60961838  0.39793828  0.18772271  1
  Zr  Zr71  1  0.39565331  0.59755868  0.00166432  1
  Zr  Zr72  1  0.69130760  0.90979131  0.89608376  1
  Zr  Zr73  1  0.68983622  0.91193921  0.69065777  1
  Zr  Zr74  1  0.79952791  0.80457154  0.00159782  1
  Zr  Zr75  1  0.39760922  0.59606197  0.39844114  1
  Zr  Zr76  1  -0.00396121  0.39890896  0.20148726  1
  Zr  Zr77  1  0.59542283  0.60087556  0.79862029  1
  Zr  Zr78  1  0.21002221  -0.00104567  0.79723577  1
  Zr  Zr79  1  0.40103774  0.80011355  0.21247068  1
  Zr  Zr80  1  0.69265149  0.09945871  0.30441638  1
  Zr  Zr81  1  -0.00479036  0.39351912  -0.00352183  1
  Zr  Zr82  1  -0.00424848  0.20780604  0.80628955  1
  Zr  Zr83  1  -0.00999604  0.20809095  -0.00029555  1
  Zr  Zr84  1  0.70217108  0.29793077  0.30277956  1
  Zr  Zr85  1  0.90131769  0.69904725  0.29382728  1
  Zr  Zr86  1  0.29474584  0.89421766  0.10135515  1
  Zr  Zr87  1  0.50366841  0.69278157  0.51716790  1
  Zr  Zr88  1  0.90672148  0.90095725  0.89364130  1
  Zr  Zr89  1  0.60234580  0.58974751  0.01012059  1
  Zr  Zr90  1  0.52491099  0.89134574  0.30514308  1
  Zr  Zr91  1  0.09506272  0.90595186  0.70265885  1
  Zr  Zr92  1  0.70172620  0.30219125  0.89709915  1
  Zr  Zr93  1  0.40781438  0.19269642  -0.00369139  1
  Zr  Zr94  1  0.50033117  0.48641907  0.29571976  1
  Zr  Zr95  1  0.20638300  0.00461484  0.60551245  1
  Zr  Zr96  1  0.69719113  0.70196067  0.90362923  1
  Zr  Zr97  1  0.88523969  0.69113998  0.69564041  1
  Zr  Zr98  1  0.20483275  0.39871612  0.80128301  1
  Zr  Zr99  1  0.69484743  0.29524803  0.69446599  1
  Ta  Ta100  1  0.79935747  0.59968112  0.00564173  1
  Ta  Ta101  1  0.79989827  0.81285761  0.19973809  1
  Ta  Ta102  1  0.60431384  0.39849415  0.41238616  1
  Ta  Ta103  1  -0.00562170  0.40332707  0.40265556  1
  Ta  Ta104  1  0.39681965  0.40694698  0.60113699  1
  Ta  Ta105  1  0.08917972  0.10380066  0.69553074  1
  Ta  Ta106  1  0.49377226  0.49522381  0.90229054  1
  Ta  Ta107  1  0.20984622  0.60764003  0.38591150  1
  Ta  Ta108  1  0.00265267  -0.00567365  0.38955990  1
  Ta  Ta109  1  0.50099302  0.49766951  0.50760338  1
  Ta  Ta110  1  0.39556777  0.40991976  0.79561126  1
  Ta  Ta111  1  0.69611234  0.10291414  0.89856077  1
  Ta  Ta112  1  0.79367670  0.80607042  0.59169371  1
  Ta  Ta113  1  0.90552999  0.10535578  0.69233304  1
  Ta  Ta114  1  0.90255401  0.10172511  0.10475250  1
  Ta  Ta115  1  0.70495562  0.49667114  0.90145191  1
  Ta  Ta116  1  0.58601783  0.80510227  0.79378589  1
  Ta  Ta117  1  0.29745475  0.09428554  0.30920266  1
  Ta  Ta118  1  0.20995306  0.79440934  0.80397007  1
  Ta  Ta119  1  0.69897512  0.50436192  0.69691168  1
  Ta  Ta120  1  0.01231594  0.60906038  0.19698469  1
  Ta  Ta121  1  0.59186938  0.81217579  0.00053033  1
  Ta  Ta122  1  0.59774461  0.20929040  0.41166275  1
  Ta  Ta123  1  0.00920979  0.80166892  0.38407172  1
  Ta  Ta124  1  0.20529148  0.40490397  0.60489443  1
  Ta  Ta125  1  0.79388861  0.19806822  0.60019329  1
  Ta  Ta126  1  0.20531961  0.19815013  0.20721655  1
  Ta  Ta127  1  0.39850222  -0.01100678  0.40032359  1
  Ta  Ta128  1  0.39695395  0.80630335  -0.00537145  1
  Ta  Ta129  1  0.79530408  0.40553876  0.40345402  1
  Ta  Ta130  1  -0.00427360  -0.00542496  0.20649665  1
  Ta  Ta131  1  0.10623503  0.50486237  0.70626362  1
  Ta  Ta132  1  0.50361784  0.09542710  0.50159112  1
  Ta  Ta133  1  0.89490730  0.29100183  0.69772721  1
  Ta  Ta134  1  0.30288475  0.48767000  0.10962965  1
  Ta  Ta135  1  0.10007476  0.29741443  0.69438887  1
  Ta  Ta136  1  0.40436762  0.39895455  0.40759095  1
  Ta  Ta137  1  0.49347232  0.51159482  0.69355793  1
  Ta  Ta138  1  0.19689285  0.19889019  0.60113818  1
  Ta  Ta139  1  0.50636412  0.08758808  0.09699922  1
  Ta  Ta140  1  0.49711942  0.90627777  0.89895305  1
  Ta  Ta141  1  0.29942657  0.89306338  0.50081804  1
  Ta  Ta142  1  0.40610333  0.80396210  0.60841378  1
  Ta  Ta143  1  0.79914324  0.20121828  -0.00050932  1
  Ta  Ta144  1  0.50456345  0.30005437  0.30256467  1
  Ta  Ta145  1  -0.00145699  0.19762958  0.20059182  1
  Ta  Ta146  1  0.90020513  0.50680692  0.48964753  1
  Ta  Ta147  1  0.20345995  -0.00894602  -0.00515434  1
  Ta  Ta148  1  0.20458681  0.79985841  0.39083694  1
  Ta  Ta149  1  0.89835060  0.50528789  0.10594022  1
  Ti  Ti150  1  0.09888818  0.29678919  0.50503300  1
  Ti  Ti151  1  0.58826032  0.00537863  0.79729900  1
  Ti  Ti152  1  0.69274818  0.10380923  0.69449654  1
  Ti  Ti153  1  0.78778669  0.59530435  0.58631805  1
  Ti  Ti154  1  0.09724345  0.09713567  0.50242640  1
  Ti  Ti155  1  0.89935686  0.50457690  0.29809356  1
  Ti  Ti156  1  0.30429991  0.30345053  0.29794203  1
  Ti  Ti157  1  0.12074616  0.29026395  0.90655279  1
  Ti  Ti158  1  0.69116267  0.70609814  0.50456909  1
  Ti  Ti159  1  0.40148547  -0.00615497  -0.00419168  1
  Ti  Ti160  1  0.79317639  0.60051826  0.80615038  1
  Ti  Ti161  1  0.69208669  0.90293291  0.09651184  1
  Ti  Ti162  1  0.30521962  0.29616231  0.89809728  1
  Ti  Ti163  1  0.69197412  0.90314491  0.30155715  1
  Ti  Ti164  1  0.21322199  0.40626931  -0.01128542  1
  Ti  Ti165  1  0.60119285  0.20110859  0.19117325  1
  Ti  Ti166  1  0.18823049  0.78845859  0.21656491  1
  Ti  Ti167  1  0.30180847  0.89038515  0.70223305  1
  Ti  Ti168  1  0.58983798  0.80959099  0.60595039  1
  Ti  Ti169  1  0.80287613  0.39452909  0.00096389  1
  Ti  Ti170  1  0.80031465  0.39636230  0.79827075  1
  Ti  Ti171  1  0.39947510  0.80330821  0.80256418  1
  Ti  Ti172  1  0.90783435  0.89554836  0.10287364  1
  Ti  Ti173  1  0.60067545  0.40398646  0.59649566  1
  Ti  Ti174  1  0.89039408  0.30533129  0.10688750  1
  Ti  Ti175  1  0.89956697  0.10856952  0.30291101  1
  Ti  Ti176  1  0.00140972  0.60031187  0.00945869  1
  Ti  Ti177  1  0.21673220  0.59716351  0.80775010  1
  Ti  Ti178  1  0.60188472  0.40497253  0.00359982  1
  Ti  Ti179  1  0.20119503  0.79714653  0.60835337  1
  Ti  Ti180  1  0.29735307  0.49188330  0.29144126  1
  Ti  Ti181  1  0.50235239  0.10383411  0.68993810  1
  Ti  Ti182  1  0.11394965  0.68456178  0.70450125  1
  Ti  Ti183  1  0.20147895  0.20081038  0.40420869  1
  Ti  Ti184  1  0.72049150  0.48936705  0.09968793  1
  Ti  Ti185  1  0.00500791  0.20176913  0.40026277  1
  Ti  Ti186  1  0.79769801  0.60283667  0.19610500  1
  Ti  Ti187  1  0.40146195  0.19535437  0.60263653  1
  Ti  Ti188  1  0.79772527  0.00398747  0.59591626  1
  Ti  Ti189  1  0.50554443  0.90436078  0.50161409  1
  Ti  Ti190  1  0.20930126  0.79700255  -0.01284424  1
  Ti  Ti191  1  0.89324781  0.10631317  0.89390620  1
  Ti  Ti192  1  0.49483420  0.30111287  0.69472132  1
  Ti  Ti193  1  0.90312331  0.69282097  0.90335413  1
  Ti  Ti194  1  0.50284173  0.29937989  0.51088715  1
  Ti  Ti195  1  0.70577694  0.49221366  0.29483975  1
  Ti  Ti196  1  0.70086082  0.70923037  0.10125303  1
  Ti  Ti197  1  0.68638934  0.90703471  0.49944680  1
  Ti  Ti198  1  0.60466605  -0.00198717  0.18684982  1
  Ti  Ti199  1  0.20240129  0.19651666  0.79005414  1
  Mo  Mo200  1  0.30485843  0.11394445  0.69556849  1
  Mo  Mo201  1  0.49603640  0.90009128  0.70476526  1
  Mo  Mo202  1  0.70552977  0.30439021  0.09448396  1
  Mo  Mo203  1  0.30201685  0.70324693  0.89837252  1
  Mo  Mo204  1  0.30067253  0.49946380  0.69890401  1
  Mo  Mo205  1  0.59732158  0.00338969  -0.00247210  1
  Mo  Mo206  1  0.50031790  0.90480464  0.09171610  1
  Mo  Mo207  1  0.10104458  0.69785438  0.29763788  1
  Mo  Mo208  1  0.48504949  0.48893382  0.09317294  1
  Mo  Mo209  1  0.40077620  0.59409487  0.80145909  1
  Mo  Mo210  1  0.00051117  0.80129334  0.20038987  1
  Mo  Mo211  1  0.50320898  0.70091977  0.30041468  1
  Mo  Mo212  1  0.20301166  -0.00622765  0.40414980  1
  Mo  Mo213  1  0.49699716  0.70466917  0.70166278  1
  Mo  Mo214  1  0.30383103  0.50228503  0.89601470  1
  Mo  Mo215  1  0.39030578  0.40419095  -0.01020306  1
  Mo  Mo216  1  0.60122458  0.59207688  0.60022332  1
  Mo  Mo217  1  -0.00003239  0.59656608  0.80001329  1
  Mo  Mo218  1  0.69943589  0.09791906  0.09700596  1
  Mo  Mo219  1  -0.00103425  0.59840644  0.38909578  1
  Mo  Mo220  1  0.50493952  0.09225016  0.90312353  1
  Mo  Mo221  1  0.69734536  0.49917087  0.50127123  1
  Mo  Mo222  1  0.90344725  0.89622437  0.29571244  1
  Mo  Mo223  1  0.29224664  0.89833833  0.31017427  1
  Mo  Mo224  1  0.69769807  0.29892175  0.50021310  1
  Mo  Mo225  1  0.59687631  -0.00189915  0.41016187  1
  Mo  Mo226  1  0.79324810  0.20332688  0.40561620  1
  Mo  Mo227  1  0.40502718  0.20309027  0.79185481  1
  Mo  Mo228  1  0.00520044  0.20442273  0.59778905  1
  Mo  Mo229  1  0.09760234  0.89609547  0.29899883  1
  Mo  Mo230  1  -0.00153129  0.79596107  -0.00145197  1
  Mo  Mo231  1  0.59202309  0.00313154  0.60264093  1
  Mo  Mo232  1  0.29734600  0.70058691  0.29979529  1
  Mo  Mo233  1  0.80478633  0.40703869  0.20297832  1
  Mo  Mo234  1  0.30418573  0.89653755  0.89893794  1
  Mo  Mo235  1  -0.00346983  0.01516235  0.79684619  1
  Mo  Mo236  1  0.00499712  0.00850745  0.59270109  1
  Mo  Mo237  1  0.20466366  0.59142130  0.60759119  1
  Mo  Mo238  1  0.20491756  0.59916281  0.20037145  1
  Mo  Mo239  1  0.20336635  0.19937114  -0.00054147  1
  Mo  Mo240  1  0.59187133  0.20126527  0.60074918  1
  Mo  Mo241  1  0.39698842  0.39581544  0.21245318  1
  Mo  Mo242  1  0.60169394  0.80221214  0.42169256  1
  Mo  Mo243  1  0.30531813  0.50149249  0.50530879  1
  Mo  Mo244  1  0.10252074  0.69840447  0.10222866  1
  Mo  Mo245  1  0.79641895  0.19614103  0.79475011  1
  Mo  Mo246  1  0.88078634  0.30025570  0.89271682  1
  Mo  Mo247  1  0.60644455  0.81066308  0.18221557  1
  Mo  Mo248  1  0.39982815  0.59353435  0.60178249  1
  Mo  Mo249  1  0.20794677  0.39527225  0.20615287  1
