# generated using pymatgen
data_HfZrTaTiMo
_symmetry_space_group_name_H-M   'P 1'
_cell_length_a   16.88540674
_cell_length_b   16.88767703
_cell_length_c   16.87968497
_cell_angle_alpha   90.02007059
_cell_angle_beta   89.92441703
_cell_angle_gamma   90.03526072
_symmetry_Int_Tables_number   1
_chemical_formula_structural   HfZrTaTiMo
_chemical_formula_sum   'Hf50 Zr50 Ta50 Ti50 Mo50'
_cell_volume   4813.32616349
_cell_formula_units_Z   50
loop_
 _symmetry_equiv_pos_site_id
 _symmetry_equiv_pos_as_xyz
  1  'x, y, z'
loop_
 _atom_site_type_symbol
 _atom_site_label
 _atom_site_symmetry_multiplicity
 _atom_site_fract_x
 _atom_site_fract_y
 _atom_site_fract_z
 _atom_site_occupancy
  Hf  Hf0  1  0.00109489  0.20295404  0.60253816  1
  Hf  Hf1  1  0.20310021  -0.00076120  0.80324646  1
  Hf  Hf2  1  0.29457461  0.50649747  0.49477698  1
  Hf  Hf3  1  0.09384805  0.49735051  0.09718437  1
  Hf  Hf4  1  0.28424288  0.10421412  0.10525976  1
  Hf  Hf5  1  0.10129341  0.90036978  0.29232640  1
  Hf  Hf6  1  0.30220667  0.10764085  0.69940922  1
  Hf  Hf7  1  0.09539610  0.30738926  0.50476955  1
  Hf  Hf8  1  0.89012850  0.50650169  0.30484829  1
  Hf  Hf9  1  0.70183836  0.89584650  0.29507528  1
  Hf  Hf10  1  0.70035110  0.69749297  0.69483603  1
  Hf  Hf11  1  0.51602333  0.29530027  0.09172068  1
  Hf  Hf12  1  0.70779437  0.49786851  0.69953759  1
  Hf  Hf13  1  0.49048621  0.28716481  0.49183731  1
  Hf  Hf14  1  0.19917068  0.00287242  0.59850196  1
  Hf  Hf15  1  0.49419739  0.69649684  0.69941740  1
  Hf  Hf16  1  0.91181237  0.09685216  0.70549560  1
  Hf  Hf17  1  0.59421003  0.79153255  0.80801237  1
  Hf  Hf18  1  0.30897261  0.49998497  0.88859135  1
  Hf  Hf19  1  0.59975920  0.19039716  0.60107696  1
  Hf  Hf20  1  0.69532128  0.30325156  0.48726996  1
  Hf  Hf21  1  0.19573706  0.40325575  0.20582207  1
  Hf  Hf22  1  0.40458023  0.20282238  0.19822674  1
  Hf  Hf23  1  0.20530768  0.79075374  0.20093380  1
  Hf  Hf24  1  0.49989163  0.50348077  0.48695145  1
  Hf  Hf25  1  0.39268538  0.00332475  0.00032849  1
  Hf  Hf26  1  0.09586724  0.49834353  0.90276938  1
  Hf  Hf27  1  0.30298805  0.29852797  0.70761587  1
  Hf  Hf28  1  0.59333602  0.79429566  0.00564144  1
  Hf  Hf29  1  -0.00657065  0.60678056  -0.00020407  1
  Hf  Hf30  1  0.19584930  0.79904198  0.79838042  1
  Hf  Hf31  1  0.29476170  0.70054469  0.49295178  1
  Hf  Hf32  1  0.90837293  0.09812830  0.10538976  1
  Hf  Hf33  1  0.29277545  0.89733150  0.49376905  1
  Hf  Hf34  1  0.19258053  0.60504081  0.38472956  1
  Hf  Hf35  1  0.29649722  0.29485265  0.89954169  1
  Hf  Hf36  1  0.39993824  0.19572238  0.00419726  1
  Hf  Hf37  1  0.09685677  0.50311783  0.50230061  1
  Hf  Hf38  1  -0.00687943  0.80593345  -0.00191734  1
  Hf  Hf39  1  0.40066460  0.39857208  0.19628975  1
  Hf  Hf40  1  -0.00045432  0.79563987  0.40247414  1
  Hf  Hf41  1  0.59805846  0.40466511  0.59570056  1
  Hf  Hf42  1  0.70521828  0.30925675  0.70248824  1
  Hf  Hf43  1  0.69568496  0.29957681  0.91287511  1
  Hf  Hf44  1  0.89722210  0.09633915  0.49605874  1
  Hf  Hf45  1  0.60082427  0.59320638  0.80890468  1
  Hf  Hf46  1  0.50408721  0.89551493  0.68811863  1
  Hf  Hf47  1  0.39742197  0.79949752  0.38798784  1
  Hf  Hf48  1  -0.01099615  0.40416720  0.20466118  1
  Hf  Hf49  1  -0.00129677  0.39420220  0.80958272  1
  Zr  Zr50  1  0.69258265  0.90000945  0.70350090  1
  Zr  Zr51  1  0.59444846  0.79674388  0.39352229  1
  Zr  Zr52  1  0.90569574  0.30528303  0.70063107  1
  Zr  Zr53  1  0.09613308  0.10287037  0.50144206  1
  Zr  Zr54  1  0.20263425  0.80119287  -0.00414148  1
  Zr  Zr55  1  0.39190904  0.80805493  0.80717218  1
  Zr  Zr56  1  -0.00250069  0.20366983  0.20502249  1
  Zr  Zr57  1  0.39001762  0.39822502  0.59378416  1
  Zr  Zr58  1  0.39685972  0.80472173  0.00160319  1
  Zr  Zr59  1  0.60305882  0.59421376  0.00287473  1
  Zr  Zr60  1  0.20220555  0.20149128  0.39791535  1
  Zr  Zr61  1  0.00383997  0.79235830  0.79442176  1
  Zr  Zr62  1  -0.01521658  0.40920891  0.40879376  1
  Zr  Zr63  1  0.48603988  0.49874068  0.71362160  1
  Zr  Zr64  1  0.09519445  0.29588418  0.08679678  1
  Zr  Zr65  1  0.31366685  0.11368226  0.49704623  1
  Zr  Zr66  1  0.00587004  -0.00225404  0.39668629  1
  Zr  Zr67  1  0.09310137  0.49598205  0.69662536  1
  Zr  Zr68  1  0.79547786  0.19726337  0.59790174  1
  Zr  Zr69  1  0.81764016  0.79245259  0.60599865  1
  Zr  Zr70  1  0.69628054  0.09067311  0.90636160  1
  Zr  Zr71  1  0.80257613  -0.00635277  0.60509927  1
  Zr  Zr72  1  0.81793988  0.40592352  0.57883759  1
  Zr  Zr73  1  0.51279856  0.91612265  0.90839006  1
  Zr  Zr74  1  0.79184721  0.59377371  0.19399868  1
  Zr  Zr75  1  0.89914192  0.10385511  0.30610287  1
  Zr  Zr76  1  0.39935582  0.79670871  0.19511048  1
  Zr  Zr77  1  0.40220947  0.40294160  0.00305638  1
  Zr  Zr78  1  0.70875556  0.09718328  0.30143377  1
  Zr  Zr79  1  0.89177860  0.70169198  0.29470042  1
  Zr  Zr80  1  0.81763364  0.80551375  0.79913105  1
  Zr  Zr81  1  0.49797884  0.69739348  0.49998197  1
  Zr  Zr82  1  0.09071199  0.30086992  0.31106158  1
  Zr  Zr83  1  0.49570231  0.30054975  0.70400848  1
  Zr  Zr84  1  -0.00642361  0.61301001  0.59958270  1
  Zr  Zr85  1  0.70151491  0.90100690  0.90337672  1
  Zr  Zr86  1  0.39880618  0.00212836  0.80267366  1
  Zr  Zr87  1  0.39654157  0.39420028  0.39242933  1
  Zr  Zr88  1  0.59629936  0.78921752  0.20354621  1
  Zr  Zr89  1  0.71410442  0.69913338  0.90844511  1
  Zr  Zr90  1  0.29616896  0.90802004  0.29452596  1
  Zr  Zr91  1  0.80885828  0.20174670  0.80905350  1
  Zr  Zr92  1  0.50352682  0.09870135  0.29487701  1
  Zr  Zr93  1  0.09813316  0.69889076  0.09966778  1
  Zr  Zr94  1  0.09531014  0.91198534  0.90563418  1
  Zr  Zr95  1  0.81291047  -0.00810979  0.00312210  1
  Zr  Zr96  1  0.60192953  0.19633841  0.79625218  1
  Zr  Zr97  1  0.79887611  0.19837178  0.01366761  1
  Zr  Zr98  1  0.61407929  0.40200818  0.19873109  1
  Zr  Zr99  1  0.68952838  0.88847482  0.51083921  1
  Ta  Ta100  1  0.28680938  0.29617980  0.10029688  1
  Ta  Ta101  1  0.40841736  0.19225760  0.80624340  1
  Ta  Ta102  1  0.00329313  0.79993413  0.60402225  1
  Ta  Ta103  1  0.60082682  0.40685047  0.81452818  1
  Ta  Ta104  1  0.80452554  0.40308482  0.81498211  1
  Ta  Ta105  1  0.39543713  0.59366382  0.19742760  1
  Ta  Ta106  1  0.30034215  0.29622317  0.29940117  1
  Ta  Ta107  1  0.70926417  0.70265451  0.10221618  1
  Ta  Ta108  1  0.20135377  0.39802545  0.60297114  1
  Ta  Ta109  1  0.19785036  0.39840309  0.80136115  1
  Ta  Ta110  1  0.20251484  0.59795390  -0.00356934  1
  Ta  Ta111  1  0.79726758  0.79642040  0.39961820  1
  Ta  Ta112  1  0.28841962  0.91302469  0.10370599  1
  Ta  Ta113  1  0.19386387  0.60439210  0.79912361  1
  Ta  Ta114  1  0.60317885  0.59724282  0.20035414  1
  Ta  Ta115  1  0.89701129  0.89828025  0.29667233  1
  Ta  Ta116  1  0.40399759  -0.00017588  0.59522883  1
  Ta  Ta117  1  0.60494306  0.60024098  0.38871610  1
  Ta  Ta118  1  0.50661480  0.91350233  0.10711989  1
  Ta  Ta119  1  0.69895869  0.89922669  0.10352840  1
  Ta  Ta120  1  0.19333152  0.79720232  0.60603679  1
  Ta  Ta121  1  0.10171129  0.10755552  0.70964241  1
  Ta  Ta122  1  0.69894372  0.69380592  0.49919888  1
  Ta  Ta123  1  0.30018056  0.69165291  0.89702993  1
  Ta  Ta124  1  0.49646807  0.68797872  0.10111986  1
  Ta  Ta125  1  0.20370203  0.20962872  0.60148001  1
  Ta  Ta126  1  0.70188800  0.50376151  0.48753345  1
  Ta  Ta127  1  0.80380318  -0.00624897  0.19542032  1
  Ta  Ta128  1  0.49906022  0.10149829  0.49453039  1
  Ta  Ta129  1  0.60034692  0.59467928  0.59621234  1
  Ta  Ta130  1  0.29962430  0.69677099  0.70034035  1
  Ta  Ta131  1  0.90185495  0.49886658  0.70092215  1
  Ta  Ta132  1  0.61741046  0.20114105  0.19450210  1
  Ta  Ta133  1  0.90729402  0.89796284  0.50148720  1
  Ta  Ta134  1  0.60345585  0.19977310  0.39159314  1
  Ta  Ta135  1  0.39244984  0.79965277  0.59805870  1
  Ta  Ta136  1  0.81080954  0.59587120  0.80143094  1
  Ta  Ta137  1  0.51038877  0.10522599  0.91279081  1
  Ta  Ta138  1  0.39294496  0.59939466  0.60040407  1
  Ta  Ta139  1  0.20149691  0.59749389  0.19978023  1
  Ta  Ta140  1  0.50255174  0.30083044  0.90133225  1
  Ta  Ta141  1  0.10292198  0.29702307  0.70676082  1
  Ta  Ta142  1  0.09612844  0.09729362  0.09515649  1
  Ta  Ta143  1  0.19811764  0.39872168  -0.00555989  1
  Ta  Ta144  1  0.30039533  0.50176536  0.29921887  1
  Ta  Ta145  1  0.92063531  0.10027320  0.90673690  1
  Ta  Ta146  1  0.40406171  0.00012667  0.39880370  1
  Ta  Ta147  1  0.20009692  0.00642676  0.39386767  1
  Ta  Ta148  1  -0.00975427  0.80309908  0.19023497  1
  Ta  Ta149  1  0.59716968  -0.00087782  0.40339341  1
  Ti  Ti150  1  0.50402562  0.50250827  0.10265919  1
  Ti  Ti151  1  -0.00025485  0.60707954  0.80060938  1
  Ti  Ti152  1  0.79740132  0.21842957  0.20436306  1
  Ti  Ti153  1  0.49840153  0.89932671  0.50198478  1
  Ti  Ti154  1  0.60464571  0.40935977  0.00072093  1
  Ti  Ti155  1  0.70093583  0.49480580  0.30547763  1
  Ti  Ti156  1  0.19641780  0.00730546  -0.00297654  1
  Ti  Ti157  1  0.19111799  0.19846516  0.20702739  1
  Ti  Ti158  1  0.90032730  0.30633745  0.09722308  1
  Ti  Ti159  1  0.09455322  0.70362651  0.29449582  1
  Ti  Ti160  1  0.00295180  0.00076730  0.80467009  1
  Ti  Ti161  1  0.80366465  0.59743911  0.59664258  1
  Ti  Ti162  1  0.90000589  0.28414630  0.48349956  1
  Ti  Ti163  1  0.09348013  0.90936165  0.69457593  1
  Ti  Ti164  1  0.29993221  0.89860385  0.69256367  1
  Ti  Ti165  1  0.91198803  0.29652024  0.91615621  1
  Ti  Ti166  1  0.89458135  0.49918035  0.09478720  1
  Ti  Ti167  1  0.29817402  0.50231416  0.70456731  1
  Ti  Ti168  1  0.10305737  0.89664282  0.49903584  1
  Ti  Ti169  1  0.79825027  0.40166017  0.01016452  1
  Ti  Ti170  1  0.51885090  0.09481424  0.09965451  1
  Ti  Ti171  1  0.19822358  0.60538285  0.60746785  1
  Ti  Ti172  1  0.81475222  0.80242933  0.01249482  1
  Ti  Ti173  1  0.30074546  0.10170926  0.29714721  1
  Ti  Ti174  1  0.79837561  0.39341553  0.38892114  1
  Ti  Ti175  1  0.58876891  0.01215784  0.78658774  1
  Ti  Ti176  1  0.49032320  0.68220818  0.29718142  1
  Ti  Ti177  1  0.70112507  0.09855654  0.49034810  1
  Ti  Ti178  1  0.71346103  0.50153194  0.90852910  1
  Ti  Ti179  1  0.79787923  -0.01443313  0.40457857  1
  Ti  Ti180  1  0.19927971  0.40307794  0.39758508  1
  Ti  Ti181  1  0.70796967  0.09409142  0.70536645  1
  Ti  Ti182  1  0.28829484  0.10939213  0.90074864  1
  Ti  Ti183  1  0.89191240  0.69441134  0.49090082  1
  Ti  Ti184  1  0.89906093  0.49889584  0.90774326  1
  Ti  Ti185  1  0.48347519  0.68385193  0.90092452  1
  Ti  Ti186  1  0.09750630  0.91308046  0.10559134  1
  Ti  Ti187  1  0.29365985  0.49818698  0.09821914  1
  Ti  Ti188  1  0.39939117  0.59244511  0.00267179  1
  Ti  Ti189  1  0.50989178  0.30010346  0.30059875  1
  Ti  Ti190  1  0.10674686  0.70616404  0.49844587  1
  Ti  Ti191  1  0.30321364  0.69061038  0.09602614  1
  Ti  Ti192  1  0.89697658  0.69647260  0.90198662  1
  Ti  Ti193  1  0.39883145  0.00577318  0.19469847  1
  Ti  Ti194  1  -0.00197098  0.60123430  0.19958230  1
  Ti  Ti195  1  0.00161770  0.60246883  0.39695677  1
  Ti  Ti196  1  0.81681346  -0.00610006  0.80432526  1
  Ti  Ti197  1  0.50303932  0.91209659  0.29006775  1
  Ti  Ti198  1  0.59584708  0.00976012  0.59600155  1
  Ti  Ti199  1  0.50005553  0.50069722  0.30040435  1
  Mo  Mo200  1  0.70503344  0.49947446  0.09373611  1
  Mo  Mo201  1  0.40066101  0.39416771  0.80518045  1
  Mo  Mo202  1  0.70688578  0.09833241  0.11025592  1
  Mo  Mo203  1  0.59044207  0.78627562  0.59656025  1
  Mo  Mo204  1  0.79972923  0.80074601  0.19604697  1
  Mo  Mo205  1  0.89408322  0.51770548  0.49529434  1
  Mo  Mo206  1  -0.00902189  0.40079131  0.00056033  1
  Mo  Mo207  1  0.09509748  0.50928707  0.29718681  1
  Mo  Mo208  1  0.29100506  0.90383741  0.91016126  1
  Mo  Mo209  1  0.39295130  0.60202497  0.79787542  1
  Mo  Mo210  1  0.40193430  0.19482230  0.60498108  1
  Mo  Mo211  1  0.80181151  0.39757216  0.19673151  1
  Mo  Mo212  1  0.19015268  0.79826879  0.39989446  1
  Mo  Mo213  1  0.00088961  0.40115541  0.60224770  1
  Mo  Mo214  1  0.10350305  0.09672664  0.29275201  1
  Mo  Mo215  1  0.89624365  0.70243213  0.10022810  1
  Mo  Mo216  1  0.19432397  0.19908156  -0.00473826  1
  Mo  Mo217  1  0.00626883  -0.00512289  0.60209737  1
  Mo  Mo218  1  0.39695312  0.59894010  0.38922271  1
  Mo  Mo219  1  -0.00077799  -0.00558225  0.19715816  1
  Mo  Mo220  1  0.10430983  0.69774584  0.69716934  1
  Mo  Mo221  1  0.10395236  0.69110410  0.89781330  1
  Mo  Mo222  1  0.79018161  0.60367108  0.39950648  1
  Mo  Mo223  1  0.91959223  0.90900153  0.69698503  1
  Mo  Mo224  1  0.00811675  0.20089243  0.80913499  1
  Mo  Mo225  1  0.90143432  0.68669460  0.70543653  1
  Mo  Mo226  1  0.79551655  0.20543180  0.39693089  1
  Mo  Mo227  1  0.30152772  0.69255752  0.29453240  1
  Mo  Mo228  1  0.00593864  0.00281357  0.00377340  1
  Mo  Mo229  1  0.90235026  0.90068707  0.10562189  1
  Mo  Mo230  1  0.49784003  0.49493453  0.90526726  1
  Mo  Mo231  1  0.49413066  0.09647579  0.69102506  1
  Mo  Mo232  1  0.70200465  0.30013622  0.29955559  1
  Mo  Mo233  1  0.29310702  0.30337312  0.49841851  1
  Mo  Mo234  1  0.70651778  0.30712341  0.10109943  1
  Mo  Mo235  1  0.10016814  0.10833024  0.90152536  1
  Mo  Mo236  1  0.60926164  0.00142824  0.20032904  1
  Mo  Mo237  1  -0.00467685  0.19933114  0.40116210  1
  Mo  Mo238  1  0.90489878  0.90684675  0.89899072  1
  Mo  Mo239  1  0.40530972  0.19837836  0.38708110  1
  Mo  Mo240  1  0.88950466  0.30216860  0.30309025  1
  Mo  Mo241  1  0.80619592  0.59746647  -0.00050228  1
  Mo  Mo242  1  0.60102047  0.40280689  0.39177721  1
  Mo  Mo243  1  0.60303695  0.19615424  0.00718394  1
  Mo  Mo244  1  0.19610077  0.19994444  0.80163884  1
  Mo  Mo245  1  0.60887726  0.00368165  0.01524896  1
  Mo  Mo246  1  0.19288699  0.01048677  0.20048797  1
  Mo  Mo247  1  0.69849116  0.69660728  0.30048020  1
  Mo  Mo248  1  0.00027348  0.20083537  0.00051486  1
  Mo  Mo249  1  0.10144179  0.29693321  0.89865962  1
