# generated using pymatgen
data_HfZrTaTiMo
_symmetry_space_group_name_H-M   'P 1'
_cell_length_a   16.88826887
_cell_length_b   16.87333844
_cell_length_c   16.90005056
_cell_angle_alpha   89.95869092
_cell_angle_beta   89.93827734
_cell_angle_gamma   89.99282019
_symmetry_Int_Tables_number   1
_chemical_formula_structural   HfZrTaTiMo
_chemical_formula_sum   'Hf50 Zr50 Ta50 Ti50 Mo50'
_cell_volume   4815.85927240
_cell_formula_units_Z   50
loop_
 _symmetry_equiv_pos_site_id
 _symmetry_equiv_pos_as_xyz
  1  'x, y, z'
loop_
 _atom_site_type_symbol
 _atom_site_label
 _atom_site_symmetry_multiplicity
 _atom_site_fract_x
 _atom_site_fract_y
 _atom_site_fract_z
 _atom_site_occupancy
  Hf  Hf0  1  0.80617719  0.59357218  -0.00076839  1
  Hf  Hf1  1  0.79463721  0.00102534  -0.00589423  1
  Hf  Hf2  1  0.79861686  0.19823776  0.19811528  1
  Hf  Hf3  1  0.20840049  -0.00633185  0.79481602  1
  Hf  Hf4  1  0.50594663  0.50030833  0.89219068  1
  Hf  Hf5  1  0.40364563  0.20106741  0.40118031  1
  Hf  Hf6  1  0.09788413  0.69866482  0.10111283  1
  Hf  Hf7  1  0.00356923  0.40066861  0.60404295  1
  Hf  Hf8  1  0.10442689  0.29914365  0.49058647  1
  Hf  Hf9  1  0.00747703  0.80760838  0.60859535  1
  Hf  Hf10  1  0.50098770  0.09975825  0.09991634  1
  Hf  Hf11  1  0.60017447  0.61498846  0.39123841  1
  Hf  Hf12  1  0.09799643  0.09879620  0.09304266  1
  Hf  Hf13  1  0.60080026  0.80188137  0.79569382  1
  Hf  Hf14  1  0.69620700  0.30405933  0.51091158  1
  Hf  Hf15  1  0.90041294  0.10129160  0.09252518  1
  Hf  Hf16  1  0.90904508  0.69540057  0.50117564  1
  Hf  Hf17  1  0.40097950  0.20095319  0.20240858  1
  Hf  Hf18  1  0.49445752  0.70602678  0.69883697  1
  Hf  Hf19  1  0.19025079  0.40580508  -0.00051919  1
  Hf  Hf20  1  0.20764585  0.20039929  -0.01105583  1
  Hf  Hf21  1  0.39687471  0.19732885  0.60944458  1
  Hf  Hf22  1  0.20398966  0.79390565  0.20490427  1
  Hf  Hf23  1  0.80943172  0.80477624  0.60365489  1
  Hf  Hf24  1  0.30268648  0.89456479  0.30343467  1
  Hf  Hf25  1  0.19445005  0.18885031  0.60101169  1
  Hf  Hf26  1  0.70645406  0.30338786  0.09813478  1
  Hf  Hf27  1  0.50383255  0.30395489  0.70534982  1
  Hf  Hf28  1  0.60545922  0.61289295  0.60202040  1
  Hf  Hf29  1  0.50039719  0.50305107  0.30109574  1
  Hf  Hf30  1  0.20829482  0.19404167  0.80283341  1
  Hf  Hf31  1  0.79120137  0.19553562  -0.00945993  1
  Hf  Hf32  1  0.71088881  0.70954881  0.49618095  1
  Hf  Hf33  1  0.40162123  0.40187422  0.00448614  1
  Hf  Hf34  1  0.91008151  0.51106994  0.50286697  1
  Hf  Hf35  1  0.60178770  0.40258459  0.00058103  1
  Hf  Hf36  1  0.40376164  0.80433871  -0.00725138  1
  Hf  Hf37  1  0.40055478  0.40711460  0.19480033  1
  Hf  Hf38  1  0.29568578  0.89107922  0.49974632  1
  Hf  Hf39  1  0.29150813  0.30340143  0.49508516  1
  Hf  Hf40  1  0.29404403  0.30330388  0.70112912  1
  Hf  Hf41  1  0.41080624  0.59846809  0.00505358  1
  Hf  Hf42  1  0.69241312  0.89783885  0.09916842  1
  Hf  Hf43  1  0.50038876  0.89908804  0.29592583  1
  Hf  Hf44  1  0.69793694  0.50294938  0.50636238  1
  Hf  Hf45  1  0.79844505  -0.00096722  0.19810633  1
  Hf  Hf46  1  0.90119055  0.09414333  0.30951678  1
  Hf  Hf47  1  -0.00355202  0.20736484  0.19757856  1
  Hf  Hf48  1  0.28954683  0.51108486  0.90609967  1
  Hf  Hf49  1  0.91613721  0.71222403  0.30585249  1
  Zr  Zr50  1  0.10368286  0.69860268  0.90598272  1
  Zr  Zr51  1  0.49984949  0.09282486  0.50937903  1
  Zr  Zr52  1  0.88956655  0.30628618  0.89929728  1
  Zr  Zr53  1  0.18702288  -0.00195060  0.40868949  1
  Zr  Zr54  1  0.19768072  -0.00160768  0.19875211  1
  Zr  Zr55  1  0.80206691  0.19740139  0.40490921  1
  Zr  Zr56  1  0.09712829  0.69844117  0.49238406  1
  Zr  Zr57  1  0.39372858  0.60051371  0.59664396  1
  Zr  Zr58  1  0.59910987  0.19996817  0.40469057  1
  Zr  Zr59  1  0.60019643  0.78546893  0.21457223  1
  Zr  Zr60  1  0.20038777  0.60793434  0.60956971  1
  Zr  Zr61  1  0.60767219  0.19026979  -0.00675348  1
  Zr  Zr62  1  0.09067487  0.88984869  0.30424043  1
  Zr  Zr63  1  0.50823862  0.49538188  0.69847985  1
  Zr  Zr64  1  0.19701707  0.20035695  0.19937617  1
  Zr  Zr65  1  0.80469960  0.40345075  0.60921157  1
  Zr  Zr66  1  0.70671307  0.89655082  0.31113606  1
  Zr  Zr67  1  0.29230286  0.69404666  0.48191308  1
  Zr  Zr68  1  -0.00997607  0.40293655  0.01181424  1
  Zr  Zr69  1  0.38883986  0.39867062  0.80594191  1
  Zr  Zr70  1  -0.00153006  0.58611936  0.00261483  1
  Zr  Zr71  1  -0.00626687  0.19280974  0.59587115  1
  Zr  Zr72  1  0.90841071  0.70035528  0.89608595  1
  Zr  Zr73  1  0.60332702  0.19223678  0.80631145  1
  Zr  Zr74  1  0.30776032  0.09567812  0.09146051  1
  Zr  Zr75  1  0.80261253  0.60162589  0.38610760  1
  Zr  Zr76  1  0.70247631  0.69893461  0.09144886  1
  Zr  Zr77  1  0.10542054  0.50778862  0.48969124  1
  Zr  Zr78  1  0.81655067  0.79927851  0.19449718  1
  Zr  Zr79  1  0.60116904  0.40136706  0.39891983  1
  Zr  Zr80  1  0.29564404  0.09537632  0.49955284  1
  Zr  Zr81  1  0.59832161  0.00162343  -0.01135014  1
  Zr  Zr82  1  0.70282862  0.90588977  0.69915639  1
  Zr  Zr83  1  0.59495289  0.80168959  -0.01495768  1
  Zr  Zr84  1  0.61285329  0.60639633  0.80186857  1
  Zr  Zr85  1  0.09736152  0.89179597  0.89900435  1
  Zr  Zr86  1  0.80274944  0.40277509  0.39663879  1
  Zr  Zr87  1  0.40024201  0.40156153  0.40459785  1
  Zr  Zr88  1  0.81616574  0.00054526  0.59298778  1
  Zr  Zr89  1  0.09336388  0.09522843  0.70774172  1
  Zr  Zr90  1  0.09454538  0.29998466  0.89584520  1
  Zr  Zr91  1  0.60078869  0.59742387  0.19189139  1
  Zr  Zr92  1  0.58593561  -0.00110778  0.80534280  1
  Zr  Zr93  1  0.39971950  0.61158135  0.20482017  1
  Zr  Zr94  1  -0.00346545  -0.01145044  -0.00277957  1
  Zr  Zr95  1  0.29926908  0.30215211  0.09914610  1
  Zr  Zr96  1  0.29250269  0.50943348  0.31770028  1
  Zr  Zr97  1  0.80078229  0.20112413  0.60554845  1
  Zr  Zr98  1  0.29436686  0.69816908  0.09275853  1
  Zr  Zr99  1  -0.00689385  -0.01429594  0.19746492  1
  Ta  Ta100  1  -0.00630990  0.59933515  0.19832186  1
  Ta  Ta101  1  0.90728982  0.69457051  0.70210054  1
  Ta  Ta102  1  0.69326572  0.09729514  0.30379159  1
  Ta  Ta103  1  0.50338786  0.09787814  0.29849316  1
  Ta  Ta104  1  0.29927743  0.10045565  0.30623322  1
  Ta  Ta105  1  0.80642563  0.80332807  -0.00502629  1
  Ta  Ta106  1  0.79521401  0.20097941  0.79851480  1
  Ta  Ta107  1  0.50086193  0.50532969  0.50212630  1
  Ta  Ta108  1  0.50580216  0.29731477  0.29154154  1
  Ta  Ta109  1  0.50399357  0.30720263  0.51575975  1
  Ta  Ta110  1  0.09634218  0.10653352  0.30921575  1
  Ta  Ta111  1  0.59825309  0.80352933  0.59403755  1
  Ta  Ta112  1  0.70509968  0.49569502  0.28574734  1
  Ta  Ta113  1  0.79975174  0.60089093  0.79494333  1
  Ta  Ta114  1  0.09974798  0.30456999  0.30333703  1
  Ta  Ta115  1  0.80549045  0.79809235  0.79490906  1
  Ta  Ta116  1  0.90209696  0.30688996  0.29512491  1
  Ta  Ta117  1  0.49783817  0.29525784  0.90195120  1
  Ta  Ta118  1  0.29023839  0.30178362  0.30558397  1
  Ta  Ta119  1  0.70296818  0.09330564  0.69987830  1
  Ta  Ta120  1  0.89912016  0.09403912  0.71031204  1
  Ta  Ta121  1  0.90567051  0.30344063  0.49446375  1
  Ta  Ta122  1  0.19821863  0.60568571  0.79789843  1
  Ta  Ta123  1  0.59768636  -0.00494605  0.40472941  1
  Ta  Ta124  1  -0.00106796  0.40209852  0.39421848  1
  Ta  Ta125  1  0.59803150  0.39970404  0.19246317  1
  Ta  Ta126  1  0.38988868  0.60582828  0.79556813  1
  Ta  Ta127  1  0.49432692  0.90173728  0.10454336  1
  Ta  Ta128  1  0.20437755  -0.00460772  -0.00739431  1
  Ta  Ta129  1  0.19574497  0.40461480  0.20457257  1
  Ta  Ta130  1  0.60342420  0.19598591  0.60903293  1
  Ta  Ta131  1  0.00434163  -0.00645318  0.59564147  1
  Ta  Ta132  1  0.20265146  0.40919270  0.59890238  1
  Ta  Ta133  1  0.40782256  0.79118112  0.39648491  1
  Ta  Ta134  1  0.29699788  0.70101652  0.89854791  1
  Ta  Ta135  1  0.40451960  -0.00333939  0.39906901  1
  Ta  Ta136  1  0.69869724  0.09087204  0.50199053  1
  Ta  Ta137  1  0.39982045  0.00140259  0.20425179  1
  Ta  Ta138  1  0.09262008  0.09666132  0.89952506  1
  Ta  Ta139  1  0.30761555  0.90001416  0.10012338  1
  Ta  Ta140  1  0.20463393  0.79754780  0.78855388  1
  Ta  Ta141  1  -0.00037547  0.40536571  0.79639215  1
  Ta  Ta142  1  0.69824757  0.30160555  0.28977952  1
  Ta  Ta143  1  0.80780634  0.60153790  0.19738701  1
  Ta  Ta144  1  0.59478555  0.79830998  0.40706866  1
  Ta  Ta145  1  0.39358254  0.40693273  0.59730080  1
  Ta  Ta146  1  0.39320380  0.19005760  0.80897631  1
  Ta  Ta147  1  0.39413006  0.00040794  0.79867566  1
  Ta  Ta148  1  0.90611593  0.10007473  0.88939312  1
  Ta  Ta149  1  0.10147466  0.50185935  0.70282050  1
  Ti  Ti150  1  0.49434348  0.89757654  0.50426373  1
  Ti  Ti151  1  0.89897843  0.30187175  0.70647638  1
  Ti  Ti152  1  0.09657998  0.30518612  0.10493274  1
  Ti  Ti153  1  -0.00394030  0.20689820  -0.00019729  1
  Ti  Ti154  1  0.60170460  0.59642717  -0.00050978  1
  Ti  Ti155  1  0.50466184  0.29262368  0.09878666  1
  Ti  Ti156  1  0.09493349  0.49866175  0.29882747  1
  Ti  Ti157  1  0.00689130  0.59492637  0.79875784  1
  Ti  Ti158  1  0.00490968  0.80153722  0.78864012  1
  Ti  Ti159  1  0.49192313  0.89820121  0.69422818  1
  Ti  Ti160  1  0.40241409  -0.00211303  -0.01235226  1
  Ti  Ti161  1  0.29476325  0.50089573  0.70280689  1
  Ti  Ti162  1  0.30158989  0.89701107  0.89857354  1
  Ti  Ti163  1  0.10263288  0.30327931  0.70141207  1
  Ti  Ti164  1  -0.00354834  0.20435644  0.79842425  1
  Ti  Ti165  1  0.49937631  0.71006389  0.10221548  1
  Ti  Ti166  1  -0.00287510  0.00318188  0.42052564  1
  Ti  Ti167  1  0.19149916  -0.00876477  0.60572779  1
  Ti  Ti168  1  0.71119933  0.49329074  0.10079409  1
  Ti  Ti169  1  0.90349917  0.50618021  0.70388498  1
  Ti  Ti170  1  0.90413527  0.49285019  0.28831031  1
  Ti  Ti171  1  0.89632370  0.90081318  0.32074270  1
  Ti  Ti172  1  0.79811827  0.60534979  0.61426119  1
  Ti  Ti173  1  0.39580384  0.79554234  0.59710836  1
  Ti  Ti174  1  -0.01486962  0.80089075  0.01681614  1
  Ti  Ti175  1  0.70832280  0.89957361  0.89013142  1
  Ti  Ti176  1  0.00218977  0.81790912  0.42042673  1
  Ti  Ti177  1  0.70854421  0.70260094  0.89841083  1
  Ti  Ti178  1  0.19611388  0.80186697  0.61076273  1
  Ti  Ti179  1  0.39159052  0.80560505  0.79504546  1
  Ti  Ti180  1  0.20523147  0.80559161  -0.00175600  1
  Ti  Ti181  1  0.28642886  0.50953935  0.10143099  1
  Ti  Ti182  1  0.09656643  0.69956551  0.30667773  1
  Ti  Ti183  1  0.89844015  0.89712740  0.89196015  1
  Ti  Ti184  1  0.49734697  0.09578074  0.70059684  1
  Ti  Ti185  1  0.70640222  0.90204831  0.49500804  1
  Ti  Ti186  1  -0.00122087  -0.01365402  0.79254022  1
  Ti  Ti187  1  0.71032313  0.48481665  0.89332910  1
  Ti  Ti188  1  0.10034632  0.50315968  0.11252465  1
  Ti  Ti189  1  0.89458548  0.49435412  0.88876487  1
  Ti  Ti190  1  -0.00061972  0.19892716  0.40330522  1
  Ti  Ti191  1  0.38674957  -0.00473828  0.61078033  1
  Ti  Ti192  1  0.19366015  0.40500921  0.80323762  1
  Ti  Ti193  1  0.69385754  0.31051471  0.70984366  1
  Ti  Ti194  1  0.19593641  0.60298887  0.21033136  1
  Ti  Ti195  1  0.69891926  0.49242228  0.70607550  1
  Ti  Ti196  1  0.49407774  0.69853060  0.89121140  1
  Ti  Ti197  1  0.59888029  -0.00502329  0.59937384  1
  Ti  Ti198  1  0.60198017  0.00507748  0.20086643  1
  Ti  Ti199  1  0.10218136  0.89213310  0.09948375  1
  Mo  Mo200  1  0.90744018  0.89875981  0.70576766  1
  Mo  Mo201  1  0.59735256  0.40261122  0.60535438  1
  Mo  Mo202  1  0.09796230  0.49920203  0.88717082  1
  Mo  Mo203  1  0.40027323  0.80477110  0.19622526  1
  Mo  Mo204  1  0.79470755  0.00164910  0.40334191  1
  Mo  Mo205  1  0.40414224  0.20512387  -0.00814938  1
  Mo  Mo206  1  0.90266237  0.10092814  0.50004610  1
  Mo  Mo207  1  0.09916654  0.69846521  0.70698261  1
  Mo  Mo208  1  0.40996608  0.60554785  0.40378570  1
  Mo  Mo209  1  0.89427858  0.49742812  0.11274351  1
  Mo  Mo210  1  0.00141813  0.59997605  0.61963985  1
  Mo  Mo211  1  0.71075057  0.70589272  0.69835448  1
  Mo  Mo212  1  0.50956965  0.50122492  0.09751055  1
  Mo  Mo213  1  0.79838604  0.40599976  -0.00061756  1
  Mo  Mo214  1  0.18855827  0.60250631  0.38788392  1
  Mo  Mo215  1  0.19543271  0.19826387  0.39476728  1
  Mo  Mo216  1  0.30120486  0.70643390  0.70403748  1
  Mo  Mo217  1  0.29644334  0.70263855  0.30186486  1
  Mo  Mo218  1  0.71967417  0.08692665  0.87557873  1
  Mo  Mo219  1  0.49150242  0.70146128  0.30355300  1
  Mo  Mo220  1  0.19367157  0.59770571  -0.00157439  1
  Mo  Mo221  1  0.80253176  0.40467758  0.79626140  1
  Mo  Mo222  1  0.30239357  0.30449371  0.89883679  1
  Mo  Mo223  1  0.69439517  0.09927386  0.11631832  1
  Mo  Mo224  1  0.69847772  0.31008419  0.89500735  1
  Mo  Mo225  1  0.10548378  0.89774808  0.69998878  1
  Mo  Mo226  1  0.81227922  -0.00498036  0.79779975  1
  Mo  Mo227  1  0.09408199  0.09781250  0.49911083  1
  Mo  Mo228  1  0.19321198  0.40224942  0.39647748  1
  Mo  Mo229  1  0.80738544  0.80511585  0.40655958  1
  Mo  Mo230  1  0.50039253  0.70562427  0.50133581  1
  Mo  Mo231  1  0.30413917  0.89579724  0.69215034  1
  Mo  Mo232  1  0.60713950  0.39368392  0.80664283  1
  Mo  Mo233  1  0.90318535  0.69774816  0.09905630  1
  Mo  Mo234  1  0.71458676  0.69984965  0.30261294  1
  Mo  Mo235  1  0.80290742  0.39960738  0.19630628  1
  Mo  Mo236  1  0.29879443  0.09062761  0.89976060  1
  Mo  Mo237  1  0.00481301  0.79560376  0.18972398  1
  Mo  Mo238  1  0.89228881  0.89821213  0.09034849  1
  Mo  Mo239  1  0.29991465  0.50022233  0.50239436  1
  Mo  Mo240  1  0.89739876  0.30330733  0.10041353  1
  Mo  Mo241  1  0.48109467  0.10178188  0.90430446  1
  Mo  Mo242  1  0.30301366  0.09329163  0.69962030  1
  Mo  Mo243  1  0.10403941  0.89972471  0.50650513  1
  Mo  Mo244  1  0.60118980  0.19937534  0.20071879  1
  Mo  Mo245  1  0.00205215  0.40152765  0.20277427  1
  Mo  Mo246  1  0.19792131  0.79635305  0.39514784  1
  Mo  Mo247  1  0.90307418  0.90256827  0.49957502  1
  Mo  Mo248  1  0.48516219  0.89902134  0.89233746  1
  Mo  Mo249  1  -0.00156496  0.58994145  0.37786525  1
