# generated using pymatgen
data_HfZrTaTiMo
_symmetry_space_group_name_H-M   'P 1'
_cell_length_a   16.89160775
_cell_length_b   16.87705712
_cell_length_c   16.89124482
_cell_angle_alpha   90.05589877
_cell_angle_beta   89.92554184
_cell_angle_gamma   90.01372960
_symmetry_Int_Tables_number   1
_chemical_formula_structural   HfZrTaTiMo
_chemical_formula_sum   'Hf50 Zr50 Ta50 Ti50 Mo50'
_cell_volume   4815.36019882
_cell_formula_units_Z   50
loop_
 _symmetry_equiv_pos_site_id
 _symmetry_equiv_pos_as_xyz
  1  'x, y, z'
loop_
 _atom_site_type_symbol
 _atom_site_label
 _atom_site_symmetry_multiplicity
 _atom_site_fract_x
 _atom_site_fract_y
 _atom_site_fract_z
 _atom_site_occupancy
  Hf  Hf0  1  0.09151362  0.29983297  0.69906714  1
  Hf  Hf1  1  0.40802584  0.20174039  0.40036469  1
  Hf  Hf2  1  0.10034803  0.89820560  0.48707972  1
  Hf  Hf3  1  -0.00292597  0.00076154  -0.00455791  1
  Hf  Hf4  1  0.69318708  0.10726908  0.10495705  1
  Hf  Hf5  1  0.49610142  0.90531602  0.10090888  1
  Hf  Hf6  1  0.19833254  0.59995213  0.59929942  1
  Hf  Hf7  1  0.49623731  0.30472757  0.89645133  1
  Hf  Hf8  1  0.08891129  0.69063922  0.29774894  1
  Hf  Hf9  1  0.49439795  0.10541853  0.90376893  1
  Hf  Hf10  1  0.20601816  0.41133814  0.60244493  1
  Hf  Hf11  1  0.09618138  0.89751701  0.89978528  1
  Hf  Hf12  1  0.60314770  0.19267498  0.60786611  1
  Hf  Hf13  1  0.79895268  -0.00059373  0.59899374  1
  Hf  Hf14  1  0.59793152  0.40850419  -0.00638642  1
  Hf  Hf15  1  0.40151993  -0.00447348  0.80331594  1
  Hf  Hf16  1  0.61068917  0.60263765  0.80308226  1
  Hf  Hf17  1  0.89216648  0.50369809  0.69619610  1
  Hf  Hf18  1  0.80757619  0.80125995  0.40150693  1
  Hf  Hf19  1  0.09754551  0.89478821  0.70896729  1
  Hf  Hf20  1  0.70391511  0.30259321  0.51260167  1
  Hf  Hf21  1  0.39735629  0.59107858  0.19849659  1
  Hf  Hf22  1  0.30590761  0.09608532  0.69917184  1
  Hf  Hf23  1  0.59926583  0.00197401  -0.00358903  1
  Hf  Hf24  1  0.60866093  0.00199745  0.79142907  1
  Hf  Hf25  1  0.09681187  0.30029697  0.09664013  1
  Hf  Hf26  1  0.19693754  0.40914245  0.80296436  1
  Hf  Hf27  1  0.20085620  0.40736346  0.00734499  1
  Hf  Hf28  1  0.89690752  0.69630643  0.70811422  1
  Hf  Hf29  1  0.30382386  0.69645564  0.09341406  1
  Hf  Hf30  1  0.58680081  0.39318458  0.41672372  1
  Hf  Hf31  1  0.50099623  0.69955753  0.09648146  1
  Hf  Hf32  1  0.50336805  0.70087741  0.69403102  1
  Hf  Hf33  1  -0.00592633  -0.00887291  0.59559721  1
  Hf  Hf34  1  0.20507574  -0.00174377  0.58635537  1
  Hf  Hf35  1  0.80842374  0.79930755  -0.00596156  1
  Hf  Hf36  1  -0.00877871  0.39590848  0.39388988  1
  Hf  Hf37  1  0.40947099  0.40244576  0.59732633  1
  Hf  Hf38  1  0.19437359  -0.00465566  0.19812114  1
  Hf  Hf39  1  0.50553922  0.70383519  0.31158805  1
  Hf  Hf40  1  0.39517949  0.81095717  0.40318829  1
  Hf  Hf41  1  0.29276274  0.10325159  0.30091734  1
  Hf  Hf42  1  0.90800909  0.10202345  0.70294205  1
  Hf  Hf43  1  0.30483254  0.70510295  0.70349124  1
  Hf  Hf44  1  0.20782672  0.60532564  0.81362028  1
  Hf  Hf45  1  0.90261918  0.89496838  0.29033517  1
  Hf  Hf46  1  0.80637870  0.80717167  0.60950021  1
  Hf  Hf47  1  0.50414135  0.70257468  0.51001855  1
  Hf  Hf48  1  0.09806346  0.30006789  0.49827184  1
  Hf  Hf49  1  0.19840474  0.79289993  0.39515916  1
  Zr  Zr50  1  0.89951130  0.09477106  0.29659025  1
  Zr  Zr51  1  0.39349942  0.80375251  0.20648178  1
  Zr  Zr52  1  0.20654098  0.19513466  0.59170321  1
  Zr  Zr53  1  0.30712719  0.30315469  0.49284871  1
  Zr  Zr54  1  0.70689948  0.49880125  0.09777106  1
  Zr  Zr55  1  0.70674684  0.30285561  0.70349448  1
  Zr  Zr56  1  0.10296509  0.10033132  0.10059436  1
  Zr  Zr57  1  0.79875010  0.41173987  0.80105631  1
  Zr  Zr58  1  0.58997123  0.19931679  0.40600137  1
  Zr  Zr59  1  0.69123468  0.09517005  0.28935795  1
  Zr  Zr60  1  0.30735534  0.29966689  0.90266698  1
  Zr  Zr61  1  0.70076817  0.29936703  0.90421826  1
  Zr  Zr62  1  0.20049819  0.59288451  0.19085108  1
  Zr  Zr63  1  0.59222172  0.01166069  0.40059279  1
  Zr  Zr64  1  0.39293135  0.00464615  0.40482121  1
  Zr  Zr65  1  -0.00476426  -0.00541285  0.39576381  1
  Zr  Zr66  1  0.79412555  0.19868092  0.39963670  1
  Zr  Zr67  1  0.49830673  0.89585404  0.69491263  1
  Zr  Zr68  1  0.09171847  0.50766110  0.70465533  1
  Zr  Zr69  1  0.70263315  0.90194693  0.10551874  1
  Zr  Zr70  1  0.50111807  0.48541363  0.29686529  1
  Zr  Zr71  1  0.50758011  0.89266453  0.50823907  1
  Zr  Zr72  1  0.09497101  0.50495044  0.49094472  1
  Zr  Zr73  1  0.21046221  0.39799746  0.19480168  1
  Zr  Zr74  1  0.69829360  0.90337166  0.49318034  1
  Zr  Zr75  1  0.80741620  0.21319604  0.19727018  1
  Zr  Zr76  1  0.09679706  0.09697066  0.70196809  1
  Zr  Zr77  1  0.19880662  0.78684056  -0.00161333  1
  Zr  Zr78  1  0.29419303  0.89845809  0.90196454  1
  Zr  Zr79  1  0.89431572  0.30600228  0.90731197  1
  Zr  Zr80  1  0.60360497  0.80128240  0.19934155  1
  Zr  Zr81  1  0.31300289  0.69357408  0.50056311  1
  Zr  Zr82  1  0.79890147  0.59717788  0.39984965  1
  Zr  Zr83  1  0.70566924  0.10884775  0.89722780  1
  Zr  Zr84  1  0.19764253  0.20318572  0.80543746  1
  Zr  Zr85  1  0.80471406  0.00432728  -0.00055532  1
  Zr  Zr86  1  0.81721823  -0.01186445  0.79709484  1
  Zr  Zr87  1  0.67971181  0.30669735  0.28571825  1
  Zr  Zr88  1  0.19650296  0.79587248  0.59043820  1
  Zr  Zr89  1  0.07965087  0.70277358  0.90130050  1
  Zr  Zr90  1  0.60576605  0.59118403  0.40295866  1
  Zr  Zr91  1  0.69297681  0.70263450  0.50195372  1
  Zr  Zr92  1  0.79871454  0.39679086  0.39453164  1
  Zr  Zr93  1  0.30840524  0.30430432  0.70424291  1
  Zr  Zr94  1  0.60126378  0.59754030  0.19463726  1
  Zr  Zr95  1  0.31100054  0.50031878  0.90665436  1
  Zr  Zr96  1  0.09590272  0.50142835  0.29794769  1
  Zr  Zr97  1  0.30010147  0.09947950  0.09508578  1
  Zr  Zr98  1  0.09228001  0.70750061  0.71460951  1
  Zr  Zr99  1  0.60280510  0.79296734  -0.00999211  1
  Ta  Ta100  1  -0.00081494  0.20745082  0.20304826  1
  Ta  Ta101  1  0.50634335  0.50754208  0.70028511  1
  Ta  Ta102  1  0.40431644  0.79302807  0.80986541  1
  Ta  Ta103  1  0.30841964  0.49051115  0.30600372  1
  Ta  Ta104  1  0.49906336  0.30300290  0.10494302  1
  Ta  Ta105  1  0.71285704  0.69154521  0.09518710  1
  Ta  Ta106  1  -0.00404262  0.19913962  -0.00024387  1
  Ta  Ta107  1  0.09459598  0.89159380  0.09935830  1
  Ta  Ta108  1  0.70324740  0.49446072  0.51925809  1
  Ta  Ta109  1  0.28688779  0.90432479  0.30101850  1
  Ta  Ta110  1  -0.00662180  0.40116200  0.60007775  1
  Ta  Ta111  1  0.10271241  0.09747825  0.90193167  1
  Ta  Ta112  1  0.41002315  0.60250725  0.80620324  1
  Ta  Ta113  1  0.89534281  0.50333539  0.09015212  1
  Ta  Ta114  1  0.70318570  0.49603453  0.28857481  1
  Ta  Ta115  1  0.91310536  0.89565960  0.10565093  1
  Ta  Ta116  1  0.90273269  0.69296711  0.28834194  1
  Ta  Ta117  1  0.29532332  0.09676449  0.90630911  1
  Ta  Ta118  1  0.89451541  0.50006886  0.50520771  1
  Ta  Ta119  1  0.19607494  0.79632941  0.19916316  1
  Ta  Ta120  1  0.20105669  -0.00112339  0.80172898  1
  Ta  Ta121  1  0.19145667  0.59341978  0.00517080  1
  Ta  Ta122  1  0.89863382  0.50623452  0.29024650  1
  Ta  Ta123  1  -0.00489829  0.40004588  0.80462321  1
  Ta  Ta124  1  0.09928795  0.10362598  0.29873199  1
  Ta  Ta125  1  0.90741849  0.10039981  0.10487657  1
  Ta  Ta126  1  -0.00623252  0.79776719  0.59057983  1
  Ta  Ta127  1  0.40327888  0.79702471  -0.00875327  1
  Ta  Ta128  1  0.49490582  0.09507769  0.51994402  1
  Ta  Ta129  1  0.49790373  0.10423242  0.10761355  1
  Ta  Ta130  1  -0.03335651  0.81776628  0.80953254  1
  Ta  Ta131  1  -0.00465547  0.20366750  0.39574849  1
  Ta  Ta132  1  -0.00471515  0.79055680  0.40133407  1
  Ta  Ta133  1  0.60105435  0.41394832  0.80132926  1
  Ta  Ta134  1  0.80946496  0.39809190  0.19423951  1
  Ta  Ta135  1  -0.00200652  0.60642101  0.59284331  1
  Ta  Ta136  1  0.09897727  0.10198100  0.48600584  1
  Ta  Ta137  1  0.89681303  0.29750286  0.50854335  1
  Ta  Ta138  1  0.29507437  0.90074337  0.09777447  1
  Ta  Ta139  1  -0.00663228  0.39692717  0.19473074  1
  Ta  Ta140  1  0.70791023  0.70108041  0.29356445  1
  Ta  Ta141  1  0.39849504  0.00094952  0.20594549  1
  Ta  Ta142  1  0.70525817  0.89394070  0.89182606  1
  Ta  Ta143  1  0.59308716  0.20519357  0.00446571  1
  Ta  Ta144  1  0.70266001  0.90250307  0.30048438  1
  Ta  Ta145  1  0.60075444  0.60067212  -0.01054591  1
  Ta  Ta146  1  -0.00393671  0.20074697  0.81239529  1
  Ta  Ta147  1  0.29839942  0.89176890  0.70085944  1
  Ta  Ta148  1  0.20481257  0.39464435  0.39185166  1
  Ta  Ta149  1  0.89657013  0.10042859  0.49478905  1
  Ti  Ti150  1  0.80369550  -0.00083564  0.19631242  1
  Ti  Ti151  1  0.50397938  0.50859844  0.50945690  1
  Ti  Ti152  1  0.50294515  0.30297188  0.70506312  1
  Ti  Ti153  1  0.80787263  0.19687382  0.79898707  1
  Ti  Ti154  1  0.10100641  0.29688781  0.29838058  1
  Ti  Ti155  1  -0.01393900  0.58888311  0.81117924  1
  Ti  Ti156  1  0.71848986  0.51110748  0.90728006  1
  Ti  Ti157  1  0.30707062  0.49686518  0.48873477  1
  Ti  Ti158  1  0.40764241  0.41544684  0.79346206  1
  Ti  Ti159  1  0.09357600  0.89542923  0.29091228  1
  Ti  Ti160  1  0.59922762  0.19677262  0.79505199  1
  Ti  Ti161  1  0.20333705  0.59834870  0.40047215  1
  Ti  Ti162  1  0.90110062  0.29877489  0.69631959  1
  Ti  Ti163  1  0.69470171  0.30390859  0.09777625  1
  Ti  Ti164  1  0.41044971  0.60046125  -0.00781328  1
  Ti  Ti165  1  0.78886044  0.60530428  0.60803863  1
  Ti  Ti166  1  0.80367612  0.79424727  0.19567531  1
  Ti  Ti167  1  0.09486868  0.30282432  0.90395294  1
  Ti  Ti168  1  0.08583033  0.70102435  0.09754933  1
  Ti  Ti169  1  0.39472443  0.58785132  0.60925620  1
  Ti  Ti170  1  0.62076462  0.80089909  0.61909183  1
  Ti  Ti171  1  0.90002463  0.69196071  0.49854740  1
  Ti  Ti172  1  0.90427528  0.69665297  0.09830511  1
  Ti  Ti173  1  0.60981458  0.79461009  0.80049348  1
  Ti  Ti174  1  0.79636605  0.18831654  0.60330438  1
  Ti  Ti175  1  0.20104093  0.20154553  0.39736432  1
  Ti  Ti176  1  -0.00266998  0.19840621  0.59221074  1
  Ti  Ti177  1  0.50501582  0.89657698  0.89701327  1
  Ti  Ti178  1  0.39833547  -0.00328410  0.00037710  1
  Ti  Ti179  1  -0.00582709  0.40525586  0.00234464  1
  Ti  Ti180  1  0.89088029  0.68794804  0.90219049  1
  Ti  Ti181  1  0.80781063  0.20281711  0.00855566  1
  Ti  Ti182  1  0.49148066  0.30522347  0.28716614  1
  Ti  Ti183  1  0.39894326  0.20501517  0.00783470  1
  Ti  Ti184  1  0.40500883  0.59251654  0.39954859  1
  Ti  Ti185  1  0.08724831  0.50348371  0.90994435  1
  Ti  Ti186  1  0.61658258  0.00826116  0.60818876  1
  Ti  Ti187  1  0.39830738  0.40115677  0.01332917  1
  Ti  Ti188  1  0.40433897  0.20157005  0.59860430  1
  Ti  Ti189  1  0.59845462  0.40371284  0.61009823  1
  Ti  Ti190  1  0.20463460  0.21015273  0.20093000  1
  Ti  Ti191  1  0.40259621  0.19736538  0.79747042  1
  Ti  Ti192  1  0.39278373  0.20758805  0.20033171  1
  Ti  Ti193  1  0.30056025  0.69335905  0.30084616  1
  Ti  Ti194  1  0.38760034  -0.01007794  0.59112918  1
  Ti  Ti195  1  0.50818556  0.90639374  0.29889334  1
  Ti  Ti196  1  0.20133505  0.20536068  0.00012779  1
  Ti  Ti197  1  0.49453346  0.09544092  0.69743745  1
  Ti  Ti198  1  0.49836786  0.49503397  0.09910152  1
  Ti  Ti199  1  -0.00170555  0.59032878  0.18508717  1
  Mo  Mo200  1  0.00376661  -0.00189370  0.19576918  1
  Mo  Mo201  1  0.40184457  0.39871166  0.40178671  1
  Mo  Mo202  1  0.30135156  0.10204719  0.49721282  1
  Mo  Mo203  1  0.08675421  0.49930598  0.09437696  1
  Mo  Mo204  1  0.39687057  0.80610187  0.60230545  1
  Mo  Mo205  1  0.79952896  0.40196151  0.00538119  1
  Mo  Mo206  1  0.50220233  0.29416026  0.51913247  1
  Mo  Mo207  1  -0.00752864  0.79571416  0.00223973  1
  Mo  Mo208  1  0.19337285  0.00214674  0.39195575  1
  Mo  Mo209  1  0.90561482  0.10728611  0.90274069  1
  Mo  Mo210  1  0.90450766  0.89751770  0.69330088  1
  Mo  Mo211  1  0.31260140  0.50297544  0.09581500  1
  Mo  Mo212  1  0.00201847  0.79246246  0.19727392  1
  Mo  Mo213  1  0.50463118  0.69945046  0.89700472  1
  Mo  Mo214  1  0.60533983  0.59635319  0.60654256  1
  Mo  Mo215  1  0.79476879  0.79627942  0.80375846  1
  Mo  Mo216  1  0.70665581  0.69897113  0.89924553  1
  Mo  Mo217  1  0.90052470  0.50224688  0.90518153  1
  Mo  Mo218  1  0.30130872  0.29878516  0.29841974  1
  Mo  Mo219  1  0.08795857  0.69596259  0.48994139  1
  Mo  Mo220  1  0.90633795  0.30443067  0.29792294  1
  Mo  Mo221  1  -0.01415062  0.59940422  0.40231029  1
  Mo  Mo222  1  0.90117367  0.89643278  0.49432848  1
  Mo  Mo223  1  0.30605415  0.29684897  0.09950433  1
  Mo  Mo224  1  0.30945814  0.69611156  0.90346389  1
  Mo  Mo225  1  0.19709059  -0.00191697  -0.00116094  1
  Mo  Mo226  1  0.00507191  0.00332319  0.80323083  1
  Mo  Mo227  1  0.70168902  0.89916761  0.70707827  1
  Mo  Mo228  1  0.70959561  0.10308802  0.70294463  1
  Mo  Mo229  1  0.70200403  0.09989529  0.50496755  1
  Mo  Mo230  1  0.80309552  0.60371310  -0.00052904  1
  Mo  Mo231  1  0.69763560  0.50522341  0.69599440  1
  Mo  Mo232  1  -0.00502395  0.59911943  0.00295931  1
  Mo  Mo233  1  0.79778337  -0.00195061  0.39928859  1
  Mo  Mo234  1  0.39903329  0.39580897  0.19559262  1
  Mo  Mo235  1  0.58954020  0.00350975  0.20211024  1
  Mo  Mo236  1  0.60600673  0.80276043  0.38726949  1
  Mo  Mo237  1  0.50188028  0.50058417  0.89865030  1
  Mo  Mo238  1  0.90421000  0.30238491  0.09717713  1
  Mo  Mo239  1  0.79765814  0.60431198  0.80535924  1
  Mo  Mo240  1  0.89834763  0.90458580  0.91229928  1
  Mo  Mo241  1  0.49172910  0.10438150  0.28322615  1
  Mo  Mo242  1  0.29426982  0.89999163  0.49645515  1
  Mo  Mo243  1  0.70516160  0.70157088  0.70683663  1
  Mo  Mo244  1  0.58646313  0.20415878  0.19324033  1
  Mo  Mo245  1  0.21253737  0.80117531  0.80260027  1
  Mo  Mo246  1  0.80548068  0.60106300  0.19684128  1
  Mo  Mo247  1  0.31099859  0.50615624  0.70696969  1
  Mo  Mo248  1  0.59720069  0.39939326  0.18820738  1
  Mo  Mo249  1  0.80657308  0.39967936  0.60218612  1
