# generated using pymatgen
data_HfZrTaTiMo
_symmetry_space_group_name_H-M   'P 1'
_cell_length_a   16.89248133
_cell_length_b   16.88638883
_cell_length_c   16.89401446
_cell_angle_alpha   89.97671117
_cell_angle_beta   89.98385780
_cell_angle_gamma   90.00783614
_symmetry_Int_Tables_number   1
_chemical_formula_structural   HfZrTaTiMo
_chemical_formula_sum   'Hf50 Zr50 Ta50 Ti50 Mo50'
_cell_volume   4819.06780562
_cell_formula_units_Z   50
loop_
 _symmetry_equiv_pos_site_id
 _symmetry_equiv_pos_as_xyz
  1  'x, y, z'
loop_
 _atom_site_type_symbol
 _atom_site_label
 _atom_site_symmetry_multiplicity
 _atom_site_fract_x
 _atom_site_fract_y
 _atom_site_fract_z
 _atom_site_occupancy
  Hf  Hf0  1  0.79560137  0.20438689  0.40025015  1
  Hf  Hf1  1  0.49567371  0.10972460  0.90078507  1
  Hf  Hf2  1  0.21142218  0.79007632  0.78841279  1
  Hf  Hf3  1  0.89948762  0.70669417  0.69388165  1
  Hf  Hf4  1  0.00126468  0.21104943  0.80814701  1
  Hf  Hf5  1  0.30000288  0.49803584  0.90063867  1
  Hf  Hf6  1  0.79437928  0.39492926  0.20045089  1
  Hf  Hf7  1  0.90083240  0.90394781  0.29229791  1
  Hf  Hf8  1  0.49599191  0.50482628  0.90453149  1
  Hf  Hf9  1  0.79423487  0.79335311  0.79681846  1
  Hf  Hf10  1  0.40308824  0.59957972  0.20340816  1
  Hf  Hf11  1  0.89336344  0.09870494  0.69975669  1
  Hf  Hf12  1  0.39181898  0.60728122  0.78321689  1
  Hf  Hf13  1  0.40170199  0.20621728  0.59857599  1
  Hf  Hf14  1  0.69753800  0.50375073  0.90261591  1
  Hf  Hf15  1  0.29956701  0.30889636  0.89306445  1
  Hf  Hf16  1  0.21041534  0.78937190  0.20483558  1
  Hf  Hf17  1  0.69973663  0.69000263  0.91303568  1
  Hf  Hf18  1  0.30332197  0.49510041  0.30452002  1
  Hf  Hf19  1  0.69699373  0.10043623  0.51108966  1
  Hf  Hf20  1  0.31023090  0.50082898  0.09009488  1
  Hf  Hf21  1  0.41096419  0.20773464  0.21510836  1
  Hf  Hf22  1  -0.00159591  0.20161918  0.60264627  1
  Hf  Hf23  1  0.79695948  0.59478134  0.78440480  1
  Hf  Hf24  1  0.18979771  0.21436586  -0.00458122  1
  Hf  Hf25  1  0.40167580  0.60021907  0.58937214  1
  Hf  Hf26  1  0.41543565  0.39603072  0.20535283  1
  Hf  Hf27  1  0.10428258  0.69741955  0.10050890  1
  Hf  Hf28  1  0.10824794  0.50343189  0.51067960  1
  Hf  Hf29  1  0.80157044  0.39590183  -0.00193641  1
  Hf  Hf30  1  0.79853276  0.80368396  0.18677419  1
  Hf  Hf31  1  0.40960353  0.60414676  0.40744913  1
  Hf  Hf32  1  -0.00636217  0.19841456  0.40506225  1
  Hf  Hf33  1  0.39930899  -0.00148143  0.00359724  1
  Hf  Hf34  1  0.19943587  -0.00480744  0.40510613  1
  Hf  Hf35  1  0.70462840  0.88873054  0.50090314  1
  Hf  Hf36  1  0.49688905  0.30178036  0.89846251  1
  Hf  Hf37  1  0.60029562  -0.00186806  0.00321763  1
  Hf  Hf38  1  0.70523702  0.50271752  0.30901758  1
  Hf  Hf39  1  0.10380105  0.89013312  0.90886589  1
  Hf  Hf40  1  0.10790655  0.29962815  0.50818883  1
  Hf  Hf41  1  0.09682175  0.89524673  0.69557701  1
  Hf  Hf42  1  0.29675990  0.11135794  0.30944894  1
  Hf  Hf43  1  0.60374550  0.60064193  0.40908345  1
  Hf  Hf44  1  0.59820229  0.79787766  0.79008228  1
  Hf  Hf45  1  0.10992759  0.70172171  0.49818673  1
  Hf  Hf46  1  0.30152831  0.10546063  0.09356516  1
  Hf  Hf47  1  0.29586310  0.10951660  0.50160116  1
  Hf  Hf48  1  0.50439174  0.49217007  0.69039476  1
  Hf  Hf49  1  0.50729725  0.09975817  0.49881702  1
  Zr  Zr50  1  0.49901441  0.09917444  0.69527628  1
  Zr  Zr51  1  0.10053717  0.69768189  0.69906032  1
  Zr  Zr52  1  0.80077853  -0.00315737  0.39974287  1
  Zr  Zr53  1  -0.00016992  0.59036562  0.79609909  1
  Zr  Zr54  1  0.70349400  0.10191970  0.69776897  1
  Zr  Zr55  1  0.70023529  0.29332667  0.69143340  1
  Zr  Zr56  1  0.69853625  0.10075483  0.09976450  1
  Zr  Zr57  1  -0.00228490  0.21107117  0.00091272  1
  Zr  Zr58  1  0.29289249  0.49280536  0.50068288  1
  Zr  Zr59  1  0.89889487  0.90393627  0.69499657  1
  Zr  Zr60  1  0.00064933  0.40086259  0.40491944  1
  Zr  Zr61  1  0.10002012  0.09915783  0.69810301  1
  Zr  Zr62  1  0.60637061  0.80385954  0.01190900  1
  Zr  Zr63  1  0.50233120  0.11309381  0.09735229  1
  Zr  Zr64  1  0.49591593  0.89673139  0.11599547  1
  Zr  Zr65  1  0.09978425  0.89478665  0.29739393  1
  Zr  Zr66  1  0.30191827  0.69540808  0.90537099  1
  Zr  Zr67  1  0.59946921  0.21079991  0.21512614  1
  Zr  Zr68  1  -0.00910048  0.59870192  0.59616593  1
  Zr  Zr69  1  -0.01324701  0.79417037  0.00841417  1
  Zr  Zr70  1  0.19705388  0.39860760  0.19892629  1
  Zr  Zr71  1  0.20170638  -0.00330222  0.79738466  1
  Zr  Zr72  1  0.60075001  0.39905476  0.20109297  1
  Zr  Zr73  1  0.70448759  0.90421698  0.68662218  1
  Zr  Zr74  1  0.89157085  0.09301203  0.90293244  1
  Zr  Zr75  1  0.70713339  0.89925984  0.90640254  1
  Zr  Zr76  1  0.80110512  0.60025361  0.19450161  1
  Zr  Zr77  1  0.59433047  -0.00448298  0.79861420  1
  Zr  Zr78  1  0.49783234  0.69475617  0.90162049  1
  Zr  Zr79  1  0.31565006  0.30526689  0.08454688  1
  Zr  Zr80  1  0.19488846  0.21395436  0.19808271  1
  Zr  Zr81  1  -0.00047037  0.59614467  -0.00174715  1
  Zr  Zr82  1  0.38449608  0.79327935  0.57959839  1
  Zr  Zr83  1  0.29639147  0.89654671  0.90682803  1
  Zr  Zr84  1  0.80511210  0.20682195  -0.00016486  1
  Zr  Zr85  1  0.10469933  0.08911129  0.90795353  1
  Zr  Zr86  1  0.78879344  0.59750062  0.59112848  1
  Zr  Zr87  1  0.89948637  0.69525431  0.30164858  1
  Zr  Zr88  1  0.48569122  0.88764468  0.89393246  1
  Zr  Zr89  1  0.09814468  0.51084100  0.30392889  1
  Zr  Zr90  1  0.00112504  0.00101419  0.41128752  1
  Zr  Zr91  1  0.50360748  0.89571960  0.30484432  1
  Zr  Zr92  1  -0.00228033  0.80208839  0.40423979  1
  Zr  Zr93  1  0.50245721  0.69064141  0.10036768  1
  Zr  Zr94  1  0.10373655  0.90020719  0.10022269  1
  Zr  Zr95  1  0.20589566  0.00223047  0.20638968  1
  Zr  Zr96  1  0.09609894  0.09508438  0.10253562  1
  Zr  Zr97  1  0.28876846  0.49118529  0.69805404  1
  Zr  Zr98  1  0.79774701  0.20666785  0.20167976  1
  Zr  Zr99  1  0.60738118  0.60240652  0.77854403  1
  Ta  Ta100  1  0.29719982  0.10130158  0.69733687  1
  Ta  Ta101  1  0.09417172  0.10579586  0.30145457  1
  Ta  Ta102  1  -0.00433578  -0.00889147  0.80980997  1
  Ta  Ta103  1  0.30077880  0.89774156  0.10754631  1
  Ta  Ta104  1  0.70661723  0.70364075  0.31004271  1
  Ta  Ta105  1  0.00205243  0.40060195  -0.00817401  1
  Ta  Ta106  1  0.59724219  0.60091937  0.58493265  1
  Ta  Ta107  1  -0.00211945  0.40602025  0.61195351  1
  Ta  Ta108  1  0.89913090  0.49822538  0.30350518  1
  Ta  Ta109  1  0.49805513  0.70750355  0.68475204  1
  Ta  Ta110  1  0.60456585  0.39899038  0.79777019  1
  Ta  Ta111  1  0.49870137  0.89730931  0.49503926  1
  Ta  Ta112  1  0.10831952  0.69909626  0.90119670  1
  Ta  Ta113  1  0.89284877  0.50049654  0.89947312  1
  Ta  Ta114  1  0.69782967  0.10634371  0.90039785  1
  Ta  Ta115  1  0.40283985  0.00370340  0.40003071  1
  Ta  Ta116  1  0.20676765  0.60248449  0.20231804  1
  Ta  Ta117  1  0.41174417  0.20770140  0.40229080  1
  Ta  Ta118  1  0.40406778  0.01003529  0.21140388  1
  Ta  Ta119  1  0.69780053  0.09666427  0.30396222  1
  Ta  Ta120  1  0.50529717  0.70616234  0.30029447  1
  Ta  Ta121  1  0.89247090  0.30462656  0.51049777  1
  Ta  Ta122  1  0.50427128  0.30229217  0.69709626  1
  Ta  Ta123  1  0.29268826  0.29948962  0.69465946  1
  Ta  Ta124  1  0.30378945  0.89951669  0.69056673  1
  Ta  Ta125  1  0.00112371  0.40013550  0.19906979  1
  Ta  Ta126  1  -0.00147318  0.20808625  0.20144209  1
  Ta  Ta127  1  0.39284219  0.20276380  0.79305088  1
  Ta  Ta128  1  0.89039792  0.49544975  0.49927617  1
  Ta  Ta129  1  0.31354583  0.89566384  0.30221400  1
  Ta  Ta130  1  0.90066933  0.30427891  0.30341285  1
  Ta  Ta131  1  0.89367387  0.30241538  0.69699445  1
  Ta  Ta132  1  0.60327782  0.60098231  0.20471753  1
  Ta  Ta133  1  0.80051755  0.40064847  0.79708737  1
  Ta  Ta134  1  -0.00294287  0.40215082  0.79903044  1
  Ta  Ta135  1  0.90130745  0.10033614  0.29174545  1
  Ta  Ta136  1  0.89360587  0.89222271  0.90493652  1
  Ta  Ta137  1  -0.00245113  0.80482186  0.58631641  1
  Ta  Ta138  1  0.61429056  0.79716654  0.20550326  1
  Ta  Ta139  1  0.88885306  0.69504238  0.90467836  1
  Ta  Ta140  1  0.20115240  -0.00704827  0.59301943  1
  Ta  Ta141  1  0.38983569  0.79005474  0.01997028  1
  Ta  Ta142  1  0.59879257  0.40226914  0.00106919  1
  Ta  Ta143  1  0.29219889  0.29887989  0.50109401  1
  Ta  Ta144  1  0.10035404  0.50099474  0.10065330  1
  Ta  Ta145  1  -0.01214235  -0.00873440  0.00614112  1
  Ta  Ta146  1  0.30029675  0.10554749  0.89923360  1
  Ta  Ta147  1  0.90356235  0.49732967  0.09952515  1
  Ta  Ta148  1  0.79526309  0.39665217  0.40445813  1
  Ta  Ta149  1  0.41091763  0.39394938  0.40720682  1
  Ti  Ti150  1  0.39520517  0.00075409  0.79523454  1
  Ti  Ti151  1  0.70071165  0.30263102  0.51065121  1
  Ti  Ti152  1  0.60344655  0.39924376  0.40866133  1
  Ti  Ti153  1  0.10449331  0.30324375  0.69764469  1
  Ti  Ti154  1  0.59759037  0.20278641  0.79741609  1
  Ti  Ti155  1  0.60224751  0.20697658  0.39940861  1
  Ti  Ti156  1  0.79872931  -0.00288261  0.80370081  1
  Ti  Ti157  1  0.60380694  0.79518885  0.40235107  1
  Ti  Ti158  1  0.79200608  -0.00482878  0.19872441  1
  Ti  Ti159  1  0.50737740  0.49889053  0.30755586  1
  Ti  Ti160  1  0.10907534  0.10889502  0.50202160  1
  Ti  Ti161  1  0.90644478  0.30741444  0.10471513  1
  Ti  Ti162  1  0.09838360  0.69756247  0.30204862  1
  Ti  Ti163  1  0.29983743  0.30059062  0.31496455  1
  Ti  Ti164  1  0.39472084  -0.00279901  0.59182024  1
  Ti  Ti165  1  -0.00025341  0.59830106  0.19707375  1
  Ti  Ti166  1  0.70366320  0.69177217  0.09439270  1
  Ti  Ti167  1  0.10723397  0.50571074  0.89596123  1
  Ti  Ti168  1  0.60412087  -0.00197298  0.20947317  1
  Ti  Ti169  1  0.69766711  0.50566502  0.09353303  1
  Ti  Ti170  1  0.68816618  0.29562752  0.08869206  1
  Ti  Ti171  1  -0.00321883  0.79701025  0.80717817  1
  Ti  Ti172  1  0.18471609  0.39932787  -0.00032582  1
  Ti  Ti173  1  0.21767414  0.80577224  0.41448887  1
  Ti  Ti174  1  0.69829795  0.48414480  0.68312236  1
  Ti  Ti175  1  0.21124563  0.61336890  0.60928853  1
  Ti  Ti176  1  0.51338643  0.30184817  0.50860111  1
  Ti  Ti177  1  0.18405422  0.40250712  0.79548306  1
  Ti  Ti178  1  0.59171009  -0.01090388  0.59771875  1
  Ti  Ti179  1  0.09700434  0.29673797  0.30571559  1
  Ti  Ti180  1  0.19709907  0.20419067  0.79976974  1
  Ti  Ti181  1  0.20247225  0.60113510  0.00433292  1
  Ti  Ti182  1  0.80099034  -0.01230479  0.01477800  1
  Ti  Ti183  1  0.88910134  0.09943449  0.51150119  1
  Ti  Ti184  1  0.50078385  0.29857092  0.08154174  1
  Ti  Ti185  1  0.19822993  0.39640607  0.39891430  1
  Ti  Ti186  1  0.80434316  0.20941702  0.80683863  1
  Ti  Ti187  1  0.88024087  0.70702219  0.49206293  1
  Ti  Ti188  1  0.20918133  0.60885647  0.39505978  1
  Ti  Ti189  1  0.90203490  0.09263099  0.10982888  1
  Ti  Ti190  1  0.40162716  0.39518716  0.59302837  1
  Ti  Ti191  1  -0.00687640  0.79395726  0.19356047  1
  Ti  Ti192  1  0.40276751  0.39777398  0.79102254  1
  Ti  Ti193  1  0.00239407  -0.00356108  0.58945018  1
  Ti  Ti194  1  0.48785738  0.89248252  0.69150867  1
  Ti  Ti195  1  -0.00725021  0.60088892  0.40733367  1
  Ti  Ti196  1  0.60285440  -0.00236927  0.39532411  1
  Ti  Ti197  1  0.69605269  0.71849164  0.66687454  1
  Ti  Ti198  1  0.31331245  0.70754449  0.30711563  1
  Ti  Ti199  1  0.69372981  0.29799489  0.89880800  1
  Mo  Mo200  1  0.50442688  0.48945617  0.50049936  1
  Mo  Mo201  1  0.69844743  0.49077316  0.50066623  1
  Mo  Mo202  1  0.09981813  0.49785680  0.70166580  1
  Mo  Mo203  1  0.80046057  0.39998432  0.59926007  1
  Mo  Mo204  1  0.20429459  0.79260767  0.00875530  1
  Mo  Mo205  1  0.69791904  0.89901889  0.30122126  1
  Mo  Mo206  1  0.89736730  0.90484330  0.10268543  1
  Mo  Mo207  1  0.59794564  0.20642365  0.59732723  1
  Mo  Mo208  1  -0.00447217  0.01044456  0.19974325  1
  Mo  Mo209  1  0.69985349  0.70456892  0.49354201  1
  Mo  Mo210  1  0.70053683  0.90451961  0.10848746  1
  Mo  Mo211  1  0.39904951  0.79868691  0.77892934  1
  Mo  Mo212  1  0.50679223  0.49895474  0.09972771  1
  Mo  Mo213  1  0.10133501  0.31418409  0.89347109  1
  Mo  Mo214  1  0.30375200  0.90967930  0.49498703  1
  Mo  Mo215  1  0.39934199  0.79582894  0.20531751  1
  Mo  Mo216  1  0.19835890  0.80553597  0.59338708  1
  Mo  Mo217  1  0.50657884  0.09867933  0.31014212  1
  Mo  Mo218  1  0.29922653  0.69396980  0.10365020  1
  Mo  Mo219  1  0.80827482  0.79990670  0.58957897  1
  Mo  Mo220  1  0.70175766  0.30175584  0.31588620  1
  Mo  Mo221  1  0.80211564  0.79288789  0.00474221  1
  Mo  Mo222  1  0.89882275  0.30993398  0.89049754  1
  Mo  Mo223  1  0.89836328  0.90054213  0.50094845  1
  Mo  Mo224  1  0.08945229  0.31155210  0.09743989  1
  Mo  Mo225  1  0.60198312  0.39993180  0.59520057  1
  Mo  Mo226  1  0.89504719  0.49108633  0.69874845  1
  Mo  Mo227  1  0.40217755  0.80063150  0.39723470  1
  Mo  Mo228  1  0.20150565  0.19742208  0.60582894  1
  Mo  Mo229  1  0.39666862  0.20280793  -0.01290968  1
  Mo  Mo230  1  0.79708565  0.79972779  0.39419876  1
  Mo  Mo231  1  0.20764255  -0.00573683  0.00306053  1
  Mo  Mo232  1  0.19614831  0.59653978  0.80315737  1
  Mo  Mo233  1  0.29372252  0.69518239  0.49205896  1
  Mo  Mo234  1  0.89948706  0.69163832  0.09852868  1
  Mo  Mo235  1  0.80657669  -0.00101210  0.59443648  1
  Mo  Mo236  1  0.80135824  0.59502461  0.40172106  1
  Mo  Mo237  1  0.40126006  0.59759963  0.00437126  1
  Mo  Mo238  1  0.30180999  0.70199049  0.69298428  1
  Mo  Mo239  1  0.19542753  0.20417394  0.39925268  1
  Mo  Mo240  1  0.60113279  0.59059811  0.01365223  1
  Mo  Mo241  1  0.58815678  0.80089373  0.59184713  1
  Mo  Mo242  1  0.10585977  0.89575111  0.50503647  1
  Mo  Mo243  1  0.50635271  0.70825516  0.49363739  1
  Mo  Mo244  1  0.50722137  0.30464456  0.32103962  1
  Mo  Mo245  1  0.80325792  0.20143288  0.59605384  1
  Mo  Mo246  1  0.80367038  0.59373764  0.00394799  1
  Mo  Mo247  1  0.60438296  0.20745815  -0.00996751  1
  Mo  Mo248  1  0.41084108  0.40231525  -0.00296102  1
  Mo  Mo249  1  0.19340116  0.39318146  0.60543793  1
