# generated using pymatgen
data_HfZrTaTiMo
_symmetry_space_group_name_H-M   'P 1'
_cell_length_a   16.88824125
_cell_length_b   16.89114808
_cell_length_c   16.88671616
_cell_angle_alpha   89.96130605
_cell_angle_beta   89.96402137
_cell_angle_gamma   90.05426940
_symmetry_Int_Tables_number   1
_chemical_formula_structural   HfZrTaTiMo
_chemical_formula_sum   'Hf50 Zr50 Ta50 Ti50 Mo50'
_cell_volume   4817.13056325
_cell_formula_units_Z   50
loop_
 _symmetry_equiv_pos_site_id
 _symmetry_equiv_pos_as_xyz
  1  'x, y, z'
loop_
 _atom_site_type_symbol
 _atom_site_label
 _atom_site_symmetry_multiplicity
 _atom_site_fract_x
 _atom_site_fract_y
 _atom_site_fract_z
 _atom_site_occupancy
  Hf  Hf0  1  0.80066746  -0.00607935  0.39734216  1
  Hf  Hf1  1  0.00487040  0.20274589  0.00817863  1
  Hf  Hf2  1  0.31593338  0.89326999  0.70372278  1
  Hf  Hf3  1  0.30267535  0.49798612  0.50262871  1
  Hf  Hf4  1  0.59488287  0.20409117  0.80033441  1
  Hf  Hf5  1  0.01753420  0.20439078  0.38967953  1
  Hf  Hf6  1  0.19295381  0.39745914  0.20560146  1
  Hf  Hf7  1  0.29612174  0.70380314  0.89813684  1
  Hf  Hf8  1  0.59647869  0.20088814  -0.00013132  1
  Hf  Hf9  1  0.50618002  0.70640796  0.30279055  1
  Hf  Hf10  1  0.29698363  0.90433333  0.09630321  1
  Hf  Hf11  1  0.29636697  0.70032245  0.10071546  1
  Hf  Hf12  1  0.80288394  0.40543194  0.80816884  1
  Hf  Hf13  1  0.79118644  0.61426963  0.59434890  1
  Hf  Hf14  1  0.89338398  0.50301379  0.10451517  1
  Hf  Hf15  1  0.90566527  0.10036693  0.90112194  1
  Hf  Hf16  1  0.31165977  0.70019878  0.71198484  1
  Hf  Hf17  1  0.89168295  0.90189028  0.11094970  1
  Hf  Hf18  1  0.10547056  0.89137689  0.30524735  1
  Hf  Hf19  1  0.50394721  0.11281786  0.30686202  1
  Hf  Hf20  1  0.20048060  0.79438187  0.60678740  1
  Hf  Hf21  1  0.79230644  0.60752183  0.40169764  1
  Hf  Hf22  1  0.80515371  -0.00103460  0.59955059  1
  Hf  Hf23  1  0.89827778  0.49357692  0.68977654  1
  Hf  Hf24  1  0.29391386  0.70726656  0.30164100  1
  Hf  Hf25  1  0.40638645  0.80534220  0.19437014  1
  Hf  Hf26  1  0.11268199  0.10731264  0.50302039  1
  Hf  Hf27  1  0.59331678  0.00215418  0.19541758  1
  Hf  Hf28  1  0.69615513  0.50045849  0.29510893  1
  Hf  Hf29  1  0.00181941  0.40611189  0.00373028  1
  Hf  Hf30  1  0.01194244  0.60512823  0.59984502  1
  Hf  Hf31  1  0.69636171  0.69110400  0.89701761  1
  Hf  Hf32  1  0.80164143  0.20639298  0.00364854  1
  Hf  Hf33  1  0.89484793  0.49930242  0.29241267  1
  Hf  Hf34  1  0.60067083  0.60247664  0.19728728  1
  Hf  Hf35  1  0.29247364  0.49275078  0.89203080  1
  Hf  Hf36  1  0.00138056  0.00095166  0.39142684  1
  Hf  Hf37  1  0.60560390  0.80132543  0.18761125  1
  Hf  Hf38  1  0.50006192  0.29596712  0.10717847  1
  Hf  Hf39  1  0.21030854  0.02584609  0.38711371  1
  Hf  Hf40  1  0.10030076  0.49212167  0.70432527  1
  Hf  Hf41  1  0.69386601  0.09890940  0.69756729  1
  Hf  Hf42  1  0.40460369  0.39582523  0.21438239  1
  Hf  Hf43  1  0.59897296  0.60915009  0.59502412  1
  Hf  Hf44  1  0.79448227  0.80731991  0.80530535  1
  Hf  Hf45  1  0.00527825  0.20414236  0.79895809  1
  Hf  Hf46  1  0.41360987  0.59184070  0.61322034  1
  Hf  Hf47  1  0.70220430  0.09176547  0.09877922  1
  Hf  Hf48  1  0.49537314  0.09687512  0.50870384  1
  Hf  Hf49  1  0.90111463  0.29842464  0.29292516  1
  Zr  Zr50  1  0.89988653  0.49631534  0.50235759  1
  Zr  Zr51  1  0.10595956  0.89567586  0.49681232  1
  Zr  Zr52  1  0.39903105  0.38972414  -0.00266596  1
  Zr  Zr53  1  0.19659852  0.59689760  0.39357532  1
  Zr  Zr54  1  0.91390880  0.70921497  0.49764539  1
  Zr  Zr55  1  0.20900832  0.00450459  0.60535936  1
  Zr  Zr56  1  0.10796108  0.30298067  0.89718118  1
  Zr  Zr57  1  -0.00681767  0.59213830  0.80853881  1
  Zr  Zr58  1  0.90111062  0.10571025  0.49887539  1
  Zr  Zr59  1  0.69300141  0.90546920  0.69641620  1
  Zr  Zr60  1  0.40246084  0.59698169  0.20353293  1
  Zr  Zr61  1  0.30538984  0.70136451  0.50481311  1
  Zr  Zr62  1  0.69960144  0.49346569  0.69754400  1
  Zr  Zr63  1  0.90388879  0.71142261  0.70287400  1
  Zr  Zr64  1  0.68601487  0.28904605  0.30148489  1
  Zr  Zr65  1  0.00518713  0.60193804  0.38498683  1
  Zr  Zr66  1  0.19319679  0.19663873  0.21844033  1
  Zr  Zr67  1  0.20796717  0.00485628  0.80051979  1
  Zr  Zr68  1  0.70122389  0.09474493  0.90110698  1
  Zr  Zr69  1  0.49843742  0.49752383  0.89317015  1
  Zr  Zr70  1  0.19979716  0.38815788  0.39844402  1
  Zr  Zr71  1  0.79205758  0.39281543  0.39641455  1
  Zr  Zr72  1  0.89952062  0.70193107  0.90847810  1
  Zr  Zr73  1  0.29563423  0.29428075  0.89573130  1
  Zr  Zr74  1  0.69402458  0.48380166  0.50408002  1
  Zr  Zr75  1  0.90318845  0.30835237  0.70072934  1
  Zr  Zr76  1  0.80137216  0.80522283  0.39615119  1
  Zr  Zr77  1  0.41128656  0.59346996  0.39923871  1
  Zr  Zr78  1  0.40194816  0.38791647  0.60037504  1
  Zr  Zr79  1  0.48503646  0.69994137  0.89035927  1
  Zr  Zr80  1  0.68989627  0.10535524  0.50144300  1
  Zr  Zr81  1  0.09825547  0.90312067  0.90133760  1
  Zr  Zr82  1  0.30355056  0.90177793  0.29851726  1
  Zr  Zr83  1  0.60089575  0.80557750  -0.00559680  1
  Zr  Zr84  1  0.58368760  0.59802866  0.77982420  1
  Zr  Zr85  1  0.89564461  0.30288119  0.50029743  1
  Zr  Zr86  1  0.59022977  0.81171936  0.80142605  1
  Zr  Zr87  1  0.90614521  0.89886644  0.90293359  1
  Zr  Zr88  1  0.39342918  0.59503077  0.00099081  1
  Zr  Zr89  1  0.91783153  0.89093065  0.50573823  1
  Zr  Zr90  1  -0.00110889  0.79696867  0.20106641  1
  Zr  Zr91  1  0.20470717  0.38523838  0.59971487  1
  Zr  Zr92  1  0.01225229  0.20612317  0.60200126  1
  Zr  Zr93  1  0.39622583  0.19353797  0.00501085  1
  Zr  Zr94  1  0.18956109  0.59429559  0.00494212  1
  Zr  Zr95  1  0.30629040  0.90387253  0.49919078  1
  Zr  Zr96  1  0.89641423  0.10017276  0.28442249  1
  Zr  Zr97  1  0.19854248  0.00869079  0.19579513  1
  Zr  Zr98  1  0.50421443  0.49564563  0.09933783  1
  Zr  Zr99  1  0.59867211  -0.00986658  0.40117352  1
  Ta  Ta100  1  0.69596703  0.50024884  0.90254227  1
  Ta  Ta101  1  0.50667077  0.49131775  0.49978786  1
  Ta  Ta102  1  0.80565517  0.00232544  0.79786096  1
  Ta  Ta103  1  0.58960589  -0.00141105  0.80318418  1
  Ta  Ta104  1  0.89035052  0.69596238  0.10350202  1
  Ta  Ta105  1  0.59348459  0.38994331  0.80069352  1
  Ta  Ta106  1  0.70328868  0.30185778  0.89778003  1
  Ta  Ta107  1  0.01316707  0.39977401  0.39594022  1
  Ta  Ta108  1  0.79046869  0.79753866  0.00839903  1
  Ta  Ta109  1  0.29997124  0.90152847  0.90518242  1
  Ta  Ta110  1  0.78945882  0.39183722  0.19039427  1
  Ta  Ta111  1  0.10013188  0.49461116  0.89546624  1
  Ta  Ta112  1  0.60196959  0.60378209  0.40290217  1
  Ta  Ta113  1  0.30056139  0.49692885  0.30053575  1
  Ta  Ta114  1  0.79730076  0.40010320  0.00100676  1
  Ta  Ta115  1  0.69984846  0.09965325  0.29703258  1
  Ta  Ta116  1  0.70345661  0.70504368  0.29203637  1
  Ta  Ta117  1  0.79533051  0.20364184  0.60555176  1
  Ta  Ta118  1  0.00769547  0.59799819  0.19651431  1
  Ta  Ta119  1  0.90877327  0.89833782  0.70231862  1
  Ta  Ta120  1  0.50023344  0.70441850  0.09022224  1
  Ta  Ta121  1  0.79630830  0.20037656  0.19039605  1
  Ta  Ta122  1  0.10288589  0.71034244  0.49013310  1
  Ta  Ta123  1  0.09408115  0.89737784  0.70546267  1
  Ta  Ta124  1  0.09607556  0.70269355  0.89996873  1
  Ta  Ta125  1  0.29413288  0.29683010  0.10724148  1
  Ta  Ta126  1  0.70838294  0.90101531  0.28397716  1
  Ta  Ta127  1  0.41030711  0.80856352  0.40259095  1
  Ta  Ta128  1  0.90271669  0.30092872  0.10449560  1
  Ta  Ta129  1  0.10541700  0.10131390  0.90232440  1
  Ta  Ta130  1  0.01012687  0.39878956  0.19935153  1
  Ta  Ta131  1  0.19065847  0.80422130  0.00464450  1
  Ta  Ta132  1  0.49713228  0.09696324  0.90079487  1
  Ta  Ta133  1  0.69986227  0.49951900  0.09667407  1
  Ta  Ta134  1  0.00576481  0.00477053  0.01369847  1
  Ta  Ta135  1  0.60556554  0.39199567  -0.00336621  1
  Ta  Ta136  1  0.49863028  0.90897028  0.08980013  1
  Ta  Ta137  1  0.39584592  0.00792518  0.00194150  1
  Ta  Ta138  1  0.90193718  0.30656325  0.90157158  1
  Ta  Ta139  1  0.01721340  0.39344425  0.59271746  1
  Ta  Ta140  1  0.10513144  0.10166869  0.70264076  1
  Ta  Ta141  1  0.19681043  0.59956642  0.79665609  1
  Ta  Ta142  1  0.00541911  0.00308718  0.60816555  1
  Ta  Ta143  1  0.50461147  0.71236186  0.50266739  1
  Ta  Ta144  1  0.79174760  0.80110596  0.59704347  1
  Ta  Ta145  1  0.80202300  0.20134773  0.79855560  1
  Ta  Ta146  1  0.49496563  0.09523199  0.69797240  1
  Ta  Ta147  1  0.29413494  0.49212376  0.10777247  1
  Ta  Ta148  1  0.10439810  0.50153658  0.50036365  1
  Ta  Ta149  1  0.00006277  0.59676866  0.00429396  1
  Ti  Ti150  1  0.39545530  0.19397298  0.19990301  1
  Ti  Ti151  1  0.60016228  0.60028123  0.00248503  1
  Ti  Ti152  1  0.39202948  0.19835548  0.40539896  1
  Ti  Ti153  1  0.30569371  0.29172850  0.30580717  1
  Ti  Ti154  1  0.20402007  0.39323402  0.78615824  1
  Ti  Ti155  1  0.40359005  -0.00014591  0.80526655  1
  Ti  Ti156  1  0.40235856  0.00228503  0.40053165  1
  Ti  Ti157  1  0.20227622  0.19726221  0.78949652  1
  Ti  Ti158  1  0.69382287  0.71064041  0.69853512  1
  Ti  Ti159  1  0.20031727  0.19426057  0.01467703  1
  Ti  Ti160  1  0.00224463  0.80179448  0.00971079  1
  Ti  Ti161  1  0.70256725  0.90737195  0.09581357  1
  Ti  Ti162  1  0.31313888  0.10459656  0.69136193  1
  Ti  Ti163  1  0.81043712  0.00088513  0.00262836  1
  Ti  Ti164  1  0.70226250  0.30160346  0.70003103  1
  Ti  Ti165  1  0.40603913  0.39591614  0.78696339  1
  Ti  Ti166  1  0.39979357  0.80780403  -0.00369842  1
  Ti  Ti167  1  0.40182329  0.01378857  0.19323762  1
  Ti  Ti168  1  0.40427280  0.39226381  0.39968412  1
  Ti  Ti169  1  0.49988141  0.28933916  0.49439044  1
  Ti  Ti170  1  0.19639598  0.00798161  0.00667060  1
  Ti  Ti171  1  0.50121815  0.90187771  0.29758728  1
  Ti  Ti172  1  0.30558078  0.28420640  0.69589442  1
  Ti  Ti173  1  0.48809841  0.72854589  0.69479816  1
  Ti  Ti174  1  0.58365098  0.39354137  0.39146397  1
  Ti  Ti175  1  0.90218347  0.10086747  0.70042415  1
  Ti  Ti176  1  0.79728736  0.59684169  -0.00028139  1
  Ti  Ti177  1  0.09585465  0.69856925  0.09923043  1
  Ti  Ti178  1  0.19131456  0.79910753  0.19232398  1
  Ti  Ti179  1  0.89164120  0.70192602  0.28790346  1
  Ti  Ti180  1  0.69120328  0.29579482  0.50353075  1
  Ti  Ti181  1  0.09323582  0.10548963  0.10875711  1
  Ti  Ti182  1  0.58888226  0.38826410  0.60939465  1
  Ti  Ti183  1  0.19748227  0.80186129  0.80495865  1
  Ti  Ti184  1  0.09654966  0.70658288  0.71087017  1
  Ti  Ti185  1  0.69943250  0.91315758  0.90770141  1
  Ti  Ti186  1  0.20064338  0.59989756  0.60897569  1
  Ti  Ti187  1  0.29694781  0.10131694  0.90199316  1
  Ti  Ti188  1  0.59782514  0.39599743  0.20217145  1
  Ti  Ti189  1  0.79354421  0.19754459  0.39914752  1
  Ti  Ti190  1  0.00262642  -0.00043942  0.19849369  1
  Ti  Ti191  1  0.40651677  0.20107754  0.80029879  1
  Ti  Ti192  1  0.80033473  0.59668966  0.80037205  1
  Ti  Ti193  1  0.19229028  0.39669066  0.01480716  1
  Ti  Ti194  1  0.00198550  0.00489981  0.79827656  1
  Ti  Ti195  1  0.60431165  0.80389554  0.40110554  1
  Ti  Ti196  1  0.59093633  0.20741914  0.60714836  1
  Ti  Ti197  1  0.68824236  0.89647937  0.50901695  1
  Ti  Ti198  1  0.59938665  0.19772474  0.19410400  1
  Ti  Ti199  1  0.18858727  0.59301587  0.20310066  1
  Mo  Mo200  1  0.29808441  0.10297429  0.10146317  1
  Mo  Mo201  1  0.09771978  0.30063392  0.29796928  1
  Mo  Mo202  1  0.31986481  0.10425980  0.30104026  1
  Mo  Mo203  1  0.78647328  0.38532278  0.60088616  1
  Mo  Mo204  1  0.50510975  0.49548675  0.31064845  1
  Mo  Mo205  1  0.09881386  0.50156236  0.10112160  1
  Mo  Mo206  1  0.49727060  0.09930065  0.10215672  1
  Mo  Mo207  1  0.00124339  0.39961948  0.80436575  1
  Mo  Mo208  1  0.40567449  0.80493630  0.59350320  1
  Mo  Mo209  1  0.70135434  0.69198133  0.09344946  1
  Mo  Mo210  1  0.59093944  0.00066286  -0.00227962  1
  Mo  Mo211  1  0.59186157  -0.00350190  0.60565525  1
  Mo  Mo212  1  0.20544579  0.79270841  0.39965103  1
  Mo  Mo213  1  0.00457941  0.80202666  0.80422370  1
  Mo  Mo214  1  0.09929906  0.49936185  0.29829745  1
  Mo  Mo215  1  0.10355589  0.70122485  0.29336229  1
  Mo  Mo216  1  0.30903746  0.10591924  0.50174913  1
  Mo  Mo217  1  0.40393525  0.00105109  0.60342466  1
  Mo  Mo218  1  -0.00092454  0.20391701  0.19382327  1
  Mo  Mo219  1  0.21117972  0.20369266  0.40323071  1
  Mo  Mo220  1  0.79585617  0.60153071  0.19664798  1
  Mo  Mo221  1  0.08974861  0.09899639  0.29638684  1
  Mo  Mo222  1  0.69685202  0.30224284  0.09938364  1
  Mo  Mo223  1  0.79522312  0.79794813  0.19420114  1
  Mo  Mo224  1  0.89469358  0.50084037  0.90864790  1
  Mo  Mo225  1  0.79540562  0.00145581  0.19826965  1
  Mo  Mo226  1  0.29870168  0.50012413  0.70450141  1
  Mo  Mo227  1  0.49671203  0.29320681  0.30309921  1
  Mo  Mo228  1  0.10926041  0.29908913  0.49707495  1
  Mo  Mo229  1  0.90132137  0.09860323  0.09970060  1
  Mo  Mo230  1  0.50148620  0.48206841  0.69505674  1
  Mo  Mo231  1  0.39017286  0.58319167  0.79046323  1
  Mo  Mo232  1  0.39950538  0.19768853  0.59952621  1
  Mo  Mo233  1  0.09834491  0.90198479  0.09868020  1
  Mo  Mo234  1  0.50080197  0.89954852  0.50294980  1
  Mo  Mo235  1  0.59485431  0.20186692  0.40612971  1
  Mo  Mo236  1  0.10032518  0.29820422  0.10222108  1
  Mo  Mo237  1  0.21212681  0.19850287  0.60295466  1
  Mo  Mo238  1  0.59686666  0.80340386  0.59641711  1
  Mo  Mo239  1  0.69118973  0.71323808  0.49342645  1
  Mo  Mo240  1  0.49596796  0.91037520  0.69536441  1
  Mo  Mo241  1  0.01198888  0.80050711  0.61215950  1
  Mo  Mo242  1  0.00278659  0.79502054  0.38227437  1
  Mo  Mo243  1  0.30518780  0.28879497  0.49570893  1
  Mo  Mo244  1  0.89911481  0.90026044  0.29426052  1
  Mo  Mo245  1  0.10939502  0.29634880  0.70210433  1
  Mo  Mo246  1  0.50198123  0.29660847  0.89511061  1
  Mo  Mo247  1  0.49624946  0.28934274  0.70147004  1
  Mo  Mo248  1  0.48983134  0.91236882  0.90258507  1
  Mo  Mo249  1  0.40007639  0.81642297  0.81095554  1
