# generated using pymatgen
data_HfZrTaTiMo
_symmetry_space_group_name_H-M   'P 1'
_cell_length_a   16.88415047
_cell_length_b   16.88505992
_cell_length_c   16.88981685
_cell_angle_alpha   89.97621957
_cell_angle_beta   89.97029768
_cell_angle_gamma   89.95189260
_symmetry_Int_Tables_number   1
_chemical_formula_structural   HfZrTaTiMo
_chemical_formula_sum   'Hf50 Zr50 Ta50 Ti50 Mo50'
_cell_volume   4815.11331042
_cell_formula_units_Z   50
loop_
 _symmetry_equiv_pos_site_id
 _symmetry_equiv_pos_as_xyz
  1  'x, y, z'
loop_
 _atom_site_type_symbol
 _atom_site_label
 _atom_site_symmetry_multiplicity
 _atom_site_fract_x
 _atom_site_fract_y
 _atom_site_fract_z
 _atom_site_occupancy
  Hf  Hf0  1  0.60245310  0.00654219  0.40290110  1
  Hf  Hf1  1  0.90030777  0.49291885  0.10217259  1
  Hf  Hf2  1  0.29943513  0.49181571  0.90181902  1
  Hf  Hf3  1  0.30482752  0.29968804  0.29639651  1
  Hf  Hf4  1  -0.00332834  0.60585155  0.00540303  1
  Hf  Hf5  1  0.49508090  0.30335725  0.49714165  1
  Hf  Hf6  1  0.89229441  0.09569773  0.29018513  1
  Hf  Hf7  1  0.69203621  0.09376895  0.70802965  1
  Hf  Hf8  1  0.00014895  -0.00345085  0.60946419  1
  Hf  Hf9  1  0.89882941  0.69454694  0.48121749  1
  Hf  Hf10  1  0.90321402  0.10497666  0.70749575  1
  Hf  Hf11  1  0.49657470  0.69594256  0.30194918  1
  Hf  Hf12  1  0.69852352  0.30511179  0.50500235  1
  Hf  Hf13  1  0.19365790  0.81251722  -0.00345643  1
  Hf  Hf14  1  0.79486375  0.00358722  0.40643676  1
  Hf  Hf15  1  0.59450063  0.60252406  0.80275133  1
  Hf  Hf16  1  0.80051403  -0.00290706  0.60415217  1
  Hf  Hf17  1  0.40588302  0.00900305  0.18719648  1
  Hf  Hf18  1  0.59911084  0.79433100  0.19559233  1
  Hf  Hf19  1  0.89076037  0.09350187  0.09951564  1
  Hf  Hf20  1  0.59670013  0.59975451  0.19255452  1
  Hf  Hf21  1  0.49489874  0.49276279  0.90150445  1
  Hf  Hf22  1  0.70246494  0.69312442  0.49866158  1
  Hf  Hf23  1  0.80498175  -0.01157843  0.80378904  1
  Hf  Hf24  1  0.50073417  0.09683665  0.51522495  1
  Hf  Hf25  1  0.00271868  -0.00977464  0.80386887  1
  Hf  Hf26  1  0.39579304  0.40753520  0.60001308  1
  Hf  Hf27  1  0.00425377  0.19855069  0.18942188  1
  Hf  Hf28  1  0.40570451  0.19582284  0.39814144  1
  Hf  Hf29  1  0.79827183  0.40540153  0.80477052  1
  Hf  Hf30  1  0.10189574  0.30279463  0.50498354  1
  Hf  Hf31  1  0.69625808  0.11129687  0.09567417  1
  Hf  Hf32  1  0.60317845  0.40559978  0.60768582  1
  Hf  Hf33  1  0.70276098  0.50510971  0.70404470  1
  Hf  Hf34  1  0.09620534  0.70574732  0.89736799  1
  Hf  Hf35  1  0.49150609  0.49384930  0.09664891  1
  Hf  Hf36  1  0.29714630  0.30682378  0.49887238  1
  Hf  Hf37  1  0.70293771  0.70315658  0.08535210  1
  Hf  Hf38  1  0.19366134  0.60251517  0.20304376  1
  Hf  Hf39  1  0.30450596  0.89565396  0.28723523  1
  Hf  Hf40  1  0.49400258  0.90130783  0.70562885  1
  Hf  Hf41  1  0.50013726  0.70441587  0.50234361  1
  Hf  Hf42  1  0.30877876  0.49965490  0.29786620  1
  Hf  Hf43  1  0.59477428  0.20326554  0.80541669  1
  Hf  Hf44  1  0.21221668  0.78525284  0.59337269  1
  Hf  Hf45  1  0.48950925  0.88149085  0.08641925  1
  Hf  Hf46  1  0.79556810  0.20246687  0.60345571  1
  Hf  Hf47  1  0.69189479  0.89095766  0.90340046  1
  Hf  Hf48  1  0.20163497  0.20393940  0.79856789  1
  Hf  Hf49  1  0.49768937  0.89888870  0.89422716  1
  Zr  Zr50  1  0.50444895  0.50776810  0.49245171  1
  Zr  Zr51  1  0.60374256  0.19830068  0.39851506  1
  Zr  Zr52  1  0.80170519  0.59433239  -0.01007284  1
  Zr  Zr53  1  0.10830162  0.29701054  0.29953153  1
  Zr  Zr54  1  0.69936117  0.50443161  0.30277809  1
  Zr  Zr55  1  0.69880572  0.89109182  0.50839124  1
  Zr  Zr56  1  0.10712815  0.88754723  0.70267527  1
  Zr  Zr57  1  0.30245715  0.10026870  0.29195909  1
  Zr  Zr58  1  0.70634691  0.10204187  0.28117418  1
  Zr  Zr59  1  0.20303590  -0.00324499  0.60378029  1
  Zr  Zr60  1  0.00196598  0.20632151  0.00312021  1
  Zr  Zr61  1  0.39558621  0.39185534  0.80037168  1
  Zr  Zr62  1  0.39614714  0.19795120  0.80309476  1
  Zr  Zr63  1  0.10055597  0.69449962  0.71003063  1
  Zr  Zr64  1  0.49784192  0.29452944  0.69352531  1
  Zr  Zr65  1  0.81259437  0.60246322  0.61257054  1
  Zr  Zr66  1  0.79738075  0.39735122  0.40251436  1
  Zr  Zr67  1  0.40432495  0.61109981  -0.00053687  1
  Zr  Zr68  1  0.90044347  0.10049225  0.90481267  1
  Zr  Zr69  1  0.38735854  0.61022348  0.60254032  1
  Zr  Zr70  1  0.00439775  -0.00483155  0.39517944  1
  Zr  Zr71  1  0.20244161  -0.00020826  0.80003845  1
  Zr  Zr72  1  0.80394365  0.79444610  0.19299974  1
  Zr  Zr73  1  0.20185260  0.19206226  0.40756251  1
  Zr  Zr74  1  0.19436071  0.79693790  0.39856838  1
  Zr  Zr75  1  0.69529047  0.09814659  0.90310336  1
  Zr  Zr76  1  0.60437599  0.80211348  0.39740599  1
  Zr  Zr77  1  0.59135238  0.38992451  0.19953538  1
  Zr  Zr78  1  0.69999744  0.30143825  0.91331094  1
  Zr  Zr79  1  0.59634408  -0.00142720  0.18580907  1
  Zr  Zr80  1  0.00314634  0.59799895  0.59931111  1
  Zr  Zr81  1  0.49584767  0.90270517  0.30203177  1
  Zr  Zr82  1  0.01152045  0.39975417  0.19816507  1
  Zr  Zr83  1  0.90151527  0.50475965  0.30209817  1
  Zr  Zr84  1  0.31375891  0.90417628  0.89630609  1
  Zr  Zr85  1  0.10190204  0.10610650  0.90405495  1
  Zr  Zr86  1  0.29847259  0.12266651  0.09483234  1
  Zr  Zr87  1  0.10117289  0.49777524  0.90087908  1
  Zr  Zr88  1  -0.00126824  0.19572635  0.40174280  1
  Zr  Zr89  1  0.19977523  -0.00886427  0.39824827  1
  Zr  Zr90  1  -0.00986479  0.78944323  0.60667432  1
  Zr  Zr91  1  0.20564680  0.60682308  0.00364827  1
  Zr  Zr92  1  0.90051620  0.89099873  0.49567982  1
  Zr  Zr93  1  0.70786685  0.48557706  0.09670201  1
  Zr  Zr94  1  0.90346646  0.30540893  0.70318102  1
  Zr  Zr95  1  0.89425833  0.30009242  0.29531551  1
  Zr  Zr96  1  0.31025072  0.72216340  0.10922453  1
  Zr  Zr97  1  0.19396648  0.60546078  0.40413520  1
  Zr  Zr98  1  -0.00038039  0.40959181  0.60277348  1
  Zr  Zr99  1  0.00741221  -0.01088384  0.18935523  1
  Ta  Ta100  1  0.59052408  0.00543437  -0.00161385  1
  Ta  Ta101  1  0.09658462  0.89215043  0.50134717  1
  Ta  Ta102  1  0.00488796  0.60729502  0.19925897  1
  Ta  Ta103  1  0.12359726  0.29294935  0.09477479  1
  Ta  Ta104  1  0.19667194  0.59935653  0.59521437  1
  Ta  Ta105  1  0.39219177  0.79849112  0.40740697  1
  Ta  Ta106  1  0.79574584  0.20983361  0.80004535  1
  Ta  Ta107  1  0.39343666  -0.00171631  0.60693703  1
  Ta  Ta108  1  0.59932114  0.60567310  0.60866329  1
  Ta  Ta109  1  0.30358066  0.90454165  0.09592132  1
  Ta  Ta110  1  0.49470902  0.89872313  0.50973068  1
  Ta  Ta111  1  0.60191044  0.39843696  0.80335669  1
  Ta  Ta112  1  0.00793013  0.19936613  0.60583528  1
  Ta  Ta113  1  0.59886303  0.59796273  -0.00644123  1
  Ta  Ta114  1  0.10699021  0.09906466  0.28916462  1
  Ta  Ta115  1  0.38909032  0.19413733  0.60371804  1
  Ta  Ta116  1  0.19384266  0.41392230  0.39609043  1
  Ta  Ta117  1  0.79620713  0.19523013  0.40782308  1
  Ta  Ta118  1  0.21081297  0.60325678  0.80090270  1
  Ta  Ta119  1  0.69294120  0.89459188  0.70875496  1
  Ta  Ta120  1  0.89684954  0.89859353  0.29253595  1
  Ta  Ta121  1  0.59645076  0.39394577  0.00141353  1
  Ta  Ta122  1  -0.01199852  0.80368601  0.80643108  1
  Ta  Ta123  1  0.70820153  0.90494022  0.28945488  1
  Ta  Ta124  1  0.28773085  0.30555963  0.69009762  1
  Ta  Ta125  1  0.80698968  0.60504894  0.19714935  1
  Ta  Ta126  1  0.70093111  0.50980140  0.49744263  1
  Ta  Ta127  1  0.39619976  0.60552854  0.79905627  1
  Ta  Ta128  1  0.19631146  0.00157761  0.00349110  1
  Ta  Ta129  1  0.00213440  0.79728016  0.19628735  1
  Ta  Ta130  1  0.59568919  0.39808523  0.39319488  1
  Ta  Ta131  1  0.79969335  0.79795156  0.38608074  1
  Ta  Ta132  1  0.89757806  0.50342299  0.49022530  1
  Ta  Ta133  1  0.90190985  0.10492232  0.50617217  1
  Ta  Ta134  1  0.10864645  0.30851292  0.90148580  1
  Ta  Ta135  1  0.29059122  0.49906357  0.70270701  1
  Ta  Ta136  1  0.59418526  0.79129384  0.79910865  1
  Ta  Ta137  1  0.09763252  0.09500695  0.50699847  1
  Ta  Ta138  1  0.10560557  0.50038573  0.71123522  1
  Ta  Ta139  1  0.20488254  0.40337000  0.19744439  1
  Ta  Ta140  1  0.70150212  0.29464152  0.28881755  1
  Ta  Ta141  1  0.19477500  -0.00150891  0.18680200  1
  Ta  Ta142  1  0.59826611  0.79402889  0.61171877  1
  Ta  Ta143  1  0.30336438  0.70519761  0.29669539  1
  Ta  Ta144  1  0.10434670  0.49707789  0.09828263  1
  Ta  Ta145  1  0.69894833  0.70321536  0.89822819  1
  Ta  Ta146  1  0.79476767  -0.01044089  0.00465694  1
  Ta  Ta147  1  0.88166910  0.30770480  0.09953356  1
  Ta  Ta148  1  0.39323872  0.60498199  0.40138678  1
  Ta  Ta149  1  0.90263668  0.30120603  0.50216925  1
  Ti  Ti150  1  0.69611951  0.89361591  0.08973173  1
  Ti  Ti151  1  0.30811439  0.89761871  0.50475007  1
  Ti  Ti152  1  0.80360623  0.79843560  0.80025275  1
  Ti  Ti153  1  0.30819670  0.70936609  0.89659050  1
  Ti  Ti154  1  0.80481270  0.79664722  0.61567495  1
  Ti  Ti155  1  -0.01450975  0.59888726  0.80286002  1
  Ti  Ti156  1  0.40279240  0.38944353  0.19834614  1
  Ti  Ti157  1  0.90423322  0.48880022  0.90582130  1
  Ti  Ti158  1  0.30583932  0.49383142  0.10163355  1
  Ti  Ti159  1  0.00714077  0.20820404  0.79878096  1
  Ti  Ti160  1  0.30113284  0.09514950  0.50502699  1
  Ti  Ti161  1  0.90064100  0.88822717  0.09015984  1
  Ti  Ti162  1  0.60575455  0.19908648  0.60485614  1
  Ti  Ti163  1  0.10764901  0.30905391  0.70325642  1
  Ti  Ti164  1  0.40629590  0.01351322  -0.00168879  1
  Ti  Ti165  1  0.20730710  0.39921353  0.00749565  1
  Ti  Ti166  1  0.50576472  0.11755798  0.27896404  1
  Ti  Ti167  1  0.29944211  0.50049209  0.49446417  1
  Ti  Ti168  1  0.60152704  -0.00456977  0.60322935  1
  Ti  Ti169  1  0.19567058  0.19117350  0.60716345  1
  Ti  Ti170  1  0.89531301  0.71112260  0.91002313  1
  Ti  Ti171  1  0.80441614  0.40659702  0.60450507  1
  Ti  Ti172  1  0.00221908  0.40199910  0.80147518  1
  Ti  Ti173  1  0.80508624  0.59838245  0.80772519  1
  Ti  Ti174  1  0.09574884  0.70815750  0.09785049  1
  Ti  Ti175  1  0.30196312  0.09703234  0.70274312  1
  Ti  Ti176  1  0.49491105  0.50365715  0.70355079  1
  Ti  Ti177  1  0.90309672  0.69770443  0.29800862  1
  Ti  Ti178  1  0.80186714  0.20501249  0.00053306  1
  Ti  Ti179  1  0.21210960  0.79935182  0.79855610  1
  Ti  Ti180  1  0.00888241  0.40960529  0.40255211  1
  Ti  Ti181  1  0.40271854  0.60506892  0.19682823  1
  Ti  Ti182  1  0.49336570  0.49836948  0.30517236  1
  Ti  Ti183  1  0.29780342  0.29764480  0.91705419  1
  Ti  Ti184  1  0.00473578  0.39345680  0.00506846  1
  Ti  Ti185  1  0.49198877  0.28610678  0.09630674  1
  Ti  Ti186  1  0.40244461  0.00110850  0.40546574  1
  Ti  Ti187  1  0.18484132  0.80903690  0.20124297  1
  Ti  Ti188  1  0.49454329  0.29661634  0.91287946  1
  Ti  Ti189  1  0.30474298  0.10180990  0.90478991  1
  Ti  Ti190  1  0.89968552  0.89295256  0.91314547  1
  Ti  Ti191  1  0.48976947  0.70569595  0.70248192  1
  Ti  Ti192  1  0.01502860  0.59985265  0.39279860  1
  Ti  Ti193  1  0.70195271  0.69097916  0.30452675  1
  Ti  Ti194  1  0.01338042  -0.01416323  0.00203085  1
  Ti  Ti195  1  0.49934572  0.09136486  0.70722783  1
  Ti  Ti196  1  0.90284520  0.30372773  0.90394684  1
  Ti  Ti197  1  0.00958333  0.79701100  0.38460697  1
  Ti  Ti198  1  0.70340793  0.70137125  0.70749806  1
  Ti  Ti199  1  0.19352534  0.41599772  0.59539375  1
  Mo  Mo200  1  0.19958379  0.39755787  0.79907139  1
  Mo  Mo201  1  0.40084606  0.20235763  -0.00379369  1
  Mo  Mo202  1  0.09496707  0.69968714  0.49364947  1
  Mo  Mo203  1  0.79402905  0.39993871  0.20079165  1
  Mo  Mo204  1  0.20039880  0.20138312  0.19697477  1
  Mo  Mo205  1  0.59715116  -0.00360140  0.80161045  1
  Mo  Mo206  1  0.90491967  0.50208302  0.71545805  1
  Mo  Mo207  1  0.49955341  0.11314080  0.08974629  1
  Mo  Mo208  1  0.09667341  0.50101695  0.49661087  1
  Mo  Mo209  1  0.30214823  0.69892287  0.49596831  1
  Mo  Mo210  1  0.69925663  0.10299171  0.51308798  1
  Mo  Mo211  1  0.79919442  0.60503392  0.39394116  1
  Mo  Mo212  1  0.50084543  0.70314299  0.89928429  1
  Mo  Mo213  1  0.68977677  0.50001415  0.89973302  1
  Mo  Mo214  1  0.79975283  -0.01513585  0.18502607  1
  Mo  Mo215  1  0.79896126  0.20747987  0.19256845  1
  Mo  Mo216  1  0.49913555  0.30145458  0.29970342  1
  Mo  Mo217  1  0.50337129  0.69592740  0.09650769  1
  Mo  Mo218  1  0.09824955  0.89963343  0.29302583  1
  Mo  Mo219  1  0.39933297  0.78905735  0.79554820  1
  Mo  Mo220  1  0.10236391  0.89710129  0.09620769  1
  Mo  Mo221  1  0.31029652  0.89185207  0.70003794  1
  Mo  Mo222  1  0.09784796  0.89696568  0.90049291  1
  Mo  Mo223  1  0.10250178  0.50216951  0.29434709  1
  Mo  Mo224  1  0.09950477  0.10986256  0.69978938  1
  Mo  Mo225  1  0.20418345  0.20360351  -0.00655361  1
  Mo  Mo226  1  0.30541901  0.30811446  0.10075737  1
  Mo  Mo227  1  0.80121196  0.80181370  -0.00567029  1
  Mo  Mo228  1  0.49688011  0.09605424  0.90055185  1
  Mo  Mo229  1  0.59811038  0.59559002  0.40025391  1
  Mo  Mo230  1  0.89047048  0.89213975  0.70712801  1
  Mo  Mo231  1  0.39910559  0.80525039  0.60158924  1
  Mo  Mo232  1  0.39642384  0.79896448  -0.00899224  1
  Mo  Mo233  1  0.90375184  0.69855129  0.10027941  1
  Mo  Mo234  1  -0.00340914  0.80176045  0.00081973  1
  Mo  Mo235  1  0.59802263  0.20707553  0.19231915  1
  Mo  Mo236  1  0.59492488  0.78970366  -0.00719994  1
  Mo  Mo237  1  0.40022899  0.01202042  0.79643769  1
  Mo  Mo238  1  0.69837409  0.29541908  0.10014487  1
  Mo  Mo239  1  0.29954915  0.69732984  0.70519385  1
  Mo  Mo240  1  0.58875351  0.20168427  0.00041339  1
  Mo  Mo241  1  0.40678996  0.20795677  0.19896394  1
  Mo  Mo242  1  0.10448844  0.09930118  0.09581929  1
  Mo  Mo243  1  0.09549436  0.70337775  0.29287158  1
  Mo  Mo244  1  0.69868641  0.30388565  0.70493971  1
  Mo  Mo245  1  0.39809023  0.40686070  0.39668681  1
  Mo  Mo246  1  0.89499872  0.69874480  0.72279353  1
  Mo  Mo247  1  0.39838753  0.39193621  0.00627385  1
  Mo  Mo248  1  0.80327563  0.39785264  -0.00605309  1
  Mo  Mo249  1  0.40336208  0.80144672  0.20626907  1
