# generated using pymatgen
data_HfZrTaTiMo
_symmetry_space_group_name_H-M   'P 1'
_cell_length_a   16.88532682
_cell_length_b   16.88912799
_cell_length_c   16.89213561
_cell_angle_alpha   90.06262164
_cell_angle_beta   89.99715763
_cell_angle_gamma   89.98574871
_symmetry_Int_Tables_number   1
_chemical_formula_structural   HfZrTaTiMo
_chemical_formula_sum   'Hf50 Zr50 Ta50 Ti50 Mo50'
_cell_volume   4817.26994922
_cell_formula_units_Z   50
loop_
 _symmetry_equiv_pos_site_id
 _symmetry_equiv_pos_as_xyz
  1  'x, y, z'
loop_
 _atom_site_type_symbol
 _atom_site_label
 _atom_site_symmetry_multiplicity
 _atom_site_fract_x
 _atom_site_fract_y
 _atom_site_fract_z
 _atom_site_occupancy
  Hf  Hf0  1  0.58689738  0.19349664  0.20142527  1
  Hf  Hf1  1  0.29930079  0.50553158  0.30217610  1
  Hf  Hf2  1  0.49055664  0.90135773  0.91122799  1
  Hf  Hf3  1  0.81052568  0.59896490  0.79895275  1
  Hf  Hf4  1  0.80578735  0.79971588  0.00409823  1
  Hf  Hf5  1  0.69356216  0.30425146  0.10015012  1
  Hf  Hf6  1  0.70333566  0.09443935  0.09967575  1
  Hf  Hf7  1  0.10401857  0.09645205  0.29796700  1
  Hf  Hf8  1  0.59812080  0.39601138  0.80083515  1
  Hf  Hf9  1  0.58463841  0.60329944  0.59944339  1
  Hf  Hf10  1  0.69678385  0.10256905  0.30473112  1
  Hf  Hf11  1  0.02001649  0.20457378  0.79164307  1
  Hf  Hf12  1  0.80175767  0.00292984  0.40181175  1
  Hf  Hf13  1  0.38874652  0.40310950  0.19115107  1
  Hf  Hf14  1  -0.00019014  0.40479655  0.39166470  1
  Hf  Hf15  1  0.89578244  0.89801395  0.28435650  1
  Hf  Hf16  1  0.68670237  0.30378099  0.29965094  1
  Hf  Hf17  1  0.50505424  0.49935148  0.09691152  1
  Hf  Hf18  1  0.30171085  0.50930029  0.89758355  1
  Hf  Hf19  1  0.19695585  0.41232176  0.19284101  1
  Hf  Hf20  1  0.19087222  0.60761311  0.80064106  1
  Hf  Hf21  1  0.89821621  0.08383798  0.09923108  1
  Hf  Hf22  1  0.61045536  0.78631602  0.19489574  1
  Hf  Hf23  1  0.78816902  0.60824124  0.19791549  1
  Hf  Hf24  1  0.79956782  0.59889620  0.39406417  1
  Hf  Hf25  1  0.80967418  0.20619975  0.20321852  1
  Hf  Hf26  1  0.48107145  0.09322244  0.09062986  1
  Hf  Hf27  1  0.60782796  0.60794639  0.00829214  1
  Hf  Hf28  1  0.59743170  0.60400077  0.79976731  1
  Hf  Hf29  1  0.79434531  0.00095407  0.59931447  1
  Hf  Hf30  1  0.79581546  0.19667153  -0.00452705  1
  Hf  Hf31  1  0.59252399  0.80226831  0.80178848  1
  Hf  Hf32  1  0.89637533  0.29249580  0.70250245  1
  Hf  Hf33  1  0.19037496  0.60430861  0.39857143  1
  Hf  Hf34  1  0.48916346  0.89484863  0.28604594  1
  Hf  Hf35  1  0.89694386  0.50903779  0.09230999  1
  Hf  Hf36  1  0.30389636  0.30568875  0.69742985  1
  Hf  Hf37  1  0.09978665  0.31312053  0.90927463  1
  Hf  Hf38  1  0.10099460  0.89443153  0.29474516  1
  Hf  Hf39  1  0.90157398  0.30082989  0.50894498  1
  Hf  Hf40  1  -0.00153976  -0.01517998  0.80009453  1
  Hf  Hf41  1  0.89968207  0.30585978  0.89877617  1
  Hf  Hf42  1  0.49244497  0.10598326  0.52486162  1
  Hf  Hf43  1  0.90146519  0.88937621  0.49869156  1
  Hf  Hf44  1  0.58491467  0.80081417  0.60227669  1
  Hf  Hf45  1  0.59490386  0.41085929  0.40060899  1
  Hf  Hf46  1  0.69955383  0.89880925  0.89653736  1
  Hf  Hf47  1  0.00454590  0.79578018  0.61213712  1
  Hf  Hf48  1  0.49529218  0.29556568  0.09805164  1
  Hf  Hf49  1  0.01237001  0.60236939  0.20170291  1
  Zr  Zr50  1  0.59890558  0.60799562  0.39860524  1
  Zr  Zr51  1  0.50183960  0.50002456  0.28758417  1
  Zr  Zr52  1  0.49475145  0.29448829  0.69638991  1
  Zr  Zr53  1  0.10537058  0.30125061  0.29867123  1
  Zr  Zr54  1  0.30281783  0.50468433  0.69852507  1
  Zr  Zr55  1  0.39235261  0.39801664  -0.00303784  1
  Zr  Zr56  1  0.20192979  0.19332089  0.40404748  1
  Zr  Zr57  1  0.70446913  0.70863043  0.50807710  1
  Zr  Zr58  1  0.31376432  0.09828740  0.70118328  1
  Zr  Zr59  1  0.19205984  0.20851296  0.61035874  1
  Zr  Zr60  1  0.50658015  0.29655747  0.50361662  1
  Zr  Zr61  1  0.40289765  0.19469732  0.39582702  1
  Zr  Zr62  1  0.70139043  0.90005194  0.29740603  1
  Zr  Zr63  1  0.29894697  0.29716116  0.29686108  1
  Zr  Zr64  1  0.39767377  -0.00193772  0.39645177  1
  Zr  Zr65  1  0.11975092  0.07990136  0.70556558  1
  Zr  Zr66  1  0.71724495  0.90429548  0.10840972  1
  Zr  Zr67  1  0.00271936  -0.00677252  0.60729601  1
  Zr  Zr68  1  0.80251832  0.40450036  0.39443563  1
  Zr  Zr69  1  0.79899043  0.40484966  0.79591110  1
  Zr  Zr70  1  0.81374264  0.20509760  0.39143729  1
  Zr  Zr71  1  0.10331702  0.30976805  0.50371421  1
  Zr  Zr72  1  0.40501608  0.60027755  0.41000607  1
  Zr  Zr73  1  0.40190792  0.60383781  0.59808669  1
  Zr  Zr74  1  0.81123072  0.60067969  0.60927229  1
  Zr  Zr75  1  0.69859287  0.49850867  0.51064802  1
  Zr  Zr76  1  0.79668412  0.79030664  0.39091908  1
  Zr  Zr77  1  0.19680513  0.40055423  0.80020159  1
  Zr  Zr78  1  0.90352770  0.69588003  0.90737488  1
  Zr  Zr79  1  0.00581462  -0.00432175  0.19233347  1
  Zr  Zr80  1  0.30034816  0.09379840  0.51807176  1
  Zr  Zr81  1  0.10559743  0.30202974  0.09553537  1
  Zr  Zr82  1  0.90185008  0.10303545  0.50700150  1
  Zr  Zr83  1  -0.00072282  0.19895692  0.00599352  1
  Zr  Zr84  1  0.00306791  0.79468835  0.79851374  1
  Zr  Zr85  1  0.20492210  -0.00511946  0.39771466  1
  Zr  Zr86  1  0.59795508  0.19268138  0.80726089  1
  Zr  Zr87  1  0.19844153  0.60653360  0.19149811  1
  Zr  Zr88  1  0.58944648  0.00070329  0.19933496  1
  Zr  Zr89  1  0.30586019  0.89644727  0.08923608  1
  Zr  Zr90  1  0.39709223  0.79768309  0.40155425  1
  Zr  Zr91  1  0.59759500  -0.00132667  0.61008671  1
  Zr  Zr92  1  0.90087452  0.10227559  0.89039526  1
  Zr  Zr93  1  0.70771580  0.71141614  0.70251833  1
  Zr  Zr94  1  -0.00608178  0.20298170  0.20522649  1
  Zr  Zr95  1  0.70442788  0.50374631  0.90717234  1
  Zr  Zr96  1  0.10654295  0.09026593  0.90532875  1
  Zr  Zr97  1  0.20035736  0.79540938  0.39547019  1
  Zr  Zr98  1  0.69758762  0.29605569  0.50922508  1
  Zr  Zr99  1  0.58938732  0.00085516  0.40642312  1
  Ta  Ta100  1  0.49578923  0.69891296  0.28983810  1
  Ta  Ta101  1  0.00553478  0.59633527  0.79757939  1
  Ta  Ta102  1  0.60227222  0.79785780  0.00460291  1
  Ta  Ta103  1  0.29635834  0.70825190  0.70314367  1
  Ta  Ta104  1  0.80884654  -0.00766728  -0.01181069  1
  Ta  Ta105  1  0.90148870  0.50706626  0.29504642  1
  Ta  Ta106  1  0.30687027  0.09592798  0.27643460  1
  Ta  Ta107  1  0.69383196  0.11336902  0.50306403  1
  Ta  Ta108  1  0.49449584  0.89613425  0.09389612  1
  Ta  Ta109  1  0.09949398  0.49916632  0.69260820  1
  Ta  Ta110  1  0.00223470  0.79438476  0.19057119  1
  Ta  Ta111  1  0.29971224  0.09788848  0.09175227  1
  Ta  Ta112  1  0.09678866  0.49698197  0.08034075  1
  Ta  Ta113  1  0.59104117  0.79810520  0.40020622  1
  Ta  Ta114  1  0.70339039  0.90048832  0.70421234  1
  Ta  Ta115  1  0.40103078  0.00134629  0.80595146  1
  Ta  Ta116  1  0.20867243  0.20432103  0.80862837  1
  Ta  Ta117  1  0.00305129  0.60364656  0.39835226  1
  Ta  Ta118  1  0.29425300  0.70640941  0.51145619  1
  Ta  Ta119  1  -0.00145316  0.40915250  0.19860546  1
  Ta  Ta120  1  0.10432959  0.89603101  0.50509695  1
  Ta  Ta121  1  0.59681071  0.19312281  -0.00735185  1
  Ta  Ta122  1  0.40295313  0.39969882  0.80739122  1
  Ta  Ta123  1  0.00427616  0.79132956  0.39495197  1
  Ta  Ta124  1  0.79965443  0.39957317  0.60835279  1
  Ta  Ta125  1  0.89349588  0.10510438  0.70246800  1
  Ta  Ta126  1  0.30275842  0.30972075  0.50545475  1
  Ta  Ta127  1  0.10109325  0.89369493  0.08627692  1
  Ta  Ta128  1  0.39454893  0.60594235  0.00549167  1
  Ta  Ta129  1  0.40076753  0.40459464  0.40606622  1
  Ta  Ta130  1  -0.00070662  0.19624929  0.39903425  1
  Ta  Ta131  1  0.29543624  0.89558981  0.51810640  1
  Ta  Ta132  1  0.00677568  0.19713139  0.60566540  1
  Ta  Ta133  1  0.49236782  0.70054530  0.90408553  1
  Ta  Ta134  1  0.09657097  0.50395689  0.50602935  1
  Ta  Ta135  1  0.19355775  0.60687275  0.60138046  1
  Ta  Ta136  1  0.59989484  0.39785637  -0.00407798  1
  Ta  Ta137  1  0.49668412  0.50759391  0.90054939  1
  Ta  Ta138  1  0.59507898  0.00583939  0.80189735  1
  Ta  Ta139  1  0.20111301  -0.00426264  0.18704063  1
  Ta  Ta140  1  0.79637630  0.40883932  0.20123392  1
  Ta  Ta141  1  0.91027483  0.50239323  0.50576146  1
  Ta  Ta142  1  0.49658047  0.30080157  0.29618147  1
  Ta  Ta143  1  0.30580659  0.70439372  0.89712232  1
  Ta  Ta144  1  0.90678923  0.69854757  0.50290316  1
  Ta  Ta145  1  0.29406176  0.90223392  0.70323244  1
  Ta  Ta146  1  0.39299374  0.60580827  0.18719198  1
  Ta  Ta147  1  0.70039239  0.29680011  0.89987339  1
  Ta  Ta148  1  0.10422680  0.89561083  0.90449594  1
  Ta  Ta149  1  0.70884673  0.10366563  0.70779880  1
  Ti  Ti150  1  0.90840896  0.49750192  0.90939040  1
  Ti  Ti151  1  0.19904310  0.40908083  0.40126302  1
  Ti  Ti152  1  0.30762865  0.09519436  0.90522044  1
  Ti  Ti153  1  0.49621279  0.49721257  0.70543960  1
  Ti  Ti154  1  0.09919177  0.70355289  0.50504769  1
  Ti  Ti155  1  0.80934687  0.80067751  0.80298914  1
  Ti  Ti156  1  0.70411969  0.70194083  0.90290241  1
  Ti  Ti157  1  0.10647434  0.09044044  0.08829064  1
  Ti  Ti158  1  0.88554866  0.89561403  0.70022073  1
  Ti  Ti159  1  0.20870241  0.20035898  -0.00962745  1
  Ti  Ti160  1  0.91097677  0.49724146  0.69649156  1
  Ti  Ti161  1  0.20042173  0.19193246  0.18930133  1
  Ti  Ti162  1  0.10098318  0.70439821  0.90611103  1
  Ti  Ti163  1  0.39758172  0.79975671  0.60693711  1
  Ti  Ti164  1  0.40126336  0.19768876  0.81127877  1
  Ti  Ti165  1  0.19638687  0.80246501  0.79860802  1
  Ti  Ti166  1  0.90241528  0.70051501  0.09779118  1
  Ti  Ti167  1  0.30063504  0.90007879  0.28308067  1
  Ti  Ti168  1  0.69959517  0.89398828  0.50498305  1
  Ti  Ti169  1  0.09897572  0.70689466  0.08719460  1
  Ti  Ti170  1  0.21108927  0.40491800  -0.00013376  1
  Ti  Ti171  1  0.19751476  0.79390817  0.19328711  1
  Ti  Ti172  1  0.60265278  0.00468953  -0.00723739  1
  Ti  Ti173  1  0.29147024  0.49850718  0.50586195  1
  Ti  Ti174  1  0.60666673  0.19759707  0.61842900  1
  Ti  Ti175  1  0.10018258  0.09091728  0.50317580  1
  Ti  Ti176  1  0.30201371  0.69960496  0.29493771  1
  Ti  Ti177  1  0.90433622  0.70111971  0.29455960  1
  Ti  Ti178  1  0.00464160  0.39563587  0.60814291  1
  Ti  Ti179  1  0.39184347  0.80656644  0.80538264  1
  Ti  Ti180  1  0.20175928  0.60398926  -0.00057972  1
  Ti  Ti181  1  0.49574197  0.70393811  0.09622166  1
  Ti  Ti182  1  0.30350100  0.28296959  0.09374482  1
  Ti  Ti183  1  0.20848815  0.79515821  -0.00703016  1
  Ti  Ti184  1  0.90150559  0.31400389  0.09665188  1
  Ti  Ti185  1  0.00380992  0.60720470  0.60715375  1
  Ti  Ti186  1  0.69201405  0.49714673  0.69626647  1
  Ti  Ti187  1  0.48951407  0.90548081  0.70602235  1
  Ti  Ti188  1  0.60861056  0.59977752  0.19728376  1
  Ti  Ti189  1  0.79488300  0.40385018  0.00417731  1
  Ti  Ti190  1  0.48231342  0.70004373  0.71409243  1
  Ti  Ti191  1  0.40659024  0.40731785  0.59413100  1
  Ti  Ti192  1  0.39265190  0.78901588  0.18890059  1
  Ti  Ti193  1  0.79782357  0.00037324  0.80348031  1
  Ti  Ti194  1  0.00814211  0.60027346  -0.00674860  1
  Ti  Ti195  1  0.48707717  0.90094335  0.50610439  1
  Ti  Ti196  1  -0.00092244  -0.00102813  0.39920682  1
  Ti  Ti197  1  0.00615926  0.40966445  0.80155244  1
  Ti  Ti198  1  0.49556515  0.29663686  0.90638390  1
  Ti  Ti199  1  0.20804585  -0.00835331  -0.00838749  1
  Mo  Mo200  1  0.70004299  0.50101073  0.29092332  1
  Mo  Mo201  1  0.19973098  -0.01176352  0.60157434  1
  Mo  Mo202  1  0.81011853  0.78844783  0.19429148  1
  Mo  Mo203  1  0.49047401  0.10280237  0.29391959  1
  Mo  Mo204  1  0.49522443  0.09641225  0.90248044  1
  Mo  Mo205  1  0.69824508  0.09283653  0.90157908  1
  Mo  Mo206  1  0.40307688  0.79278096  -0.00128265  1
  Mo  Mo207  1  0.19924656  0.41158774  0.59595899  1
  Mo  Mo208  1  0.00018452  -0.01537245  -0.00395091  1
  Mo  Mo209  1  0.29336630  0.51073344  0.09171194  1
  Mo  Mo210  1  0.90000153  0.89868710  0.89696851  1
  Mo  Mo211  1  0.49886984  0.09848974  0.70918442  1
  Mo  Mo212  1  0.69917906  0.49540590  0.10006765  1
  Mo  Mo213  1  0.09616968  0.70437449  0.29469481  1
  Mo  Mo214  1  0.68860932  0.69805194  0.29915231  1
  Mo  Mo215  1  0.49979257  0.49026889  0.50770116  1
  Mo  Mo216  1  0.39419649  -0.00224751  -0.00577039  1
  Mo  Mo217  1  0.70429026  0.69965069  0.09530768  1
  Mo  Mo218  1  0.10342805  0.69472626  0.70176176  1
  Mo  Mo219  1  0.40082742  0.60367451  0.80373161  1
  Mo  Mo220  1  0.29972366  0.29606210  0.89760465  1
  Mo  Mo221  1  0.79540342  0.20001831  0.60716488  1
  Mo  Mo222  1  0.80180824  0.60248681  0.00179957  1
  Mo  Mo223  1  0.39561976  0.19675916  -0.00930570  1
  Mo  Mo224  1  0.90856427  0.89439420  0.09261911  1
  Mo  Mo225  1  0.21078593  -0.00838179  0.80997346  1
  Mo  Mo226  1  0.60181902  0.40417426  0.61084169  1
  Mo  Mo227  1  0.09821292  0.50580674  0.90460478  1
  Mo  Mo228  1  0.60028504  0.39888470  0.19518295  1
  Mo  Mo229  1  0.90363375  0.31479238  0.29083538  1
  Mo  Mo230  1  0.80703221  0.80489459  0.60384575  1
  Mo  Mo231  1  0.00508593  0.79730150  0.00156231  1
  Mo  Mo232  1  0.39338713  0.20091477  0.19336945  1
  Mo  Mo233  1  0.59011374  0.19662371  0.39598012  1
  Mo  Mo234  1  0.09700010  0.50341809  0.30533746  1
  Mo  Mo235  1  0.40158595  -0.01696737  0.61064514  1
  Mo  Mo236  1  0.49226186  0.71509534  0.49982330  1
  Mo  Mo237  1  0.39261422  -0.00561118  0.19224973  1
  Mo  Mo238  1  0.79311010  0.19986185  0.80187076  1
  Mo  Mo239  1  0.19731354  0.79624672  0.60651373  1
  Mo  Mo240  1  0.90553888  0.69676984  0.70124252  1
  Mo  Mo241  1  0.90708713  0.09018655  0.30203524  1
  Mo  Mo242  1  0.11668948  0.89203536  0.70399640  1
  Mo  Mo243  1  -0.00786105  0.40617116  0.00150474  1
  Mo  Mo244  1  0.09751945  0.31090936  0.70363729  1
  Mo  Mo245  1  0.29745737  0.89464445  0.89453390  1
  Mo  Mo246  1  0.39615388  0.21277881  0.60092741  1
  Mo  Mo247  1  0.80773393  0.00977904  0.20595866  1
  Mo  Mo248  1  0.29542450  0.70368464  0.09082080  1
  Mo  Mo249  1  0.70205692  0.29628958  0.70385747  1
