# generated using pymatgen
data_HfZrTaTiMo
_symmetry_space_group_name_H-M   'P 1'
_cell_length_a   16.88826442
_cell_length_b   16.89371303
_cell_length_c   16.89304532
_cell_angle_alpha   89.98251554
_cell_angle_beta   90.02425783
_cell_angle_gamma   89.98055082
_symmetry_Int_Tables_number   1
_chemical_formula_structural   HfZrTaTiMo
_chemical_formula_sum   'Hf50 Zr50 Ta50 Ti50 Mo50'
_cell_volume   4819.67768302
_cell_formula_units_Z   50
loop_
 _symmetry_equiv_pos_site_id
 _symmetry_equiv_pos_as_xyz
  1  'x, y, z'
loop_
 _atom_site_type_symbol
 _atom_site_label
 _atom_site_symmetry_multiplicity
 _atom_site_fract_x
 _atom_site_fract_y
 _atom_site_fract_z
 _atom_site_occupancy
  Hf  Hf0  1  -0.00218044  0.19876484  0.20510827  1
  Hf  Hf1  1  0.09403199  0.89440889  0.71162935  1
  Hf  Hf2  1  0.08977035  0.09601411  0.90160899  1
  Hf  Hf3  1  0.41201132  0.41547430  0.40168618  1
  Hf  Hf4  1  0.30248290  0.09485959  0.50413262  1
  Hf  Hf5  1  0.59458100  0.40082145  0.60478538  1
  Hf  Hf6  1  0.39676045  0.40327422  0.19238842  1
  Hf  Hf7  1  0.00082122  0.80982755  0.19919302  1
  Hf  Hf8  1  0.19374667  0.20571484  0.60847138  1
  Hf  Hf9  1  0.40110205  0.79310629  0.39602539  1
  Hf  Hf10  1  0.90571940  0.49464229  0.69702681  1
  Hf  Hf11  1  0.39530178  0.39449042  -0.00137062  1
  Hf  Hf12  1  0.79658449  0.39847850  0.80095412  1
  Hf  Hf13  1  0.41148283  0.00471737  0.40895920  1
  Hf  Hf14  1  0.70693421  0.49906841  0.49834569  1
  Hf  Hf15  1  0.40337085  0.00564161  0.19672171  1
  Hf  Hf16  1  0.59567656  0.40774123  0.39813390  1
  Hf  Hf17  1  0.29250391  0.50490867  0.50599846  1
  Hf  Hf18  1  0.59280401  0.80038387  0.79553499  1
  Hf  Hf19  1  0.30953451  0.89819853  0.70012453  1
  Hf  Hf20  1  0.09800172  0.70836958  0.89547222  1
  Hf  Hf21  1  -0.00431517  0.60135230  0.39824177  1
  Hf  Hf22  1  0.29740920  0.52030376  0.07781603  1
  Hf  Hf23  1  0.29589032  0.10072986  0.30297074  1
  Hf  Hf24  1  0.60319127  0.59704033  -0.00933525  1
  Hf  Hf25  1  0.00107226  0.80430871  0.39643056  1
  Hf  Hf26  1  0.59673875  0.60205989  0.20546951  1
  Hf  Hf27  1  -0.00279755  0.60384284  -0.00440968  1
  Hf  Hf28  1  0.20680131  -0.00683901  0.80877857  1
  Hf  Hf29  1  0.00134738  0.20035714  0.60736571  1
  Hf  Hf30  1  0.80508965  0.60821186  0.60400683  1
  Hf  Hf31  1  0.41038691  0.59961171  0.60101617  1
  Hf  Hf32  1  0.69615030  0.89304708  0.50030093  1
  Hf  Hf33  1  0.70188977  0.29701879  0.29978751  1
  Hf  Hf34  1  0.79893660  0.79850994  0.60157158  1
  Hf  Hf35  1  0.70656010  0.29778389  0.50058102  1
  Hf  Hf36  1  0.79343488  0.00071239  0.39431034  1
  Hf  Hf37  1  0.60169269  0.60284749  0.60790357  1
  Hf  Hf38  1  0.30353175  0.89398786  0.10372880  1
  Hf  Hf39  1  0.50681162  0.89722532  0.50931004  1
  Hf  Hf40  1  0.10105818  0.50568176  0.50228539  1
  Hf  Hf41  1  0.60443004  -0.00282257  0.80247299  1
  Hf  Hf42  1  0.00151869  0.61626762  0.78162414  1
  Hf  Hf43  1  0.69457034  0.28993464  0.70163547  1
  Hf  Hf44  1  -0.00386954  0.19547409  0.79748436  1
  Hf  Hf45  1  0.89427245  0.49455337  0.49385245  1
  Hf  Hf46  1  0.80919690  0.18638034  0.19681287  1
  Hf  Hf47  1  0.00335725  0.38512791  0.59417239  1
  Hf  Hf48  1  0.69737816  0.29656792  0.08888655  1
  Hf  Hf49  1  0.29430939  0.69754963  0.50376823  1
  Zr  Zr50  1  -0.01455396  0.00344076  0.19809832  1
  Zr  Zr51  1  -0.00448810  0.78649571  0.60550267  1
  Zr  Zr52  1  0.29319047  0.90856724  0.30641513  1
  Zr  Zr53  1  0.51008599  0.10145147  0.09647444  1
  Zr  Zr54  1  0.09539515  0.10173656  0.09401723  1
  Zr  Zr55  1  0.10895792  0.50807941  0.89169138  1
  Zr  Zr56  1  0.89388083  0.70645046  0.09706249  1
  Zr  Zr57  1  0.30405909  0.30153748  0.30443582  1
  Zr  Zr58  1  0.59334880  0.59987474  0.39284066  1
  Zr  Zr59  1  0.40199278  -0.00818073  -0.00045154  1
  Zr  Zr60  1  0.40669578  0.59661250  0.80593525  1
  Zr  Zr61  1  0.70445460  0.69523869  0.09995699  1
  Zr  Zr62  1  0.20366571  0.21389499  -0.00270990  1
  Zr  Zr63  1  0.50116691  0.90084674  0.29161783  1
  Zr  Zr64  1  0.88688115  0.70722102  0.29870110  1
  Zr  Zr65  1  0.20077867  0.61156212  0.19492511  1
  Zr  Zr66  1  0.89827266  0.90206218  0.70896529  1
  Zr  Zr67  1  0.50397932  0.29318806  0.50649664  1
  Zr  Zr68  1  0.30516930  0.30029205  0.50457471  1
  Zr  Zr69  1  0.10232458  0.09275445  0.49948332  1
  Zr  Zr70  1  0.30687659  0.10415451  0.89957732  1
  Zr  Zr71  1  0.00208563  0.60148581  0.20076504  1
  Zr  Zr72  1  0.70362792  0.70546742  0.89988597  1
  Zr  Zr73  1  0.20206543  -0.01134810  -0.00266663  1
  Zr  Zr74  1  0.50102441  0.10023550  0.89900408  1
  Zr  Zr75  1  0.51596106  0.71117647  0.50479999  1
  Zr  Zr76  1  0.60087042  0.18917563  0.40516108  1
  Zr  Zr77  1  0.40203595  0.20959111  0.18780364  1
  Zr  Zr78  1  0.19654997  0.79924504  0.20235584  1
  Zr  Zr79  1  0.00281477  0.20850557  0.40150003  1
  Zr  Zr80  1  0.90270840  0.50151467  0.09584978  1
  Zr  Zr81  1  0.28762182  0.50916286  0.30793577  1
  Zr  Zr82  1  0.90617667  0.29425666  0.08759028  1
  Zr  Zr83  1  0.79557952  0.40591708  -0.01109904  1
  Zr  Zr84  1  0.51098731  0.29542699  0.90986545  1
  Zr  Zr85  1  0.29375704  0.50249583  0.70584380  1
  Zr  Zr86  1  0.79737452  0.59889982  0.79893452  1
  Zr  Zr87  1  0.79396312  0.82237456  0.00474548  1
  Zr  Zr88  1  0.18501159  0.38840709  0.40347569  1
  Zr  Zr89  1  0.90104862  0.91164077  0.89329512  1
  Zr  Zr90  1  0.89871617  0.09436325  0.49929720  1
  Zr  Zr91  1  0.80592869  0.40208339  0.19962889  1
  Zr  Zr92  1  0.20281334  -0.00314370  0.60724418  1
  Zr  Zr93  1  0.40097997  0.60778836  0.20554763  1
  Zr  Zr94  1  0.29435476  0.67831617  0.91048648  1
  Zr  Zr95  1  0.80790760  0.19471110  0.60587948  1
  Zr  Zr96  1  0.10323093  0.89980350  0.50111764  1
  Zr  Zr97  1  0.59240694  0.40105921  0.19730829  1
  Zr  Zr98  1  0.41163092  0.19576506  0.60783466  1
  Zr  Zr99  1  0.19270262  0.21243722  0.20183189  1
  Ta  Ta100  1  0.50059966  0.49511189  0.70745737  1
  Ta  Ta101  1  0.80285362  0.19408593  0.39607239  1
  Ta  Ta102  1  0.89646293  0.30309978  0.30467817  1
  Ta  Ta103  1  0.50049768  0.29531218  0.29859713  1
  Ta  Ta104  1  0.20116354  0.20556214  0.79717539  1
  Ta  Ta105  1  0.70913068  0.49887324  0.30050190  1
  Ta  Ta106  1  0.59846236  0.00185140  0.60540348  1
  Ta  Ta107  1  0.20693182  0.79964617  0.80573094  1
  Ta  Ta108  1  0.60258755  0.00039195  0.39968618  1
  Ta  Ta109  1  0.90167796  0.71175046  0.89398575  1
  Ta  Ta110  1  -0.00362896  0.39867431  0.39578897  1
  Ta  Ta111  1  0.50116223  0.50206433  0.09074852  1
  Ta  Ta112  1  0.60224379  0.79712057  0.19547164  1
  Ta  Ta113  1  0.88926581  0.90356111  0.29924464  1
  Ta  Ta114  1  0.49609333  0.70239279  0.09326589  1
  Ta  Ta115  1  -0.00861166  0.00195890  0.60777153  1
  Ta  Ta116  1  0.20421929  0.39012561  0.80433989  1
  Ta  Ta117  1  0.69799932  0.09454237  0.29016403  1
  Ta  Ta118  1  0.61278005  0.79817561  0.37682480  1
  Ta  Ta119  1  0.09944045  0.50156063  0.30095612  1
  Ta  Ta120  1  0.60096085  0.40155967  0.80513270  1
  Ta  Ta121  1  0.69697261  0.50053913  0.09539236  1
  Ta  Ta122  1  0.79398624  0.01152019  -0.00526038  1
  Ta  Ta123  1  0.49865762  0.89380576  0.90070124  1
  Ta  Ta124  1  0.30796546  0.09816512  0.70518659  1
  Ta  Ta125  1  0.91040611  0.49822339  0.89058251  1
  Ta  Ta126  1  0.50909615  0.10164495  0.29570390  1
  Ta  Ta127  1  0.39999343  0.39426455  0.80423845  1
  Ta  Ta128  1  0.40799893  0.60350652  0.39740114  1
  Ta  Ta129  1  0.59939711  0.59554113  0.79929625  1
  Ta  Ta130  1  0.40994874  0.79584742  0.61348845  1
  Ta  Ta131  1  0.19277142  0.20112552  0.40149576  1
  Ta  Ta132  1  0.20396155  0.80138598  -0.00266384  1
  Ta  Ta133  1  -0.00296395  -0.00534605  0.39253635  1
  Ta  Ta134  1  0.20262991  0.40069123  -0.00591692  1
  Ta  Ta135  1  0.19973490  0.80061173  0.39925012  1
  Ta  Ta136  1  0.79606804  0.00002900  0.60633116  1
  Ta  Ta137  1  0.61147932  -0.01000205  -0.00402244  1
  Ta  Ta138  1  0.19146976  0.39223832  0.60991722  1
  Ta  Ta139  1  0.00575418  0.39951372  0.20718500  1
  Ta  Ta140  1  0.90049425  0.29425879  0.90021911  1
  Ta  Ta141  1  0.29862716  0.69978254  0.70441136  1
  Ta  Ta142  1  0.19519969  0.40205996  0.18978804  1
  Ta  Ta143  1  -0.00199751  0.60779798  0.59994933  1
  Ta  Ta144  1  0.78458467  0.81720619  0.20356402  1
  Ta  Ta145  1  0.29460924  0.10142882  0.10158044  1
  Ta  Ta146  1  0.59880386  0.80687664  0.00117816  1
  Ta  Ta147  1  0.40158309  0.20878832  0.79663990  1
  Ta  Ta148  1  0.10410152  0.09034913  0.30563755  1
  Ta  Ta149  1  0.70115864  0.29017257  0.89798023  1
  Ti  Ti150  1  0.60999016  -0.00899006  0.19568716  1
  Ti  Ti151  1  0.10127963  0.50045449  0.09545755  1
  Ti  Ti152  1  0.80425741  0.39240423  0.60094369  1
  Ti  Ti153  1  0.10042698  0.49733578  0.70168341  1
  Ti  Ti154  1  0.61500531  0.18638801  -0.00572809  1
  Ti  Ti155  1  0.40163972  0.79619562  0.80218870  1
  Ti  Ti156  1  0.09959775  0.09109075  0.70912745  1
  Ti  Ti157  1  0.79556353  0.80439840  0.79953315  1
  Ti  Ti158  1  0.79978163  0.59493772  0.20503546  1
  Ti  Ti159  1  -0.01585726  0.00368968  0.00532706  1
  Ti  Ti160  1  0.69620825  0.70640130  0.70038744  1
  Ti  Ti161  1  0.50164791  0.49324079  0.90362725  1
  Ti  Ti162  1  0.30408418  0.30111792  0.70220605  1
  Ti  Ti163  1  0.59987114  0.20168321  0.19506761  1
  Ti  Ti164  1  0.09633186  0.90248779  0.09502620  1
  Ti  Ti165  1  0.09384737  0.30600543  0.09352489  1
  Ti  Ti166  1  0.70451294  0.70529178  0.49035397  1
  Ti  Ti167  1  0.79748268  0.60143498  0.39111032  1
  Ti  Ti168  1  0.18760210  0.60654850  0.61368400  1
  Ti  Ti169  1  0.80173735  0.18552382  0.80876936  1
  Ti  Ti170  1  0.30410170  0.89872816  0.50584437  1
  Ti  Ti171  1  0.39738173  0.78754975  0.20436543  1
  Ti  Ti172  1  0.70436950  0.09585261  0.09985089  1
  Ti  Ti173  1  0.39665422  0.79439526  -0.00198595  1
  Ti  Ti174  1  -0.00567564  0.81040651  0.00480264  1
  Ti  Ti175  1  0.49855818  0.09255517  0.69860023  1
  Ti  Ti176  1  0.10719301  0.69771210  0.30887374  1
  Ti  Ti177  1  0.20218818  0.79711048  0.60601724  1
  Ti  Ti178  1  0.70135437  0.09846141  0.70272639  1
  Ti  Ti179  1  0.08814447  0.89851547  0.89866216  1
  Ti  Ti180  1  0.80264386  0.59395764  -0.01262207  1
  Ti  Ti181  1  0.89156996  0.70381640  0.49148741  1
  Ti  Ti182  1  0.10534023  0.69847345  0.49954752  1
  Ti  Ti183  1  0.40819143  0.19372128  0.40184475  1
  Ti  Ti184  1  0.00660202  0.39193508  0.79636402  1
  Ti  Ti185  1  0.69899428  0.90191667  0.69972105  1
  Ti  Ti186  1  0.89534336  0.90000509  0.49801437  1
  Ti  Ti187  1  0.40578568  -0.00757801  0.80002666  1
  Ti  Ti188  1  0.10379672  0.70532472  0.08752668  1
  Ti  Ti189  1  0.89629675  0.29769980  0.70825196  1
  Ti  Ti190  1  0.19137046  -0.00251209  0.20014700  1
  Ti  Ti191  1  0.00421932  0.40167531  -0.00827944  1
  Ti  Ti192  1  0.69598858  0.09838487  0.50896666  1
  Ti  Ti193  1  0.39508536  0.20965024  0.00661271  1
  Ti  Ti194  1  0.70002233  0.49619134  0.70003649  1
  Ti  Ti195  1  0.50156484  0.89216277  0.09889121  1
  Ti  Ti196  1  0.59518935  0.19594216  0.79393607  1
  Ti  Ti197  1  0.49926127  0.70154241  0.90437585  1
  Ti  Ti198  1  0.09400417  0.29825522  0.89978178  1
  Ti  Ti199  1  0.40578956  0.40130806  0.60786259  1
  Mo  Mo200  1  0.89189271  0.90840495  0.10207235  1
  Mo  Mo201  1  0.89095109  0.70457938  0.70310811  1
  Mo  Mo202  1  0.11308589  0.70680238  0.69971624  1
  Mo  Mo203  1  0.10088214  0.30197430  0.71040337  1
  Mo  Mo204  1  0.79958451  0.19254451  -0.00650930  1
  Mo  Mo205  1  0.89682411  0.09872654  0.30431332  1
  Mo  Mo206  1  0.19809449  0.60113155  0.79304718  1
  Mo  Mo207  1  0.40591059  -0.00489298  0.60673650  1
  Mo  Mo208  1  0.69630572  0.49636569  0.89661876  1
  Mo  Mo209  1  0.60419084  0.18562472  0.61009596  1
  Mo  Mo210  1  0.29766424  0.49207994  0.89802412  1
  Mo  Mo211  1  0.00233714  0.80116277  0.80537879  1
  Mo  Mo212  1  0.69702324  0.90561739  0.29593346  1
  Mo  Mo213  1  0.89530269  0.10297344  0.90180866  1
  Mo  Mo214  1  0.09518564  0.30507239  0.29657501  1
  Mo  Mo215  1  0.49853964  0.50397827  0.51154530  1
  Mo  Mo216  1  0.31216507  0.88513061  0.89649672  1
  Mo  Mo217  1  0.19947034  -0.00299171  0.40132412  1
  Mo  Mo218  1  0.79269866  0.00827428  0.79767774  1
  Mo  Mo219  1  0.49939113  0.69871936  0.70793365  1
  Mo  Mo220  1  0.09638634  0.90395567  0.30080273  1
  Mo  Mo221  1  0.60080824  0.40311906  -0.00252478  1
  Mo  Mo222  1  0.89553661  0.09998683  0.08590557  1
  Mo  Mo223  1  0.50207564  0.30325666  0.70995947  1
  Mo  Mo224  1  0.29911468  0.70319893  0.31355820  1
  Mo  Mo225  1  0.50808155  0.29941125  0.09662963  1
  Mo  Mo226  1  0.50702602  0.09220966  0.50449271  1
  Mo  Mo227  1  0.49835751  0.90093609  0.70259098  1
  Mo  Mo228  1  0.89592317  0.09231797  0.70698383  1
  Mo  Mo229  1  0.70033141  0.10197725  0.89539791  1
  Mo  Mo230  1  0.79653813  0.00122744  0.19266547  1
  Mo  Mo231  1  0.30440632  0.70728742  0.09003380  1
  Mo  Mo232  1  0.89508644  0.30167663  0.49247073  1
  Mo  Mo233  1  0.79753049  0.80291503  0.39967489  1
  Mo  Mo234  1  0.09758014  0.29826171  0.50302964  1
  Mo  Mo235  1  0.30246692  0.29917689  0.89436112  1
  Mo  Mo236  1  0.69450671  0.90764150  0.10017081  1
  Mo  Mo237  1  0.49607087  0.49978579  0.29303439  1
  Mo  Mo238  1  0.18440863  0.60352791  0.00120388  1
  Mo  Mo239  1  0.41766445  0.59993977  -0.00259577  1
  Mo  Mo240  1  0.60507276  0.80163760  0.61446168  1
  Mo  Mo241  1  0.70247879  0.69756045  0.29614573  1
  Mo  Mo242  1  0.00056989  0.00620613  0.80038645  1
  Mo  Mo243  1  0.19296565  0.60790848  0.40389796  1
  Mo  Mo244  1  0.80167446  0.39506709  0.39825340  1
  Mo  Mo245  1  0.49893140  0.70414278  0.29160464  1
  Mo  Mo246  1  0.29160587  0.30756834  0.09536419  1
  Mo  Mo247  1  -0.00174737  0.20506483  -0.00666561  1
  Mo  Mo248  1  0.69803421  0.90424806  0.89639590  1
  Mo  Mo249  1  0.90073381  0.49743390  0.30135676  1
