# generated using pymatgen
data_HfZrTaTiMo
_symmetry_space_group_name_H-M   'P 1'
_cell_length_a   16.89072461
_cell_length_b   16.88339777
_cell_length_c   16.87973773
_cell_angle_alpha   89.98244613
_cell_angle_beta   89.89834577
_cell_angle_gamma   89.99374408
_symmetry_Int_Tables_number   1
_chemical_formula_structural   HfZrTaTiMo
_chemical_formula_sum   'Hf50 Zr50 Ta50 Ti50 Mo50'
_cell_volume   4813.63461740
_cell_formula_units_Z   50
loop_
 _symmetry_equiv_pos_site_id
 _symmetry_equiv_pos_as_xyz
  1  'x, y, z'
loop_
 _atom_site_type_symbol
 _atom_site_label
 _atom_site_symmetry_multiplicity
 _atom_site_fract_x
 _atom_site_fract_y
 _atom_site_fract_z
 _atom_site_occupancy
  Hf  Hf0  1  0.60005789  0.80076796  0.60574788  1
  Hf  Hf1  1  0.69309597  0.50852984  0.50457997  1
  Hf  Hf2  1  0.69591483  0.10629745  0.49170589  1
  Hf  Hf3  1  0.70425136  0.91185263  0.09782330  1
  Hf  Hf4  1  0.08856582  0.49428927  0.49813354  1
  Hf  Hf5  1  0.30839421  0.10035710  0.69786240  1
  Hf  Hf6  1  0.29358233  0.50000666  0.29851442  1
  Hf  Hf7  1  0.29195047  0.49648185  0.89202743  1
  Hf  Hf8  1  0.59465462  -0.00562114  0.78506597  1
  Hf  Hf9  1  0.50553169  0.10169368  0.30152049  1
  Hf  Hf10  1  0.70304283  0.48875115  0.10699340  1
  Hf  Hf11  1  0.90447537  0.11384662  0.30095934  1
  Hf  Hf12  1  0.30488470  0.89462961  0.29427347  1
  Hf  Hf13  1  0.50019346  0.29686852  0.90760125  1
  Hf  Hf14  1  0.90242486  0.90369362  0.30253687  1
  Hf  Hf15  1  0.20844985  0.00450003  0.59373169  1
  Hf  Hf16  1  0.59282182  0.80599272  0.01135619  1
  Hf  Hf17  1  0.90020403  0.69840031  0.10649961  1
  Hf  Hf18  1  0.50724457  0.10020741  0.09673524  1
  Hf  Hf19  1  0.80094551  0.79752091  0.58974222  1
  Hf  Hf20  1  0.90105710  0.70119260  0.89619466  1
  Hf  Hf21  1  0.79996074  0.80205651  0.00012417  1
  Hf  Hf22  1  0.79960123  -0.00127264  0.59417435  1
  Hf  Hf23  1  0.41056427  0.80092760  0.79466081  1
  Hf  Hf24  1  0.08783706  0.10642266  0.50158721  1
  Hf  Hf25  1  0.70711558  0.90077196  0.30512545  1
  Hf  Hf26  1  0.69613761  0.90267216  0.49529215  1
  Hf  Hf27  1  0.69280524  0.70108309  0.89735123  1
  Hf  Hf28  1  0.71339585  0.69811433  0.31093467  1
  Hf  Hf29  1  0.59904340  -0.00453541  0.20125940  1
  Hf  Hf30  1  0.50616800  0.30676245  0.50554586  1
  Hf  Hf31  1  0.10064066  0.89928967  0.30331427  1
  Hf  Hf32  1  0.08902598  0.29177359  0.50493132  1
  Hf  Hf33  1  0.00916676  0.00804206  0.19513859  1
  Hf  Hf34  1  0.09347716  0.50011534  0.30411291  1
  Hf  Hf35  1  0.40094266  0.59511629  -0.00751879  1
  Hf  Hf36  1  0.09664464  0.10689526  0.90138352  1
  Hf  Hf37  1  0.90850468  0.90330103  0.69902121  1
  Hf  Hf38  1  0.40183127  0.39471858  0.19561321  1
  Hf  Hf39  1  0.40906767  0.60302869  0.40005614  1
  Hf  Hf40  1  0.09270764  0.90018209  0.50418421  1
  Hf  Hf41  1  0.08970854  0.29012336  0.69518896  1
  Hf  Hf42  1  0.40813630  0.59567204  0.79498173  1
  Hf  Hf43  1  -0.00313046  0.39907821  0.79475482  1
  Hf  Hf44  1  0.10448332  0.70351697  0.10103289  1
  Hf  Hf45  1  0.89998827  0.69933303  0.30642350  1
  Hf  Hf46  1  -0.02781479  0.20518842  0.81457964  1
  Hf  Hf47  1  0.79928486  0.39378596  0.59511801  1
  Hf  Hf48  1  0.39344526  -0.00508573  0.01401341  1
  Hf  Hf49  1  0.00560248  0.59091535  0.79507995  1
  Zr  Zr50  1  0.80012340  0.00568585  0.79875425  1
  Zr  Zr51  1  0.30606145  0.09701442  0.28479466  1
  Zr  Zr52  1  0.29834998  0.70224296  0.50770378  1
  Zr  Zr53  1  0.69968225  0.10287377  0.68846629  1
  Zr  Zr54  1  0.39351488  0.00433699  0.41389559  1
  Zr  Zr55  1  0.00233578  0.80190371  0.00134458  1
  Zr  Zr56  1  0.80110301  0.59363876  0.79766711  1
  Zr  Zr57  1  0.79918539  0.59734945  0.00482443  1
  Zr  Zr58  1  0.29572148  0.69888985  0.70036252  1
  Zr  Zr59  1  0.79800865  0.40285361  0.40267054  1
  Zr  Zr60  1  0.90114150  0.10707451  0.09980578  1
  Zr  Zr61  1  0.10307492  0.71362100  0.69534314  1
  Zr  Zr62  1  0.19735602  0.39822782  0.60903247  1
  Zr  Zr63  1  0.20682367  -0.00105584  0.79912947  1
  Zr  Zr64  1  0.60011903  0.39799258  0.79461251  1
  Zr  Zr65  1  0.51296685  0.29815933  0.29814870  1
  Zr  Zr66  1  0.08969438  0.10050458  0.70118889  1
  Zr  Zr67  1  0.30012808  0.50304696  0.50325452  1
  Zr  Zr68  1  0.89773786  0.29880063  0.10766443  1
  Zr  Zr69  1  0.39760493  0.20310980  0.18861999  1
  Zr  Zr70  1  0.20300223  0.00131154  0.00487187  1
  Zr  Zr71  1  0.69301845  0.90460884  0.90303115  1
  Zr  Zr72  1  0.29791304  0.30543491  0.89837561  1
  Zr  Zr73  1  0.49919935  0.09817563  0.90699882  1
  Zr  Zr74  1  0.20141150  0.00465418  0.18821443  1
  Zr  Zr75  1  0.69510820  0.68935822  0.69297359  1
  Zr  Zr76  1  0.29645408  0.70853725  0.29475914  1
  Zr  Zr77  1  0.81939333  0.20062903  -0.02132345  1
  Zr  Zr78  1  0.29058004  0.49791232  0.10050522  1
  Zr  Zr79  1  0.50114628  0.69693653  0.09700335  1
  Zr  Zr80  1  0.39848764  0.20053603  0.40728587  1
  Zr  Zr81  1  -0.00671398  0.59312671  0.59696090  1
  Zr  Zr82  1  0.10774047  0.69708869  0.89289154  1
  Zr  Zr83  1  0.10185915  0.29983613  0.90499922  1
  Zr  Zr84  1  0.89599156  0.50980320  0.30600969  1
  Zr  Zr85  1  0.70374696  0.30033544  0.90230667  1
  Zr  Zr86  1  0.39796476  0.39664977  0.40049772  1
  Zr  Zr87  1  0.59564857  0.79206083  0.39991554  1
  Zr  Zr88  1  0.30065339  0.70598721  0.09868756  1
  Zr  Zr89  1  0.40762722  0.60008409  0.20537252  1
  Zr  Zr90  1  0.59635473  0.19841905  0.79287627  1
  Zr  Zr91  1  0.20485459  0.00240734  0.40426696  1
  Zr  Zr92  1  0.59008886  0.59662610  0.80006179  1
  Zr  Zr93  1  0.09594587  0.70349312  0.50544584  1
  Zr  Zr94  1  0.20562364  0.19762128  0.40089230  1
  Zr  Zr95  1  0.19950279  0.39133803  0.40010339  1
  Zr  Zr96  1  0.09476689  0.90580422  0.89160197  1
  Zr  Zr97  1  0.69382731  0.09566560  0.91324187  1
  Zr  Zr98  1  0.90366223  0.70539719  0.69505843  1
  Zr  Zr99  1  0.51240081  0.49242226  0.10180161  1
  Ta  Ta100  1  0.89810680  0.49264328  0.90403873  1
  Ta  Ta101  1  0.89979483  0.90788960  0.90095318  1
  Ta  Ta102  1  0.79163805  0.80938840  0.79341910  1
  Ta  Ta103  1  0.30691190  0.89864223  0.69196200  1
  Ta  Ta104  1  0.90122851  0.29086742  0.50357979  1
  Ta  Ta105  1  0.20874512  0.80564346  -0.00546615  1
  Ta  Ta106  1  0.40758543  0.59512195  0.60792394  1
  Ta  Ta107  1  0.60897904  0.40190321  0.39825106  1
  Ta  Ta108  1  0.39895986  0.39513553  0.00563247  1
  Ta  Ta109  1  0.00355256  0.79827525  0.20445240  1
  Ta  Ta110  1  0.49769511  0.90278416  0.90821974  1
  Ta  Ta111  1  -0.00184864  0.40178508  0.00500932  1
  Ta  Ta112  1  0.59490670  0.19971286  0.59954432  1
  Ta  Ta113  1  0.60800200  0.60231835  0.21110348  1
  Ta  Ta114  1  0.89608449  0.48975497  0.69336259  1
  Ta  Ta115  1  0.20742872  0.80859797  0.79832437  1
  Ta  Ta116  1  0.89507092  0.10966924  0.69476385  1
  Ta  Ta117  1  0.80069179  0.00835695  0.20289299  1
  Ta  Ta118  1  0.80536535  0.00658315  0.39939627  1
  Ta  Ta119  1  0.40228405  0.20158012  0.79554965  1
  Ta  Ta120  1  0.30361843  0.10745923  0.90078191  1
  Ta  Ta121  1  0.20806376  0.20324809  0.79658521  1
  Ta  Ta122  1  0.19626175  0.59928971  -0.00215409  1
  Ta  Ta123  1  0.70480179  0.49053666  0.90332330  1
  Ta  Ta124  1  0.08847577  0.29258592  0.29603028  1
  Ta  Ta125  1  0.49478246  0.90167185  0.30262221  1
  Ta  Ta126  1  -0.01213524  0.39352719  0.39918353  1
  Ta  Ta127  1  0.70087276  0.49476944  0.69396037  1
  Ta  Ta128  1  -0.00115121  0.79524195  0.40187148  1
  Ta  Ta129  1  -0.00296492  0.39933188  0.20240403  1
  Ta  Ta130  1  0.50704791  0.69189346  0.50923444  1
  Ta  Ta131  1  0.10505623  0.49561794  0.89663753  1
  Ta  Ta132  1  0.19671540  0.79797927  0.40052193  1
  Ta  Ta133  1  0.19365999  0.58983297  0.60960225  1
  Ta  Ta134  1  0.70141101  0.10768505  0.30109775  1
  Ta  Ta135  1  0.49709765  0.90079152  0.50227830  1
  Ta  Ta136  1  0.70507496  0.10509949  0.09814046  1
  Ta  Ta137  1  0.18860043  0.60397121  0.20346494  1
  Ta  Ta138  1  0.51467869  0.49604112  0.30073383  1
  Ta  Ta139  1  0.00078142  0.00491474  0.00315922  1
  Ta  Ta140  1  0.19030205  0.60709990  0.39883850  1
  Ta  Ta141  1  0.70139187  0.29594603  0.29856893  1
  Ta  Ta142  1  0.00287091  0.58930858  0.00166096  1
  Ta  Ta143  1  0.90079128  0.90550270  0.10296023  1
  Ta  Ta144  1  0.29917889  0.70063550  0.89670626  1
  Ta  Ta145  1  0.28273216  0.29893144  0.09515971  1
  Ta  Ta146  1  0.49481082  0.30209541  0.69210963  1
  Ta  Ta147  1  0.00345550  0.59877701  0.19911507  1
  Ta  Ta148  1  0.59983543  0.79761149  0.20495974  1
  Ta  Ta149  1  0.09490860  0.29561779  0.10004819  1
  Ti  Ti150  1  0.30448430  0.88761855  0.50746001  1
  Ti  Ti151  1  0.28959189  0.29725608  0.28729660  1
  Ti  Ti152  1  0.50711325  0.49783476  0.50343601  1
  Ti  Ti153  1  0.40514699  0.39998996  0.79553058  1
  Ti  Ti154  1  0.10318920  0.89273632  0.10202373  1
  Ti  Ti155  1  0.51271363  0.49187665  0.68350317  1
  Ti  Ti156  1  0.29132075  0.49722086  0.70906148  1
  Ti  Ti157  1  0.69934969  0.69884137  0.10587522  1
  Ti  Ti158  1  0.29919771  0.29214093  0.51759404  1
  Ti  Ti159  1  0.60332365  0.59638372  -0.00027021  1
  Ti  Ti160  1  0.40814338  0.79339206  0.60175016  1
  Ti  Ti161  1  0.51344371  0.29809122  0.09646768  1
  Ti  Ti162  1  -0.00806811  0.00455482  0.59703021  1
  Ti  Ti163  1  0.09826878  0.90074350  0.69311250  1
  Ti  Ti164  1  0.18960361  0.19288027  0.19047069  1
  Ti  Ti165  1  0.09695716  0.49836789  0.10122395  1
  Ti  Ti166  1  0.90085583  0.10807909  0.49706135  1
  Ti  Ti167  1  0.70727358  0.29734004  0.10227838  1
  Ti  Ti168  1  0.79600907  0.59581019  0.20255976  1
  Ti  Ti169  1  0.19335751  0.40252298  0.00325155  1
  Ti  Ti170  1  0.50531679  0.09438388  0.50930169  1
  Ti  Ti171  1  0.60989710  0.20163563  0.19609290  1
  Ti  Ti172  1  0.80023438  0.80421334  0.19843523  1
  Ti  Ti173  1  0.49889074  0.70845809  0.90326829  1
  Ti  Ti174  1  0.09163864  0.10625334  0.30718320  1
  Ti  Ti175  1  0.80517669  0.38902565  0.79713870  1
  Ti  Ti176  1  0.59629646  0.80566912  0.79094074  1
  Ti  Ti177  1  0.89774963  0.49563440  0.10305523  1
  Ti  Ti178  1  0.59720769  0.00150664  0.39934315  1
  Ti  Ti179  1  0.40505264  0.19449692  0.60243594  1
  Ti  Ti180  1  0.50424605  0.48813358  0.90669564  1
  Ti  Ti181  1  0.40606580  0.79343442  0.40247415  1
  Ti  Ti182  1  0.80525694  0.60017997  0.58950892  1
  Ti  Ti183  1  0.79998717  0.39661232  0.21213855  1
  Ti  Ti184  1  0.60662880  0.39436418  0.00370567  1
  Ti  Ti185  1  0.90555229  0.90016613  0.49158583  1
  Ti  Ti186  1  0.60188597  0.60056318  0.39836543  1
  Ti  Ti187  1  0.69458141  0.29248108  0.49809707  1
  Ti  Ti188  1  0.30272074  0.30024342  0.70183965  1
  Ti  Ti189  1  0.30578635  0.88493688  0.10864105  1
  Ti  Ti190  1  0.39276547  0.20359985  0.00492696  1
  Ti  Ti191  1  -0.00030563  0.80570060  0.79888711  1
  Ti  Ti192  1  0.80212659  0.20802356  0.39724855  1
  Ti  Ti193  1  0.49339165  0.91172909  0.68515993  1
  Ti  Ti194  1  0.39773952  0.40496715  0.60482795  1
  Ti  Ti195  1  0.31087684  0.89646729  0.89700757  1
  Ti  Ti196  1  0.70282301  0.29484876  0.69291273  1
  Ti  Ti197  1  0.40493375  0.00228613  0.79800204  1
  Ti  Ti198  1  0.18832311  0.39689908  0.19882463  1
  Ti  Ti199  1  0.41918100  0.80083379  0.20035474  1
  Mo  Mo200  1  0.81081218  0.00018822  0.00494250  1
  Mo  Mo201  1  -0.00328473  0.80999180  0.59402826  1
  Mo  Mo202  1  0.29819303  0.11276757  0.09096482  1
  Mo  Mo203  1  0.80164624  0.60558629  0.41620131  1
  Mo  Mo204  1  0.80011946  0.20630026  0.79097244  1
  Mo  Mo205  1  0.60356436  0.20215388  0.40362565  1
  Mo  Mo206  1  0.59271334  -0.00075522  0.00762798  1
  Mo  Mo207  1  0.80758021  0.80375953  0.40724761  1
  Mo  Mo208  1  0.61025682  0.39498745  0.20334335  1
  Mo  Mo209  1  -0.00561315  0.20314487  0.39836710  1
  Mo  Mo210  1  0.79530132  0.20247204  0.59255236  1
  Mo  Mo211  1  0.89893434  0.69988542  0.49215689  1
  Mo  Mo212  1  0.49515898  0.10254417  0.69226495  1
  Mo  Mo213  1  0.39763978  0.80275527  -0.00846667  1
  Mo  Mo214  1  0.69911900  0.89905956  0.69557837  1
  Mo  Mo215  1  0.59472431  0.59580565  0.59952162  1
  Mo  Mo216  1  0.60722548  0.20563270  0.01175092  1
  Mo  Mo217  1  0.19247107  0.80168403  0.19875121  1
  Mo  Mo218  1  0.89776694  0.49812805  0.50068871  1
  Mo  Mo219  1  0.80353393  0.40108685  0.00345306  1
  Mo  Mo220  1  0.09837274  0.49198005  0.70167999  1
  Mo  Mo221  1  0.00733030  0.20359428  0.20082363  1
  Mo  Mo222  1  0.00416739  0.20289010  0.00178045  1
  Mo  Mo223  1  0.20237758  0.81214316  0.60173895  1
  Mo  Mo224  1  0.69874568  0.50168990  0.30170267  1
  Mo  Mo225  1  0.20206386  0.20017053  0.00029439  1
  Mo  Mo226  1  0.40186119  -0.00284315  0.59647345  1
  Mo  Mo227  1  0.49724336  0.89880550  0.10723266  1
  Mo  Mo228  1  0.20056240  0.59541139  0.79919421  1
  Mo  Mo229  1  0.49724320  0.70028296  0.69663906  1
  Mo  Mo230  1  0.30147171  0.11387277  0.51404138  1
  Mo  Mo231  1  -0.01152211  0.39576175  0.59840920  1
  Mo  Mo232  1  0.19502311  0.39777372  0.79342514  1
  Mo  Mo233  1  0.59403113  -0.00073017  0.59379701  1
  Mo  Mo234  1  0.79149088  0.20135954  0.20458101  1
  Mo  Mo235  1  0.60454563  0.39484961  0.59825507  1
  Mo  Mo236  1  0.90443120  0.08220588  0.89679317  1
  Mo  Mo237  1  0.50691673  0.70023325  0.30374159  1
  Mo  Mo238  1  0.88872695  0.29701568  0.69733585  1
  Mo  Mo239  1  -0.00693303  0.00380589  0.40209602  1
  Mo  Mo240  1  -0.00226106  0.60150922  0.40059525  1
  Mo  Mo241  1  0.09774928  0.11382451  0.09151526  1
  Mo  Mo242  1  -0.00348607  0.00337385  0.79739004  1
  Mo  Mo243  1  0.20978283  0.20069045  0.60533937  1
  Mo  Mo244  1  0.40457994  -0.00943105  0.19502188  1
  Mo  Mo245  1  0.70131812  0.69453818  0.49757470  1
  Mo  Mo246  1  -0.01585015  0.19722048  0.60143380  1
  Mo  Mo247  1  0.89832508  0.32133204  0.90435659  1
  Mo  Mo248  1  0.89814946  0.30164955  0.30184143  1
  Mo  Mo249  1  0.09608879  0.69996209  0.30164800  1
