# generated using pymatgen
data_HfZrTaTiMo
_symmetry_space_group_name_H-M   'P 1'
_cell_length_a   16.88925174
_cell_length_b   16.87432827
_cell_length_c   16.89629616
_cell_angle_alpha   89.99996632
_cell_angle_beta   90.02645481
_cell_angle_gamma   90.03787166
_symmetry_Int_Tables_number   1
_chemical_formula_structural   HfZrTaTiMo
_chemical_formula_sum   'Hf50 Zr50 Ta50 Ti50 Mo50'
_cell_volume   4815.35460819
_cell_formula_units_Z   50
loop_
 _symmetry_equiv_pos_site_id
 _symmetry_equiv_pos_as_xyz
  1  'x, y, z'
loop_
 _atom_site_type_symbol
 _atom_site_label
 _atom_site_symmetry_multiplicity
 _atom_site_fract_x
 _atom_site_fract_y
 _atom_site_fract_z
 _atom_site_occupancy
  Hf  Hf0  1  0.51210287  0.51493575  0.11150125  1
  Hf  Hf1  1  0.49950475  0.89430132  0.09903844  1
  Hf  Hf2  1  0.80512763  -0.00568053  -0.00321995  1
  Hf  Hf3  1  0.80889219  0.20382317  -0.00091706  1
  Hf  Hf4  1  0.50303164  0.10446336  0.10054602  1
  Hf  Hf5  1  0.19486382  0.19845573  0.59921076  1
  Hf  Hf6  1  -0.00246468  0.19929674  0.78894206  1
  Hf  Hf7  1  0.30708427  0.90627751  0.51489170  1
  Hf  Hf8  1  0.09684994  0.89894066  0.30130115  1
  Hf  Hf9  1  0.79592969  -0.01172372  0.20471117  1
  Hf  Hf10  1  0.19341929  0.80117005  0.79798948  1
  Hf  Hf11  1  0.71005751  0.70154196  0.49730850  1
  Hf  Hf12  1  0.89517301  0.49348124  0.49853223  1
  Hf  Hf13  1  0.70622870  0.31055810  0.10506982  1
  Hf  Hf14  1  0.09319992  0.51811394  0.28381444  1
  Hf  Hf15  1  0.39827614  0.60142924  0.79505858  1
  Hf  Hf16  1  0.70581054  0.30475882  0.89516168  1
  Hf  Hf17  1  0.60199389  0.80087225  0.39731607  1
  Hf  Hf18  1  0.80369029  0.19904712  0.79126758  1
  Hf  Hf19  1  0.09947569  0.50814996  0.69284826  1
  Hf  Hf20  1  0.29690483  0.89972085  0.90939791  1
  Hf  Hf21  1  0.60381499  0.79884280  0.60193006  1
  Hf  Hf22  1  0.51262443  0.11312965  0.31468864  1
  Hf  Hf23  1  0.41183514  0.61056023  0.00093277  1
  Hf  Hf24  1  0.40067478  0.18308593  0.58486732  1
  Hf  Hf25  1  -0.00165193  0.40307031  0.79112705  1
  Hf  Hf26  1  0.49959184  0.10087419  0.89925481  1
  Hf  Hf27  1  0.90845427  0.09611461  0.29535303  1
  Hf  Hf28  1  0.00274778  0.20286959  0.40455868  1
  Hf  Hf29  1  0.90089957  0.30172599  0.28910723  1
  Hf  Hf30  1  0.50339628  0.29485528  0.10502644  1
  Hf  Hf31  1  0.31298949  0.30656293  0.69000621  1
  Hf  Hf32  1  0.30300869  0.70069302  0.10411275  1
  Hf  Hf33  1  0.00245463  0.79702176  0.00290061  1
  Hf  Hf34  1  0.49048867  0.90277162  0.69629348  1
  Hf  Hf35  1  0.80737261  0.00039053  0.79603994  1
  Hf  Hf36  1  0.19494840  0.00736962  0.41378393  1
  Hf  Hf37  1  0.69449110  0.69737906  0.91403172  1
  Hf  Hf38  1  0.60058483  0.79531991  0.79793147  1
  Hf  Hf39  1  0.39678444  0.19344652  0.79495925  1
  Hf  Hf40  1  0.80188898  0.19783582  0.40059158  1
  Hf  Hf41  1  0.51199884  0.51075544  0.89869687  1
  Hf  Hf42  1  0.19026794  0.40342597  0.01280023  1
  Hf  Hf43  1  0.19782212  0.20332334  0.40597859  1
  Hf  Hf44  1  0.10376857  0.29683187  0.89554133  1
  Hf  Hf45  1  0.60923615  0.00049131  0.21058042  1
  Hf  Hf46  1  0.20675112  0.60121755  0.78758139  1
  Hf  Hf47  1  0.29906598  0.69980606  0.50493267  1
  Hf  Hf48  1  -0.00127255  0.00647572  0.60116809  1
  Hf  Hf49  1  0.70583514  0.90178051  0.49743519  1
  Zr  Zr50  1  0.00583898  0.20421089  0.00328357  1
  Zr  Zr51  1  -0.00328316  0.58935536  0.01277195  1
  Zr  Zr52  1  0.69557387  0.88102141  0.09087878  1
  Zr  Zr53  1  0.19991347  0.39999981  0.60030803  1
  Zr  Zr54  1  0.30164706  0.10106321  0.30498394  1
  Zr  Zr55  1  0.40016234  0.79126606  0.80688721  1
  Zr  Zr56  1  0.60852744  0.60405840  0.78584991  1
  Zr  Zr57  1  0.19929241  0.80373385  0.40090413  1
  Zr  Zr58  1  0.39508672  0.00361751  0.00155354  1
  Zr  Zr59  1  0.59540236  0.38812573  0.79466128  1
  Zr  Zr60  1  0.89680659  0.89194121  0.49960493  1
  Zr  Zr61  1  0.60441605  0.59305309  0.59941215  1
  Zr  Zr62  1  0.88993813  0.69533833  0.10359245  1
  Zr  Zr63  1  0.49123526  0.48721649  0.69103923  1
  Zr  Zr64  1  0.89112475  0.49905842  0.90001066  1
  Zr  Zr65  1  0.29230716  0.70302101  0.91333183  1
  Zr  Zr66  1  0.29484718  0.50534409  0.90947310  1
  Zr  Zr67  1  0.20168145  0.40017816  0.79407240  1
  Zr  Zr68  1  0.19385556  0.40161671  0.38601955  1
  Zr  Zr69  1  0.90990236  0.10024138  0.10197333  1
  Zr  Zr70  1  0.69643288  0.09796682  0.89562908  1
  Zr  Zr71  1  0.00411740  0.40233893  0.19224181  1
  Zr  Zr72  1  0.00427847  -0.01840700  0.18613753  1
  Zr  Zr73  1  0.40258777  0.20471093  0.20787288  1
  Zr  Zr74  1  0.89665532  0.70609063  0.49432112  1
  Zr  Zr75  1  0.72002833  0.46628813  0.69850333  1
  Zr  Zr76  1  0.80184758  0.60482136  0.79735265  1
  Zr  Zr77  1  0.09670772  0.09954356  0.29030157  1
  Zr  Zr78  1  0.40490579  0.40583982  0.00474181  1
  Zr  Zr79  1  0.30435557  0.29184706  0.90749666  1
  Zr  Zr80  1  0.69207693  0.10479573  0.09775706  1
  Zr  Zr81  1  0.20333635  0.79083400  0.21525808  1
  Zr  Zr82  1  0.88158281  0.31655633  0.69043380  1
  Zr  Zr83  1  0.79825558  0.60047246  0.60856754  1
  Zr  Zr84  1  -0.00319734  0.39889335  0.00776095  1
  Zr  Zr85  1  0.29492038  0.10451264  0.09942833  1
  Zr  Zr86  1  0.59558978  0.39784021  0.39748701  1
  Zr  Zr87  1  0.60108757  0.40336550  0.00337698  1
  Zr  Zr88  1  0.39900679  0.80183937  0.39804616  1
  Zr  Zr89  1  0.20770894  0.61402631  0.37821041  1
  Zr  Zr90  1  0.79728921  0.19585610  0.20130962  1
  Zr  Zr91  1  0.50224610  0.91081019  0.31030205  1
  Zr  Zr92  1  0.10030611  0.51059917  0.49511083  1
  Zr  Zr93  1  0.69616693  0.10070349  0.69228654  1
  Zr  Zr94  1  0.19351412  0.22081300  0.20485606  1
  Zr  Zr95  1  -0.00985005  0.60143960  0.60263992  1
  Zr  Zr96  1  0.30379864  0.49564703  0.49574119  1
  Zr  Zr97  1  0.60094910  0.59608570  0.39825626  1
  Zr  Zr98  1  0.09172312  0.69337022  0.89788136  1
  Zr  Zr99  1  0.29819843  0.90636945  0.70038526  1
  Ta  Ta100  1  0.60078900  0.38495328  0.59124816  1
  Ta  Ta101  1  0.09355884  0.30552004  0.50147970  1
  Ta  Ta102  1  0.70620109  0.49594734  0.28814461  1
  Ta  Ta103  1  0.79602862  0.79727418  0.20679064  1
  Ta  Ta104  1  0.09956554  0.68379697  0.11980085  1
  Ta  Ta105  1  0.40507292  0.59623552  0.39648725  1
  Ta  Ta106  1  0.29954231  0.89544392  0.10316012  1
  Ta  Ta107  1  0.69558432  0.10057279  0.49538190  1
  Ta  Ta108  1  0.19962936  0.19669236  0.78942153  1
  Ta  Ta109  1  -0.00268927  0.20240633  0.60000607  1
  Ta  Ta110  1  0.49404790  0.69771609  0.50270200  1
  Ta  Ta111  1  0.00062707  0.00106828  0.80032817  1
  Ta  Ta112  1  0.40371566  0.02025983  0.42140647  1
  Ta  Ta113  1  0.90392188  0.71539513  0.70518879  1
  Ta  Ta114  1  0.19085645  0.80297744  0.60174302  1
  Ta  Ta115  1  0.69849786  0.89548079  0.89906318  1
  Ta  Ta116  1  0.39427557  0.59439940  0.59916003  1
  Ta  Ta117  1  0.31379896  0.30943897  0.30886905  1
  Ta  Ta118  1  0.70338663  0.29466577  0.49905297  1
  Ta  Ta119  1  0.80100567  0.39423908  0.39240749  1
  Ta  Ta120  1  0.60002202  -0.00604267  -0.00479333  1
  Ta  Ta121  1  0.90222305  0.89740371  0.70210737  1
  Ta  Ta122  1  0.79932928  0.79847125  0.80382772  1
  Ta  Ta123  1  -0.00316722  0.40019307  0.39463431  1
  Ta  Ta124  1  0.90580215  0.89330444  0.89507969  1
  Ta  Ta125  1  0.29816647  0.50829562  0.10851064  1
  Ta  Ta126  1  0.18639279  -0.00540507  0.00672221  1
  Ta  Ta127  1  0.80281984  0.00367135  0.59955271  1
  Ta  Ta128  1  0.70452072  0.49092118  0.49322870  1
  Ta  Ta129  1  0.18864712  0.80005678  0.01212020  1
  Ta  Ta130  1  0.09992370  0.09724651  0.70261282  1
  Ta  Ta131  1  0.50148023  0.89356765  0.90528966  1
  Ta  Ta132  1  0.49162358  0.70158485  0.68754438  1
  Ta  Ta133  1  0.09868998  0.70081448  0.50178545  1
  Ta  Ta134  1  0.00778135  -0.00810877  -0.00385268  1
  Ta  Ta135  1  0.51085948  0.70709897  0.10334531  1
  Ta  Ta136  1  0.59465428  0.20354789  0.78896256  1
  Ta  Ta137  1  0.31035060  0.30178810  0.49253614  1
  Ta  Ta138  1  0.39997359  -0.00097153  0.20480313  1
  Ta  Ta139  1  0.09500906  0.70347314  0.69600245  1
  Ta  Ta140  1  0.50022149  0.09285410  0.69675990  1
  Ta  Ta141  1  0.40178232  0.80288712  0.20526309  1
  Ta  Ta142  1  0.70322610  0.49773294  0.90806127  1
  Ta  Ta143  1  0.79707659  0.00264138  0.39400781  1
  Ta  Ta144  1  -0.00101585  0.00100127  0.40924386  1
  Ta  Ta145  1  0.40228619  0.40665308  0.20547340  1
  Ta  Ta146  1  0.50386315  0.69637339  0.29342917  1
  Ta  Ta147  1  0.69126460  0.29411999  0.29925965  1
  Ta  Ta148  1  0.60019315  -0.00120353  0.59660128  1
  Ta  Ta149  1  0.30417618  0.30630458  0.10310600  1
  Ti  Ti150  1  0.80243617  0.59179676  0.38799869  1
  Ti  Ti151  1  0.79732415  0.80162039  0.38035336  1
  Ti  Ti152  1  0.18852991  0.00461103  0.59774442  1
  Ti  Ti153  1  0.59864619  0.40014318  0.20562984  1
  Ti  Ti154  1  0.10095400  0.50718287  0.89969611  1
  Ti  Ti155  1  -0.00224143  0.79255507  0.20096890  1
  Ti  Ti156  1  0.49874556  0.90407481  0.50544464  1
  Ti  Ti157  1  0.00163918  0.79390641  0.39436310  1
  Ti  Ti158  1  0.49469628  0.29590522  0.68846469  1
  Ti  Ti159  1  0.30393347  0.91147554  0.30359785  1
  Ti  Ti160  1  0.29905638  0.70507458  0.68627970  1
  Ti  Ti161  1  0.10359105  0.10018884  0.89866303  1
  Ti  Ti162  1  0.89659849  0.30774342  0.89971323  1
  Ti  Ti163  1  0.79238619  0.59291357  0.00907199  1
  Ti  Ti164  1  0.20152686  -0.00781044  0.19314078  1
  Ti  Ti165  1  0.60541150  0.79982590  0.20989166  1
  Ti  Ti166  1  0.87334185  0.49303452  0.11654048  1
  Ti  Ti167  1  0.00210844  0.80249947  0.60255646  1
  Ti  Ti168  1  0.39847775  0.60225504  0.20875030  1
  Ti  Ti169  1  0.49611464  0.49403033  0.50127292  1
  Ti  Ti170  1  0.89792654  0.88971062  0.09653617  1
  Ti  Ti171  1  0.69246740  0.69063897  0.10514010  1
  Ti  Ti172  1  0.09372903  0.90168814  0.70475008  1
  Ti  Ti173  1  0.09994713  0.10417028  0.10305181  1
  Ti  Ti174  1  0.39731466  0.40335783  0.80244888  1
  Ti  Ti175  1  0.90935352  0.09555513  0.89951209  1
  Ti  Ti176  1  0.49689468  0.28983144  0.48504719  1
  Ti  Ti177  1  0.70621305  0.89925608  0.69918353  1
  Ti  Ti178  1  0.19460164  0.00512243  0.80429032  1
  Ti  Ti179  1  0.19780920  0.20146833  0.00510499  1
  Ti  Ti180  1  0.20348672  0.40608078  0.20222740  1
  Ti  Ti181  1  0.80631326  0.79359787  -0.00674943  1
  Ti  Ti182  1  0.70072334  0.69101078  0.29324407  1
  Ti  Ti183  1  -0.01007391  0.60305561  0.79749479  1
  Ti  Ti184  1  -0.00703678  0.60216107  0.39307566  1
  Ti  Ti185  1  0.29132767  0.10235222  0.90407061  1
  Ti  Ti186  1  0.50053144  0.50161425  0.29837648  1
  Ti  Ti187  1  0.89857486  0.69095159  0.29271433  1
  Ti  Ti188  1  0.09757537  0.89925215  0.89831446  1
  Ti  Ti189  1  0.29890885  0.08870480  0.69403556  1
  Ti  Ti190  1  -0.00279178  0.39588287  0.59669285  1
  Ti  Ti191  1  0.80460809  0.19921376  0.59490422  1
  Ti  Ti192  1  0.90359802  0.89707116  0.30268183  1
  Ti  Ti193  1  0.89703637  0.09878698  0.50125010  1
  Ti  Ti194  1  0.60001361  0.20394687  -0.00759902  1
  Ti  Ti195  1  0.59696245  0.20054979  0.59669177  1
  Ti  Ti196  1  0.39662293  0.00252817  0.80444802  1
  Ti  Ti197  1  0.59856362  -0.00530152  0.79854731  1
  Ti  Ti198  1  0.09471039  0.89606402  0.50220091  1
  Ti  Ti199  1  0.49351680  0.29408981  0.90115688  1
  Mo  Mo200  1  0.70419761  0.89653210  0.30366372  1
  Mo  Mo201  1  0.20153899  0.61079887  0.60181191  1
  Mo  Mo202  1  0.40813388  0.00236134  0.59975328  1
  Mo  Mo203  1  0.90158370  0.09644395  0.69252038  1
  Mo  Mo204  1  0.21360369  0.60096131  0.20263145  1
  Mo  Mo205  1  0.79945083  0.39268622  0.57615804  1
  Mo  Mo206  1  0.09306497  0.10254028  0.50815413  1
  Mo  Mo207  1  0.70592710  0.71560390  0.69699561  1
  Mo  Mo208  1  0.40231452  0.80108930  0.00934609  1
  Mo  Mo209  1  0.90115717  0.29997083  0.49606266  1
  Mo  Mo210  1  0.40144511  0.79636219  0.59814001  1
  Mo  Mo211  1  0.60210700  0.60419426  0.20516098  1
  Mo  Mo212  1  0.29110663  0.10003469  0.50512538  1
  Mo  Mo213  1  0.11274699  0.50852324  0.10654596  1
  Mo  Mo214  1  0.40155468  0.20354912  0.40387741  1
  Mo  Mo215  1  0.30354791  0.49989627  0.69345855  1
  Mo  Mo216  1  0.40872729  0.40229869  0.39455796  1
  Mo  Mo217  1  0.80230093  0.39643984  0.81326555  1
  Mo  Mo218  1  0.30953708  0.50077692  0.29409119  1
  Mo  Mo219  1  0.19219139  0.60094447  0.01245944  1
  Mo  Mo220  1  0.10359307  0.88762013  0.10301405  1
  Mo  Mo221  1  0.32268470  0.69856101  0.30026774  1
  Mo  Mo222  1  0.60670954  0.60328571  0.00849653  1
  Mo  Mo223  1  0.69533173  0.29006221  0.68840022  1
  Mo  Mo224  1  0.51613340  0.10063867  0.50311998  1
  Mo  Mo225  1  0.10690939  0.30285365  0.10289529  1
  Mo  Mo226  1  0.79526882  0.39908326  0.20488941  1
  Mo  Mo227  1  0.59650167  0.79584038  -0.00346674  1
  Mo  Mo228  1  0.79938222  0.80695706  0.61367170  1
  Mo  Mo229  1  0.70034793  0.09867219  0.30878889  1
  Mo  Mo230  1  0.60417196  0.00150703  0.40996943  1
  Mo  Mo231  1  0.40891367  0.39413289  0.58482524  1
  Mo  Mo232  1  0.50258748  0.30570386  0.30080457  1
  Mo  Mo233  1  -0.02013702  0.59613203  0.20111924  1
  Mo  Mo234  1  0.89759687  0.30592778  0.09803901  1
  Mo  Mo235  1  0.09518488  0.29437492  0.69414587  1
  Mo  Mo236  1  0.50524670  0.70460980  0.90707764  1
  Mo  Mo237  1  0.39714033  0.20256489  -0.00138648  1
  Mo  Mo238  1  -0.00059633  0.80520608  0.79986622  1
  Mo  Mo239  1  0.07612247  0.70010301  0.29992958  1
  Mo  Mo240  1  0.90474248  0.49772656  0.69774734  1
  Mo  Mo241  1  0.80142863  0.40108550  0.00678488  1
  Mo  Mo242  1  0.89560144  0.50050916  0.30259919  1
  Mo  Mo243  1  0.89427624  0.70280808  0.89925550  1
  Mo  Mo244  1  0.60235343  0.20359675  0.20772931  1
  Mo  Mo245  1  0.09620736  0.30869186  0.30234339  1
  Mo  Mo246  1  0.70117963  0.50390812  0.10445479  1
  Mo  Mo247  1  0.60527923  0.20341808  0.40534518  1
  Mo  Mo248  1  0.79191960  0.60040655  0.20378157  1
  Mo  Mo249  1  0.00645738  0.21251552  0.19337109  1
