# generated using pymatgen
data_HfZrTaTiMo
_symmetry_space_group_name_H-M   'P 1'
_cell_length_a   16.88152004
_cell_length_b   16.88645494
_cell_length_c   16.88850726
_cell_angle_alpha   90.05591017
_cell_angle_beta   89.98166570
_cell_angle_gamma   90.01681479
_symmetry_Int_Tables_number   1
_chemical_formula_structural   HfZrTaTiMo
_chemical_formula_sum   'Hf50 Zr50 Ta50 Ti50 Mo50'
_cell_volume   4814.38759341
_cell_formula_units_Z   50
loop_
 _symmetry_equiv_pos_site_id
 _symmetry_equiv_pos_as_xyz
  1  'x, y, z'
loop_
 _atom_site_type_symbol
 _atom_site_label
 _atom_site_symmetry_multiplicity
 _atom_site_fract_x
 _atom_site_fract_y
 _atom_site_fract_z
 _atom_site_occupancy
  Hf  Hf0  1  0.60737460  0.40983879  0.59413163  1
  Hf  Hf1  1  0.20810693  0.40380297  0.39485617  1
  Hf  Hf2  1  0.80158735  0.00831250  -0.00408936  1
  Hf  Hf3  1  0.79775465  0.41101355  0.59973930  1
  Hf  Hf4  1  0.70913073  0.30913832  0.90693498  1
  Hf  Hf5  1  0.60207071  0.01015588  0.81119251  1
  Hf  Hf6  1  0.60236696  0.20433416  0.80608586  1
  Hf  Hf7  1  0.79621091  0.20965898  0.59543408  1
  Hf  Hf8  1  -0.00456829  0.41281284  0.59854866  1
  Hf  Hf9  1  0.69864266  0.10347107  0.69581162  1
  Hf  Hf10  1  0.79978535  0.59577872  0.40232739  1
  Hf  Hf11  1  0.49622222  0.50467776  0.10838564  1
  Hf  Hf12  1  0.19902205  0.19526041  0.59370301  1
  Hf  Hf13  1  0.01135979  0.80798068  0.38928286  1
  Hf  Hf14  1  0.49975473  0.69638697  0.49234061  1
  Hf  Hf15  1  0.19787946  0.18798310  0.18763357  1
  Hf  Hf16  1  0.60082140  0.20411280  0.39391441  1
  Hf  Hf17  1  0.80316844  0.59399964  0.59608271  1
  Hf  Hf18  1  0.29809106  0.09026841  0.48372123  1
  Hf  Hf19  1  0.49210408  0.89910162  0.70775293  1
  Hf  Hf20  1  0.09826856  0.30422166  0.49340565  1
  Hf  Hf21  1  0.90119901  0.09737991  0.69552184  1
  Hf  Hf22  1  0.90050623  0.89718828  0.70155050  1
  Hf  Hf23  1  0.69417082  0.10083249  0.09983531  1
  Hf  Hf24  1  0.39560030  0.40330139  0.00111911  1
  Hf  Hf25  1  0.60201393  0.39534651  0.20427923  1
  Hf  Hf26  1  0.30164342  0.89695149  0.47781575  1
  Hf  Hf27  1  -0.00578309  0.60188711  -0.00429054  1
  Hf  Hf28  1  0.80498182  0.60351802  0.00630142  1
  Hf  Hf29  1  -0.00622164  0.19815217  0.19901596  1
  Hf  Hf30  1  0.30103545  0.29317023  0.29998403  1
  Hf  Hf31  1  0.00053627  -0.00509832  0.81313488  1
  Hf  Hf32  1  0.10903543  0.69662574  0.48985813  1
  Hf  Hf33  1  0.59265776  0.79556144  0.20825663  1
  Hf  Hf34  1  -0.01562459  0.39562722  0.20257861  1
  Hf  Hf35  1  0.49747115  0.30181892  0.68873231  1
  Hf  Hf36  1  0.40716490  0.20212608  0.80808528  1
  Hf  Hf37  1  0.49014822  0.50361037  0.69635437  1
  Hf  Hf38  1  0.79862913  0.19681913  0.80899031  1
  Hf  Hf39  1  -0.00165833  -0.00234678  0.38956136  1
  Hf  Hf40  1  0.10050411  0.10627155  0.90880268  1
  Hf  Hf41  1  0.49876138  0.10376935  0.69277920  1
  Hf  Hf42  1  0.90140149  0.32356686  0.90247236  1
  Hf  Hf43  1  0.20444713  0.80120545  0.21511248  1
  Hf  Hf44  1  0.29704362  0.50365048  0.70705561  1
  Hf  Hf45  1  0.80270966  0.20188319  0.38516635  1
  Hf  Hf46  1  0.09759338  0.50115209  0.09911721  1
  Hf  Hf47  1  0.60203000  -0.01006640  0.59943887  1
  Hf  Hf48  1  0.39583969  0.79424392  0.59334269  1
  Hf  Hf49  1  0.69048592  0.09395124  0.29053813  1
  Zr  Zr50  1  0.01374904  0.00008261  0.59335152  1
  Zr  Zr51  1  0.90384588  0.89442386  0.50002417  1
  Zr  Zr52  1  0.30312659  0.89516763  0.90709168  1
  Zr  Zr53  1  0.09948813  0.49974066  0.30088593  1
  Zr  Zr54  1  0.69726895  0.30957139  0.48641130  1
  Zr  Zr55  1  0.39450932  0.19266480  0.19649842  1
  Zr  Zr56  1  0.10293642  0.30934076  0.70542149  1
  Zr  Zr57  1  -0.01006735  0.59415154  0.39831193  1
  Zr  Zr58  1  -0.00469143  0.19369440  0.39097970  1
  Zr  Zr59  1  0.90117187  0.30846156  0.70560311  1
  Zr  Zr60  1  0.20161037  0.80110134  0.59291903  1
  Zr  Zr61  1  0.79340203  -0.00463786  0.59788919  1
  Zr  Zr62  1  -0.00505726  0.60353603  0.80594687  1
  Zr  Zr63  1  0.60925756  0.59804059  0.79720703  1
  Zr  Zr64  1  0.09889347  0.31395597  0.90016045  1
  Zr  Zr65  1  0.40175608  0.78910123  0.01054404  1
  Zr  Zr66  1  0.10281210  0.89243930  0.10421986  1
  Zr  Zr67  1  0.68496395  0.89707761  0.09080195  1
  Zr  Zr68  1  -0.00444902  0.60202826  0.60062491  1
  Zr  Zr69  1  0.69571373  0.89720939  0.90767674  1
  Zr  Zr70  1  0.29926799  0.09922642  0.70264585  1
  Zr  Zr71  1  0.30323500  0.89270392  0.71279911  1
  Zr  Zr72  1  -0.00626107  0.20553334  0.00922889  1
  Zr  Zr73  1  0.71058411  0.49572632  0.90584296  1
  Zr  Zr74  1  0.30045721  0.50572389  0.49579404  1
  Zr  Zr75  1  0.49921964  0.50478642  0.90093382  1
  Zr  Zr76  1  0.19629401  0.00821587  0.01242215  1
  Zr  Zr77  1  0.79174484  0.80053602  0.20458952  1
  Zr  Zr78  1  0.30681787  0.90740964  0.11029920  1
  Zr  Zr79  1  0.10188093  0.30080485  0.29815324  1
  Zr  Zr80  1  0.79294899  0.79796505  0.59900567  1
  Zr  Zr81  1  0.50330801  0.09559138  0.10437563  1
  Zr  Zr82  1  0.00338256  0.79519385  -0.00544695  1
  Zr  Zr83  1  0.49218605  0.69716952  0.70297970  1
  Zr  Zr84  1  0.80500924  -0.00775247  0.20353336  1
  Zr  Zr85  1  0.00446426  0.79379657  0.80582107  1
  Zr  Zr86  1  0.29388215  0.30333100  0.89950065  1
  Zr  Zr87  1  0.60992732  0.39761575  0.79025810  1
  Zr  Zr88  1  0.60388548  0.80161219  0.79356687  1
  Zr  Zr89  1  0.29743229  0.30604284  0.69731469  1
  Zr  Zr90  1  0.39764181  0.40191784  0.20287657  1
  Zr  Zr91  1  -0.00317019  0.19454153  0.80378261  1
  Zr  Zr92  1  0.88573872  0.88821417  0.90380962  1
  Zr  Zr93  1  0.19558165  -0.00026561  0.80848492  1
  Zr  Zr94  1  0.39680928  -0.00095395  0.59241613  1
  Zr  Zr95  1  0.30145657  0.69542883  0.89592495  1
  Zr  Zr96  1  0.80384816  -0.00644380  0.39004364  1
  Zr  Zr97  1  0.50369279  0.89834628  0.91664237  1
  Zr  Zr98  1  0.59593507  0.60188613  0.21011337  1
  Zr  Zr99  1  0.70242408  0.70808146  0.91212657  1
  Ta  Ta100  1  0.20187725  0.60048379  0.20401778  1
  Ta  Ta101  1  0.59946551  0.20426809  -0.00345650  1
  Ta  Ta102  1  0.90084872  0.70532838  0.10644990  1
  Ta  Ta103  1  0.39951383  0.40096703  0.80358549  1
  Ta  Ta104  1  0.20361475  0.40642567  0.00621854  1
  Ta  Ta105  1  0.30539393  0.11000900  0.91295226  1
  Ta  Ta106  1  0.00042112  -0.00523972  0.19961881  1
  Ta  Ta107  1  0.50065459  0.90429204  0.10575270  1
  Ta  Ta108  1  0.39933755  0.20053528  0.58420839  1
  Ta  Ta109  1  0.80836630  0.40467712  0.39141923  1
  Ta  Ta110  1  0.11012144  0.69832504  0.70317758  1
  Ta  Ta111  1  0.39577421  0.60216656  0.59270124  1
  Ta  Ta112  1  -0.00264445  -0.00048611  0.00344981  1
  Ta  Ta113  1  0.90555122  0.30513979  0.49189954  1
  Ta  Ta114  1  0.40532581  0.40124550  0.39685092  1
  Ta  Ta115  1  0.60597170  0.59546525  0.59275889  1
  Ta  Ta116  1  0.10210145  0.89448568  0.70164353  1
  Ta  Ta117  1  0.49779238  0.30236330  0.49356826  1
  Ta  Ta118  1  0.69151993  0.89344743  0.49000405  1
  Ta  Ta119  1  0.69643767  0.09727555  0.49338126  1
  Ta  Ta120  1  0.89880485  0.09801463  0.10213444  1
  Ta  Ta121  1  0.49968851  0.09481451  0.29827647  1
  Ta  Ta122  1  0.29989514  0.69385142  0.70999575  1
  Ta  Ta123  1  0.80717833  0.59935381  0.79765287  1
  Ta  Ta124  1  0.10359049  0.50199792  0.49739722  1
  Ta  Ta125  1  0.79497953  0.80085758  0.39091788  1
  Ta  Ta126  1  0.90070155  0.70348362  0.29532053  1
  Ta  Ta127  1  0.20184877  0.60209381  0.59989943  1
  Ta  Ta128  1  0.50432534  0.09874818  0.49230734  1
  Ta  Ta129  1  0.69753400  0.49424773  0.30409230  1
  Ta  Ta130  1  0.39808417  0.59967238  0.00487196  1
  Ta  Ta131  1  0.10600599  0.50263265  0.70689109  1
  Ta  Ta132  1  0.59633221  0.79671267  0.39050203  1
  Ta  Ta133  1  0.80463104  0.20690621  0.19958816  1
  Ta  Ta134  1  0.50018618  0.89751817  0.48852256  1
  Ta  Ta135  1  0.20048846  0.20224526  0.01045559  1
  Ta  Ta136  1  0.40228432  0.19596237  0.39755459  1
  Ta  Ta137  1  0.60111129  0.60354955  0.01248256  1
  Ta  Ta138  1  0.40104383  0.79539697  0.21046929  1
  Ta  Ta139  1  0.20802861  0.40349722  0.19321968  1
  Ta  Ta140  1  0.89712722  0.10497654  0.49902792  1
  Ta  Ta141  1  0.70082126  0.69693222  0.69230566  1
  Ta  Ta142  1  0.10423927  0.49870645  0.89954681  1
  Ta  Ta143  1  -0.00461988  0.60256041  0.20057976  1
  Ta  Ta144  1  0.70335045  0.50015830  0.10807640  1
  Ta  Ta145  1  0.69307010  0.70092050  0.49441545  1
  Ta  Ta146  1  0.10591770  0.08973598  0.29221960  1
  Ta  Ta147  1  0.50031157  0.29892701  0.30303790  1
  Ta  Ta148  1  0.10431594  0.69738524  0.10532956  1
  Ta  Ta149  1  0.60250712  0.40003478  0.01219855  1
  Ti  Ti150  1  0.90243873  0.89152062  0.10143038  1
  Ti  Ti151  1  0.49161692  0.90974558  0.29727376  1
  Ti  Ti152  1  0.39732296  0.40042774  0.59009641  1
  Ti  Ti153  1  0.80080764  0.59750600  0.20503639  1
  Ti  Ti154  1  0.10163126  0.09833090  0.70023877  1
  Ti  Ti155  1  0.79409949  0.00458121  0.80497946  1
  Ti  Ti156  1  0.30213330  0.07827423  0.29579265  1
  Ti  Ti157  1  0.89980205  0.70829104  0.49397543  1
  Ti  Ti158  1  0.01022203  0.79887466  0.59774414  1
  Ti  Ti159  1  0.40383615  0.79597876  0.38705980  1
  Ti  Ti160  1  0.29873675  0.69323384  0.48306200  1
  Ti  Ti161  1  0.10186206  0.69548909  0.29818321  1
  Ti  Ti162  1  0.60100561  0.80128755  0.59802432  1
  Ti  Ti163  1  0.20408646  0.59879617  0.00536203  1
  Ti  Ti164  1  0.40484058  0.00952301  0.81485808  1
  Ti  Ti165  1  0.40242541  0.01150269  0.00286344  1
  Ti  Ti166  1  0.49900877  0.50039872  0.49102737  1
  Ti  Ti167  1  0.80859633  0.40602428  0.01821959  1
  Ti  Ti168  1  0.79639417  0.79161374  0.79391494  1
  Ti  Ti169  1  0.89983863  0.50228115  0.10576163  1
  Ti  Ti170  1  0.09845378  0.31196003  0.09638374  1
  Ti  Ti171  1  0.29427176  0.50565518  0.89446733  1
  Ti  Ti172  1  0.20127722  0.19278654  0.39336426  1
  Ti  Ti173  1  0.49462377  0.69534079  0.10877199  1
  Ti  Ti174  1  0.10353103  0.09652910  0.48982623  1
  Ti  Ti175  1  0.49739264  0.29610953  0.09658773  1
  Ti  Ti176  1  0.59843562  -0.00722095  0.39527553  1
  Ti  Ti177  1  0.29670776  0.69631534  0.10697595  1
  Ti  Ti178  1  0.60356632  0.21187066  0.20066368  1
  Ti  Ti179  1  0.90116921  0.70390249  0.69840648  1
  Ti  Ti180  1  0.30247485  0.69049750  0.30758551  1
  Ti  Ti181  1  0.30829886  0.51200030  0.30002460  1
  Ti  Ti182  1  0.79952457  0.39373990  0.20681962  1
  Ti  Ti183  1  0.19905783  0.40440744  0.59549715  1
  Ti  Ti184  1  0.00259020  0.19907789  0.59470000  1
  Ti  Ti185  1  0.60353388  0.20583924  0.59301043  1
  Ti  Ti186  1  0.18793866  -0.01912294  0.38727051  1
  Ti  Ti187  1  0.19400471  0.80189428  0.80848751  1
  Ti  Ti188  1  0.30222492  0.29758226  0.49368482  1
  Ti  Ti189  1  0.70591661  0.30033907  0.09847265  1
  Ti  Ti190  1  0.59683862  0.59353677  0.39743179  1
  Ti  Ti191  1  0.19549720  -0.00662704  0.59463569  1
  Ti  Ti192  1  0.69983766  0.69489957  0.30542687  1
  Ti  Ti193  1  0.80434618  0.19879741  0.00104820  1
  Ti  Ti194  1  0.50112541  0.30583453  0.90884669  1
  Ti  Ti195  1  0.20024955  0.19866660  0.80171825  1
  Ti  Ti196  1  0.49769346  0.69724088  0.90038450  1
  Ti  Ti197  1  0.30110256  0.51061258  0.10607941  1
  Ti  Ti198  1  0.30104552  0.29707706  0.09584618  1
  Ti  Ti199  1  0.11701166  0.69630938  0.90696181  1
  Mo  Mo200  1  0.40328686  0.59751410  0.39628319  1
  Mo  Mo201  1  0.90262191  0.49362102  0.49068896  1
  Mo  Mo202  1  0.80278912  0.79506171  0.01408040  1
  Mo  Mo203  1  0.68385668  0.89805481  0.30468265  1
  Mo  Mo204  1  0.10893954  0.89824741  0.49925622  1
  Mo  Mo205  1  0.88643440  0.69923278  0.90240896  1
  Mo  Mo206  1  0.19567306  0.60236743  0.79973256  1
  Mo  Mo207  1  0.41032639  0.00189921  0.39407935  1
  Mo  Mo208  1  0.69869043  0.30305203  0.69930891  1
  Mo  Mo209  1  -0.00168972  0.41095152  0.00571876  1
  Mo  Mo210  1  0.69930621  0.30408599  0.29162205  1
  Mo  Mo211  1  0.20142592  0.40956367  0.80730550  1
  Mo  Mo212  1  0.70689538  0.50751378  0.69727668  1
  Mo  Mo213  1  0.49076852  0.69402485  0.30473329  1
  Mo  Mo214  1  0.20075040  -0.00008173  0.20572744  1
  Mo  Mo215  1  0.30659928  0.89985566  0.30124186  1
  Mo  Mo216  1  0.49897047  0.10629904  0.90990975  1
  Mo  Mo217  1  0.90297220  0.49853954  0.90389103  1
  Mo  Mo218  1  0.70001771  0.10899119  0.90555176  1
  Mo  Mo219  1  0.59437512  0.40580046  0.39548738  1
  Mo  Mo220  1  0.91079216  0.89082522  0.28991605  1
  Mo  Mo221  1  0.40237125  0.20682627  0.00243549  1
  Mo  Mo222  1  0.39952398  -0.00381716  0.20428570  1
  Mo  Mo223  1  0.59453628  -0.00853223  0.20478819  1
  Mo  Mo224  1  0.00158733  0.79385408  0.20189246  1
  Mo  Mo225  1  0.88856354  0.30126245  0.09842962  1
  Mo  Mo226  1  0.69785532  0.50641246  0.49020644  1
  Mo  Mo227  1  0.80352298  0.41210062  0.78994733  1
  Mo  Mo228  1  0.89488712  0.30367265  0.29793881  1
  Mo  Mo229  1  0.49826708  0.49822826  0.30756654  1
  Mo  Mo230  1  0.59728791  0.01701124  0.00056714  1
  Mo  Mo231  1  0.59245347  0.77646711  0.01675458  1
  Mo  Mo232  1  0.69948149  0.89486523  0.70369218  1
  Mo  Mo233  1  -0.00663382  0.40225093  0.40130665  1
  Mo  Mo234  1  0.89818221  0.09565035  0.90737153  1
  Mo  Mo235  1  0.10483763  0.89953687  0.29418755  1
  Mo  Mo236  1  0.00043011  0.41701572  0.80141730  1
  Mo  Mo237  1  0.39213090  0.60560759  0.20211153  1
  Mo  Mo238  1  0.09143511  0.09400803  0.10262455  1
  Mo  Mo239  1  0.40096956  0.79259718  0.80365430  1
  Mo  Mo240  1  0.10612891  0.89486246  0.90483231  1
  Mo  Mo241  1  0.90143129  0.09763494  0.29042827  1
  Mo  Mo242  1  0.90256861  0.50288400  0.70952444  1
  Mo  Mo243  1  0.89038212  0.50276677  0.29112574  1
  Mo  Mo244  1  0.19880146  0.78917832  0.00774735  1
  Mo  Mo245  1  0.20278249  0.60056190  0.39528998  1
  Mo  Mo246  1  0.30493669  0.10091921  0.09633124  1
  Mo  Mo247  1  0.20441686  0.79428870  0.39179318  1
  Mo  Mo248  1  0.70075235  0.69345775  0.10758444  1
  Mo  Mo249  1  0.39728995  0.59686113  0.80609931  1
