# generated using pymatgen
data_HfZrTaTiMo
_symmetry_space_group_name_H-M   'P 1'
_cell_length_a   16.88896656
_cell_length_b   16.89356184
_cell_length_c   16.89561148
_cell_angle_alpha   89.98818962
_cell_angle_beta   89.99916128
_cell_angle_gamma   90.04095988
_symmetry_Int_Tables_number   1
_chemical_formula_structural   HfZrTaTiMo
_chemical_formula_sum   'Hf50 Zr50 Ta50 Ti50 Mo50'
_cell_volume   4820.56669256
_cell_formula_units_Z   50
loop_
 _symmetry_equiv_pos_site_id
 _symmetry_equiv_pos_as_xyz
  1  'x, y, z'
loop_
 _atom_site_type_symbol
 _atom_site_label
 _atom_site_symmetry_multiplicity
 _atom_site_fract_x
 _atom_site_fract_y
 _atom_site_fract_z
 _atom_site_occupancy
  Hf  Hf0  1  -0.00969124  0.39001105  0.19279542  1
  Hf  Hf1  1  0.30734483  0.89789639  0.31354872  1
  Hf  Hf2  1  0.88781844  0.69532943  0.90112007  1
  Hf  Hf3  1  0.89793364  0.89537158  0.69322464  1
  Hf  Hf4  1  0.69944605  0.31153050  0.30008339  1
  Hf  Hf5  1  0.19504842  0.59855032  0.79840123  1
  Hf  Hf6  1  0.58897156  0.60258935  0.81403566  1
  Hf  Hf7  1  0.79343909  0.79786547  0.40218063  1
  Hf  Hf8  1  0.70440895  0.09994567  0.69497021  1
  Hf  Hf9  1  0.70299914  0.50552586  0.90311286  1
  Hf  Hf10  1  0.19273237  0.60503815  0.59088003  1
  Hf  Hf11  1  0.70549695  0.30817967  0.88965763  1
  Hf  Hf12  1  0.09717139  0.09199367  0.30310436  1
  Hf  Hf13  1  0.50104791  0.89154054  0.88914761  1
  Hf  Hf14  1  0.29833591  0.49884936  0.49701804  1
  Hf  Hf15  1  0.19803500  0.40159164  0.39786916  1
  Hf  Hf16  1  0.09959445  0.70377425  0.90526853  1
  Hf  Hf17  1  0.80768539  0.60463851  0.40355269  1
  Hf  Hf18  1  0.19110679  0.39192259  -0.00191046  1
  Hf  Hf19  1  0.20435084  -0.01221509  0.59925219  1
  Hf  Hf20  1  0.70306614  0.50345622  0.50167687  1
  Hf  Hf21  1  0.49737541  0.71528664  0.70849014  1
  Hf  Hf22  1  0.59855488  0.80246080  0.58828182  1
  Hf  Hf23  1  0.50750876  0.30291693  0.89728758  1
  Hf  Hf24  1  0.70236934  0.09580157  0.29806889  1
  Hf  Hf25  1  0.31006498  0.90245585  0.89301279  1
  Hf  Hf26  1  0.90691563  0.09279635  0.29789687  1
  Hf  Hf27  1  0.00045310  0.79093383  0.40853991  1
  Hf  Hf28  1  0.70367693  0.10119236  0.09946136  1
  Hf  Hf29  1  0.28784011  0.48823266  0.69838218  1
  Hf  Hf30  1  0.20968880  0.00402545  0.00558504  1
  Hf  Hf31  1  0.69698006  0.69703948  0.09426364  1
  Hf  Hf32  1  0.09899115  0.89718682  0.10687426  1
  Hf  Hf33  1  0.89402156  0.90593887  0.50470356  1
  Hf  Hf34  1  0.69625799  0.90440820  0.68979055  1
  Hf  Hf35  1  0.29523767  0.49626743  0.90499415  1
  Hf  Hf36  1  0.90172397  0.89953638  0.90457940  1
  Hf  Hf37  1  0.60228611  -0.00605135  0.00384534  1
  Hf  Hf38  1  0.47958107  0.90080437  0.48827486  1
  Hf  Hf39  1  0.10008076  0.30186522  0.50340773  1
  Hf  Hf40  1  0.00578929  0.40723622  0.80511064  1
  Hf  Hf41  1  0.49811325  0.09593551  0.89303363  1
  Hf  Hf42  1  0.79770120  0.00145684  0.80522939  1
  Hf  Hf43  1  0.40605363  0.39874474  0.60312385  1
  Hf  Hf44  1  0.21225048  0.80087437  0.78041588  1
  Hf  Hf45  1  0.40207862  0.00155732  0.01201837  1
  Hf  Hf46  1  0.49489303  0.49785649  0.29106420  1
  Hf  Hf47  1  0.40482267  0.40122122  0.80208262  1
  Hf  Hf48  1  0.59716661  0.40047998  0.40718418  1
  Hf  Hf49  1  0.49609524  0.90507848  0.70082220  1
  Zr  Zr50  1  0.39644079  0.60317488  0.60455428  1
  Zr  Zr51  1  0.20629311  0.19844093  0.00549220  1
  Zr  Zr52  1  0.08806952  0.70580345  0.69638552  1
  Zr  Zr53  1  0.78536735  0.80436291  0.80863357  1
  Zr  Zr54  1  0.89224029  0.70787787  0.09774630  1
  Zr  Zr55  1  0.29603734  0.29876688  0.50378898  1
  Zr  Zr56  1  0.60560853  0.20645547  0.59243211  1
  Zr  Zr57  1  0.31123873  0.30315103  0.10729703  1
  Zr  Zr58  1  0.59919380  0.20026993  0.40214725  1
  Zr  Zr59  1  0.49058224  0.70454592  0.49556333  1
  Zr  Zr60  1  -0.00674883  0.59593421  0.58948316  1
  Zr  Zr61  1  0.80156268  0.40094947  0.01183481  1
  Zr  Zr62  1  0.09990917  0.90318713  0.30066741  1
  Zr  Zr63  1  0.89551743  0.10789388  0.69409194  1
  Zr  Zr64  1  0.70828183  0.08648924  0.50785870  1
  Zr  Zr65  1  -0.00160672  0.59570486  0.79819592  1
  Zr  Zr66  1  0.79943518  0.20668741  0.40170178  1
  Zr  Zr67  1  0.80573800  0.40036315  0.19364757  1
  Zr  Zr68  1  0.69799403  0.50106215  0.30041093  1
  Zr  Zr69  1  0.10909778  0.30184372  0.69884285  1
  Zr  Zr70  1  0.90115589  0.10897519  0.90269254  1
  Zr  Zr71  1  0.69873788  0.69758674  0.70013491  1
  Zr  Zr72  1  0.40385373  0.19774677  0.00499637  1
  Zr  Zr73  1  0.09067883  0.49945758  0.30689547  1
  Zr  Zr74  1  0.89719145  0.70482188  0.28898842  1
  Zr  Zr75  1  0.10179029  0.10442011  0.89557650  1
  Zr  Zr76  1  0.10063957  0.10419636  0.70243040  1
  Zr  Zr77  1  0.30699916  0.09782111  0.70346983  1
  Zr  Zr78  1  0.90397740  0.09901215  0.09618133  1
  Zr  Zr79  1  0.31124442  0.50326433  0.10380923  1
  Zr  Zr80  1  0.10055242  0.09974357  0.49491415  1
  Zr  Zr81  1  0.39945764  0.60113786  0.80178711  1
  Zr  Zr82  1  0.40229973  0.20160338  0.60146223  1
  Zr  Zr83  1  0.09947700  0.50049043  0.09572281  1
  Zr  Zr84  1  0.89559373  0.30107494  0.50626382  1
  Zr  Zr85  1  0.59696347  0.20331064  0.19849909  1
  Zr  Zr86  1  -0.01025682  0.59281054  0.19790794  1
  Zr  Zr87  1  0.90797706  0.89969019  0.29312669  1
  Zr  Zr88  1  0.40722782  0.79358712  0.00736319  1
  Zr  Zr89  1  0.30399918  0.70381386  0.90255389  1
  Zr  Zr90  1  0.19874162  0.39043711  0.20462745  1
  Zr  Zr91  1  0.10415767  0.89694558  0.89885126  1
  Zr  Zr92  1  0.19561446  0.80122997  0.58792741  1
  Zr  Zr93  1  0.20223949  0.60272835  0.20276602  1
  Zr  Zr94  1  0.60220633  0.80451566  0.38595725  1
  Zr  Zr95  1  0.60606843  0.19642227  0.79868034  1
  Zr  Zr96  1  0.70305841  0.50079462  0.70903157  1
  Zr  Zr97  1  0.60091208  -0.01791046  0.20486458  1
  Zr  Zr98  1  0.09377203  0.09862370  0.10938448  1
  Zr  Zr99  1  0.81187679  0.21587705  0.19489809  1
  Ta  Ta100  1  0.20463753  -0.00452724  0.79293530  1
  Ta  Ta101  1  -0.00352399  0.41064814  0.60013626  1
  Ta  Ta102  1  0.51254129  0.30396664  0.70243574  1
  Ta  Ta103  1  0.79735396  0.58721542  0.18884106  1
  Ta  Ta104  1  0.39835236  0.60021010  0.39402329  1
  Ta  Ta105  1  0.21244012  0.00129024  0.20153493  1
  Ta  Ta106  1  0.49619940  0.09239588  0.49960251  1
  Ta  Ta107  1  -0.00178796  0.79851327  0.00360561  1
  Ta  Ta108  1  0.20581318  0.79727951  0.20200959  1
  Ta  Ta109  1  0.89935209  0.30294318  0.89407342  1
  Ta  Ta110  1  0.59274313  0.59698640  0.59648377  1
  Ta  Ta111  1  0.60210662  0.40148653  0.59876805  1
  Ta  Ta112  1  -0.00440585  0.20199212  0.39894532  1
  Ta  Ta113  1  0.09825262  0.70393229  0.10147542  1
  Ta  Ta114  1  0.00084093  -0.00634823  0.00114554  1
  Ta  Ta115  1  0.30825937  0.50045991  0.29711112  1
  Ta  Ta116  1  0.89940691  0.09581727  0.50194101  1
  Ta  Ta117  1  0.60064465  0.40365280  0.00504976  1
  Ta  Ta118  1  0.40952228  0.40243049  -0.00190636  1
  Ta  Ta119  1  0.41860825  0.59849649  -0.00332622  1
  Ta  Ta120  1  0.39827184  0.19485391  0.20783434  1
  Ta  Ta121  1  0.60104228  0.59815982  0.19750526  1
  Ta  Ta122  1  0.40333711  -0.00276425  0.20309657  1
  Ta  Ta123  1  0.88875256  0.70465213  0.69621302  1
  Ta  Ta124  1  0.09607448  0.29306090  0.30439810  1
  Ta  Ta125  1  0.09969123  0.70343938  0.29716759  1
  Ta  Ta126  1  0.71090247  0.30462104  0.69959115  1
  Ta  Ta127  1  0.89422418  0.30373193  0.70427606  1
  Ta  Ta128  1  0.59663802  -0.00750228  0.39784260  1
  Ta  Ta129  1  0.50283035  0.49970945  0.10408723  1
  Ta  Ta130  1  0.79663306  -0.01141785  0.19357841  1
  Ta  Ta131  1  0.60370018  0.20597338  0.00454821  1
  Ta  Ta132  1  0.20557065  0.19776184  0.20617414  1
  Ta  Ta133  1  -0.00291448  0.59603485  -0.00239902  1
  Ta  Ta134  1  0.80271235  0.40449839  0.59895303  1
  Ta  Ta135  1  0.89254269  0.50087296  0.90014172  1
  Ta  Ta136  1  0.30230366  0.09046251  0.49002054  1
  Ta  Ta137  1  0.70527920  0.10449475  0.90650991  1
  Ta  Ta138  1  0.49259092  0.30457475  0.29693701  1
  Ta  Ta139  1  0.79694117  0.21270990  0.00237498  1
  Ta  Ta140  1  0.39922041  0.20044538  0.39716230  1
  Ta  Ta141  1  0.49514509  0.09328301  0.30617505  1
  Ta  Ta142  1  0.49771078  0.30165427  0.49751205  1
  Ta  Ta143  1  0.50511616  0.08950087  0.69480669  1
  Ta  Ta144  1  0.30345907  0.69937822  0.29990170  1
  Ta  Ta145  1  0.30156408  0.09609679  0.30621243  1
  Ta  Ta146  1  0.30386720  0.89520275  0.10913119  1
  Ta  Ta147  1  0.19728313  0.60516526  0.40061530  1
  Ta  Ta148  1  0.59542653  0.60491327  0.39891855  1
  Ta  Ta149  1  0.49682006  0.69855255  0.29180263  1
  Ti  Ti150  1  0.78958358  0.81258940  0.00153896  1
  Ti  Ti151  1  0.28891853  0.30152104  0.70832110  1
  Ti  Ti152  1  -0.00257632  0.79388717  0.58830793  1
  Ti  Ti153  1  0.19738951  0.60199831  0.00141383  1
  Ti  Ti154  1  0.50912003  0.49617757  0.70371615  1
  Ti  Ti155  1  0.50193283  0.10078711  0.10716312  1
  Ti  Ti156  1  0.70227580  0.90645037  0.50359769  1
  Ti  Ti157  1  0.88932824  0.50186658  0.70632529  1
  Ti  Ti158  1  0.79691398  -0.00773093  0.39243074  1
  Ti  Ti159  1  0.49610759  0.50198198  0.49684290  1
  Ti  Ti160  1  0.37924854  0.80435651  0.60609015  1
  Ti  Ti161  1  0.00177986  -0.00097505  0.80080678  1
  Ti  Ti162  1  0.69786381  0.69411478  0.90757751  1
  Ti  Ti163  1  0.39590110  0.39558983  0.39533081  1
  Ti  Ti164  1  0.08993829  0.89910536  0.69949537  1
  Ti  Ti165  1  0.09633895  0.91070419  0.48744444  1
  Ti  Ti166  1  0.30653405  0.69620346  0.10536374  1
  Ti  Ti167  1  0.29863338  0.29753279  0.89201035  1
  Ti  Ti168  1  0.90377075  0.89623504  0.10453467  1
  Ti  Ti169  1  0.00190238  0.00096844  0.59884675  1
  Ti  Ti170  1  0.69617222  0.69569872  0.29034368  1
  Ti  Ti171  1  -0.00204101  0.60265279  0.40963306  1
  Ti  Ti172  1  -0.00275598  0.20375708  0.59964651  1
  Ti  Ti173  1  0.80626437  0.60214832  0.59676749  1
  Ti  Ti174  1  0.60379968  0.80019654  -0.00482794  1
  Ti  Ti175  1  0.60817840  -0.00284979  0.80527109  1
  Ti  Ti176  1  0.50465836  0.88587061  0.10833182  1
  Ti  Ti177  1  0.50730529  0.69563124  0.10367183  1
  Ti  Ti178  1  0.77723943  0.81208866  0.20030125  1
  Ti  Ti179  1  -0.00700250  0.39973001  0.40617824  1
  Ti  Ti180  1  0.40386601  0.79905082  0.20436946  1
  Ti  Ti181  1  0.20511826  0.79835040  0.00990634  1
  Ti  Ti182  1  0.00243797  0.39826493  -0.00269243  1
  Ti  Ti183  1  -0.00050894  0.21158398  0.20083501  1
  Ti  Ti184  1  -0.00474015  0.79942405  0.80205737  1
  Ti  Ti185  1  0.10813176  0.29689622  0.88856619  1
  Ti  Ti186  1  0.79622757  -0.00810450  0.00365396  1
  Ti  Ti187  1  0.30503927  0.10100195  0.88820615  1
  Ti  Ti188  1  -0.00160571  0.20714642  0.79937385  1
  Ti  Ti189  1  0.10642776  0.49103458  0.69396265  1
  Ti  Ti190  1  0.00812565  0.21558763  0.00210203  1
  Ti  Ti191  1  0.20581148  0.19377014  0.60004516  1
  Ti  Ti192  1  0.40391433  0.20388561  0.79389057  1
  Ti  Ti193  1  0.39231621  -0.00444887  0.59693835  1
  Ti  Ti194  1  0.70030692  0.69633327  0.50485217  1
  Ti  Ti195  1  0.19826148  0.79668188  0.40300097  1
  Ti  Ti196  1  0.20497405  0.20144257  0.39329048  1
  Ti  Ti197  1  0.30271422  0.70593917  0.48972032  1
  Ti  Ti198  1  0.50211756  0.30936249  0.10918847  1
  Ti  Ti199  1  0.89390618  0.49118433  0.31165272  1
  Mo  Mo200  1  0.10014898  0.29238088  0.10744271  1
  Mo  Mo201  1  0.30756112  0.90145332  0.69840685  1
  Mo  Mo202  1  0.19232637  0.40427471  0.59593932  1
  Mo  Mo203  1  0.80339903  0.40533169  0.40558588  1
  Mo  Mo204  1  0.60205727  0.79803168  0.81137999  1
  Mo  Mo205  1  0.21139988  0.20184447  0.80308756  1
  Mo  Mo206  1  0.30165583  0.69867285  0.69160665  1
  Mo  Mo207  1  0.59657538  0.40133313  0.19364258  1
  Mo  Mo208  1  0.89433929  0.70381486  0.50737202  1
  Mo  Mo209  1  0.09772868  0.50232094  0.90584263  1
  Mo  Mo210  1  -0.00225930  0.00418045  0.40830591  1
  Mo  Mo211  1  0.49614563  0.89528019  0.29720057  1
  Mo  Mo212  1  0.20357987  -0.00107558  0.40084367  1
  Mo  Mo213  1  0.39831832  0.80132215  0.79429494  1
  Mo  Mo214  1  0.01112036  0.79672050  0.19529661  1
  Mo  Mo215  1  0.59803402  0.59825984  0.00540809  1
  Mo  Mo216  1  0.89808216  0.49837046  0.49864112  1
  Mo  Mo217  1  0.30678311  0.09533118  0.11577316  1
  Mo  Mo218  1  0.69978937  0.89310309  0.09726006  1
  Mo  Mo219  1  0.91302113  0.29866282  0.08233353  1
  Mo  Mo220  1  0.50750013  0.70362178  0.90484756  1
  Mo  Mo221  1  0.69643705  0.90689451  0.90591698  1
  Mo  Mo222  1  0.70111440  0.31240903  0.50586293  1
  Mo  Mo223  1  0.90081070  0.50168592  0.08699840  1
  Mo  Mo224  1  0.79516603  0.79656252  0.59410693  1
  Mo  Mo225  1  0.29638225  0.89924015  0.49634069  1
  Mo  Mo226  1  0.09550818  0.49826569  0.49698660  1
  Mo  Mo227  1  0.68840654  0.30257543  0.09853170  1
  Mo  Mo228  1  0.59576643  0.79109789  0.19652474  1
  Mo  Mo229  1  0.39422787  0.79104990  0.39321931  1
  Mo  Mo230  1  0.80244464  0.20492767  0.80512529  1
  Mo  Mo231  1  0.50265260  0.49550109  0.90840757  1
  Mo  Mo232  1  -0.00685302  -0.00688536  0.19326497  1
  Mo  Mo233  1  0.40229405  0.00419681  0.79776787  1
  Mo  Mo234  1  0.40066393  0.00414923  0.39753331  1
  Mo  Mo235  1  0.60103148  0.40396126  0.79573589  1
  Mo  Mo236  1  0.70174986  0.90048286  0.30119256  1
  Mo  Mo237  1  0.59076062  -0.00286744  0.59084786  1
  Mo  Mo238  1  0.30181833  0.29339493  0.30483642  1
  Mo  Mo239  1  0.80096315  0.60309398  0.80222597  1
  Mo  Mo240  1  0.90759085  0.30351495  0.31264749  1
  Mo  Mo241  1  0.80186786  0.20745216  0.60436624  1
  Mo  Mo242  1  0.80804202  0.40408458  0.79719348  1
  Mo  Mo243  1  0.80405363  -0.00190397  0.60089469  1
  Mo  Mo244  1  0.19782773  0.39770781  0.80700725  1
  Mo  Mo245  1  0.09744115  0.69688854  0.48871220  1
  Mo  Mo246  1  0.40394200  0.60676037  0.19601289  1
  Mo  Mo247  1  0.80019944  0.59587309  0.00191902  1
  Mo  Mo248  1  0.40353083  0.39612658  0.20055249  1
  Mo  Mo249  1  0.69182068  0.50277087  0.10003338  1
