# generated using pymatgen
data_HfZrTaTiMo
_symmetry_space_group_name_H-M   'P 1'
_cell_length_a   16.89093657
_cell_length_b   16.89400158
_cell_length_c   16.89850462
_cell_angle_alpha   90.00897662
_cell_angle_beta   90.00128166
_cell_angle_gamma   90.00386165
_symmetry_Int_Tables_number   1
_chemical_formula_structural   HfZrTaTiMo
_chemical_formula_sum   'Hf50 Zr50 Ta50 Ti50 Mo50'
_cell_volume   4822.08131672
_cell_formula_units_Z   50
loop_
 _symmetry_equiv_pos_site_id
 _symmetry_equiv_pos_as_xyz
  1  'x, y, z'
loop_
 _atom_site_type_symbol
 _atom_site_label
 _atom_site_symmetry_multiplicity
 _atom_site_fract_x
 _atom_site_fract_y
 _atom_site_fract_z
 _atom_site_occupancy
  Hf  Hf0  1  0.08879136  0.90874727  0.09579236  1
  Hf  Hf1  1  0.20183797  0.20781691  0.59595286  1
  Hf  Hf2  1  0.30457677  0.49770352  0.89695190  1
  Hf  Hf3  1  0.89901475  0.30523891  0.70207919  1
  Hf  Hf4  1  0.40251742  0.80394852  0.40225174  1
  Hf  Hf5  1  0.70005094  0.29717332  0.88433932  1
  Hf  Hf6  1  0.60106677  0.60461953  0.79055107  1
  Hf  Hf7  1  -0.00135108  0.80423942  0.20606606  1
  Hf  Hf8  1  0.59898758  0.79453023  0.20407978  1
  Hf  Hf9  1  0.29378065  0.70330806  0.30695873  1
  Hf  Hf10  1  0.79228068  0.20318653  0.39433920  1
  Hf  Hf11  1  0.20102883  0.60632016  0.79743968  1
  Hf  Hf12  1  0.40210157  0.59732087  0.20254273  1
  Hf  Hf13  1  0.00925881  -0.01001129  0.40200729  1
  Hf  Hf14  1  0.70693294  0.90208304  0.10420813  1
  Hf  Hf15  1  0.09413266  0.49916496  0.30014975  1
  Hf  Hf16  1  0.88756764  0.89566683  0.49714729  1
  Hf  Hf17  1  0.59925434  0.60030770  0.39103973  1
  Hf  Hf18  1  0.90185823  0.69762967  0.31059048  1
  Hf  Hf19  1  0.00663093  0.40438221  0.58494104  1
  Hf  Hf20  1  0.89624361  0.30323999  0.88863330  1
  Hf  Hf21  1  0.31321318  0.70362614  0.89260979  1
  Hf  Hf22  1  0.90999146  0.89601499  0.90898004  1
  Hf  Hf23  1  0.40511341  0.00215859  0.21002697  1
  Hf  Hf24  1  0.49068400  0.50341303  0.89541644  1
  Hf  Hf25  1  0.39777754  0.40059430  0.20732090  1
  Hf  Hf26  1  0.01238032  0.80195837  0.59017948  1
  Hf  Hf27  1  0.89566982  0.49646736  0.70295654  1
  Hf  Hf28  1  0.29874390  0.10704573  0.10257489  1
  Hf  Hf29  1  0.70880472  0.49933203  0.90014042  1
  Hf  Hf30  1  0.89304865  0.70306450  0.49800006  1
  Hf  Hf31  1  0.50276856  0.10527556  0.69046749  1
  Hf  Hf32  1  0.90071901  0.30016018  0.29980840  1
  Hf  Hf33  1  0.19557506  0.80330826  0.20277121  1
  Hf  Hf34  1  0.49966970  0.30277002  0.50673269  1
  Hf  Hf35  1  0.89807805  0.09421715  0.90491170  1
  Hf  Hf36  1  0.59052308  0.40342316  0.78736252  1
  Hf  Hf37  1  0.51330599  0.29669557  0.12366660  1
  Hf  Hf38  1  0.61634595  0.79823373  0.78933944  1
  Hf  Hf39  1  0.78339354  0.80274708  0.61579329  1
  Hf  Hf40  1  0.30685193  0.90856603  0.88797078  1
  Hf  Hf41  1  0.09874388  0.29994618  0.29618092  1
  Hf  Hf42  1  -0.00841211  0.60659504  -0.00562899  1
  Hf  Hf43  1  0.90013448  0.48849889  0.31833226  1
  Hf  Hf44  1  0.60032465  0.79196153  0.00450526  1
  Hf  Hf45  1  0.91264322  0.09886655  0.29286532  1
  Hf  Hf46  1  0.00042837  0.60025200  0.80074459  1
  Hf  Hf47  1  0.69793448  0.10222161  0.68685020  1
  Hf  Hf48  1  0.20612425  0.20617350  0.40367105  1
  Hf  Hf49  1  0.19963573  -0.00704354  0.59252982  1
  Zr  Zr50  1  0.31425058  0.49383388  0.50346472  1
  Zr  Zr51  1  0.79715419  -0.00634909  0.78871636  1
  Zr  Zr52  1  0.90575381  0.89372102  0.70271313  1
  Zr  Zr53  1  0.10062147  0.90482176  0.90023211  1
  Zr  Zr54  1  0.49166841  0.70083858  0.89214298  1
  Zr  Zr55  1  0.70779626  0.90278008  0.90542990  1
  Zr  Zr56  1  0.69014614  0.49284571  0.50548698  1
  Zr  Zr57  1  -0.01028821  0.39380817  0.18800723  1
  Zr  Zr58  1  0.39705499  0.20290320  0.79613414  1
  Zr  Zr59  1  0.09751265  0.10378148  0.10941279  1
  Zr  Zr60  1  0.19986736  0.59734879  0.40525064  1
  Zr  Zr61  1  0.89249683  0.89860655  0.30288145  1
  Zr  Zr62  1  0.30288799  0.08773486  0.70122687  1
  Zr  Zr63  1  0.30454370  0.50260741  0.69706421  1
  Zr  Zr64  1  0.20031922  0.60440179  -0.00167660  1
  Zr  Zr65  1  0.80562515  0.20692058  0.58808696  1
  Zr  Zr66  1  0.10111890  0.50589632  0.10482186  1
  Zr  Zr67  1  0.60096021  0.60478892  0.00181701  1
  Zr  Zr68  1  0.69807541  0.09074903  0.10063148  1
  Zr  Zr69  1  0.40157596  0.39373455  0.00760610  1
  Zr  Zr70  1  0.80351128  0.78768278  0.00264936  1
  Zr  Zr71  1  0.69561554  0.70215611  0.49919581  1
  Zr  Zr72  1  0.79919001  0.38505074  0.01576596  1
  Zr  Zr73  1  0.49538071  0.50068044  0.50818270  1
  Zr  Zr74  1  0.60237032  0.20270347  0.00613139  1
  Zr  Zr75  1  0.30030907  0.69879853  0.10273470  1
  Zr  Zr76  1  0.10285374  0.70621383  0.69772528  1
  Zr  Zr77  1  0.40753795  0.80587430  0.20180267  1
  Zr  Zr78  1  0.40212806  0.00082191  0.01066089  1
  Zr  Zr79  1  0.00646694  0.21095025  0.59484299  1
  Zr  Zr80  1  0.10732247  0.49181427  0.89698356  1
  Zr  Zr81  1  0.79687943  0.20224144  0.19184051  1
  Zr  Zr82  1  -0.00245535  0.39786596  0.00062234  1
  Zr  Zr83  1  0.40455209  0.00301187  0.40443976  1
  Zr  Zr84  1  0.19251482  0.19523012  0.79788763  1
  Zr  Zr85  1  0.60053951  0.39682172  0.00378557  1
  Zr  Zr86  1  0.00383770  0.59523493  0.59190651  1
  Zr  Zr87  1  0.88872192  0.51501896  0.09943533  1
  Zr  Zr88  1  0.89593855  0.09293851  0.49750802  1
  Zr  Zr89  1  0.68830218  0.29757388  0.68896134  1
  Zr  Zr90  1  0.79511540  0.59806743  0.21592172  1
  Zr  Zr91  1  0.49635052  0.89830036  0.89476541  1
  Zr  Zr92  1  0.49700255  0.09826226  0.89396760  1
  Zr  Zr93  1  0.00719453  0.00796900  0.79723724  1
  Zr  Zr94  1  0.20540647  0.80419213  0.00149015  1
  Zr  Zr95  1  0.59159506  0.80102022  0.60935714  1
  Zr  Zr96  1  0.10409160  0.09781969  0.49295752  1
  Zr  Zr97  1  0.58987346  0.39611518  0.38865576  1
  Zr  Zr98  1  -0.00379469  0.20567769  0.00491646  1
  Zr  Zr99  1  0.69584884  0.09801635  0.89569788  1
  Ta  Ta100  1  0.19855120  0.39785082  0.59079992  1
  Ta  Ta101  1  0.08927070  0.69922982  0.10518655  1
  Ta  Ta102  1  0.20551041  0.39952948  0.40138875  1
  Ta  Ta103  1  0.11062224  0.29602387  0.10410608  1
  Ta  Ta104  1  0.59534831  0.80463857  0.39839344  1
  Ta  Ta105  1  0.49411558  0.69684809  0.50235880  1
  Ta  Ta106  1  0.29789073  0.30771382  0.69726398  1
  Ta  Ta107  1  0.59176342  -0.00425663  0.21106875  1
  Ta  Ta108  1  0.09623108  0.69366311  0.29989913  1
  Ta  Ta109  1  0.21083849  0.40126406  0.20352884  1
  Ta  Ta110  1  0.00311231  0.20804685  0.40313820  1
  Ta  Ta111  1  0.79958899  0.40293432  0.59062592  1
  Ta  Ta112  1  0.79610540  0.60766923  0.79820776  1
  Ta  Ta113  1  0.68917809  0.10013728  0.49661605  1
  Ta  Ta114  1  0.79441805  0.58914342  0.40728268  1
  Ta  Ta115  1  0.39867170  0.80331829  0.59630673  1
  Ta  Ta116  1  0.30016419  0.89761851  0.69767626  1
  Ta  Ta117  1  0.90226379  0.91122286  0.10009396  1
  Ta  Ta118  1  0.80080569  0.19981174  0.00346021  1
  Ta  Ta119  1  0.50400811  0.90072961  0.50154753  1
  Ta  Ta120  1  0.29692939  0.10006080  0.30530392  1
  Ta  Ta121  1  0.19911772  0.60191223  0.59383471  1
  Ta  Ta122  1  0.59544045  -0.00809678  0.78622788  1
  Ta  Ta123  1  0.29668027  0.09632191  0.89954494  1
  Ta  Ta124  1  0.29666112  0.30289576  0.89697254  1
  Ta  Ta125  1  0.69967185  0.90125920  0.30568722  1
  Ta  Ta126  1  0.20074633  0.00099371  0.20642232  1
  Ta  Ta127  1  0.90225706  0.09932810  0.69100880  1
  Ta  Ta128  1  0.89903972  0.70383828  0.70404197  1
  Ta  Ta129  1  0.88893126  0.49789642  0.89327219  1
  Ta  Ta130  1  0.40182688  0.39587894  0.79393400  1
  Ta  Ta131  1  0.29301709  0.90439034  0.30847589  1
  Ta  Ta132  1  0.01591630  0.79739790  0.40444599  1
  Ta  Ta133  1  0.69783484  0.90791922  0.49688559  1
  Ta  Ta134  1  0.40350212  0.20292341  0.39984140  1
  Ta  Ta135  1  0.79960647  0.59791618  0.60254398  1
  Ta  Ta136  1  0.70667135  0.68921447  0.10428746  1
  Ta  Ta137  1  0.78686790  0.39622174  0.20543103  1
  Ta  Ta138  1  0.67767587  0.29429101  0.28898636  1
  Ta  Ta139  1  0.68859132  0.09897860  0.30361475  1
  Ta  Ta140  1  0.80236085  0.19437908  0.79327990  1
  Ta  Ta141  1  0.40144310  0.19848941  0.21316743  1
  Ta  Ta142  1  0.00468739  -0.00699581  0.59727319  1
  Ta  Ta143  1  0.68821385  0.29868508  0.49498525  1
  Ta  Ta144  1  0.09071662  0.71644692  0.90135440  1
  Ta  Ta145  1  0.10972440  0.89828612  0.70097248  1
  Ta  Ta146  1  0.10687798  0.30152118  0.89785430  1
  Ta  Ta147  1  0.20492534  0.80099324  0.79622059  1
  Ta  Ta148  1  0.50138304  0.29491819  0.88901518  1
  Ta  Ta149  1  0.69636234  0.50139494  0.10729575  1
  Ti  Ti150  1  0.90219332  0.70007292  0.10698116  1
  Ti  Ti151  1  0.41057010  0.80349454  0.77736435  1
  Ti  Ti152  1  0.29632376  0.70598978  0.50392549  1
  Ti  Ti153  1  0.79945097  0.79781134  0.20279596  1
  Ti  Ti154  1  0.29096341  0.89435885  0.49493906  1
  Ti  Ti155  1  0.00283335  0.19800085  0.79702461  1
  Ti  Ti156  1  0.10182506  0.10000526  0.29849440  1
  Ti  Ti157  1  0.20712681  0.20326917  0.20852375  1
  Ti  Ti158  1  0.50187352  0.10441767  0.10773323  1
  Ti  Ti159  1  0.30655873  0.30319198  0.30782206  1
  Ti  Ti160  1  0.30413745  0.09887196  0.49813135  1
  Ti  Ti161  1  0.49746677  0.69914360  0.30406094  1
  Ti  Ti162  1  0.70502994  0.70653419  0.30709125  1
  Ti  Ti163  1  0.10501409  0.31023386  0.70724150  1
  Ti  Ti164  1  0.50715645  0.50023413  0.10681458  1
  Ti  Ti165  1  0.40373403  -0.00950667  0.59741192  1
  Ti  Ti166  1  0.59992563  0.59917018  0.20663625  1
  Ti  Ti167  1  0.00602109  0.40250575  0.79932566  1
  Ti  Ti168  1  0.29959506  0.29445548  0.10247800  1
  Ti  Ti169  1  0.30622653  0.70217488  0.69298221  1
  Ti  Ti170  1  0.59244648  -0.00051252  0.39648017  1
  Ti  Ti171  1  0.40776590  0.60300243  0.01330875  1
  Ti  Ti172  1  0.00316376  0.59505811  0.41355706  1
  Ti  Ti173  1  0.79829610  0.00246790  0.20572056  1
  Ti  Ti174  1  0.90832616  0.09038459  0.10332241  1
  Ti  Ti175  1  0.20260143  0.59539957  0.20482004  1
  Ti  Ti176  1  0.49317897  0.49719890  0.30262148  1
  Ti  Ti177  1  0.50612327  0.90177173  0.10333317  1
  Ti  Ti178  1  0.40767718  0.79866891  0.01335778  1
  Ti  Ti179  1  0.59507097  -0.00256780  0.00183976  1
  Ti  Ti180  1  0.79130132  0.00409575  0.39749416  1
  Ti  Ti181  1  0.50659474  0.10557894  0.50201283  1
  Ti  Ti182  1  0.60006501  -0.00579339  0.59857614  1
  Ti  Ti183  1  0.10350672  0.09755955  0.90644578  1
  Ti  Ti184  1  0.48717706  0.50445649  0.68777689  1
  Ti  Ti185  1  0.39727293  0.59890035  0.39799426  1
  Ti  Ti186  1  0.89527893  0.32377166  0.47862717  1
  Ti  Ti187  1  0.29886651  0.90471078  0.10531923  1
  Ti  Ti188  1  0.10995466  0.90219278  0.30715331  1
  Ti  Ti189  1  0.70365478  0.49619377  0.69669797  1
  Ti  Ti190  1  0.20349295  0.00394563  0.00246150  1
  Ti  Ti191  1  0.40106327  0.20417997  0.00099933  1
  Ti  Ti192  1  0.59856026  0.60508590  0.60934329  1
  Ti  Ti193  1  0.10025397  0.09497188  0.69413865  1
  Ti  Ti194  1  0.89928730  0.70754131  0.89082914  1
  Ti  Ti195  1  0.20355567  0.39369118  0.00657377  1
  Ti  Ti196  1  0.29848364  0.49994101  0.10027731  1
  Ti  Ti197  1  0.20298012  0.20360721  -0.00429646  1
  Ti  Ti198  1  0.39382937  0.20644999  0.59509486  1
  Ti  Ti199  1  0.10813094  0.49481720  0.69836218  1
  Mo  Mo200  1  0.59275387  0.18184975  0.20737859  1
  Mo  Mo201  1  0.89108288  0.49927290  0.49838940  1
  Mo  Mo202  1  0.59644244  0.40209609  0.60562052  1
  Mo  Mo203  1  0.20187434  0.39609984  0.79452829  1
  Mo  Mo204  1  0.20502338  0.00159361  0.39692738  1
  Mo  Mo205  1  0.11075407  0.89542610  0.49903456  1
  Mo  Mo206  1  0.80057796  0.60560332  -0.00759656  1
  Mo  Mo207  1  0.00445348  0.79850999  0.79792729  1
  Mo  Mo208  1  0.10978954  0.49939886  0.49781293  1
  Mo  Mo209  1  0.69740418  0.91098207  0.69323389  1
  Mo  Mo210  1  0.59750268  0.41698559  0.20310920  1
  Mo  Mo211  1  0.49392944  0.29524173  0.30376698  1
  Mo  Mo212  1  0.30517859  0.30062287  0.50070682  1
  Mo  Mo213  1  0.49901747  0.10268635  0.30729323  1
  Mo  Mo214  1  0.69725010  0.49461012  0.30097315  1
  Mo  Mo215  1  0.30041553  0.49771599  0.30190532  1
  Mo  Mo216  1  0.00634261  -0.00160568  0.20719421  1
  Mo  Mo217  1  0.10671506  0.69936413  0.49532501  1
  Mo  Mo218  1  0.80875745  0.00438697  0.01124686  1
  Mo  Mo219  1  0.70977023  0.69727052  0.89830005  1
  Mo  Mo220  1  0.39680856  0.61774629  0.59751555  1
  Mo  Mo221  1  0.40104386  -0.00217010  0.79094552  1
  Mo  Mo222  1  0.01368467  0.39936268  0.40480191  1
  Mo  Mo223  1  -0.00597907  0.79488285  0.00775477  1
  Mo  Mo224  1  0.00030839  0.00597902  0.00459380  1
  Mo  Mo225  1  0.39625037  0.39493265  0.39528706  1
  Mo  Mo226  1  0.10584544  0.30561044  0.49061835  1
  Mo  Mo227  1  0.59433687  0.19467472  0.39988144  1
  Mo  Mo228  1  0.40063112  0.38619743  0.60753938  1
  Mo  Mo229  1  0.50551482  0.90157044  0.30754972  1
  Mo  Mo230  1  0.49399879  0.90543308  0.69260889  1
  Mo  Mo231  1  0.20065801  -0.00166132  0.79629419  1
  Mo  Mo232  1  0.49295991  0.69752703  0.69333965  1
  Mo  Mo233  1  0.79790230  0.00053525  0.59223713  1
  Mo  Mo234  1  0.70306645  0.68740226  0.69895254  1
  Mo  Mo235  1  0.49404684  0.29733625  0.69546171  1
  Mo  Mo236  1  0.69720122  0.30070908  0.11118131  1
  Mo  Mo237  1  0.00530957  0.19745479  0.20277631  1
  Mo  Mo238  1  0.50768954  0.69418723  0.10776431  1
  Mo  Mo239  1  0.80250677  0.79207872  0.80122574  1
  Mo  Mo240  1  0.78149856  0.39391081  0.39649362  1
  Mo  Mo241  1  0.78651922  0.80024052  0.40023642  1
  Mo  Mo242  1  0.19690708  0.80030300  0.40340046  1
  Mo  Mo243  1  0.59960079  0.19613210  0.79312147  1
  Mo  Mo244  1  -0.00200959  0.60726120  0.20581777  1
  Mo  Mo245  1  0.79579466  0.40404262  0.78875490  1
  Mo  Mo246  1  0.59548913  0.19640722  0.59097713  1
  Mo  Mo247  1  0.40011561  0.59866719  0.78614568  1
  Mo  Mo248  1  0.20946207  0.79890367  0.59814489  1
  Mo  Mo249  1  0.89755779  0.28917748  0.10372882  1
