# generated using pymatgen
data_HfZrTaTiMo
_symmetry_space_group_name_H-M   'P 1'
_cell_length_a   16.89680668
_cell_length_b   16.89591035
_cell_length_c   16.88573682
_cell_angle_alpha   90.02665621
_cell_angle_beta   90.03348198
_cell_angle_gamma   90.00974175
_symmetry_Int_Tables_number   1
_chemical_formula_structural   HfZrTaTiMo
_chemical_formula_sum   'Hf50 Zr50 Ta50 Ti50 Mo50'
_cell_volume   4820.65576670
_cell_formula_units_Z   50
loop_
 _symmetry_equiv_pos_site_id
 _symmetry_equiv_pos_as_xyz
  1  'x, y, z'
loop_
 _atom_site_type_symbol
 _atom_site_label
 _atom_site_symmetry_multiplicity
 _atom_site_fract_x
 _atom_site_fract_y
 _atom_site_fract_z
 _atom_site_occupancy
  Hf  Hf0  1  0.79697144  0.39352164  0.19669026  1
  Hf  Hf1  1  0.69766098  0.50564567  0.30359004  1
  Hf  Hf2  1  0.29397879  0.90609676  0.90546706  1
  Hf  Hf3  1  0.79584892  0.21142060  0.40744248  1
  Hf  Hf4  1  0.48247221  0.71447778  0.30347569  1
  Hf  Hf5  1  0.80873825  0.60041580  -0.00251597  1
  Hf  Hf6  1  0.19282709  -0.00100930  0.19689566  1
  Hf  Hf7  1  0.38754666  -0.00595578  0.40115040  1
  Hf  Hf8  1  0.81015836  0.39710572  0.00523366  1
  Hf  Hf9  1  0.50293585  0.10142755  0.29077381  1
  Hf  Hf10  1  0.39700474  0.20611209  0.00004624  1
  Hf  Hf11  1  0.29226671  0.10840977  0.50148227  1
  Hf  Hf12  1  0.29747812  0.10345903  0.69307457  1
  Hf  Hf13  1  0.10622194  0.49726980  0.89864037  1
  Hf  Hf14  1  0.90543486  0.29485506  0.69322838  1
  Hf  Hf15  1  0.60460878  0.80359590  0.20084900  1
  Hf  Hf16  1  0.39609458  0.40500437  0.39294021  1
  Hf  Hf17  1  0.69904383  0.09615317  0.09428246  1
  Hf  Hf18  1  0.71358374  0.29452167  0.69908868  1
  Hf  Hf19  1  0.39675946  0.59719166  -0.00243508  1
  Hf  Hf20  1  0.19634973  0.80338901  0.79698123  1
  Hf  Hf21  1  0.10406229  0.70082444  0.10406077  1
  Hf  Hf22  1  0.80908641  0.79147718  -0.00385372  1
  Hf  Hf23  1  0.40375792  0.40242691  0.79773289  1
  Hf  Hf24  1  0.00831917  0.00319295  0.20156698  1
  Hf  Hf25  1  0.70017760  0.10185430  0.29654350  1
  Hf  Hf26  1  0.29714206  0.09331501  0.09478274  1
  Hf  Hf27  1  0.00401949  0.00310540  0.40492521  1
  Hf  Hf28  1  0.09704320  0.29956141  0.30965755  1
  Hf  Hf29  1  0.80117300  0.40377751  0.80254306  1
  Hf  Hf30  1  0.19897494  0.59969917  0.59870327  1
  Hf  Hf31  1  0.49433756  0.89154807  0.49215644  1
  Hf  Hf32  1  0.00115734  0.40175085  0.79651294  1
  Hf  Hf33  1  0.70342284  0.70090358  0.10449492  1
  Hf  Hf34  1  0.49875171  0.09653883  0.49891400  1
  Hf  Hf35  1  0.71087432  0.09749486  0.70697151  1
  Hf  Hf36  1  0.28336535  0.49726435  0.28931019  1
  Hf  Hf37  1  0.19036522  0.00046482  0.40201048  1
  Hf  Hf38  1  0.39306067  0.60787232  0.40803791  1
  Hf  Hf39  1  0.10684887  0.09347802  0.90711833  1
  Hf  Hf40  1  0.50075425  0.31293928  0.28411064  1
  Hf  Hf41  1  0.00973932  -0.00473551  0.79128190  1
  Hf  Hf42  1  0.09213433  0.69692449  0.50552205  1
  Hf  Hf43  1  0.49784244  0.31195144  0.50829383  1
  Hf  Hf44  1  0.39776143  0.80030628  -0.00614642  1
  Hf  Hf45  1  0.60672008  0.20496795  0.59785896  1
  Hf  Hf46  1  0.39485288  0.59465888  0.19922524  1
  Hf  Hf47  1  0.20492257  0.20161426  0.00205057  1
  Hf  Hf48  1  0.29544953  0.30032426  0.50104098  1
  Hf  Hf49  1  0.69549593  0.50042948  0.10008096  1
  Zr  Zr50  1  0.09721215  0.10806608  0.69409869  1
  Zr  Zr51  1  0.60165704  0.80532185  -0.01098205  1
  Zr  Zr52  1  0.00101704  0.19638956  0.19689431  1
  Zr  Zr53  1  0.81179513  0.00227800  0.20270272  1
  Zr  Zr54  1  0.29503862  0.10728478  0.29750501  1
  Zr  Zr55  1  0.30150911  0.50030967  0.70225285  1
  Zr  Zr56  1  0.60673859  0.21612549  0.39625558  1
  Zr  Zr57  1  0.00380406  0.79846187  0.80470309  1
  Zr  Zr58  1  0.19332151  -0.01105593  0.59713288  1
  Zr  Zr59  1  0.70454987  0.06299438  0.89977802  1
  Zr  Zr60  1  0.70187499  0.68386808  0.50166023  1
  Zr  Zr61  1  0.80427395  0.79705928  0.40248703  1
  Zr  Zr62  1  0.80757330  -0.00326267  0.59832715  1
  Zr  Zr63  1  0.50127867  0.09440701  0.70054614  1
  Zr  Zr64  1  0.60573098  -0.01536728  0.59917948  1
  Zr  Zr65  1  0.60794939  0.79686124  0.40090129  1
  Zr  Zr66  1  0.59718329  0.79196561  0.60400215  1
  Zr  Zr67  1  0.09651969  0.49355458  0.30320699  1
  Zr  Zr68  1  0.89914433  0.49767981  0.31130597  1
  Zr  Zr69  1  -0.00403834  0.79678006  0.19976495  1
  Zr  Zr70  1  0.70532268  0.90407509  0.73558817  1
  Zr  Zr71  1  -0.00366980  0.60438117  0.00314887  1
  Zr  Zr72  1  -0.00007448  0.60522042  0.80113446  1
  Zr  Zr73  1  0.90364001  0.10985407  0.31096371  1
  Zr  Zr74  1  0.70880165  0.90989287  0.08674167  1
  Zr  Zr75  1  0.39404953  0.79130192  0.59165063  1
  Zr  Zr76  1  0.49617109  0.90506723  0.29749787  1
  Zr  Zr77  1  0.40180281  0.20554070  0.39405097  1
  Zr  Zr78  1  0.39055048  0.00303199  0.80204673  1
  Zr  Zr79  1  0.59512287  0.60775123  0.20806148  1
  Zr  Zr80  1  0.69459905  0.50295935  0.50988930  1
  Zr  Zr81  1  0.49910553  0.50259049  0.51479564  1
  Zr  Zr82  1  0.20786515  0.40439537  0.00233797  1
  Zr  Zr83  1  0.50233937  0.30471244  0.90410321  1
  Zr  Zr84  1  0.79323608  0.39742045  0.40947847  1
  Zr  Zr85  1  0.79845096  0.20192389  -0.00138896  1
  Zr  Zr86  1  0.49736227  0.90980201  0.09583409  1
  Zr  Zr87  1  0.88946486  0.90683600  0.89726416  1
  Zr  Zr88  1  0.20537593  0.20010256  0.80125340  1
  Zr  Zr89  1  0.60322427  0.40792680  0.79624568  1
  Zr  Zr90  1  0.10660370  0.69100017  0.29933849  1
  Zr  Zr91  1  0.69682973  0.69081374  0.88761968  1
  Zr  Zr92  1  0.30404295  0.49479265  0.51036224  1
  Zr  Zr93  1  0.70441546  0.09977117  0.50028254  1
  Zr  Zr94  1  0.29440417  0.70166569  0.10945974  1
  Zr  Zr95  1  -0.00043046  0.20298076  0.00447379  1
  Zr  Zr96  1  0.60289244  0.19616083  0.80760210  1
  Zr  Zr97  1  0.50278273  0.49016593  0.10447291  1
  Zr  Zr98  1  0.79361292  0.80093403  0.60031053  1
  Zr  Zr99  1  -0.01252874  0.39829048  0.18418371  1
  Ta  Ta100  1  0.90130534  0.69592217  0.69178724  1
  Ta  Ta101  1  0.90237619  0.50005528  0.89713241  1
  Ta  Ta102  1  0.39588842  0.20073263  0.80470184  1
  Ta  Ta103  1  0.10527710  0.50080677  0.10265437  1
  Ta  Ta104  1  -0.00131051  0.79411054  0.40222080  1
  Ta  Ta105  1  0.09873719  0.30415057  0.69931848  1
  Ta  Ta106  1  0.49887492  0.09563674  0.90714078  1
  Ta  Ta107  1  0.69757194  0.68368291  0.70312182  1
  Ta  Ta108  1  0.60562608  0.21079941  0.18817748  1
  Ta  Ta109  1  0.81187009  0.59917079  0.19462866  1
  Ta  Ta110  1  0.49974223  0.69472558  0.89286927  1
  Ta  Ta111  1  0.28769030  0.30515044  0.29374599  1
  Ta  Ta112  1  0.09718643  0.70242157  0.69262557  1
  Ta  Ta113  1  -0.00654068  0.59654245  0.19599161  1
  Ta  Ta114  1  0.20648695  0.60080859  -0.00050663  1
  Ta  Ta115  1  0.90039497  0.50258013  0.69462968  1
  Ta  Ta116  1  0.19704965  -0.00527646  0.79693598  1
  Ta  Ta117  1  0.39515204  0.40578258  0.00098465  1
  Ta  Ta118  1  0.49776070  0.70328328  0.09697353  1
  Ta  Ta119  1  0.30064779  0.69757661  0.70133484  1
  Ta  Ta120  1  0.18817293  0.39915593  0.60110233  1
  Ta  Ta121  1  0.80095980  0.21300256  0.19511031  1
  Ta  Ta122  1  0.29276199  0.88984750  0.29624376  1
  Ta  Ta123  1  0.20152705  0.79859630  0.40921637  1
  Ta  Ta124  1  0.90684857  0.89280884  0.69565319  1
  Ta  Ta125  1  0.39874355  0.20607022  0.19102863  1
  Ta  Ta126  1  0.00468766  -0.00142900  0.01075773  1
  Ta  Ta127  1  0.59968412  0.19877407  0.00368999  1
  Ta  Ta128  1  0.29019008  0.70355661  0.29970669  1
  Ta  Ta129  1  0.90226318  0.89562688  0.09961614  1
  Ta  Ta130  1  0.90610418  0.09550741  0.89827705  1
  Ta  Ta131  1  0.39289921  -0.01034963  0.59622866  1
  Ta  Ta132  1  0.19288166  0.20019380  0.19655820  1
  Ta  Ta133  1  0.89811842  0.69406786  0.30410586  1
  Ta  Ta134  1  0.00238197  -0.00238288  0.59578211  1
  Ta  Ta135  1  0.20109488  0.79904368  0.59902150  1
  Ta  Ta136  1  0.20210095  0.80102782  0.00220821  1
  Ta  Ta137  1  0.10186340  0.88952858  0.30313571  1
  Ta  Ta138  1  0.29940906  0.50294021  0.89217447  1
  Ta  Ta139  1  0.49422071  0.89483975  0.70534310  1
  Ta  Ta140  1  -0.00555155  0.59851418  0.41060865  1
  Ta  Ta141  1  0.29826632  0.31004950  0.89239785  1
  Ta  Ta142  1  0.71039151  0.90092605  0.29497037  1
  Ta  Ta143  1  0.90935883  0.30396292  0.50427676  1
  Ta  Ta144  1  0.10182576  0.30644602  0.09703498  1
  Ta  Ta145  1  0.58646438  0.60417085  0.40174354  1
  Ta  Ta146  1  0.90738464  0.89256069  0.50265902  1
  Ta  Ta147  1  0.80509863  -0.00714682  0.40458655  1
  Ta  Ta148  1  0.90618412  0.30158811  0.31167106  1
  Ta  Ta149  1  0.10239021  0.30653009  0.89734839  1
  Ti  Ti150  1  0.71286856  0.69403112  0.30084289  1
  Ti  Ti151  1  0.70347045  0.51231850  0.69985051  1
  Ti  Ti152  1  0.19888675  0.59723450  0.40973864  1
  Ti  Ti153  1  0.29859890  0.69771241  0.89262705  1
  Ti  Ti154  1  0.89791081  0.09724183  0.09409373  1
  Ti  Ti155  1  0.09458562  0.50138574  0.69352270  1
  Ti  Ti156  1  0.10751141  0.70161019  0.90512600  1
  Ti  Ti157  1  0.69874705  0.50637861  0.89639266  1
  Ti  Ti158  1  0.90288279  0.10521055  0.69716693  1
  Ti  Ti159  1  0.18702803  0.20953229  0.59089142  1
  Ti  Ti160  1  0.50388281  0.50525411  0.89872642  1
  Ti  Ti161  1  0.60975505  -0.00752534  0.39928781  1
  Ti  Ti162  1  0.09255259  0.88839325  0.50305154  1
  Ti  Ti163  1  0.90210821  0.89437365  0.30135007  1
  Ti  Ti164  1  0.60277844  0.00018889  0.19693066  1
  Ti  Ti165  1  0.50135976  0.30835359  0.10165262  1
  Ti  Ti166  1  -0.00270415  0.79575137  -0.00170080  1
  Ti  Ti167  1  0.40112694  0.20413174  0.60516452  1
  Ti  Ti168  1  0.81082129  0.59919370  0.59705424  1
  Ti  Ti169  1  0.29968502  0.31163697  0.11128911  1
  Ti  Ti170  1  0.29633151  0.30377031  0.69713432  1
  Ti  Ti171  1  0.70103668  0.30009297  0.90089581  1
  Ti  Ti172  1  0.60693402  0.39494517  0.00077501  1
  Ti  Ti173  1  0.00623049  0.20112878  0.58918063  1
  Ti  Ti174  1  0.10261462  0.90202073  0.91219486  1
  Ti  Ti175  1  0.00239970  0.20066294  0.80414873  1
  Ti  Ti176  1  0.49898682  0.29988604  0.69976129  1
  Ti  Ti177  1  0.39179525  -0.00073294  0.19728212  1
  Ti  Ti178  1  0.91005425  0.30317416  0.90170742  1
  Ti  Ti179  1  0.49865923  0.51120486  0.69296515  1
  Ti  Ti180  1  0.39678244  0.00235907  -0.00186740  1
  Ti  Ti181  1  0.80845102  0.78404755  0.80121701  1
  Ti  Ti182  1  0.40517718  0.60503393  0.79602095  1
  Ti  Ti183  1  0.81045312  0.19647874  0.80881686  1
  Ti  Ti184  1  0.90336866  0.10821456  0.50417197  1
  Ti  Ti185  1  0.39117738  0.80919940  0.19204803  1
  Ti  Ti186  1  0.59564907  0.60268568  -0.00251441  1
  Ti  Ti187  1  0.19660970  0.60336407  0.79757249  1
  Ti  Ti188  1  0.90976320  0.49780153  0.50898724  1
  Ti  Ti189  1  0.10449961  0.89448893  0.09678671  1
  Ti  Ti190  1  0.59251578  0.79426993  0.79749816  1
  Ti  Ti191  1  0.40168103  0.79581436  0.80013690  1
  Ti  Ti192  1  0.30160324  0.89518577  0.69958464  1
  Ti  Ti193  1  0.50090307  0.49586881  0.29661377  1
  Ti  Ti194  1  0.60481392  0.40080952  0.61103628  1
  Ti  Ti195  1  0.50046099  0.09995953  0.09896281  1
  Ti  Ti196  1  0.80147584  0.40026024  0.59944007  1
  Ti  Ti197  1  0.50657237  0.90660773  0.89217096  1
  Ti  Ti198  1  0.60427173  0.39931759  0.39895481  1
  Ti  Ti199  1  0.18950667  0.40009565  0.41374509  1
  Mo  Mo200  1  0.90085941  0.29781144  0.09561352  1
  Mo  Mo201  1  0.81769723  -0.00082958  0.00395719  1
  Mo  Mo202  1  0.40177643  0.61225871  0.60571195  1
  Mo  Mo203  1  0.10302651  0.10557173  0.30458435  1
  Mo  Mo204  1  0.09931908  0.89477503  0.69094848  1
  Mo  Mo205  1  -0.00067703  0.79941522  0.60020148  1
  Mo  Mo206  1  0.90278730  0.50189299  0.09466152  1
  Mo  Mo207  1  0.29740359  0.49987828  0.09808411  1
  Mo  Mo208  1  0.70548564  0.90180816  0.48603062  1
  Mo  Mo209  1  0.69830154  0.30413975  0.29011570  1
  Mo  Mo210  1  0.09713069  0.30409667  0.50333971  1
  Mo  Mo211  1  0.69377226  0.30049336  0.09350145  1
  Mo  Mo212  1  0.29848502  0.90188702  0.09929634  1
  Mo  Mo213  1  0.00070874  0.20257026  0.41094878  1
  Mo  Mo214  1  0.70049106  0.89264491  0.89474673  1
  Mo  Mo215  1  0.19351654  0.39390738  0.19466503  1
  Mo  Mo216  1  0.10275546  0.10243463  0.09986414  1
  Mo  Mo217  1  0.49652166  0.69816910  0.70622215  1
  Mo  Mo218  1  0.19787494  0.40051438  0.79330490  1
  Mo  Mo219  1  0.60493961  0.39869247  0.20042243  1
  Mo  Mo220  1  0.39979691  0.38660327  0.61323905  1
  Mo  Mo221  1  0.90081997  0.70328314  0.10697511  1
  Mo  Mo222  1  0.70200394  0.31123430  0.51417698  1
  Mo  Mo223  1  0.29461819  0.89526505  0.49529948  1
  Mo  Mo224  1  0.80377324  0.59435207  0.79273325  1
  Mo  Mo225  1  0.58356852  -0.00536952  0.80192169  1
  Mo  Mo226  1  0.82617254  0.00853217  0.79231367  1
  Mo  Mo227  1  0.38274761  0.79805789  0.39866767  1
  Mo  Mo228  1  0.59249017  0.59528858  0.79802838  1
  Mo  Mo229  1  0.59214093  0.60134221  0.60843339  1
  Mo  Mo230  1  0.18996044  0.20157157  0.39685508  1
  Mo  Mo231  1  0.90136366  0.69689158  0.89065943  1
  Mo  Mo232  1  0.80953581  0.59827999  0.40228713  1
  Mo  Mo233  1  0.19513078  -0.00568855  0.00189745  1
  Mo  Mo234  1  0.90209610  0.69471936  0.50227469  1
  Mo  Mo235  1  0.39243416  0.39886020  0.19620075  1
  Mo  Mo236  1  0.29115452  0.69773727  0.49911579  1
  Mo  Mo237  1  0.81212488  0.20126210  0.59741832  1
  Mo  Mo238  1  0.09476321  0.49865529  0.50201649  1
  Mo  Mo239  1  0.00091386  0.40038339  0.41566212  1
  Mo  Mo240  1  0.00342604  0.40105343  -0.00635223  1
  Mo  Mo241  1  0.09535091  0.11136828  0.49751822  1
  Mo  Mo242  1  0.19799728  0.80549606  0.20167600  1
  Mo  Mo243  1  0.80410967  0.79631162  0.20398621  1
  Mo  Mo244  1  0.58489496  0.00323762  -0.00164859  1
  Mo  Mo245  1  0.00257849  0.40445697  0.60298288  1
  Mo  Mo246  1  0.30316228  0.09989927  0.90141557  1
  Mo  Mo247  1  0.19449343  0.59410719  0.19480077  1
  Mo  Mo248  1  0.49628358  0.69596761  0.50101509  1
  Mo  Mo249  1  -0.00232644  0.59747294  0.60258212  1
