# generated using pymatgen
data_HfZrTaTiMo
_symmetry_space_group_name_H-M   'P 1'
_cell_length_a   16.88046054
_cell_length_b   16.89075438
_cell_length_c   16.88026031
_cell_angle_alpha   90.01460022
_cell_angle_beta   90.04604315
_cell_angle_gamma   90.02374240
_symmetry_Int_Tables_number   1
_chemical_formula_structural   HfZrTaTiMo
_chemical_formula_sum   'Hf50 Zr50 Ta50 Ti50 Mo50'
_cell_volume   4812.96036824
_cell_formula_units_Z   50
loop_
 _symmetry_equiv_pos_site_id
 _symmetry_equiv_pos_as_xyz
  1  'x, y, z'
loop_
 _atom_site_type_symbol
 _atom_site_label
 _atom_site_symmetry_multiplicity
 _atom_site_fract_x
 _atom_site_fract_y
 _atom_site_fract_z
 _atom_site_occupancy
  Hf  Hf0  1  0.69973686  0.90161696  0.09074363  1
  Hf  Hf1  1  0.60589927  0.00424609  0.79959001  1
  Hf  Hf2  1  0.40415020  0.39943978  0.19818943  1
  Hf  Hf3  1  0.80583818  0.41010613  0.40397149  1
  Hf  Hf4  1  0.50467789  0.30134450  0.30101467  1
  Hf  Hf5  1  0.50751484  0.10108276  0.09986079  1
  Hf  Hf6  1  0.39845929  0.78519323  -0.01672310  1
  Hf  Hf7  1  0.70046967  0.90354139  0.49859144  1
  Hf  Hf8  1  0.38874845  0.58983606  0.39604244  1
  Hf  Hf9  1  0.09567503  0.10957989  0.91351690  1
  Hf  Hf10  1  0.89612633  0.69569126  0.89976641  1
  Hf  Hf11  1  0.00218659  0.78750735  0.60840278  1
  Hf  Hf12  1  0.89917542  0.90883145  0.90201584  1
  Hf  Hf13  1  0.29926167  0.90166959  0.88886568  1
  Hf  Hf14  1  0.29365358  0.90531829  0.30077991  1
  Hf  Hf15  1  0.29358387  0.09948698  0.50313913  1
  Hf  Hf16  1  0.50130062  0.70683894  0.69552846  1
  Hf  Hf17  1  0.40180318  0.80013851  0.20122132  1
  Hf  Hf18  1  0.39817612  0.19621078  0.40150696  1
  Hf  Hf19  1  0.10198734  0.69235194  0.49969383  1
  Hf  Hf20  1  0.90200381  0.90794589  0.70249636  1
  Hf  Hf21  1  0.49259559  0.30198578  0.70295121  1
  Hf  Hf22  1  0.69759899  0.50084374  0.50932939  1
  Hf  Hf23  1  -0.00484428  0.59095615  0.40294604  1
  Hf  Hf24  1  0.39871493  0.20587466  -0.00404391  1
  Hf  Hf25  1  0.20171039  0.79460422  0.79432131  1
  Hf  Hf26  1  0.90027396  0.49691185  0.09998933  1
  Hf  Hf27  1  0.90245620  0.90635859  0.49888568  1
  Hf  Hf28  1  0.69225738  0.69726786  0.69890786  1
  Hf  Hf29  1  0.60698361  0.79852354  0.19885805  1
  Hf  Hf30  1  0.79997678  0.78927163  0.40329064  1
  Hf  Hf31  1  0.39608194  0.19745492  0.20384309  1
  Hf  Hf32  1  0.40260961  0.59206319  0.20400339  1
  Hf  Hf33  1  0.20384002  0.59341652  0.60686707  1
  Hf  Hf34  1  0.69169443  0.69903814  0.90093176  1
  Hf  Hf35  1  0.09842735  0.69234496  0.89295153  1
  Hf  Hf36  1  0.39703547  0.00589664  0.00014968  1
  Hf  Hf37  1  0.68932932  0.29757892  0.89932311  1
  Hf  Hf38  1  0.20221473  0.39737377  0.79141860  1
  Hf  Hf39  1  0.70502336  0.30302215  0.50915217  1
  Hf  Hf40  1  0.00174097  0.59783474  0.00277564  1
  Hf  Hf41  1  0.31047596  0.70524921  0.69833020  1
  Hf  Hf42  1  0.10369855  0.69625680  0.30385220  1
  Hf  Hf43  1  0.09369125  0.09944358  0.10032264  1
  Hf  Hf44  1  0.20724050  0.59171560  0.79587582  1
  Hf  Hf45  1  0.90583383  0.10770960  0.49677688  1
  Hf  Hf46  1  0.00469437  0.39449218  0.19286632  1
  Hf  Hf47  1  0.79370029  0.59266029  0.20284655  1
  Hf  Hf48  1  0.10375049  0.91196566  0.70202635  1
  Hf  Hf49  1  0.40621082  0.60126800  0.80458352  1
  Zr  Zr50  1  0.11253655  0.28566457  0.09697668  1
  Zr  Zr51  1  0.21689297  0.59211508  0.22174233  1
  Zr  Zr52  1  0.20125302  0.39921332  0.40599532  1
  Zr  Zr53  1  0.10393981  0.50232589  0.10417209  1
  Zr  Zr54  1  0.69990945  0.09594040  0.49341700  1
  Zr  Zr55  1  0.19945029  0.39736788  -0.00549837  1
  Zr  Zr56  1  0.50682864  0.89636809  0.90523742  1
  Zr  Zr57  1  0.00190698  0.79916288  0.00864525  1
  Zr  Zr58  1  0.60639699  0.57151114  0.18357029  1
  Zr  Zr59  1  0.90963039  0.69705185  0.29575132  1
  Zr  Zr60  1  0.89847331  0.90842660  0.10530291  1
  Zr  Zr61  1  0.90061958  0.90880489  0.29878444  1
  Zr  Zr62  1  -0.00731119  0.19989906  0.20337868  1
  Zr  Zr63  1  0.59510743  0.19644226  0.60166115  1
  Zr  Zr64  1  0.80180329  0.20081009  0.39120922  1
  Zr  Zr65  1  0.28446702  0.11325817  0.09960414  1
  Zr  Zr66  1  0.80339809  0.39397073  0.79809997  1
  Zr  Zr67  1  0.29945036  0.69643833  0.10352386  1
  Zr  Zr68  1  0.20855325  0.60122193  -0.00828337  1
  Zr  Zr69  1  0.29761917  0.69601534  0.49981949  1
  Zr  Zr70  1  0.50740549  0.90196603  0.50801998  1
  Zr  Zr71  1  0.90107815  0.31004005  0.30024079  1
  Zr  Zr72  1  0.80746389  0.60217138  0.60069573  1
  Zr  Zr73  1  0.39441350  0.79790499  0.40132338  1
  Zr  Zr74  1  0.50945362  0.69890111  0.08925136  1
  Zr  Zr75  1  -0.00574032  0.20367367  0.79522702  1
  Zr  Zr76  1  0.20078960  0.20239322  0.79668973  1
  Zr  Zr77  1  0.79903913  0.20649014  -0.00295919  1
  Zr  Zr78  1  0.50862727  0.68767068  0.30460226  1
  Zr  Zr79  1  0.79841499  0.20263850  0.19507590  1
  Zr  Zr80  1  0.50801479  0.90677999  0.30350555  1
  Zr  Zr81  1  -0.00160080  0.79472274  0.79472259  1
  Zr  Zr82  1  0.29494904  0.90256015  0.10031508  1
  Zr  Zr83  1  0.49826854  0.30541911  0.50385845  1
  Zr  Zr84  1  0.40491128  0.00749179  0.79983312  1
  Zr  Zr85  1  0.19567760  0.79746886  -0.00008177  1
  Zr  Zr86  1  0.69583211  0.89601587  0.69853131  1
  Zr  Zr87  1  -0.00507441  0.39152775  0.79583606  1
  Zr  Zr88  1  0.09456578  0.91481497  0.90257609  1
  Zr  Zr89  1  0.80389811  0.59604379  0.79372545  1
  Zr  Zr90  1  0.60924012  0.79472712  0.39938206  1
  Zr  Zr91  1  0.58819483  0.41291596  0.00283926  1
  Zr  Zr92  1  -0.00004336  0.39009987  0.59254464  1
  Zr  Zr93  1  0.80120622  0.00655641  0.60552213  1
  Zr  Zr94  1  0.39472050  0.00120102  0.40442150  1
  Zr  Zr95  1  0.68949053  0.31349925  0.29842099  1
  Zr  Zr96  1  0.52135060  0.11140546  0.90932304  1
  Zr  Zr97  1  0.09756545  0.90759551  0.50130658  1
  Zr  Zr98  1  0.69110728  0.10071178  0.08614607  1
  Zr  Zr99  1  0.79141942  0.79476659  0.20587175  1
  Ta  Ta100  1  0.09885272  0.49558797  0.30538032  1
  Ta  Ta101  1  0.79813477  0.59715028  0.40204086  1
  Ta  Ta102  1  0.39889708  0.81312867  0.59810182  1
  Ta  Ta103  1  0.40226085  0.58537476  0.59974721  1
  Ta  Ta104  1  0.30499176  0.90924368  0.69524727  1
  Ta  Ta105  1  0.20321155  0.80579498  0.60017134  1
  Ta  Ta106  1  0.19986168  0.80567373  0.40241775  1
  Ta  Ta107  1  0.70352663  0.30190134  0.69640217  1
  Ta  Ta108  1  0.69186416  0.31171752  0.10161875  1
  Ta  Ta109  1  0.80188797  0.39871555  -0.00245518  1
  Ta  Ta110  1  0.70208763  0.69461314  0.08662374  1
  Ta  Ta111  1  0.09145053  0.49516207  0.89402022  1
  Ta  Ta112  1  0.29442260  0.29299874  0.30503461  1
  Ta  Ta113  1  0.10215506  0.50019571  0.50167748  1
  Ta  Ta114  1  0.70123934  0.89937441  0.90206325  1
  Ta  Ta115  1  0.59403161  0.00297371  0.61003523  1
  Ta  Ta116  1  0.50913201  0.49299444  0.30830964  1
  Ta  Ta117  1  0.50982663  0.09833373  0.30091996  1
  Ta  Ta118  1  0.59557524  0.40671506  0.79719411  1
  Ta  Ta119  1  0.09859261  0.29333955  0.68822900  1
  Ta  Ta120  1  0.10324895  0.10986230  0.30780666  1
  Ta  Ta121  1  0.59438025  0.79929015  0.80196216  1
  Ta  Ta122  1  0.30561396  0.30138760  0.89603774  1
  Ta  Ta123  1  -0.00109924  0.59861478  0.78332422  1
  Ta  Ta124  1  0.89867321  0.69427697  0.10437133  1
  Ta  Ta125  1  0.29885212  0.29644275  0.50569951  1
  Ta  Ta126  1  0.80399720  0.79369292  0.60168000  1
  Ta  Ta127  1  0.20670839  0.39642856  0.20523303  1
  Ta  Ta128  1  0.31166837  0.49092638  0.90093331  1
  Ta  Ta129  1  0.79875746  0.80044293  0.79801440  1
  Ta  Ta130  1  0.30796799  0.49194963  0.09340303  1
  Ta  Ta131  1  0.29944028  0.09754791  0.69610597  1
  Ta  Ta132  1  0.59032808  0.59167193  0.60358875  1
  Ta  Ta133  1  0.20469975  0.39345263  0.60391169  1
  Ta  Ta134  1  0.89965777  0.08924061  0.09925878  1
  Ta  Ta135  1  0.10341205  0.29509445  0.30705983  1
  Ta  Ta136  1  0.69662247  0.50265412  0.89463080  1
  Ta  Ta137  1  0.70467939  0.11163832  0.70401143  1
  Ta  Ta138  1  0.50140168  0.69455617  0.50635986  1
  Ta  Ta139  1  0.00569500  0.01113447  0.39785546  1
  Ta  Ta140  1  0.19919795  0.01056301  0.20987974  1
  Ta  Ta141  1  0.09825535  0.91362759  0.10904959  1
  Ta  Ta142  1  0.90556389  0.49525384  0.90220888  1
  Ta  Ta143  1  0.09622077  0.49619961  0.69247141  1
  Ta  Ta144  1  0.39739488  0.40146030  0.40387850  1
  Ta  Ta145  1  0.90225958  0.10045618  0.90578999  1
  Ta  Ta146  1  0.60228600  -0.00160126  0.19961446  1
  Ta  Ta147  1  0.09687081  0.90735345  0.29819314  1
  Ta  Ta148  1  0.39356562  0.19892421  0.60478918  1
  Ta  Ta149  1  0.39996226  0.00676507  0.20206644  1
  Ti  Ti150  1  0.90351965  0.49893610  0.50906003  1
  Ti  Ti151  1  0.79858045  0.59314694  -0.00082392  1
  Ti  Ti152  1  0.80446330  0.20298353  0.80266636  1
  Ti  Ti153  1  0.19660430  0.19671319  0.60221967  1
  Ti  Ti154  1  0.79789172  0.01163175  0.80417841  1
  Ti  Ti155  1  0.50549460  0.30019884  0.09983589  1
  Ti  Ti156  1  0.69013952  0.69588630  0.50793037  1
  Ti  Ti157  1  0.00033345  0.01776986  0.79555665  1
  Ti  Ti158  1  0.69128293  0.67783430  0.30660336  1
  Ti  Ti159  1  0.40692054  0.59436210  -0.00936544  1
  Ti  Ti160  1  0.79414934  0.00809954  -0.00985000  1
  Ti  Ti161  1  0.09376122  0.30116079  0.90522877  1
  Ti  Ti162  1  0.90540398  0.49920611  0.29399536  1
  Ti  Ti163  1  0.90529661  0.69641317  0.50292390  1
  Ti  Ti164  1  0.39424526  0.19749340  0.79925061  1
  Ti  Ti165  1  0.89789956  0.29133157  0.50696721  1
  Ti  Ti166  1  0.20072276  0.01498005  0.80007680  1
  Ti  Ti167  1  0.60326275  0.20100461  0.19953942  1
  Ti  Ti168  1  0.20288459  0.00600669  -0.00311472  1
  Ti  Ti169  1  0.60012281  0.19621330  0.39968954  1
  Ti  Ti170  1  0.00364464  0.80268974  0.40172594  1
  Ti  Ti171  1  0.19980695  0.00356782  0.59927651  1
  Ti  Ti172  1  0.90282259  0.49341307  0.69104667  1
  Ti  Ti173  1  0.09797536  0.69329087  0.11389644  1
  Ti  Ti174  1  0.00475432  0.80112614  0.19812776  1
  Ti  Ti175  1  0.09996912  0.28196123  0.49468681  1
  Ti  Ti176  1  0.59835769  0.40900110  0.40867424  1
  Ti  Ti177  1  0.60146109  0.20285960  0.79587222  1
  Ti  Ti178  1  0.59004837  0.59329648  -0.01270473  1
  Ti  Ti179  1  0.49524145  0.10092202  0.69746227  1
  Ti  Ti180  1  0.89883727  0.09039764  0.29669254  1
  Ti  Ti181  1  0.70845391  0.91835157  0.30484917  1
  Ti  Ti182  1  0.59286023  0.40453322  0.60565364  1
  Ti  Ti183  1  0.49555775  0.49625415  0.70053391  1
  Ti  Ti184  1  0.19680779  0.80176712  0.20553810  1
  Ti  Ti185  1  0.80147531  0.79642517  -0.00099276  1
  Ti  Ti186  1  0.50037089  0.09368085  0.50120354  1
  Ti  Ti187  1  0.39554003  0.40183344  0.79411739  1
  Ti  Ti188  1  0.50630817  0.90202980  0.09363047  1
  Ti  Ti189  1  0.78294914  0.41331586  0.19670268  1
  Ti  Ti190  1  0.01041900  0.02083378  0.60256665  1
  Ti  Ti191  1  0.29670344  0.30009975  0.09845512  1
  Ti  Ti192  1  0.49500354  0.30674749  0.89479799  1
  Ti  Ti193  1  -0.01870728  0.21685661  0.00684109  1
  Ti  Ti194  1  0.29966289  0.49260161  0.50572541  1
  Ti  Ti195  1  0.69789679  0.49462152  0.69912196  1
  Ti  Ti196  1  0.69921068  0.09075230  0.29825150  1
  Ti  Ti197  1  0.19633053  0.00500750  0.40157222  1
  Ti  Ti198  1  0.89808256  0.11301223  0.69453702  1
  Ti  Ti199  1  0.00109004  0.39582840  0.40468263  1
  Mo  Mo200  1  0.49741411  0.49698597  0.89133934  1
  Mo  Mo201  1  0.30675731  0.49071486  0.69884925  1
  Mo  Mo202  1  0.40279448  0.80499129  0.79173561  1
  Mo  Mo203  1  0.29061698  0.90473330  0.50718529  1
  Mo  Mo204  1  0.00227125  0.59348063  0.60100385  1
  Mo  Mo205  1  0.89266086  0.29220107  0.68763680  1
  Mo  Mo206  1  0.10485698  0.10171768  0.69441946  1
  Mo  Mo207  1  0.59911063  0.59391537  0.41373725  1
  Mo  Mo208  1  0.20648422  0.20405216  -0.01467044  1
  Mo  Mo209  1  0.88635093  0.30940525  0.10210649  1
  Mo  Mo210  1  0.49716297  0.89845077  0.70141352  1
  Mo  Mo211  1  0.59785761  0.59050995  0.79702694  1
  Mo  Mo212  1  0.00266923  0.20218164  0.40119223  1
  Mo  Mo213  1  0.39906714  0.39477193  -0.00053573  1
  Mo  Mo214  1  0.50582286  0.69551721  0.89148403  1
  Mo  Mo215  1  0.80657774  0.00092688  0.39376292  1
  Mo  Mo216  1  0.60332376  0.00721836  0.39815038  1
  Mo  Mo217  1  0.60390672  0.79579964  -0.00351779  1
  Mo  Mo218  1  0.00004702  0.59561847  0.20242361  1
  Mo  Mo219  1  0.40144848  0.00553211  0.60423924  1
  Mo  Mo220  1  -0.00474334  0.39557871  -0.00418218  1
  Mo  Mo221  1  0.89864831  0.30016565  0.90619383  1
  Mo  Mo222  1  0.49783960  0.49953798  0.50313999  1
  Mo  Mo223  1  0.69606004  0.50183019  0.31671575  1
  Mo  Mo224  1  0.89662024  0.70361681  0.70006453  1
  Mo  Mo225  1  0.30528643  0.69530764  0.89329333  1
  Mo  Mo226  1  0.70697563  0.10281332  0.89074701  1
  Mo  Mo227  1  0.80418166  0.39887649  0.60270153  1
  Mo  Mo228  1  0.29530007  0.10505445  0.89597644  1
  Mo  Mo229  1  0.60388578  -0.00869867  -0.00009996  1
  Mo  Mo230  1  -0.00456395  0.00460228  0.00315016  1
  Mo  Mo231  1  0.79214241  0.00771529  0.20103237  1
  Mo  Mo232  1  0.59635477  0.21886750  0.00115330  1
  Mo  Mo233  1  0.20121306  0.20268162  0.21398844  1
  Mo  Mo234  1  0.10226322  0.10361134  0.49973344  1
  Mo  Mo235  1  0.19973150  0.19997935  0.40576874  1
  Mo  Mo236  1  0.19746676  0.59089876  0.40525274  1
  Mo  Mo237  1  0.29495579  0.71466066  0.30531025  1
  Mo  Mo238  1  0.39332769  0.40014142  0.60199747  1
  Mo  Mo239  1  0.00394999  0.19850365  0.59787063  1
  Mo  Mo240  1  0.30107740  0.29450917  0.69665465  1
  Mo  Mo241  1  0.00666315  0.00730389  0.20611464  1
  Mo  Mo242  1  0.48581147  0.50108275  0.08819584  1
  Mo  Mo243  1  0.70642483  0.50254861  0.07903627  1
  Mo  Mo244  1  0.30457008  0.48099673  0.30262976  1
  Mo  Mo245  1  0.10538231  0.69135971  0.69532785  1
  Mo  Mo246  1  0.29615062  0.09987424  0.30227194  1
  Mo  Mo247  1  0.59669333  0.40131237  0.19569264  1
  Mo  Mo248  1  0.80288394  0.20298321  0.60553668  1
  Mo  Mo249  1  0.59903817  0.79527055  0.60024491  1
