# generated using pymatgen
data_HfZrTaTiMo
_symmetry_space_group_name_H-M   'P 1'
_cell_length_a   16.87875197
_cell_length_b   16.89239294
_cell_length_c   16.88149430
_cell_angle_alpha   89.99872844
_cell_angle_beta   89.93693442
_cell_angle_gamma   90.01163601
_symmetry_Int_Tables_number   1
_chemical_formula_structural   HfZrTaTiMo
_chemical_formula_sum   'Hf50 Zr50 Ta50 Ti50 Mo50'
_cell_volume   4813.29102206
_cell_formula_units_Z   50
loop_
 _symmetry_equiv_pos_site_id
 _symmetry_equiv_pos_as_xyz
  1  'x, y, z'
loop_
 _atom_site_type_symbol
 _atom_site_label
 _atom_site_symmetry_multiplicity
 _atom_site_fract_x
 _atom_site_fract_y
 _atom_site_fract_z
 _atom_site_occupancy
  Hf  Hf0  1  0.19644377  0.40178144  -0.00367917  1
  Hf  Hf1  1  0.10938002  0.09947607  0.10507532  1
  Hf  Hf2  1  0.50362441  0.89809385  0.70141557  1
  Hf  Hf3  1  0.09071859  0.30661820  0.69697979  1
  Hf  Hf4  1  0.39419326  0.60451091  0.59357491  1
  Hf  Hf5  1  0.79837843  0.61299037  0.79744229  1
  Hf  Hf6  1  0.59815838  0.19784278  0.79536268  1
  Hf  Hf7  1  0.59511554  0.61945662  0.38389989  1
  Hf  Hf8  1  0.69094655  0.90626854  0.30543818  1
  Hf  Hf9  1  0.30618701  0.89576760  0.70707168  1
  Hf  Hf10  1  0.20199712  0.20766141  0.39844638  1
  Hf  Hf11  1  0.00116105  0.19852142  0.20176549  1
  Hf  Hf12  1  0.68954542  0.10752644  0.10233087  1
  Hf  Hf13  1  0.00276459  0.80275803  0.19577899  1
  Hf  Hf14  1  0.19963220  0.60541802  0.79259994  1
  Hf  Hf15  1  0.20445241  0.20975315  0.60053995  1
  Hf  Hf16  1  0.08842506  0.10372432  0.70650057  1
  Hf  Hf17  1  0.00270306  0.20143992  0.40203903  1
  Hf  Hf18  1  0.50583369  0.50491180  0.49150398  1
  Hf  Hf19  1  0.41181333  -0.00007661  0.58763310  1
  Hf  Hf20  1  0.89626805  0.69597276  0.09131792  1
  Hf  Hf21  1  0.69597026  0.49961564  0.49735741  1
  Hf  Hf22  1  -0.00601780  0.58977692  0.39969032  1
  Hf  Hf23  1  0.20647763  0.79276725  0.39315154  1
  Hf  Hf24  1  0.79851368  -0.00347249  0.00167038  1
  Hf  Hf25  1  0.69453300  0.10225663  0.90516147  1
  Hf  Hf26  1  0.79688764  -0.00657288  0.79083085  1
  Hf  Hf27  1  0.89434813  0.29578183  0.88450043  1
  Hf  Hf28  1  0.60994253  0.60500831  0.79721519  1
  Hf  Hf29  1  0.70251380  0.30091953  0.70341038  1
  Hf  Hf30  1  0.89369670  0.29559828  0.30188871  1
  Hf  Hf31  1  0.49112669  0.89892649  0.30419689  1
  Hf  Hf32  1  0.00000380  0.20079973  0.00043153  1
  Hf  Hf33  1  0.00487311  0.39561175  0.00020973  1
  Hf  Hf34  1  0.90302790  0.10287649  0.69862187  1
  Hf  Hf35  1  0.41031551  0.20757146  0.59599158  1
  Hf  Hf36  1  0.69143912  0.29495448  0.10489541  1
  Hf  Hf37  1  0.29363296  0.69557568  0.90979547  1
  Hf  Hf38  1  0.89530589  0.50386722  0.89679669  1
  Hf  Hf39  1  0.89784911  0.49074790  0.70192174  1
  Hf  Hf40  1  0.70019764  0.70992447  0.50543057  1
  Hf  Hf41  1  0.50377880  0.89583450  0.10605302  1
  Hf  Hf42  1  0.09930409  0.70031041  0.50510054  1
  Hf  Hf43  1  0.89187572  0.29413220  0.50052040  1
  Hf  Hf44  1  0.58772628  0.80392592  0.41219015  1
  Hf  Hf45  1  0.50391795  0.70739326  0.69966164  1
  Hf  Hf46  1  0.40497603  0.79413089  0.58358439  1
  Hf  Hf47  1  0.50613281  0.09833854  0.29997357  1
  Hf  Hf48  1  0.10606027  0.68809532  0.09017128  1
  Hf  Hf49  1  0.39913406  0.00360498  0.19506247  1
  Zr  Zr50  1  0.20189778  0.59672480  0.39765757  1
  Zr  Zr51  1  -0.00142479  0.79874281  0.80112264  1
  Zr  Zr52  1  0.31282810  0.09975855  0.70462165  1
  Zr  Zr53  1  0.11725084  0.09469970  0.29591565  1
  Zr  Zr54  1  0.20073602  0.00263938  0.80473319  1
  Zr  Zr55  1  0.69916155  0.49554916  0.89844502  1
  Zr  Zr56  1  0.29387900  0.89823439  0.09692812  1
  Zr  Zr57  1  0.50111022  0.09325772  0.70646755  1
  Zr  Zr58  1  0.80200147  0.40263805  0.20595615  1
  Zr  Zr59  1  0.79677284  0.59559614  0.60331945  1
  Zr  Zr60  1  0.19546330  -0.00622978  0.60509992  1
  Zr  Zr61  1  0.30121886  0.50259930  0.09932228  1
  Zr  Zr62  1  0.30628512  0.30160253  0.28684393  1
  Zr  Zr63  1  0.89491023  0.90519197  0.29795598  1
  Zr  Zr64  1  0.40689842  0.79568115  0.00631050  1
  Zr  Zr65  1  0.20569831  0.20979533  0.79609880  1
  Zr  Zr66  1  0.90116862  0.50238584  0.09513907  1
  Zr  Zr67  1  0.49467489  0.50032500  0.90270606  1
  Zr  Zr68  1  0.09821820  0.49698206  0.69512478  1
  Zr  Zr69  1  0.29911961  0.89891179  0.49192906  1
  Zr  Zr70  1  0.60137879  0.78148727  0.21103320  1
  Zr  Zr71  1  0.41128170  0.39807009  0.39378405  1
  Zr  Zr72  1  0.68755929  0.49890340  0.30073796  1
  Zr  Zr73  1  0.30987279  0.30479741  0.90066267  1
  Zr  Zr74  1  0.19352231  0.80248406  0.19916030  1
  Zr  Zr75  1  0.00711383  0.80476727  0.39452739  1
  Zr  Zr76  1  0.50697944  0.49639780  0.70388675  1
  Zr  Zr77  1  0.10535610  0.32054473  0.29482884  1
  Zr  Zr78  1  0.20290820  0.00533034  -0.00065114  1
  Zr  Zr79  1  0.29754962  0.09864025  0.48967990  1
  Zr  Zr80  1  0.40470959  0.39604999  0.59865612  1
  Zr  Zr81  1  0.80586259  0.19775008  0.00516822  1
  Zr  Zr82  1  0.79361121  -0.00001751  0.19453775  1
  Zr  Zr83  1  0.60299854  0.60886255  0.60196523  1
  Zr  Zr84  1  0.79896101  0.39398223  0.00215446  1
  Zr  Zr85  1  0.68942267  0.50435245  0.10179256  1
  Zr  Zr86  1  0.79557200  0.60601018  0.21305192  1
  Zr  Zr87  1  0.19737555  0.20470345  -0.00493394  1
  Zr  Zr88  1  0.90166165  0.70416958  0.50324896  1
  Zr  Zr89  1  0.00398570  -0.00070468  0.39628937  1
  Zr  Zr90  1  0.91057559  0.69859144  0.69772852  1
  Zr  Zr91  1  0.09710945  0.09481633  0.50513265  1
  Zr  Zr92  1  0.50019324  0.69324108  0.90471312  1
  Zr  Zr93  1  0.20648113  0.60312060  0.59804662  1
  Zr  Zr94  1  0.79925228  0.81340258  0.61467203  1
  Zr  Zr95  1  0.49094063  0.29908279  0.10809495  1
  Zr  Zr96  1  -0.00219407  0.58832032  0.21060916  1
  Zr  Zr97  1  0.89899106  0.90484434  0.50451273  1
  Zr  Zr98  1  0.32346576  0.10306552  0.89351859  1
  Zr  Zr99  1  0.10700444  0.89378571  0.90465307  1
  Ta  Ta100  1  0.40203858  0.39389320  0.79399172  1
  Ta  Ta101  1  0.40932859  0.20142930  0.39849216  1
  Ta  Ta102  1  0.40738410  0.00042441  -0.00043356  1
  Ta  Ta103  1  0.80147109  0.80283454  -0.00000409  1
  Ta  Ta104  1  0.80505940  0.59796493  0.39940837  1
  Ta  Ta105  1  0.78981641  0.00197916  0.40866762  1
  Ta  Ta106  1  0.30161053  0.30177397  0.10716299  1
  Ta  Ta107  1  0.79852694  0.40198293  0.40381727  1
  Ta  Ta108  1  -0.00122848  -0.00113139  0.00268036  1
  Ta  Ta109  1  0.70546426  0.70455921  0.90794474  1
  Ta  Ta110  1  0.00027126  0.40240450  0.80329901  1
  Ta  Ta111  1  0.30228335  0.30574235  0.49308301  1
  Ta  Ta112  1  0.29773544  0.90918693  0.30052103  1
  Ta  Ta113  1  0.60565182  0.79994507  0.00559047  1
  Ta  Ta114  1  0.30194759  0.49567525  0.70379345  1
  Ta  Ta115  1  0.49672013  0.50418568  0.10601724  1
  Ta  Ta116  1  0.69915503  0.89597787  0.90245893  1
  Ta  Ta117  1  0.29776596  0.49484969  0.29468774  1
  Ta  Ta118  1  0.69356951  0.30060313  0.89655687  1
  Ta  Ta119  1  0.01227390  0.80973072  0.60783841  1
  Ta  Ta120  1  0.70057916  0.69604656  0.09675264  1
  Ta  Ta121  1  0.79208558  0.80292804  0.39756564  1
  Ta  Ta122  1  -0.00062312  0.80088092  -0.00015986  1
  Ta  Ta123  1  0.79595439  0.39680849  0.59523167  1
  Ta  Ta124  1  0.10167512  0.48730282  0.49550527  1
  Ta  Ta125  1  0.78934430  0.00324813  0.60252119  1
  Ta  Ta126  1  0.69895746  0.10600202  0.30629910  1
  Ta  Ta127  1  0.50289440  0.10480069  0.09501933  1
  Ta  Ta128  1  0.90064951  0.89901041  0.09658791  1
  Ta  Ta129  1  0.39790704  0.79248914  0.80289408  1
  Ta  Ta130  1  0.10410771  0.70074846  0.90175925  1
  Ta  Ta131  1  0.30455689  0.11234948  0.10665620  1
  Ta  Ta132  1  0.00670766  -0.00608391  0.19584607  1
  Ta  Ta133  1  0.50265541  0.29873026  0.89830853  1
  Ta  Ta134  1  0.59342439  0.39624655  0.00075605  1
  Ta  Ta135  1  0.29532656  0.68946412  0.09663297  1
  Ta  Ta136  1  0.88845213  0.10330767  0.30294135  1
  Ta  Ta137  1  0.09925989  0.69414760  0.29730750  1
  Ta  Ta138  1  0.90675286  0.09548561  0.89121730  1
  Ta  Ta139  1  0.89116759  0.10124484  0.50170966  1
  Ta  Ta140  1  0.90068798  0.90185307  0.90030964  1
  Ta  Ta141  1  0.59904682  0.38558823  0.59399673  1
  Ta  Ta142  1  0.89651137  0.29867695  0.69927852  1
  Ta  Ta143  1  0.69431242  0.10275518  0.49825538  1
  Ta  Ta144  1  0.59852289  0.38569522  0.39822527  1
  Ta  Ta145  1  0.60358793  -0.00291481  0.80572994  1
  Ta  Ta146  1  0.70088149  0.28883603  0.30362812  1
  Ta  Ta147  1  0.79383322  0.80173732  0.19565635  1
  Ta  Ta148  1  0.39268429  0.61457732  0.39804424  1
  Ta  Ta149  1  0.30304603  0.89152589  0.90050957  1
  Ti  Ti150  1  0.08633100  0.10113771  0.89171827  1
  Ti  Ti151  1  0.19717819  0.59516293  0.20711381  1
  Ti  Ti152  1  0.78890019  0.19222387  0.60265206  1
  Ti  Ti153  1  0.90156721  0.29920404  0.11095376  1
  Ti  Ti154  1  -0.00360808  -0.01050735  0.60915483  1
  Ti  Ti155  1  0.29902720  0.49276123  0.49303079  1
  Ti  Ti156  1  0.00498988  0.60382988  0.80155008  1
  Ti  Ti157  1  0.10250499  0.31263973  0.49736018  1
  Ti  Ti158  1  0.40286871  0.40284897  0.00203155  1
  Ti  Ti159  1  0.68621460  0.89862647  0.69999121  1
  Ti  Ti160  1  0.60199507  -0.00153064  0.19580705  1
  Ti  Ti161  1  0.59738131  0.19824401  0.59797490  1
  Ti  Ti162  1  0.59362133  0.20307002  0.20858993  1
  Ti  Ti163  1  0.10181733  0.49426034  0.10850338  1
  Ti  Ti164  1  0.70130546  0.29200734  0.49562837  1
  Ti  Ti165  1  0.38946697  0.78910731  0.20877772  1
  Ti  Ti166  1  0.10291149  0.89720684  0.71113644  1
  Ti  Ti167  1  0.69959451  0.48340590  0.70498785  1
  Ti  Ti168  1  0.50202400  0.10083908  0.90268736  1
  Ti  Ti169  1  0.49820435  0.68804071  0.10709069  1
  Ti  Ti170  1  0.10756629  0.90041162  0.49744100  1
  Ti  Ti171  1  0.20228935  0.79037580  0.61189478  1
  Ti  Ti172  1  -0.00055529  0.20503685  0.59491270  1
  Ti  Ti173  1  0.20833294  0.39807025  0.59919075  1
  Ti  Ti174  1  0.59918740  0.60247185  0.00414634  1
  Ti  Ti175  1  0.40714670  0.00464452  0.40243833  1
  Ti  Ti176  1  0.50282732  0.89755621  0.89947854  1
  Ti  Ti177  1  0.80216404  0.80276757  0.80261242  1
  Ti  Ti178  1  0.29999153  0.09989450  0.29467659  1
  Ti  Ti179  1  0.40587278  0.20045499  0.00216055  1
  Ti  Ti180  1  0.59295203  0.20165128  0.40642867  1
  Ti  Ti181  1  0.59831180  -0.00688784  0.00110701  1
  Ti  Ti182  1  -0.00057552  0.60240721  -0.01278899  1
  Ti  Ti183  1  0.89824819  0.70653808  0.30257404  1
  Ti  Ti184  1  0.10290634  0.50580744  0.89933105  1
  Ti  Ti185  1  0.49595105  0.50683052  0.29192458  1
  Ti  Ti186  1  0.20318720  0.40269561  0.79945372  1
  Ti  Ti187  1  0.79341913  0.19013664  0.79445875  1
  Ti  Ti188  1  0.60589431  0.79950599  0.80710860  1
  Ti  Ti189  1  0.60329442  -0.00315754  0.58809883  1
  Ti  Ti190  1  -0.00774895  0.40822942  0.39602044  1
  Ti  Ti191  1  0.39644538  0.60503293  0.20722002  1
  Ti  Ti192  1  0.30376269  0.50515012  0.90055868  1
  Ti  Ti193  1  0.90092458  0.09823490  0.10674626  1
  Ti  Ti194  1  0.39379182  0.60204348  0.79360865  1
  Ti  Ti195  1  0.00125995  0.59223337  0.59476496  1
  Ti  Ti196  1  0.58819932  0.39467027  0.20943390  1
  Ti  Ti197  1  0.10924421  0.30394556  0.11231712  1
  Ti  Ti198  1  0.09392691  0.29829051  0.88798256  1
  Ti  Ti199  1  -0.01005801  0.40191823  0.58911666  1
  Mo  Mo200  1  0.41158349  -0.01910993  0.81581602  1
  Mo  Mo201  1  0.48096373  0.70298124  0.29848968  1
  Mo  Mo202  1  0.89685313  0.49062596  0.30793908  1
  Mo  Mo203  1  0.69625971  0.09715543  0.69227409  1
  Mo  Mo204  1  0.71132165  0.70570840  0.30479364  1
  Mo  Mo205  1  0.89869620  0.49231630  0.50172418  1
  Mo  Mo206  1  0.59049674  0.60321807  0.19753299  1
  Mo  Mo207  1  0.30405581  0.70182213  0.70371440  1
  Mo  Mo208  1  0.00336105  0.39857251  0.19624615  1
  Mo  Mo209  1  0.49650682  0.70132261  0.49583127  1
  Mo  Mo210  1  0.20219062  0.40780683  0.19394984  1
  Mo  Mo211  1  0.90708748  0.90751535  0.70568420  1
  Mo  Mo212  1  0.20327602  0.79417620  0.79808832  1
  Mo  Mo213  1  0.79292618  0.19653378  0.40449536  1
  Mo  Mo214  1  0.79826397  0.61052661  -0.00598419  1
  Mo  Mo215  1  0.40963490  0.21686263  0.79296210  1
  Mo  Mo216  1  0.20581999  0.00055549  0.19880172  1
  Mo  Mo217  1  0.20351674  -0.00638550  0.39236865  1
  Mo  Mo218  1  0.90171377  0.70404741  0.90235299  1
  Mo  Mo219  1  0.29788150  0.70294012  0.49780147  1
  Mo  Mo220  1  0.09351778  0.90381053  0.09690120  1
  Mo  Mo221  1  0.69730636  0.90689578  0.50240969  1
  Mo  Mo222  1  0.50669077  0.29937527  0.70127239  1
  Mo  Mo223  1  0.69695817  0.89319605  0.09691120  1
  Mo  Mo224  1  0.50162958  0.90675580  0.49602023  1
  Mo  Mo225  1  0.40342673  0.41058914  0.20125627  1
  Mo  Mo226  1  0.20705025  0.40383090  0.40361364  1
  Mo  Mo227  1  0.39809915  0.59747927  0.00940553  1
  Mo  Mo228  1  0.59926183  0.81047129  0.59990604  1
  Mo  Mo229  1  0.80022697  0.39720652  0.79244146  1
  Mo  Mo230  1  0.69728314  0.72167502  0.70970051  1
  Mo  Mo231  1  0.59959543  0.39504510  0.80172982  1
  Mo  Mo232  1  -0.00417465  0.20541048  0.79893973  1
  Mo  Mo233  1  0.50913493  0.10228069  0.49457056  1
  Mo  Mo234  1  0.50651173  0.29487510  0.49756563  1
  Mo  Mo235  1  -0.00330059  -0.00283459  0.80398137  1
  Mo  Mo236  1  0.59883083  0.00435064  0.40759321  1
  Mo  Mo237  1  0.29600496  0.69373826  0.29002808  1
  Mo  Mo238  1  0.79901524  0.19618332  0.20421962  1
  Mo  Mo239  1  0.19645089  0.79345053  -0.00058485  1
  Mo  Mo240  1  0.40249834  0.19232781  0.20202368  1
  Mo  Mo241  1  0.10856033  0.90229459  0.29417165  1
  Mo  Mo242  1  0.39585122  0.79545060  0.39327256  1
  Mo  Mo243  1  0.19301978  0.59090547  -0.00604685  1
  Mo  Mo244  1  0.10163103  0.49830187  0.30084701  1
  Mo  Mo245  1  0.30094330  0.31116923  0.69595021  1
  Mo  Mo246  1  0.20703441  0.20555044  0.19741299  1
  Mo  Mo247  1  0.10325961  0.70408555  0.70040181  1
  Mo  Mo248  1  0.50622160  0.29327817  0.30004645  1
  Mo  Mo249  1  0.59214502  0.20396574  -0.00404217  1
