# generated using pymatgen
data_HfZrTaTiMo
_symmetry_space_group_name_H-M   'P 1'
_cell_length_a   16.88360040
_cell_length_b   16.88143756
_cell_length_c   16.88721490
_cell_angle_alpha   90.02351164
_cell_angle_beta   89.98655844
_cell_angle_gamma   89.99943096
_symmetry_Int_Tables_number   1
_chemical_formula_structural   HfZrTaTiMo
_chemical_formula_sum   'Hf50 Zr50 Ta50 Ti50 Mo50'
_cell_volume   4813.18409506
_cell_formula_units_Z   50
loop_
 _symmetry_equiv_pos_site_id
 _symmetry_equiv_pos_as_xyz
  1  'x, y, z'
loop_
 _atom_site_type_symbol
 _atom_site_label
 _atom_site_symmetry_multiplicity
 _atom_site_fract_x
 _atom_site_fract_y
 _atom_site_fract_z
 _atom_site_occupancy
  Hf  Hf0  1  -0.00581637  0.59990370  0.80378873  1
  Hf  Hf1  1  0.30674446  0.89294038  0.30715643  1
  Hf  Hf2  1  0.20163828  0.19262276  0.20456656  1
  Hf  Hf3  1  0.10245730  0.70178072  0.29983991  1
  Hf  Hf4  1  0.09498834  0.29255977  0.50600043  1
  Hf  Hf5  1  0.61122024  0.60056973  0.20644648  1
  Hf  Hf6  1  0.39523629  -0.00292818  -0.01242269  1
  Hf  Hf7  1  0.49663700  0.50513925  0.09993132  1
  Hf  Hf8  1  -0.01666739  0.80075182  0.39500021  1
  Hf  Hf9  1  0.20325229  0.40394297  0.59540221  1
  Hf  Hf10  1  0.70862649  0.50042120  0.90078648  1
  Hf  Hf11  1  0.60141849  0.40155762  0.20384314  1
  Hf  Hf12  1  0.89114397  0.89910637  0.49922533  1
  Hf  Hf13  1  0.49876569  0.70155519  0.90344686  1
  Hf  Hf14  1  0.19435586  0.40413445  0.40172471  1
  Hf  Hf15  1  -0.00922202  0.80705545  0.19095788  1
  Hf  Hf16  1  0.40134154  0.40511996  0.59647159  1
  Hf  Hf17  1  0.59904976  0.40374722  0.59754276  1
  Hf  Hf18  1  0.39741904  -0.00220864  0.79606068  1
  Hf  Hf19  1  0.20260418  0.40703583  0.80233908  1
  Hf  Hf20  1  0.89695601  0.50092494  0.09477839  1
  Hf  Hf21  1  0.81087220  0.19265343  0.59673136  1
  Hf  Hf22  1  0.79367390  0.61930623  0.00776441  1
  Hf  Hf23  1  0.70421307  0.89524317  0.69148180  1
  Hf  Hf24  1  0.49825239  0.70016070  0.49802122  1
  Hf  Hf25  1  0.29929689  0.29314431  0.89905258  1
  Hf  Hf26  1  0.91499445  0.29016841  0.49471261  1
  Hf  Hf27  1  0.49955682  0.09265961  0.50686095  1
  Hf  Hf28  1  0.10279014  0.90996330  0.69416441  1
  Hf  Hf29  1  0.49755351  0.69790332  0.09130127  1
  Hf  Hf30  1  0.50102019  0.50864249  0.90587578  1
  Hf  Hf31  1  0.27990739  0.09926265  0.69945315  1
  Hf  Hf32  1  0.20210656  0.40666707  0.00451502  1
  Hf  Hf33  1  0.60731042  -0.01135171  0.19802700  1
  Hf  Hf34  1  -0.00601557  0.40172091  0.80402850  1
  Hf  Hf35  1  0.09562111  0.70049555  0.69416632  1
  Hf  Hf36  1  0.09880535  0.50002639  0.69421453  1
  Hf  Hf37  1  0.59789927  0.20024873  0.39621258  1
  Hf  Hf38  1  0.30793336  0.69959821  0.48801659  1
  Hf  Hf39  1  -0.00048544  -0.00019516  0.80349632  1
  Hf  Hf40  1  0.30022641  0.31036312  0.10895966  1
  Hf  Hf41  1  0.70536683  0.29646966  0.29928155  1
  Hf  Hf42  1  0.21323763  0.80742271  0.60190437  1
  Hf  Hf43  1  0.19216855  0.80477580  0.19551349  1
  Hf  Hf44  1  -0.01097630  0.59337542  0.59489431  1
  Hf  Hf45  1  0.29919065  0.69980830  0.09893500  1
  Hf  Hf46  1  0.40653186  0.39512366  0.40366972  1
  Hf  Hf47  1  0.10238682  0.10467280  0.90529580  1
  Hf  Hf48  1  0.09555320  0.90846615  0.50114994  1
  Hf  Hf49  1  0.19555888  0.00560537  0.20155882  1
  Zr  Zr50  1  0.30285997  0.49881068  0.29520874  1
  Zr  Zr51  1  0.59362500  0.00072737  0.79571632  1
  Zr  Zr52  1  0.70938289  0.30693144  0.70941547  1
  Zr  Zr53  1  0.20273349  0.19595163  0.39159518  1
  Zr  Zr54  1  -0.00283967  0.59691855  0.40006714  1
  Zr  Zr55  1  0.20744232  0.60281489  0.79911361  1
  Zr  Zr56  1  0.80424971  0.39289555  0.19693250  1
  Zr  Zr57  1  0.60385887  -0.00575504  0.39337793  1
  Zr  Zr58  1  0.29937885  0.90036911  0.09045718  1
  Zr  Zr59  1  0.80515472  0.19104223  0.39643576  1
  Zr  Zr60  1  0.40106512  0.19797750  0.00353710  1
  Zr  Zr61  1  0.59875098  0.20039195  0.80336552  1
  Zr  Zr62  1  0.19704867  0.79478847  0.80389855  1
  Zr  Zr63  1  0.81005104  0.40240107  0.60274699  1
  Zr  Zr64  1  0.50192608  0.70522143  0.69037565  1
  Zr  Zr65  1  0.09015724  0.29776142  0.29760960  1
  Zr  Zr66  1  0.49726016  0.30324189  0.70939423  1
  Zr  Zr67  1  0.09813349  0.70467925  0.50128060  1
  Zr  Zr68  1  0.48839187  0.69712179  0.30804508  1
  Zr  Zr69  1  0.40917934  0.80651065  0.19958146  1
  Zr  Zr70  1  0.40746194  0.00048930  0.19966975  1
  Zr  Zr71  1  0.59753545  0.19787267  0.19718795  1
  Zr  Zr72  1  0.09161223  0.10649876  0.50581804  1
  Zr  Zr73  1  0.71353295  0.09330255  0.70787242  1
  Zr  Zr74  1  0.63157097  0.78564615  0.00185596  1
  Zr  Zr75  1  0.40022332  0.19718540  0.39733599  1
  Zr  Zr76  1  0.20369706  -0.01402609  0.81708115  1
  Zr  Zr77  1  0.70361083  0.90561088  0.90072385  1
  Zr  Zr78  1  0.60540973  0.80347853  0.20361191  1
  Zr  Zr79  1  -0.00083530  0.80024439  0.00141800  1
  Zr  Zr80  1  0.60236600  0.59177946  0.60111503  1
  Zr  Zr81  1  -0.00382751  0.60153859  0.20036595  1
  Zr  Zr82  1  0.38944951  0.41519230  0.80214644  1
  Zr  Zr83  1  0.80114952  0.59897379  0.39416592  1
  Zr  Zr84  1  0.59892785  0.40075965  0.40124144  1
  Zr  Zr85  1  0.71035785  0.09851603  0.90754629  1
  Zr  Zr86  1  0.89370195  0.70335287  0.89767486  1
  Zr  Zr87  1  0.08865158  0.90799025  0.30756233  1
  Zr  Zr88  1  0.40457850  0.19593989  0.20190307  1
  Zr  Zr89  1  0.60327203  0.20414393  0.00328746  1
  Zr  Zr90  1  0.00470829  -0.00822859  0.00537557  1
  Zr  Zr91  1  0.20420267  0.00886874  0.39531474  1
  Zr  Zr92  1  0.38953604  0.60275505  0.79285773  1
  Zr  Zr93  1  0.60142038  0.19369940  0.60646714  1
  Zr  Zr94  1  0.09632800  0.50269179  0.90947260  1
  Zr  Zr95  1  0.29327253  0.28957336  0.70141918  1
  Zr  Zr96  1  0.70352267  0.70455679  0.50662188  1
  Zr  Zr97  1  0.79906481  -0.00421479  0.38876591  1
  Zr  Zr98  1  -0.01386665  0.01224727  0.60639742  1
  Zr  Zr99  1  0.38525200  0.80296643  0.79204790  1
  Ta  Ta100  1  0.10133419  0.69769068  0.09528481  1
  Ta  Ta101  1  0.29650318  0.09746530  0.50913355  1
  Ta  Ta102  1  0.61026879  0.60334238  0.79811461  1
  Ta  Ta103  1  0.80283226  0.39928308  0.39861596  1
  Ta  Ta104  1  -0.00392764  0.60583637  0.00119242  1
  Ta  Ta105  1  0.60360240  0.59250463  0.39746036  1
  Ta  Ta106  1  0.70488340  0.29965871  0.50010493  1
  Ta  Ta107  1  0.50229459  0.09659569  0.90244187  1
  Ta  Ta108  1  -0.00108496  0.39955566  0.19458658  1
  Ta  Ta109  1  0.50335280  0.89146487  0.90055081  1
  Ta  Ta110  1  0.40124658  -0.00554961  0.40665701  1
  Ta  Ta111  1  -0.00812022  -0.00242520  0.19561748  1
  Ta  Ta112  1  0.90018719  0.49208614  0.29747009  1
  Ta  Ta113  1  0.19304516  0.59232496  0.39705344  1
  Ta  Ta114  1  0.49957783  0.30770022  0.90414133  1
  Ta  Ta115  1  0.29773425  0.69701040  0.30331584  1
  Ta  Ta116  1  0.70183733  0.49905343  0.09871584  1
  Ta  Ta117  1  0.09449855  0.29904306  0.09788414  1
  Ta  Ta118  1  0.60608833  0.79433783  0.79659069  1
  Ta  Ta119  1  0.00135385  0.80354951  0.80232302  1
  Ta  Ta120  1  0.70720616  0.49884260  0.49812934  1
  Ta  Ta121  1  0.80923773  0.19590223  0.19113215  1
  Ta  Ta122  1  0.79781544  0.79847424  0.79969117  1
  Ta  Ta123  1  0.09929691  0.29030860  0.70133929  1
  Ta  Ta124  1  0.30359311  0.30759848  0.29396244  1
  Ta  Ta125  1  -0.00114984  0.19897837  0.80603827  1
  Ta  Ta126  1  0.19743412  0.20203860  0.00701171  1
  Ta  Ta127  1  0.09909880  0.29653957  0.90385612  1
  Ta  Ta128  1  0.39981294  0.19051356  0.60620037  1
  Ta  Ta129  1  0.19536810  0.59493666  0.19838560  1
  Ta  Ta130  1  0.89346496  0.90042459  0.89948315  1
  Ta  Ta131  1  0.30084697  0.70205576  0.91827976  1
  Ta  Ta132  1  0.18877599  0.81049344  -0.00677249  1
  Ta  Ta133  1  0.89273496  0.70258550  0.69525706  1
  Ta  Ta134  1  0.90880222  0.29685992  0.70181196  1
  Ta  Ta135  1  0.70515357  0.30799698  0.90255244  1
  Ta  Ta136  1  0.09618549  0.10357616  0.10031155  1
  Ta  Ta137  1  0.70100521  0.89310282  0.50419345  1
  Ta  Ta138  1  0.60294904  0.80338718  0.39666582  1
  Ta  Ta139  1  0.50291700  0.89532465  0.69276057  1
  Ta  Ta140  1  0.49638955  0.31285205  0.09828728  1
  Ta  Ta141  1  0.50210477  0.89191602  0.50435356  1
  Ta  Ta142  1  0.39414251  0.41018306  0.00196115  1
  Ta  Ta143  1  0.30426928  0.50790112  0.49252541  1
  Ta  Ta144  1  0.70812969  0.09279339  0.09798519  1
  Ta  Ta145  1  0.89433551  0.09766241  0.90445139  1
  Ta  Ta146  1  0.51092419  0.89729382  0.07656949  1
  Ta  Ta147  1  0.60286382  0.40207980  0.00084594  1
  Ta  Ta148  1  0.49475543  0.50232355  0.30021700  1
  Ta  Ta149  1  0.39269927  -0.00758986  0.60310183  1
  Ti  Ti150  1  0.81535390  0.40835407  0.80453647  1
  Ti  Ti151  1  0.79737078  0.59914803  0.20144976  1
  Ti  Ti152  1  0.80491128  0.39563962  -0.00059647  1
  Ti  Ti153  1  0.80404510  0.00487648  0.59744879  1
  Ti  Ti154  1  0.79744170  0.80737634  0.18623571  1
  Ti  Ti155  1  0.60213654  0.40792179  0.80460307  1
  Ti  Ti156  1  0.50958161  0.08846595  0.08918450  1
  Ti  Ti157  1  0.50235024  0.29192819  0.50699717  1
  Ti  Ti158  1  0.29317104  0.10620570  0.90160322  1
  Ti  Ti159  1  0.61423187  0.60317976  0.00062156  1
  Ti  Ti160  1  0.80487246  0.59589607  0.79370084  1
  Ti  Ti161  1  0.70073279  0.09545301  0.50195140  1
  Ti  Ti162  1  0.90583817  0.29826458  0.30041053  1
  Ti  Ti163  1  0.90053583  0.29831547  0.90389951  1
  Ti  Ti164  1  0.89901382  0.10529418  0.71408097  1
  Ti  Ti165  1  0.70489331  0.10039038  0.28738220  1
  Ti  Ti166  1  0.39240975  0.80750124  0.59767245  1
  Ti  Ti167  1  0.70768610  0.70814962  0.30328210  1
  Ti  Ti168  1  0.39668976  0.59318422  0.59963174  1
  Ti  Ti169  1  0.09456851  0.50177604  0.10059078  1
  Ti  Ti170  1  0.80236295  -0.01237849  0.01212808  1
  Ti  Ti171  1  0.18891977  0.40847308  0.20042630  1
  Ti  Ti172  1  0.89581708  0.49623252  0.49690896  1
  Ti  Ti173  1  0.71002745  0.50265127  0.69925083  1
  Ti  Ti174  1  0.89786766  0.09716736  0.09658101  1
  Ti  Ti175  1  0.80725225  0.20696862  0.00736711  1
  Ti  Ti176  1  -0.00575125  0.20279973  0.00382953  1
  Ti  Ti177  1  0.50067318  0.09245922  0.30216509  1
  Ti  Ti178  1  -0.00748863  0.19831790  0.19380108  1
  Ti  Ti179  1  0.19838920  0.60038863  0.00368850  1
  Ti  Ti180  1  0.20177990  0.80391844  0.40484518  1
  Ti  Ti181  1  -0.00061017  0.40342118  0.59990521  1
  Ti  Ti182  1  0.89192706  0.89681066  0.70397034  1
  Ti  Ti183  1  0.80376787  -0.00886834  0.19853279  1
  Ti  Ti184  1  0.40628048  0.18900246  0.79978893  1
  Ti  Ti185  1  0.29309990  0.09622683  0.09192509  1
  Ti  Ti186  1  0.90851238  0.09542390  0.29871386  1
  Ti  Ti187  1  0.88724966  0.70763591  0.29206216  1
  Ti  Ti188  1  0.59695072  -0.00174176  0.60269107  1
  Ti  Ti189  1  0.39250859  0.59713643  0.19669265  1
  Ti  Ti190  1  0.80767748  0.20658425  0.80875204  1
  Ti  Ti191  1  0.20342358  0.59766971  0.59236178  1
  Ti  Ti192  1  0.00401970  0.41029807  0.39779247  1
  Ti  Ti193  1  0.88498455  0.70726631  0.50864203  1
  Ti  Ti194  1  0.70870145  0.70095444  0.69347158  1
  Ti  Ti195  1  0.50139639  0.50315601  0.70447374  1
  Ti  Ti196  1  0.70305973  0.30058245  0.09650155  1
  Ti  Ti197  1  0.29744907  0.28872328  0.50487202  1
  Ti  Ti198  1  -0.00703063  0.39827058  0.00081023  1
  Ti  Ti199  1  -0.00828990  0.80333833  0.60387411  1
  Mo  Mo200  1  0.30252043  0.89158666  0.90256754  1
  Mo  Mo201  1  0.90200979  0.09607750  0.49245453  1
  Mo  Mo202  1  0.07875461  0.10099202  0.29036098  1
  Mo  Mo203  1  0.10025562  0.90704130  0.09908775  1
  Mo  Mo204  1  0.40308314  0.80424404  0.40482030  1
  Mo  Mo205  1  0.29612806  0.50593371  0.67954289  1
  Mo  Mo206  1  0.09828663  0.10838874  0.70706850  1
  Mo  Mo207  1  0.90612032  0.29605822  0.09368849  1
  Mo  Mo208  1  0.89716147  0.70064467  0.10485938  1
  Mo  Mo209  1  0.50213149  0.89995177  0.31397380  1
  Mo  Mo210  1  -0.00071927  0.19849884  0.61864156  1
  Mo  Mo211  1  0.80303293  0.79955772  0.60506553  1
  Mo  Mo212  1  0.10016199  0.49855029  0.49833611  1
  Mo  Mo213  1  0.31569976  0.09644303  0.30414783  1
  Mo  Mo214  1  0.18924003  0.20046387  0.80823296  1
  Mo  Mo215  1  0.80277944  0.59643432  0.60317212  1
  Mo  Mo216  1  0.29853415  0.69612671  0.67869513  1
  Mo  Mo217  1  0.89226665  0.90065565  0.29219301  1
  Mo  Mo218  1  0.89961957  0.49959079  0.70142588  1
  Mo  Mo219  1  0.80499547  0.80352265  0.00507890  1
  Mo  Mo220  1  0.89339871  0.89979503  0.09799575  1
  Mo  Mo221  1  0.60275742  0.80313706  0.59899588  1
  Mo  Mo222  1  0.29490278  0.50470761  0.10532509  1
  Mo  Mo223  1  0.60052475  -0.00048411  0.00021891  1
  Mo  Mo224  1  0.81278927  -0.00609381  0.79921704  1
  Mo  Mo225  1  0.40671794  0.40157776  0.20126742  1
  Mo  Mo226  1  0.48926528  0.09180338  0.70024791  1
  Mo  Mo227  1  0.89490724  0.49864783  0.90524222  1
  Mo  Mo228  1  0.40050987  0.59544085  0.39785993  1
  Mo  Mo229  1  0.19981542  0.20108866  0.60137281  1
  Mo  Mo230  1  0.39247423  0.59922028  0.00328786  1
  Mo  Mo231  1  0.09504501  0.49734794  0.29615579  1
  Mo  Mo232  1  0.79486516  0.80009045  0.39457317  1
  Mo  Mo233  1  0.70643583  0.89102551  0.29901376  1
  Mo  Mo234  1  0.39762002  0.80217882  -0.00527276  1
  Mo  Mo235  1  0.19959785  0.00581911  0.00425671  1
  Mo  Mo236  1  0.10064410  0.70040780  0.90759524  1
  Mo  Mo237  1  0.49900894  0.50770170  0.49466438  1
  Mo  Mo238  1  0.70591661  0.49858436  0.30223156  1
  Mo  Mo239  1  0.29955998  0.51289183  0.91746743  1
  Mo  Mo240  1  0.09424219  0.89786046  0.89934672  1
  Mo  Mo241  1  -0.00226130  0.19147434  0.38323036  1
  Mo  Mo242  1  0.70671366  0.69589886  0.11928768  1
  Mo  Mo243  1  0.70347990  0.69502704  0.87964302  1
  Mo  Mo244  1  0.30392052  0.90381366  0.49874352  1
  Mo  Mo245  1  0.20159734  0.00183890  0.59666543  1
  Mo  Mo246  1  -0.01084619  0.00430579  0.39595188  1
  Mo  Mo247  1  0.49631942  0.30736464  0.29162795  1
  Mo  Mo248  1  0.70536997  0.90216898  0.10076649  1
  Mo  Mo249  1  0.30081570  0.90216394  0.69562929  1
