# generated using pymatgen
data_HfZrTaTiMo
_symmetry_space_group_name_H-M   'P 1'
_cell_length_a   16.89173563
_cell_length_b   16.89324343
_cell_length_c   16.88475199
_cell_angle_alpha   89.99658664
_cell_angle_beta   89.94596382
_cell_angle_gamma   89.98263296
_symmetry_Int_Tables_number   1
_chemical_formula_structural   HfZrTaTiMo
_chemical_formula_sum   'Hf50 Zr50 Ta50 Ti50 Mo50'
_cell_volume   4818.16632845
_cell_formula_units_Z   50
loop_
 _symmetry_equiv_pos_site_id
 _symmetry_equiv_pos_as_xyz
  1  'x, y, z'
loop_
 _atom_site_type_symbol
 _atom_site_label
 _atom_site_symmetry_multiplicity
 _atom_site_fract_x
 _atom_site_fract_y
 _atom_site_fract_z
 _atom_site_occupancy
  Hf  Hf0  1  0.19898339  0.39785414  -0.00071269  1
  Hf  Hf1  1  0.79478294  0.80004197  0.39838145  1
  Hf  Hf2  1  0.40306041  -0.00159415  0.40181939  1
  Hf  Hf3  1  -0.00444869  0.41010384  0.20678888  1
  Hf  Hf4  1  0.29140996  0.70215837  0.49852919  1
  Hf  Hf5  1  0.60637400  0.39652901  0.59865568  1
  Hf  Hf6  1  0.49779201  0.49839124  0.49150801  1
  Hf  Hf7  1  0.01258667  0.59441506  0.81169450  1
  Hf  Hf8  1  0.39581247  0.18737698  0.39061197  1
  Hf  Hf9  1  0.89928157  0.89442925  0.29124752  1
  Hf  Hf10  1  0.09917250  0.30768295  0.49287620  1
  Hf  Hf11  1  0.49580657  0.29471105  0.90407595  1
  Hf  Hf12  1  0.49363753  0.69977863  0.69830137  1
  Hf  Hf13  1  0.29796671  0.69310120  0.69771680  1
  Hf  Hf14  1  0.80373294  0.20850038  0.39870468  1
  Hf  Hf15  1  0.60112492  0.39543777  0.80559537  1
  Hf  Hf16  1  0.80467566  0.59600209  0.19913872  1
  Hf  Hf17  1  0.59321763  0.79642808  0.20719730  1
  Hf  Hf18  1  0.59315540  0.00998959  0.79233635  1
  Hf  Hf19  1  0.09803138  0.10848670  0.50116973  1
  Hf  Hf20  1  0.30145137  0.90187499  0.90014226  1
  Hf  Hf21  1  0.59839183  0.59798169  0.59910550  1
  Hf  Hf22  1  0.20147888  0.79659503  0.00309794  1
  Hf  Hf23  1  0.69615387  0.70289375  0.70618854  1
  Hf  Hf24  1  0.69568597  0.30574071  0.29575471  1
  Hf  Hf25  1  0.39543850  0.00210525  0.21082910  1
  Hf  Hf26  1  0.79730786  0.20331446  -0.01251595  1
  Hf  Hf27  1  0.30752500  0.10833981  0.90067977  1
  Hf  Hf28  1  0.80774470  0.00227882  -0.01005078  1
  Hf  Hf29  1  0.91469185  0.49609846  0.49625302  1
  Hf  Hf30  1  0.18788603  0.59865281  -0.00116914  1
  Hf  Hf31  1  0.90116554  0.30930008  0.89465985  1
  Hf  Hf32  1  0.69884631  0.10857050  0.50936452  1
  Hf  Hf33  1  0.30090900  0.30142701  0.70714753  1
  Hf  Hf34  1  0.20848094  0.19990435  0.39804466  1
  Hf  Hf35  1  0.39355418  0.60164184  0.38797086  1
  Hf  Hf36  1  0.69773686  0.90128175  0.70430280  1
  Hf  Hf37  1  0.90346370  0.30877207  0.09501174  1
  Hf  Hf38  1  0.10718531  0.89154951  0.30126001  1
  Hf  Hf39  1  0.91217194  0.89071050  0.89236967  1
  Hf  Hf40  1  0.39536057  0.40180967  0.60025879  1
  Hf  Hf41  1  0.19698212  0.40263544  0.60096822  1
  Hf  Hf42  1  0.20133824  -0.00427466  0.80386031  1
  Hf  Hf43  1  0.10082570  0.10187494  0.10153238  1
  Hf  Hf44  1  0.90638149  0.89443635  0.50060842  1
  Hf  Hf45  1  0.50064809  0.90998059  0.90338984  1
  Hf  Hf46  1  0.70298415  0.70556388  0.90175135  1
  Hf  Hf47  1  -0.00811945  0.00105284  0.60965695  1
  Hf  Hf48  1  0.49953535  0.29578879  0.49590576  1
  Hf  Hf49  1  0.00330813  -0.00060584  0.40447648  1
  Zr  Zr50  1  0.90778395  0.68743829  0.49173366  1
  Zr  Zr51  1  0.59488857  -0.00264737  0.21171972  1
  Zr  Zr52  1  0.89156909  0.09604654  0.10752766  1
  Zr  Zr53  1  0.39155255  0.00086083  0.01136152  1
  Zr  Zr54  1  0.59166276  0.59460175  0.00551196  1
  Zr  Zr55  1  0.79558825  0.21736926  0.19319920  1
  Zr  Zr56  1  0.90412959  0.70622459  0.09420985  1
  Zr  Zr57  1  0.81165620  0.40161316  0.38766345  1
  Zr  Zr58  1  0.00216290  0.19830720  -0.00404996  1
  Zr  Zr59  1  0.90013485  0.10194408  0.30073420  1
  Zr  Zr60  1  0.48904618  0.50502262  0.70485212  1
  Zr  Zr61  1  0.19019930  0.21006831  0.80507158  1
  Zr  Zr62  1  0.29340839  0.69023553  0.11174617  1
  Zr  Zr63  1  0.50114262  0.28799085  0.70186019  1
  Zr  Zr64  1  0.39883533  0.79195273  0.00420298  1
  Zr  Zr65  1  0.10191805  0.10506301  0.29984113  1
  Zr  Zr66  1  0.49371566  0.29796865  0.29542938  1
  Zr  Zr67  1  0.20226233  -0.01132661  0.59716783  1
  Zr  Zr68  1  0.80544941  0.59708192  0.60745234  1
  Zr  Zr69  1  0.59862870  0.58991389  0.80979772  1
  Zr  Zr70  1  0.29594287  0.50205221  0.10675517  1
  Zr  Zr71  1  0.00827656  0.79229685  0.60156509  1
  Zr  Zr72  1  0.21452748  -0.00235462  0.39511118  1
  Zr  Zr73  1  -0.00280960  0.20584936  0.80054373  1
  Zr  Zr74  1  0.39484501  0.79628415  0.80129685  1
  Zr  Zr75  1  0.00415896  -0.00592537  0.19495973  1
  Zr  Zr76  1  0.80182638  0.59315729  0.80819769  1
  Zr  Zr77  1  0.69665098  0.90406419  0.09503753  1
  Zr  Zr78  1  0.00006349  0.21390630  0.61180509  1
  Zr  Zr79  1  0.10924114  0.69912033  0.29783022  1
  Zr  Zr80  1  0.59792030  0.40500952  0.19034916  1
  Zr  Zr81  1  0.80177433  -0.00084283  0.60678252  1
  Zr  Zr82  1  0.31466648  0.09675484  0.70416236  1
  Zr  Zr83  1  0.80229184  0.80101808  0.60310162  1
  Zr  Zr84  1  0.79744753  0.39486992  0.79717951  1
  Zr  Zr85  1  0.69979695  0.70078742  0.09731781  1
  Zr  Zr86  1  0.91604773  0.49068726  0.69960984  1
  Zr  Zr87  1  0.08920395  0.89114545  0.71483085  1
  Zr  Zr88  1  0.10577906  0.09828814  0.70016540  1
  Zr  Zr89  1  0.70653357  0.50578433  0.48816556  1
  Zr  Zr90  1  0.70184989  0.47736484  0.92857829  1
  Zr  Zr91  1  0.79044640  -0.00809510  0.40354111  1
  Zr  Zr92  1  0.20987148  0.20804128  0.19965527  1
  Zr  Zr93  1  0.69140644  0.69094728  0.31057345  1
  Zr  Zr94  1  0.69557852  0.69580373  0.49554183  1
  Zr  Zr95  1  0.39633404  0.80334746  0.20692788  1
  Zr  Zr96  1  0.69540727  0.90026063  0.89901431  1
  Zr  Zr97  1  0.50130816  0.70414269  0.48639887  1
  Zr  Zr98  1  0.50028179  0.10382196  0.09770044  1
  Zr  Zr99  1  0.70564428  0.09640492  0.28917141  1
  Ta  Ta100  1  0.09643945  0.89920738  0.90430941  1
  Ta  Ta101  1  0.01014455  0.59607135  0.19283578  1
  Ta  Ta102  1  0.60078254  0.39851492  0.39682688  1
  Ta  Ta103  1  0.90208870  0.11234024  0.50143817  1
  Ta  Ta104  1  0.69769445  0.50549720  0.30056602  1
  Ta  Ta105  1  0.39759832  0.59701446  -0.00804725  1
  Ta  Ta106  1  0.69545540  0.09720465  0.09265656  1
  Ta  Ta107  1  0.69731671  0.11075963  0.69805031  1
  Ta  Ta108  1  0.59623659  -0.00034074  0.40528630  1
  Ta  Ta109  1  0.30168444  0.30109084  0.49762194  1
  Ta  Ta110  1  0.79987849  0.41183181  0.19321893  1
  Ta  Ta111  1  0.48868057  0.91014452  0.69632398  1
  Ta  Ta112  1  0.39672920  0.40083448  0.00191363  1
  Ta  Ta113  1  0.91290365  0.70054897  0.71242004  1
  Ta  Ta114  1  0.19928569  0.20499938  0.00116746  1
  Ta  Ta115  1  0.29888796  0.50063058  0.89573960  1
  Ta  Ta116  1  0.40102079  0.19661938  0.59868279  1
  Ta  Ta117  1  0.39790633  0.40259700  0.80712565  1
  Ta  Ta118  1  0.59499940  -0.00101512  0.59743874  1
  Ta  Ta119  1  0.70651022  0.28597100  0.69475074  1
  Ta  Ta120  1  0.58903801  0.59746158  0.20284256  1
  Ta  Ta121  1  -0.00043606  -0.00263079  -0.00245726  1
  Ta  Ta122  1  0.69772380  0.32006611  0.07763584  1
  Ta  Ta123  1  0.19889665  0.79104391  0.80673057  1
  Ta  Ta124  1  0.19757441  0.60260270  0.80783371  1
  Ta  Ta125  1  0.59779894  0.19289038  0.39451575  1
  Ta  Ta126  1  0.01323809  0.40924976  -0.00369080  1
  Ta  Ta127  1  0.40142114  0.80715664  0.59385462  1
  Ta  Ta128  1  0.19855302  0.00072088  0.00646064  1
  Ta  Ta129  1  0.60280128  0.20425751  -0.00136366  1
  Ta  Ta130  1  0.10006324  0.30575524  0.10419813  1
  Ta  Ta131  1  0.59701395  0.20457955  0.19025389  1
  Ta  Ta132  1  0.30295313  0.30061464  0.90144829  1
  Ta  Ta133  1  -0.00076520  0.21338772  0.20560108  1
  Ta  Ta134  1  0.50379918  0.90179675  0.09583455  1
  Ta  Ta135  1  0.50073344  0.10009560  0.50640443  1
  Ta  Ta136  1  0.90556984  0.69997495  0.90541671  1
  Ta  Ta137  1  0.59291020  0.81231842  0.59626224  1
  Ta  Ta138  1  0.20599665  0.59285572  0.39156199  1
  Ta  Ta139  1  0.21164319  -0.00793897  0.19575063  1
  Ta  Ta140  1  0.91197894  0.30370633  0.49648502  1
  Ta  Ta141  1  0.49064815  0.49965243  0.10075340  1
  Ta  Ta142  1  0.49442402  0.10628967  0.89691913  1
  Ta  Ta143  1  0.39367002  0.39259376  0.19336516  1
  Ta  Ta144  1  0.29526407  0.50529394  0.70738117  1
  Ta  Ta145  1  0.10086674  0.89371396  0.09606684  1
  Ta  Ta146  1  0.80710851  0.38915506  0.59801630  1
  Ta  Ta147  1  0.09877927  0.09258930  0.90342030  1
  Ta  Ta148  1  0.69659980  0.10129145  0.89576025  1
  Ta  Ta149  1  0.09856765  0.30815784  0.30617361  1
  Ti  Ti150  1  0.39017361  0.40359631  0.39261054  1
  Ti  Ti151  1  0.20810399  0.80232519  0.20088847  1
  Ti  Ti152  1  0.39417503  0.21240084  0.01633410  1
  Ti  Ti153  1  0.09036742  0.71097131  0.90740380  1
  Ti  Ti154  1  0.19420087  0.59320749  0.59743748  1
  Ti  Ti155  1  0.39382933  0.59816191  0.59190952  1
  Ti  Ti156  1  0.00932512  0.59807403  0.00595875  1
  Ti  Ti157  1  0.01422823  0.59752114  0.60272748  1
  Ti  Ti158  1  0.39768336  0.59918732  0.21170242  1
  Ti  Ti159  1  0.49885279  0.89581893  0.30882783  1
  Ti  Ti160  1  0.90424544  0.69748264  0.29690288  1
  Ti  Ti161  1  0.29975311  0.10674879  0.10541732  1
  Ti  Ti162  1  0.30329245  0.09983503  0.51175019  1
  Ti  Ti163  1  0.70252655  0.49461806  0.69784612  1
  Ti  Ti164  1  0.00470560  0.79376856  0.39782478  1
  Ti  Ti165  1  0.80135281  0.59445376  0.00381317  1
  Ti  Ti166  1  0.29269000  0.49612744  0.49413486  1
  Ti  Ti167  1  0.90721482  0.49784626  0.90545651  1
  Ti  Ti168  1  0.80713473  0.00761831  0.79841351  1
  Ti  Ti169  1  0.88127878  0.12228336  0.70070863  1
  Ti  Ti170  1  0.49324332  0.69238030  0.89423173  1
  Ti  Ti171  1  0.11024631  0.49452735  0.30122561  1
  Ti  Ti172  1  0.00800646  0.79238754  0.19141489  1
  Ti  Ti173  1  0.20267534  0.20826674  0.60289801  1
  Ti  Ti174  1  0.58906050  0.80261838  0.79848635  1
  Ti  Ti175  1  0.90239078  0.50110246  0.09214695  1
  Ti  Ti176  1  0.00466556  0.59066623  0.38293699  1
  Ti  Ti177  1  0.10276088  0.49461405  0.70423833  1
  Ti  Ti178  1  0.69954354  0.29607506  0.50070718  1
  Ti  Ti179  1  0.39193613  0.80005875  0.39292262  1
  Ti  Ti180  1  0.80461434  0.80323071  -0.00271377  1
  Ti  Ti181  1  0.90119146  0.89538838  0.09998573  1
  Ti  Ti182  1  -0.01178591  0.00931053  0.79896388  1
  Ti  Ti183  1  0.49699958  0.49581131  0.29729295  1
  Ti  Ti184  1  0.81014513  0.80009732  0.79598679  1
  Ti  Ti185  1  0.09935036  0.49611972  0.48934369  1
  Ti  Ti186  1  0.20030766  0.40225259  0.20094440  1
  Ti  Ti187  1  0.60363041  0.81941569  0.40461679  1
  Ti  Ti188  1  0.58848522  0.79329491  0.00029888  1
  Ti  Ti189  1  0.60338071  0.19952650  0.80241389  1
  Ti  Ti190  1  0.19158292  0.40278313  0.80765347  1
  Ti  Ti191  1  0.10498200  0.69596657  0.70302407  1
  Ti  Ti192  1  0.29885502  0.30739401  0.29971187  1
  Ti  Ti193  1  0.79034755  0.80379733  0.20374662  1
  Ti  Ti194  1  0.49320091  0.69344901  0.10595985  1
  Ti  Ti195  1  0.30312015  0.89359079  0.50016469  1
  Ti  Ti196  1  0.10648907  0.88878986  0.49497851  1
  Ti  Ti197  1  0.20041363  0.80094002  0.60364390  1
  Ti  Ti198  1  0.10631681  0.69444019  0.49247338  1
  Ti  Ti199  1  0.30663717  0.90021125  0.69961525  1
  Mo  Mo200  1  0.49743815  0.70145569  0.30037898  1
  Mo  Mo201  1  0.09834174  0.70091574  0.10496237  1
  Mo  Mo202  1  0.29547504  0.69338308  0.89809386  1
  Mo  Mo203  1  0.57904133  0.39547376  0.00293458  1
  Mo  Mo204  1  0.48992888  0.49368521  0.90662115  1
  Mo  Mo205  1  0.40196215  0.00392677  0.79782356  1
  Mo  Mo206  1  0.89870047  0.09473116  0.89158851  1
  Mo  Mo207  1  0.81814459  0.40355416  0.00288850  1
  Mo  Mo208  1  0.50439684  0.10153530  0.69709974  1
  Mo  Mo209  1  0.39109275  0.59703977  0.80728154  1
  Mo  Mo210  1  -0.00255466  0.20671964  0.39676248  1
  Mo  Mo211  1  0.40433491  0.20280451  0.80035498  1
  Mo  Mo212  1  0.59899652  0.19710761  0.59503224  1
  Mo  Mo213  1  0.20459600  0.79573408  0.40526877  1
  Mo  Mo214  1  0.89801657  0.89373151  0.70872639  1
  Mo  Mo215  1  0.79433258  0.19955424  0.79938912  1
  Mo  Mo216  1  0.89837639  0.30458280  0.69676767  1
  Mo  Mo217  1  0.90473459  0.50851518  0.29638370  1
  Mo  Mo218  1  0.00864440  0.40487942  0.39604247  1
  Mo  Mo219  1  0.79488679  -0.01689974  0.19008260  1
  Mo  Mo220  1  0.29616629  0.69826032  0.30280047  1
  Mo  Mo221  1  0.29882543  0.49331481  0.29682106  1
  Mo  Mo222  1  0.00647163  0.40348414  0.60018597  1
  Mo  Mo223  1  0.40161269  -0.00200915  0.59604631  1
  Mo  Mo224  1  0.30408192  0.10052561  0.29146422  1
  Mo  Mo225  1  0.10086126  0.31738416  0.70116647  1
  Mo  Mo226  1  0.09919767  0.49940313  0.10486378  1
  Mo  Mo227  1  0.00352594  0.80266229  0.00247580  1
  Mo  Mo228  1  0.39875141  0.20257369  0.19856487  1
  Mo  Mo229  1  0.10223267  0.30356130  0.90410972  1
  Mo  Mo230  1  0.29464161  0.89971511  0.10224952  1
  Mo  Mo231  1  0.50463680  0.10316534  0.30327880  1
  Mo  Mo232  1  0.69669219  0.89631020  0.30330252  1
  Mo  Mo233  1  0.90624532  0.30691343  0.29935494  1
  Mo  Mo234  1  0.19451392  0.59201907  0.20636553  1
  Mo  Mo235  1  0.00517129  0.78775356  0.80551977  1
  Mo  Mo236  1  0.20658398  0.40308282  0.39894817  1
  Mo  Mo237  1  0.69058002  0.90400642  0.50375398  1
  Mo  Mo238  1  0.58430750  0.58522830  0.38902682  1
  Mo  Mo239  1  0.29798151  0.30260566  0.09924568  1
  Mo  Mo240  1  0.29847767  0.89451484  0.30412246  1
  Mo  Mo241  1  0.10272921  0.49938266  0.90051475  1
  Mo  Mo242  1  0.80305078  0.20887473  0.59564703  1
  Mo  Mo243  1  0.69635248  0.29317139  0.89900740  1
  Mo  Mo244  1  0.59826654  0.01229090  -0.00755977  1
  Mo  Mo245  1  0.81930410  0.60071418  0.38672338  1
  Mo  Mo246  1  0.49579286  0.90165866  0.49966712  1
  Mo  Mo247  1  0.69870503  0.50099681  0.10561101  1
  Mo  Mo248  1  0.49650842  0.29960870  0.09742874  1
  Mo  Mo249  1  0.01352345  0.39977837  0.80227364  1
