# generated using pymatgen
data_HfZrTaTiMo
_symmetry_space_group_name_H-M   'P 1'
_cell_length_a   16.87580793
_cell_length_b   16.88084412
_cell_length_c   16.88434206
_cell_angle_alpha   89.99235201
_cell_angle_beta   89.97416092
_cell_angle_gamma   90.03540657
_symmetry_Int_Tables_number   1
_chemical_formula_structural   HfZrTaTiMo
_chemical_formula_sum   'Hf50 Zr50 Ta50 Ti50 Mo50'
_cell_volume   4809.97417016
_cell_formula_units_Z   50
loop_
 _symmetry_equiv_pos_site_id
 _symmetry_equiv_pos_as_xyz
  1  'x, y, z'
loop_
 _atom_site_type_symbol
 _atom_site_label
 _atom_site_symmetry_multiplicity
 _atom_site_fract_x
 _atom_site_fract_y
 _atom_site_fract_z
 _atom_site_occupancy
  Hf  Hf0  1  -0.00635837  0.20602770  0.60116817  1
  Hf  Hf1  1  0.20108970  0.18951966  0.39415699  1
  Hf  Hf2  1  0.30089794  0.90175625  0.29277238  1
  Hf  Hf3  1  0.49779595  0.50876875  0.50098977  1
  Hf  Hf4  1  0.40573587  0.39293854  0.39337561  1
  Hf  Hf5  1  0.10326684  0.89722269  0.10165553  1
  Hf  Hf6  1  0.58701137  0.19356661  0.19529189  1
  Hf  Hf7  1  0.70389179  0.70201495  0.70004634  1
  Hf  Hf8  1  0.70885124  0.30684556  0.49626571  1
  Hf  Hf9  1  0.50493917  0.50060103  0.09260251  1
  Hf  Hf10  1  0.79057569  0.40464414  0.19832169  1
  Hf  Hf11  1  0.89074021  0.31482322  0.69464771  1
  Hf  Hf12  1  -0.00358528  0.39573481  -0.00885568  1
  Hf  Hf13  1  0.00005054  0.80620687  0.79429867  1
  Hf  Hf14  1  0.30845128  0.50191496  0.69505246  1
  Hf  Hf15  1  0.70296348  0.69845789  0.31403677  1
  Hf  Hf16  1  0.49832532  0.49167038  0.70462199  1
  Hf  Hf17  1  0.60327869  0.39971780  0.59686729  1
  Hf  Hf18  1  0.60103256  0.00177662  0.01039317  1
  Hf  Hf19  1  0.09509087  0.90270278  0.29437034  1
  Hf  Hf20  1  0.58984724  0.80016032  0.60192860  1
  Hf  Hf21  1  0.69682603  0.08689774  0.29517476  1
  Hf  Hf22  1  0.89943861  0.70861782  0.49521744  1
  Hf  Hf23  1  0.80352152  0.59984338  0.59322028  1
  Hf  Hf24  1  0.39915054  0.00172484  0.40276339  1
  Hf  Hf25  1  0.60145154  0.40346245  0.39005098  1
  Hf  Hf26  1  0.40490837  0.80175352  0.00340169  1
  Hf  Hf27  1  0.89383309  0.49911185  0.09148733  1
  Hf  Hf28  1  0.89739344  0.29436735  0.09522080  1
  Hf  Hf29  1  0.60039405  0.39385384  0.19769384  1
  Hf  Hf30  1  0.09577375  0.30325795  0.30674363  1
  Hf  Hf31  1  0.58655747  0.20193142  0.39163823  1
  Hf  Hf32  1  0.09738378  0.70744037  0.30044610  1
  Hf  Hf33  1  0.50497060  0.69985976  0.30429149  1
  Hf  Hf34  1  0.41484027  0.01004904  0.20074473  1
  Hf  Hf35  1  0.19939221  0.59869512  0.00603722  1
  Hf  Hf36  1  0.30085935  0.70060142  0.50408219  1
  Hf  Hf37  1  0.80071121  0.20409859  0.59984323  1
  Hf  Hf38  1  0.60041257  0.59841582  0.80556079  1
  Hf  Hf39  1  0.19564457  0.19350207  -0.00540180  1
  Hf  Hf40  1  0.09437338  0.30667984  0.49400316  1
  Hf  Hf41  1  0.90315855  0.10399271  0.90348080  1
  Hf  Hf42  1  0.10194412  0.50600286  0.89691547  1
  Hf  Hf43  1  -0.00579256  0.40036903  0.19987931  1
  Hf  Hf44  1  0.29254282  0.09741117  0.70293644  1
  Hf  Hf45  1  0.10538115  0.71206203  0.90206458  1
  Hf  Hf46  1  0.39368639  0.39552263  0.00062137  1
  Hf  Hf47  1  0.19530041  0.39745705  0.79702620  1
  Hf  Hf48  1  0.39865024  0.18564872  0.00179060  1
  Hf  Hf49  1  0.19938495  0.60099405  0.59949678  1
  Zr  Zr50  1  0.39634366  0.80078545  0.78941687  1
  Zr  Zr51  1  0.29803327  0.70060639  0.10879290  1
  Zr  Zr52  1  0.50293660  0.91550525  0.71763134  1
  Zr  Zr53  1  0.69483109  0.89527016  0.89772228  1
  Zr  Zr54  1  0.81381104  0.19335618  0.39551279  1
  Zr  Zr55  1  0.70881198  0.29196355  0.29530129  1
  Zr  Zr56  1  0.30560030  0.49522624  0.89094541  1
  Zr  Zr57  1  0.60251066  -0.00853482  0.59970882  1
  Zr  Zr58  1  0.39066851  -0.01609112  0.60061542  1
  Zr  Zr59  1  -0.00064755  0.00325790  0.00140307  1
  Zr  Zr60  1  0.70431410  0.09477117  0.70103109  1
  Zr  Zr61  1  0.40313355  0.20072870  0.21235724  1
  Zr  Zr62  1  0.10356238  0.09940522  0.69700528  1
  Zr  Zr63  1  0.70486928  0.10142123  0.10489789  1
  Zr  Zr64  1  0.80349059  -0.01300577  0.39837683  1
  Zr  Zr65  1  0.59917872  0.19320312  -0.00745873  1
  Zr  Zr66  1  0.40930320  0.61745553  0.79552478  1
  Zr  Zr67  1  0.79728729  0.40300731  0.81871633  1
  Zr  Zr68  1  -0.00157810  0.39951877  0.79994091  1
  Zr  Zr69  1  0.69730021  0.70153542  0.90126567  1
  Zr  Zr70  1  0.10130216  0.50280075  0.30269836  1
  Zr  Zr71  1  0.19827311  0.39738742  0.19559182  1
  Zr  Zr72  1  0.29549283  0.50455313  0.29996770  1
  Zr  Zr73  1  0.69819618  0.09769792  0.49871495  1
  Zr  Zr74  1  0.09832293  0.09261826  0.50284305  1
  Zr  Zr75  1  -0.00168660  0.60380465  0.19866932  1
  Zr  Zr76  1  0.70526500  0.49736328  0.70350520  1
  Zr  Zr77  1  0.50928279  0.89720621  0.30275538  1
  Zr  Zr78  1  0.29153106  0.09054717  0.10964176  1
  Zr  Zr79  1  0.79610677  0.20278358  0.80528451  1
  Zr  Zr80  1  0.09313494  0.09493765  0.11157252  1
  Zr  Zr81  1  0.30309104  0.29567442  0.70400953  1
  Zr  Zr82  1  0.80445768  0.80617608  0.00668020  1
  Zr  Zr83  1  0.49979349  0.90208037  0.90336424  1
  Zr  Zr84  1  0.09962250  0.49575954  0.49249016  1
  Zr  Zr85  1  0.90568346  0.08724819  0.50618717  1
  Zr  Zr86  1  0.61058698  0.58759049  0.20421206  1
  Zr  Zr87  1  -0.00365811  0.60831926  0.79673550  1
  Zr  Zr88  1  0.29517263  0.30098265  0.49807543  1
  Zr  Zr89  1  0.10193390  0.71203857  0.68712689  1
  Zr  Zr90  1  0.29062528  0.71205100  0.90202946  1
  Zr  Zr91  1  0.40753725  0.60353132  -0.00460939  1
  Zr  Zr92  1  0.49635163  0.10746677  0.70860177  1
  Zr  Zr93  1  0.80069201  0.60261061  0.20014485  1
  Zr  Zr94  1  0.49712445  0.30232303  0.88964778  1
  Zr  Zr95  1  0.61471293  0.80957870  0.19861400  1
  Zr  Zr96  1  -0.00436360  0.61066832  0.00010546  1
  Zr  Zr97  1  0.29305564  0.29392675  0.10330385  1
  Zr  Zr98  1  0.49973808  0.10073093  0.50810625  1
  Zr  Zr99  1  0.00660620  -0.00310904  0.79719769  1
  Ta  Ta100  1  0.79974067  0.60525011  -0.00807215  1
  Ta  Ta101  1  0.89576254  0.50561391  0.69745719  1
  Ta  Ta102  1  0.30121694  0.49897918  0.49729707  1
  Ta  Ta103  1  0.49980869  0.29965506  0.70409377  1
  Ta  Ta104  1  0.90081240  0.32040969  0.49117491  1
  Ta  Ta105  1  0.30165080  0.70327191  0.30048961  1
  Ta  Ta106  1  0.20181619  0.00153248  -0.00628908  1
  Ta  Ta107  1  0.89598416  0.70340110  0.69533062  1
  Ta  Ta108  1  0.89918746  0.09165058  0.69992669  1
  Ta  Ta109  1  0.80201624  -0.01298281  0.19535896  1
  Ta  Ta110  1  0.51222687  0.69955735  0.09979293  1
  Ta  Ta111  1  0.69591543  0.88671095  0.49321190  1
  Ta  Ta112  1  0.29353035  0.09602551  0.50644767  1
  Ta  Ta113  1  -0.00373217  0.20571425  0.79946239  1
  Ta  Ta114  1  0.90958138  0.08228435  0.29049082  1
  Ta  Ta115  1  -0.00459049  0.60356530  0.40549694  1
  Ta  Ta116  1  0.09298865  0.29018239  0.09844310  1
  Ta  Ta117  1  0.90233378  0.90063787  0.89972030  1
  Ta  Ta118  1  -0.00507045  0.19580302  0.20564686  1
  Ta  Ta119  1  0.40135829  0.80370240  0.41029948  1
  Ta  Ta120  1  0.20337233  0.60969249  0.78895817  1
  Ta  Ta121  1  0.19849296  0.40239053  0.60151667  1
  Ta  Ta122  1  0.89350656  0.90157366  0.69766638  1
  Ta  Ta123  1  0.80868447  0.79890403  0.80096673  1
  Ta  Ta124  1  0.51042143  0.49078344  0.89837428  1
  Ta  Ta125  1  0.20209744  -0.00244804  0.39970584  1
  Ta  Ta126  1  0.40395266  0.59950548  0.20150310  1
  Ta  Ta127  1  0.80304949  0.00127528  0.00473606  1
  Ta  Ta128  1  0.19459658  0.39658888  -0.00042597  1
  Ta  Ta129  1  0.20170577  0.80085616  0.20194415  1
  Ta  Ta130  1  0.69774728  0.70022870  0.09340358  1
  Ta  Ta131  1  0.90921636  0.88928518  0.29709886  1
  Ta  Ta132  1  0.39810083  0.19299783  0.39437972  1
  Ta  Ta133  1  0.10948855  0.89513934  0.90280450  1
  Ta  Ta134  1  -0.00344427  0.60127467  0.59509407  1
  Ta  Ta135  1  0.40643019  0.40041470  0.20138628  1
  Ta  Ta136  1  0.20382087  0.80527102  0.40202255  1
  Ta  Ta137  1  0.29912328  0.90244595  0.09967675  1
  Ta  Ta138  1  0.89292949  0.50151242  0.31494814  1
  Ta  Ta139  1  0.29940684  0.90674075  0.90132443  1
  Ta  Ta140  1  0.39824667  0.60517013  0.39952008  1
  Ta  Ta141  1  0.79895926  0.20283501  -0.00132562  1
  Ta  Ta142  1  0.70647607  0.50778575  0.48641990  1
  Ta  Ta143  1  0.20059726  0.60862591  0.40092137  1
  Ta  Ta144  1  0.09793784  0.71004779  0.49575762  1
  Ta  Ta145  1  0.40138724  0.79838376  0.60207754  1
  Ta  Ta146  1  0.69594677  0.69959256  0.49520849  1
  Ta  Ta147  1  0.29978511  0.50194825  0.10584926  1
  Ta  Ta148  1  0.29346619  0.29345102  0.89487263  1
  Ta  Ta149  1  0.40170286  0.39653527  0.59780405  1
  Ti  Ti150  1  0.00023489  -0.01058999  0.40331907  1
  Ti  Ti151  1  0.48323046  0.08405130  0.89809512  1
  Ti  Ti152  1  0.09680325  0.50347650  0.69775381  1
  Ti  Ti153  1  0.80000164  -0.00304824  0.80652629  1
  Ti  Ti154  1  0.60229382  0.20610403  0.60382631  1
  Ti  Ti155  1  0.69852042  0.30346237  0.90636478  1
  Ti  Ti156  1  0.10282229  0.70944459  0.10367508  1
  Ti  Ti157  1  0.90078819  0.30623903  0.30574974  1
  Ti  Ti158  1  -0.00404612  0.80040457  -0.00127169  1
  Ti  Ti159  1  0.49802307  0.29793345  0.50374673  1
  Ti  Ti160  1  0.10263075  0.10304937  0.89199160  1
  Ti  Ti161  1  0.09830469  0.30018345  0.69798374  1
  Ti  Ti162  1  -0.00288002  0.19272651  0.39392256  1
  Ti  Ti163  1  0.79826371  0.80721643  0.59853070  1
  Ti  Ti164  1  0.58196901  0.78229165  0.79635578  1
  Ti  Ti165  1  0.70220329  0.50089799  0.07901527  1
  Ti  Ti166  1  0.79989245  0.80438892  0.20198139  1
  Ti  Ti167  1  0.89974364  0.70765030  0.10446965  1
  Ti  Ti168  1  0.50319173  0.90210666  0.10132238  1
  Ti  Ti169  1  0.09683724  0.29051948  0.89993460  1
  Ti  Ti170  1  0.10244285  0.50021501  0.10209367  1
  Ti  Ti171  1  0.29461593  0.30225633  0.30132104  1
  Ti  Ti172  1  0.59913412  -0.00964786  0.40065995  1
  Ti  Ti173  1  0.50016709  0.50683532  0.30229122  1
  Ti  Ti174  1  0.20058166  -0.00812467  0.79778472  1
  Ti  Ti175  1  0.21189668  0.81680191  0.59958791  1
  Ti  Ti176  1  0.10259270  0.89555635  0.49943584  1
  Ti  Ti177  1  0.69406901  0.30692382  0.70548272  1
  Ti  Ti178  1  0.19100711  0.18918652  0.21422139  1
  Ti  Ti179  1  0.60617966  0.19652055  0.80626901  1
  Ti  Ti180  1  0.00329900  -0.01559073  0.60357705  1
  Ti  Ti181  1  0.19599327  0.20433901  0.59958845  1
  Ti  Ti182  1  0.79825706  -0.01287548  0.59726960  1
  Ti  Ti183  1  -0.00443252  0.41173042  0.59754995  1
  Ti  Ti184  1  0.50016800  0.29979061  0.09433316  1
  Ti  Ti185  1  0.39812105  0.20143305  0.59727070  1
  Ti  Ti186  1  0.40521485  0.79856383  0.19881204  1
  Ti  Ti187  1  0.60079806  0.60179928  0.60027167  1
  Ti  Ti188  1  -0.00466210  0.81015620  0.59603178  1
  Ti  Ti189  1  0.60967566  0.39595536  -0.00123979  1
  Ti  Ti190  1  0.39071270  0.19318426  0.80825239  1
  Ti  Ti191  1  0.91008361  0.90000120  0.10827294  1
  Ti  Ti192  1  0.80258620  0.80591301  0.39844822  1
  Ti  Ti193  1  0.90415560  0.70698763  0.30363659  1
  Ti  Ti194  1  0.70103096  0.89524870  0.70831616  1
  Ti  Ti195  1  0.61227563  0.01627875  0.81426962  1
  Ti  Ti196  1  0.81089492  0.19305741  0.19798399  1
  Ti  Ti197  1  0.89124806  0.51010623  0.89869545  1
  Ti  Ti198  1  0.20458789  0.80822400  0.78515163  1
  Ti  Ti199  1  0.50304298  0.69638866  0.49778933  1
  Mo  Mo200  1  0.39665950  -0.00357258  0.00389117  1
  Mo  Mo201  1  0.89947473  0.89351635  0.50438511  1
  Mo  Mo202  1  0.20225414  0.60774091  0.19921474  1
  Mo  Mo203  1  0.40096519  0.39192952  0.79887785  1
  Mo  Mo204  1  0.18957391  0.20263863  0.80352522  1
  Mo  Mo205  1  0.19979248  -0.00319634  0.20623756  1
  Mo  Mo206  1  0.69819729  0.50056883  0.90775251  1
  Mo  Mo207  1  0.00233863  0.80288932  0.40220983  1
  Mo  Mo208  1  0.60232161  0.39466346  0.80238863  1
  Mo  Mo209  1  0.79965062  0.40765027  0.39598336  1
  Mo  Mo210  1  0.60432010  -0.00203054  0.19989842  1
  Mo  Mo211  1  0.38305393  0.00488169  0.80686792  1
  Mo  Mo212  1  0.90099250  0.50346630  0.50155879  1
  Mo  Mo213  1  0.49445843  0.30291728  0.29797767  1
  Mo  Mo214  1  0.70701215  0.90073012  0.10195078  1
  Mo  Mo215  1  0.19752863  -0.01033727  0.59459381  1
  Mo  Mo216  1  0.49932713  0.68804686  0.68002204  1
  Mo  Mo217  1  0.71008215  0.09694862  0.90426873  1
  Mo  Mo218  1  0.79978187  0.40850600  0.59137028  1
  Mo  Mo219  1  0.29316745  0.09492555  0.89565221  1
  Mo  Mo220  1  0.29978663  0.70523378  0.69090020  1
  Mo  Mo221  1  0.29470635  0.09540123  0.30693658  1
  Mo  Mo222  1  0.89816862  0.70684259  0.89633808  1
  Mo  Mo223  1  0.40110222  0.59998761  0.59366733  1
  Mo  Mo224  1  0.59821996  0.79789717  0.40813954  1
  Mo  Mo225  1  0.29715382  0.89731732  0.49634546  1
  Mo  Mo226  1  0.50029564  0.09478416  0.09707215  1
  Mo  Mo227  1  0.79472502  0.39850732  -0.00057838  1
  Mo  Mo228  1  0.80525316  0.60542384  0.80129785  1
  Mo  Mo229  1  0.10371573  0.90082407  0.69178585  1
  Mo  Mo230  1  -0.00475897  -0.00416664  0.19927073  1
  Mo  Mo231  1  0.59759198  0.60082170  0.40478551  1
  Mo  Mo232  1  0.89620740  0.10108924  0.10414480  1
  Mo  Mo233  1  0.20199123  0.80936416  0.00718428  1
  Mo  Mo234  1  0.59827706  0.79984494  0.00917366  1
  Mo  Mo235  1  0.70876103  0.89608959  0.30249173  1
  Mo  Mo236  1  0.80415866  0.60656072  0.40087853  1
  Mo  Mo237  1  0.51009196  0.70392261  0.91466495  1
  Mo  Mo238  1  0.20657026  0.39938343  0.40391347  1
  Mo  Mo239  1  0.00124258  0.20071201  -0.00257734  1
  Mo  Mo240  1  0.60484801  0.59767306  -0.00116711  1
  Mo  Mo241  1  0.50386383  0.09597458  0.30735430  1
  Mo  Mo242  1  -0.00728567  0.40527057  0.39636347  1
  Mo  Mo243  1  0.50032182  0.89218409  0.49634064  1
  Mo  Mo244  1  0.70400170  0.29962205  0.09229460  1
  Mo  Mo245  1  0.29520460  0.90145515  0.70108647  1
  Mo  Mo246  1  0.70459546  0.50164702  0.31126688  1
  Mo  Mo247  1  0.09218240  0.09420860  0.30436618  1
  Mo  Mo248  1  -0.00383186  0.79704371  0.19458870  1
  Mo  Mo249  1  0.90384890  0.29327201  0.90393956  1
