# generated using pymatgen
data_HfZrTaTiMo
_symmetry_space_group_name_H-M   'P 1'
_cell_length_a   16.89410603
_cell_length_b   16.88854871
_cell_length_c   16.89009296
_cell_angle_alpha   90.03516964
_cell_angle_beta   90.06410397
_cell_angle_gamma   89.99504395
_symmetry_Int_Tables_number   1
_chemical_formula_structural   HfZrTaTiMo
_chemical_formula_sum   'Hf50 Zr50 Ta50 Ti50 Mo50'
_cell_volume   4819.02557160
_cell_formula_units_Z   50
loop_
 _symmetry_equiv_pos_site_id
 _symmetry_equiv_pos_as_xyz
  1  'x, y, z'
loop_
 _atom_site_type_symbol
 _atom_site_label
 _atom_site_symmetry_multiplicity
 _atom_site_fract_x
 _atom_site_fract_y
 _atom_site_fract_z
 _atom_site_occupancy
  Hf  Hf0  1  0.70039971  0.50387364  0.50112542  1
  Hf  Hf1  1  0.80371594  0.39568957  0.00082687  1
  Hf  Hf2  1  0.49795327  0.29603487  0.69590334  1
  Hf  Hf3  1  0.39727766  0.39249789  -0.00158819  1
  Hf  Hf4  1  0.09401434  0.69844204  0.30356349  1
  Hf  Hf5  1  0.41879412  0.80281578  0.81932592  1
  Hf  Hf6  1  0.79845944  0.00244352  0.00179920  1
  Hf  Hf7  1  0.80818751  0.20687058  -0.00207300  1
  Hf  Hf8  1  0.50722772  0.68818280  0.50320396  1
  Hf  Hf9  1  0.71259113  0.10521692  0.49484842  1
  Hf  Hf10  1  0.09254009  0.10099222  0.10005234  1
  Hf  Hf11  1  0.40592173  0.00524593  0.80526093  1
  Hf  Hf12  1  0.10043286  0.90674027  0.90121302  1
  Hf  Hf13  1  -0.01101456  0.00995276  -0.00561047  1
  Hf  Hf14  1  0.09063291  0.31127341  0.30060283  1
  Hf  Hf15  1  0.51150090  0.10779429  0.69894278  1
  Hf  Hf16  1  0.29499416  0.29460829  0.69012858  1
  Hf  Hf17  1  0.19590436  0.20816875  0.19574334  1
  Hf  Hf18  1  0.09143828  0.89805643  0.49720755  1
  Hf  Hf19  1  0.28273051  0.29464431  0.90069529  1
  Hf  Hf20  1  0.09843631  0.29659576  0.69821024  1
  Hf  Hf21  1  0.19855456  0.79938784  0.01034749  1
  Hf  Hf22  1  0.59807805  0.80018480  0.39358684  1
  Hf  Hf23  1  0.40299489  0.79419422  0.39393490  1
  Hf  Hf24  1  -0.00825426  0.39805167  0.79726270  1
  Hf  Hf25  1  0.40194983  0.58677721  0.80751732  1
  Hf  Hf26  1  0.89221561  0.89591644  0.10397989  1
  Hf  Hf27  1  0.30188872  0.10932686  0.50330374  1
  Hf  Hf28  1  0.39681128  -0.00045597  0.39418493  1
  Hf  Hf29  1  0.70153867  0.10298556  0.89317436  1
  Hf  Hf30  1  0.09801883  0.70554888  0.49651312  1
  Hf  Hf31  1  0.91010000  0.49686098  0.10688589  1
  Hf  Hf32  1  0.80850161  0.60355519  0.40177587  1
  Hf  Hf33  1  0.89610620  0.11000606  0.69234173  1
  Hf  Hf34  1  0.69979271  0.69628319  0.49615651  1
  Hf  Hf35  1  0.19425358  0.00208153  0.40050857  1
  Hf  Hf36  1  0.29093102  0.31124167  0.30054748  1
  Hf  Hf37  1  0.50792224  0.69667176  0.70179260  1
  Hf  Hf38  1  0.59551407  0.59865789  0.00382565  1
  Hf  Hf39  1  0.29539488  0.09847685  0.08814222  1
  Hf  Hf40  1  -0.00890310  0.79074546  -0.00456986  1
  Hf  Hf41  1  0.70316289  0.70216625  0.89528816  1
  Hf  Hf42  1  -0.00829174  0.00582535  0.79722832  1
  Hf  Hf43  1  0.40103310  0.00174425  0.60563731  1
  Hf  Hf44  1  0.09278311  0.69148399  0.10194015  1
  Hf  Hf45  1  -0.00781141  0.59965039  0.60310123  1
  Hf  Hf46  1  0.48698831  0.29350186  0.50560379  1
  Hf  Hf47  1  0.30145159  0.09930104  0.29289651  1
  Hf  Hf48  1  0.60531260  0.00012190  0.00695195  1
  Hf  Hf49  1  0.50427982  0.50211955  0.49970283  1
  Zr  Zr50  1  0.08578383  0.09896557  0.30176941  1
  Zr  Zr51  1  0.70916421  0.50014350  0.70793556  1
  Zr  Zr52  1  0.31160407  0.91220832  0.10554564  1
  Zr  Zr53  1  0.80966262  0.60086201  -0.00415124  1
  Zr  Zr54  1  0.39959473  0.40451228  0.80242692  1
  Zr  Zr55  1  0.29597935  0.49215679  0.11038534  1
  Zr  Zr56  1  0.60906881  0.81154746  0.59340241  1
  Zr  Zr57  1  0.89105995  0.10099874  0.30215490  1
  Zr  Zr58  1  0.10043200  0.49170239  0.49280887  1
  Zr  Zr59  1  0.89671879  0.09974881  0.49857550  1
  Zr  Zr60  1  0.88921673  0.89108379  0.89966786  1
  Zr  Zr61  1  0.29970838  0.89887693  0.50728498  1
  Zr  Zr62  1  0.28926261  0.10131547  0.90605309  1
  Zr  Zr63  1  0.29733317  0.91291030  0.91099715  1
  Zr  Zr64  1  0.49756958  0.91198859  0.29193793  1
  Zr  Zr65  1  0.90370171  0.48273828  0.50151039  1
  Zr  Zr66  1  -0.00521628  0.39837142  -0.00714158  1
  Zr  Zr67  1  0.20415439  0.80049811  0.80058248  1
  Zr  Zr68  1  0.61173491  -0.00231457  0.59358992  1
  Zr  Zr69  1  0.59598114  0.79882454  0.19446638  1
  Zr  Zr70  1  0.39719955  0.20844070  0.18904231  1
  Zr  Zr71  1  0.41009100  0.79325510  0.00963746  1
  Zr  Zr72  1  0.51344790  0.90157468  0.71280899  1
  Zr  Zr73  1  0.20250142  0.80244459  0.20136690  1
  Zr  Zr74  1  0.80383306  0.60139781  0.20410241  1
  Zr  Zr75  1  -0.00540830  0.20836890  -0.00971265  1
  Zr  Zr76  1  0.09531630  0.69187620  0.89478257  1
  Zr  Zr77  1  0.70656189  0.11057900  0.10830093  1
  Zr  Zr78  1  0.40239734  0.20344843  0.80837162  1
  Zr  Zr79  1  0.60596762  0.20122689  0.39554682  1
  Zr  Zr80  1  0.20765668  0.59137029  0.60294511  1
  Zr  Zr81  1  0.79906640  -0.01665900  0.59855776  1
  Zr  Zr82  1  0.21115076  0.80506580  0.39092723  1
  Zr  Zr83  1  -0.00275343  0.20792204  0.40847686  1
  Zr  Zr84  1  0.19327556  -0.01039541  0.20500285  1
  Zr  Zr85  1  0.60084011  0.39497195  0.40030202  1
  Zr  Zr86  1  0.58783909  0.80355448  -0.00387892  1
  Zr  Zr87  1  0.09882060  0.69417776  0.70169273  1
  Zr  Zr88  1  0.60754417  0.39221573  0.60362858  1
  Zr  Zr89  1  0.60765596  0.39740966  0.19602889  1
  Zr  Zr90  1  0.50244786  0.10518982  0.50009646  1
  Zr  Zr91  1  0.70642355  0.70713245  0.09685164  1
  Zr  Zr92  1  0.69616484  0.69618387  0.69945336  1
  Zr  Zr93  1  0.20178145  0.40572623  0.79663779  1
  Zr  Zr94  1  0.31115884  0.70297473  0.69863434  1
  Zr  Zr95  1  0.91021348  0.48613521  0.30625709  1
  Zr  Zr96  1  0.30148007  0.68173013  0.29021442  1
  Zr  Zr97  1  0.09517983  0.50325537  0.89786455  1
  Zr  Zr98  1  0.30074180  0.69527241  0.90657806  1
  Zr  Zr99  1  0.09999052  0.89820955  0.69781513  1
  Ta  Ta100  1  0.49532602  0.49886610  0.29676522  1
  Ta  Ta101  1  0.70335566  0.49613034  0.89691449  1
  Ta  Ta102  1  0.90126968  0.10640354  0.11488800  1
  Ta  Ta103  1  0.60436094  0.21172269  0.00125289  1
  Ta  Ta104  1  0.80251437  0.79524307  0.79180943  1
  Ta  Ta105  1  0.80459860  0.79735909  0.59425630  1
  Ta  Ta106  1  0.40109845  0.59456744  0.39759094  1
  Ta  Ta107  1  0.40617349  0.80283504  0.59781114  1
  Ta  Ta108  1  0.59573066  0.59264876  0.80895803  1
  Ta  Ta109  1  -0.01439362  0.79737619  0.59846843  1
  Ta  Ta110  1  0.70989223  0.30000932  0.30349194  1
  Ta  Ta111  1  0.51196148  0.10714583  0.90302592  1
  Ta  Ta112  1  0.60938255  0.00715772  0.20180341  1
  Ta  Ta113  1  0.59588159  0.59962241  0.20149453  1
  Ta  Ta114  1  0.90576438  0.29837780  0.12071115  1
  Ta  Ta115  1  0.50292553  0.10653551  0.29326864  1
  Ta  Ta116  1  0.39262849  0.40534764  0.59999091  1
  Ta  Ta117  1  0.10461599  0.10556602  0.89257681  1
  Ta  Ta118  1  0.60513721  0.20969677  0.80270886  1
  Ta  Ta119  1  0.79853128  0.39757635  0.20213582  1
  Ta  Ta120  1  0.29836865  0.49182712  0.49334594  1
  Ta  Ta121  1  -0.01260294  0.78948521  0.79370328  1
  Ta  Ta122  1  0.19389549  0.20353492  0.40647822  1
  Ta  Ta123  1  0.50483131  0.30226384  0.09892195  1
  Ta  Ta124  1  0.49682466  0.30097617  0.29610937  1
  Ta  Ta125  1  0.89890852  0.30078492  0.69155101  1
  Ta  Ta126  1  0.69744835  0.69602966  0.30286212  1
  Ta  Ta127  1  0.20166478  0.58999744  0.00296415  1
  Ta  Ta128  1  0.29612103  0.49401337  0.30251432  1
  Ta  Ta129  1  0.30330243  0.90155748  0.70155988  1
  Ta  Ta130  1  0.10313102  0.49494446  0.30063177  1
  Ta  Ta131  1  0.21247627  0.58631465  0.79897566  1
  Ta  Ta132  1  0.09648099  0.10534270  0.69803995  1
  Ta  Ta133  1  0.40210590  0.59155973  0.00296237  1
  Ta  Ta134  1  0.69994517  0.50124143  0.30588850  1
  Ta  Ta135  1  0.19479043  0.00697548  0.60259994  1
  Ta  Ta136  1  0.09365695  0.31269061  0.10720304  1
  Ta  Ta137  1  0.40696506  0.78768377  0.20099273  1
  Ta  Ta138  1  0.00011721  -0.00032298  0.59534184  1
  Ta  Ta139  1  0.39447520  0.20616702  0.39377276  1
  Ta  Ta140  1  0.70539809  0.10725622  0.70123911  1
  Ta  Ta141  1  0.07544577  0.89513660  0.30793260  1
  Ta  Ta142  1  0.18990957  0.19738549  0.59155580  1
  Ta  Ta143  1  0.70423511  0.30597074  0.89630938  1
  Ta  Ta144  1  0.59813128  0.39759734  0.80517521  1
  Ta  Ta145  1  0.49828904  0.49529007  0.10482108  1
  Ta  Ta146  1  0.80062373  0.00069531  0.79696341  1
  Ta  Ta147  1  0.79720986  0.80290148  0.20681672  1
  Ta  Ta148  1  0.80969188  0.60337888  0.60363934  1
  Ta  Ta149  1  0.69688705  0.89603649  0.89399703  1
  Ti  Ti150  1  0.20019825  0.00576770  0.79088313  1
  Ti  Ti151  1  0.72412434  0.30081216  0.49550897  1
  Ti  Ti152  1  0.39909292  0.39972542  0.39985198  1
  Ti  Ti153  1  0.40688585  0.20752090  -0.00017686  1
  Ti  Ti154  1  0.41790559  0.00714469  -0.00218742  1
  Ti  Ti155  1  -0.00592631  0.79900316  0.20159979  1
  Ti  Ti156  1  0.08914284  0.90232932  0.09926937  1
  Ti  Ti157  1  0.69899038  0.89942147  0.71537650  1
  Ti  Ti158  1  0.70197711  0.89696905  0.30000447  1
  Ti  Ti159  1  0.50415731  0.10756809  0.10305582  1
  Ti  Ti160  1  0.79370748  -0.00680438  0.39361858  1
  Ti  Ti161  1  0.71130988  0.29937613  0.70692296  1
  Ti  Ti162  1  0.09469867  0.49328478  0.69354053  1
  Ti  Ti163  1  0.30327034  0.68714446  0.10502829  1
  Ti  Ti164  1  0.49875242  0.91240795  0.10745244  1
  Ti  Ti165  1  0.18977035  0.58877557  0.19555432  1
  Ti  Ti166  1  0.00123829  0.20283612  0.59133213  1
  Ti  Ti167  1  0.90062341  0.71330573  0.30930290  1
  Ti  Ti168  1  0.20555782  0.79923698  0.60112818  1
  Ti  Ti169  1  -0.00656305  0.59875595  -0.00567818  1
  Ti  Ti170  1  0.50617575  0.50141935  0.69306879  1
  Ti  Ti171  1  0.00009876  0.59789342  0.20560136  1
  Ti  Ti172  1  0.29444914  0.10806273  0.69871701  1
  Ti  Ti173  1  0.39904630  0.39500526  0.19692550  1
  Ti  Ti174  1  0.50694549  0.49031286  0.90903131  1
  Ti  Ti175  1  0.89784798  0.70277558  0.10277387  1
  Ti  Ti176  1  0.80617632  0.39825241  0.60534314  1
  Ti  Ti177  1  0.70175910  0.50083039  0.10021663  1
  Ti  Ti178  1  -0.00919875  -0.00430981  0.20309136  1
  Ti  Ti179  1  0.60886566  0.00321793  0.39258417  1
  Ti  Ti180  1  0.29219060  0.30525146  0.49955640  1
  Ti  Ti181  1  -0.00420724  0.60355344  0.40349981  1
  Ti  Ti182  1  0.30552050  0.69555287  0.50097142  1
  Ti  Ti183  1  0.89099434  0.50637757  0.88076926  1
  Ti  Ti184  1  0.60702995  0.39451283  0.00275358  1
  Ti  Ti185  1  0.60670731  0.20595856  0.20093064  1
  Ti  Ti186  1  0.80742672  0.20540876  0.80275208  1
  Ti  Ti187  1  0.19195899  0.40024717  0.00465920  1
  Ti  Ti188  1  0.89985327  0.89305740  0.48474376  1
  Ti  Ti189  1  0.89922829  0.89632144  0.69873684  1
  Ti  Ti190  1  0.79140325  -0.00448582  0.20407654  1
  Ti  Ti191  1  0.50268291  0.90380423  0.49569253  1
  Ti  Ti192  1  -0.00320955  0.20341548  0.80614826  1
  Ti  Ti193  1  0.39800013  0.59293845  0.59961962  1
  Ti  Ti194  1  0.18518257  0.21169822  0.00308612  1
  Ti  Ti195  1  0.09988201  0.31333875  0.50442641  1
  Ti  Ti196  1  0.20472169  0.59693661  0.40073422  1
  Ti  Ti197  1  0.89874107  0.89675148  0.30644597  1
  Ti  Ti198  1  0.61875387  0.20727347  0.59948176  1
  Ti  Ti199  1  0.79944822  0.20755431  0.20852103  1
  Mo  Mo200  1  0.70833295  0.89679867  0.47899794  1
  Mo  Mo201  1  0.89680212  0.69305241  0.88852391  1
  Mo  Mo202  1  0.38687348  0.20421255  0.59581664  1
  Mo  Mo203  1  0.20092517  0.39904157  0.40075645  1
  Mo  Mo204  1  0.31450311  0.89989963  0.29086393  1
  Mo  Mo205  1  0.80061459  0.39674997  0.39746238  1
  Mo  Mo206  1  0.79863402  0.80153290  0.00130482  1
  Mo  Mo207  1  0.00168497  0.39487692  0.40224456  1
  Mo  Mo208  1  0.80304247  0.20856720  0.39805280  1
  Mo  Mo209  1  0.89464499  0.30136267  0.88391614  1
  Mo  Mo210  1  0.60146193  0.59250922  0.60913448  1
  Mo  Mo211  1  0.29251978  0.30031115  0.09319994  1
  Mo  Mo212  1  0.79743134  0.80083857  0.39505586  1
  Mo  Mo213  1  0.60919059  0.00996853  0.80381130  1
  Mo  Mo214  1  0.41334271  0.01479676  0.19135318  1
  Mo  Mo215  1  0.80122253  0.59970876  0.79831729  1
  Mo  Mo216  1  0.89909968  0.30079593  0.50557685  1
  Mo  Mo217  1  0.50961028  0.92100654  0.90590131  1
  Mo  Mo218  1  -0.01141638  0.59466331  0.79094948  1
  Mo  Mo219  1  0.09911658  0.09746559  0.50553239  1
  Mo  Mo220  1  0.50306420  0.68100631  0.90234505  1
  Mo  Mo221  1  -0.00936782  -0.00746823  0.40287971  1
  Mo  Mo222  1  0.00023414  0.39346829  0.60321001  1
  Mo  Mo223  1  0.19351035  0.40475426  0.19790147  1
  Mo  Mo224  1  0.70022164  0.10089105  0.29907353  1
  Mo  Mo225  1  -0.00968615  0.79595665  0.40262931  1
  Mo  Mo226  1  0.19975802  0.39564492  0.59540756  1
  Mo  Mo227  1  0.89586376  0.10396337  0.88668911  1
  Mo  Mo228  1  0.60559615  0.79912848  0.80710998  1
  Mo  Mo229  1  0.19185809  0.19529326  0.79309853  1
  Mo  Mo230  1  0.79800377  0.21114579  0.60137373  1
  Mo  Mo231  1  0.49279265  0.68417708  0.10570431  1
  Mo  Mo232  1  0.89906927  0.49892633  0.69909009  1
  Mo  Mo233  1  -0.00287146  0.20425589  0.20126166  1
  Mo  Mo234  1  0.17931542  0.00346382  0.00428344  1
  Mo  Mo235  1  0.09759859  0.29618897  0.89981755  1
  Mo  Mo236  1  0.40552667  0.59158973  0.19987348  1
  Mo  Mo237  1  0.89465616  0.69924835  0.69750047  1
  Mo  Mo238  1  0.30632999  0.49829449  0.68869172  1
  Mo  Mo239  1  0.89423381  0.30104165  0.30505644  1
  Mo  Mo240  1  -0.00004017  0.40279575  0.20195566  1
  Mo  Mo241  1  0.79919844  0.39614871  0.79932847  1
  Mo  Mo242  1  0.89879485  0.70331793  0.50001951  1
  Mo  Mo243  1  0.59753270  0.59772872  0.38849473  1
  Mo  Mo244  1  0.70483495  0.30145873  0.10344027  1
  Mo  Mo245  1  0.09666344  0.50317958  0.10198347  1
  Mo  Mo246  1  0.50234453  0.68673727  0.30031435  1
  Mo  Mo247  1  0.29515462  0.49760292  0.91184375  1
  Mo  Mo248  1  0.70472333  0.90204085  0.10739736  1
  Mo  Mo249  1  0.51302104  0.30170205  0.90723648  1
