# generated using pymatgen
data_HfZrTaTiMo
_symmetry_space_group_name_H-M   'P 1'
_cell_length_a   16.89437862
_cell_length_b   16.89000031
_cell_length_c   16.89591176
_cell_angle_alpha   90.03093107
_cell_angle_beta   90.00581127
_cell_angle_gamma   89.89523886
_symmetry_Int_Tables_number   1
_chemical_formula_structural   HfZrTaTiMo
_chemical_formula_sum   'Hf50 Zr50 Ta50 Ti50 Mo50'
_cell_volume   4821.17306724
_cell_formula_units_Z   50
loop_
 _symmetry_equiv_pos_site_id
 _symmetry_equiv_pos_as_xyz
  1  'x, y, z'
loop_
 _atom_site_type_symbol
 _atom_site_label
 _atom_site_symmetry_multiplicity
 _atom_site_fract_x
 _atom_site_fract_y
 _atom_site_fract_z
 _atom_site_occupancy
  Hf  Hf0  1  -0.00218149  0.20702088  0.79970727  1
  Hf  Hf1  1  0.50029106  0.49590962  0.09798156  1
  Hf  Hf2  1  0.39169454  0.60243131  -0.00706029  1
  Hf  Hf3  1  0.50776713  0.09120875  0.10719556  1
  Hf  Hf4  1  0.29738029  0.08905939  0.10398510  1
  Hf  Hf5  1  0.71081592  0.49973054  0.49979504  1
  Hf  Hf6  1  0.69929563  0.30711078  0.29314800  1
  Hf  Hf7  1  0.70393160  0.90368218  0.90104592  1
  Hf  Hf8  1  0.19220678  0.00532355  0.40171599  1
  Hf  Hf9  1  -0.00175095  0.20217019  0.59883573  1
  Hf  Hf10  1  0.49647116  0.30617316  0.29359802  1
  Hf  Hf11  1  0.60202580  0.79453863  0.39809802  1
  Hf  Hf12  1  0.50559929  0.10396020  0.69939621  1
  Hf  Hf13  1  0.80065437  0.19563804  0.39394402  1
  Hf  Hf14  1  0.60586935  0.59800910  0.20349602  1
  Hf  Hf15  1  0.30955220  0.68425748  0.70220187  1
  Hf  Hf16  1  0.60637271  0.79002114  0.60487918  1
  Hf  Hf17  1  0.20051515  0.19676704  -0.00110944  1
  Hf  Hf18  1  0.90899187  0.90418377  0.30206985  1
  Hf  Hf19  1  0.49071007  0.70726523  0.09992621  1
  Hf  Hf20  1  0.19700948  0.40791049  -0.01667375  1
  Hf  Hf21  1  0.29881385  0.50523791  0.51299689  1
  Hf  Hf22  1  0.40468944  0.78498094  0.59288789  1
  Hf  Hf23  1  0.90387726  0.69211647  0.10545136  1
  Hf  Hf24  1  0.19141118  0.60307534  -0.01601678  1
  Hf  Hf25  1  0.88895965  0.49568819  0.89345630  1
  Hf  Hf26  1  0.49932688  0.10201117  0.29560528  1
  Hf  Hf27  1  0.50021322  0.50861568  0.69976096  1
  Hf  Hf28  1  0.29417371  0.50169768  0.09815439  1
  Hf  Hf29  1  0.18305053  0.41205282  0.21330932  1
  Hf  Hf30  1  0.59861884  -0.00163354  0.39253744  1
  Hf  Hf31  1  -0.00251286  0.41288645  0.40145571  1
  Hf  Hf32  1  0.19754148  0.40497780  0.40925249  1
  Hf  Hf33  1  -0.00621196  0.59663064  0.60643899  1
  Hf  Hf34  1  0.09534381  0.70974771  0.70662832  1
  Hf  Hf35  1  0.00424758  0.56568452  0.22377757  1
  Hf  Hf36  1  0.20744631  0.79894148  0.59531253  1
  Hf  Hf37  1  0.79901235  0.19287290  0.18501023  1
  Hf  Hf38  1  0.50317949  0.89939170  0.71024409  1
  Hf  Hf39  1  0.80319726  0.00682745  0.40172785  1
  Hf  Hf40  1  0.40239804  0.39924355  0.79022287  1
  Hf  Hf41  1  0.69652473  0.10365869  0.51282233  1
  Hf  Hf42  1  0.30484401  0.29229857  0.88872116  1
  Hf  Hf43  1  0.30338793  0.10023879  0.49412545  1
  Hf  Hf44  1  0.09238621  0.68849213  0.10145079  1
  Hf  Hf45  1  0.29699368  0.89613364  0.70593609  1
  Hf  Hf46  1  0.79471922  0.60619961  -0.00349677  1
  Hf  Hf47  1  0.89790155  0.09822665  0.69832475  1
  Hf  Hf48  1  0.40790815  -0.01078604  -0.00768716  1
  Hf  Hf49  1  0.59683771  0.40738487  0.39807502  1
  Zr  Zr50  1  0.10556914  0.90449618  0.09767114  1
  Zr  Zr51  1  0.60975586  0.20358550  0.80286035  1
  Zr  Zr52  1  0.59484341  0.81226182  -0.00192986  1
  Zr  Zr53  1  0.00542162  0.79722894  -0.00354918  1
  Zr  Zr54  1  -0.00025335  0.20133393  -0.00357187  1
  Zr  Zr55  1  0.89694410  0.10049776  0.90684901  1
  Zr  Zr56  1  0.09606309  0.29942830  0.49962790  1
  Zr  Zr57  1  0.20001264  0.59972139  0.21027787  1
  Zr  Zr58  1  0.39490118  0.20537676  0.19740525  1
  Zr  Zr59  1  0.80107058  0.79707429  0.79269409  1
  Zr  Zr60  1  0.49715051  0.69552542  0.89220592  1
  Zr  Zr61  1  0.79880165  0.00794524  0.01160214  1
  Zr  Zr62  1  0.50454825  0.90375129  0.50175948  1
  Zr  Zr63  1  0.88681951  0.50013546  0.70717158  1
  Zr  Zr64  1  0.69869753  0.30205646  0.50659301  1
  Zr  Zr65  1  0.89142216  0.30768219  0.08528827  1
  Zr  Zr66  1  0.30714356  0.10403862  0.70955868  1
  Zr  Zr67  1  0.60377993  0.60234106  0.39425909  1
  Zr  Zr68  1  0.49917079  0.10280746  0.89405721  1
  Zr  Zr69  1  0.40682781  0.21261918  0.59277795  1
  Zr  Zr70  1  0.20011777  0.59253968  0.80081862  1
  Zr  Zr71  1  0.09687689  0.70076067  0.30934543  1
  Zr  Zr72  1  -0.00292460  0.19526247  0.19811367  1
  Zr  Zr73  1  0.29144717  0.30739794  0.10530274  1
  Zr  Zr74  1  0.70842435  0.90098503  0.51077424  1
  Zr  Zr75  1  0.70536277  0.90116251  0.29280967  1
  Zr  Zr76  1  0.61401401  0.78547901  0.79743922  1
  Zr  Zr77  1  0.89569200  0.69772567  0.29597507  1
  Zr  Zr78  1  0.90543032  0.70043489  0.89597101  1
  Zr  Zr79  1  0.80353792  0.79313672  0.40443988  1
  Zr  Zr80  1  0.09303054  0.31208077  0.10297592  1
  Zr  Zr81  1  0.09725078  0.90050642  0.30543859  1
  Zr  Zr82  1  0.10321197  0.69748781  0.50365739  1
  Zr  Zr83  1  0.80850857  0.01049244  0.19611835  1
  Zr  Zr84  1  0.10550744  0.09761531  0.70185056  1
  Zr  Zr85  1  0.39529913  0.60782042  0.40665906  1
  Zr  Zr86  1  0.59628540  0.20363926  0.40089767  1
  Zr  Zr87  1  0.30260318  0.89507330  0.10260171  1
  Zr  Zr88  1  0.60576645  0.60786029  -0.00654444  1
  Zr  Zr89  1  0.19919163  0.19534721  0.59245568  1
  Zr  Zr90  1  -0.01528507  0.59675694  0.41751872  1
  Zr  Zr91  1  0.39623364  0.79972647  0.40210459  1
  Zr  Zr92  1  0.39689642  -0.00491239  0.59886284  1
  Zr  Zr93  1  0.49118664  0.70650749  0.29157920  1
  Zr  Zr94  1  0.50559990  0.30373625  0.90196465  1
  Zr  Zr95  1  0.40205401  0.19899969  0.00444278  1
  Zr  Zr96  1  0.00160762  -0.00195221  0.79985133  1
  Zr  Zr97  1  0.69664817  0.48398713  0.08932038  1
  Zr  Zr98  1  0.79889552  0.40313729  0.20127121  1
  Zr  Zr99  1  0.90577789  0.49981159  0.09368303  1
  Ta  Ta100  1  0.70223425  0.71084775  0.10605366  1
  Ta  Ta101  1  0.20294787  0.79464451  0.20374394  1
  Ta  Ta102  1  0.19225945  0.19532316  0.39331252  1
  Ta  Ta103  1  0.39085460  0.59994062  0.20359076  1
  Ta  Ta104  1  0.10019648  0.89514488  0.70117115  1
  Ta  Ta105  1  0.29311670  0.30343572  0.69735862  1
  Ta  Ta106  1  0.60438013  0.39982803  0.79496538  1
  Ta  Ta107  1  0.40026112  0.79688746  0.80607744  1
  Ta  Ta108  1  -0.00135588  0.40491945  0.59885465  1
  Ta  Ta109  1  0.50680174  0.49951832  0.89469507  1
  Ta  Ta110  1  0.70358302  0.10374535  0.69929463  1
  Ta  Ta111  1  0.80511744  0.20391467  0.60335816  1
  Ta  Ta112  1  0.30055500  0.89246082  0.90080464  1
  Ta  Ta113  1  0.20211279  0.79161291  -0.00525006  1
  Ta  Ta114  1  0.00499576  -0.00418519  0.59395478  1
  Ta  Ta115  1  0.10339620  0.09387154  0.90267331  1
  Ta  Ta116  1  0.90292764  0.30195645  0.30405312  1
  Ta  Ta117  1  0.90360820  0.90120921  0.89975336  1
  Ta  Ta118  1  0.40076232  -0.00042070  0.39377094  1
  Ta  Ta119  1  0.80076388  0.20535685  0.80177563  1
  Ta  Ta120  1  0.70744255  0.69241563  0.50174636  1
  Ta  Ta121  1  0.19392131  -0.00490256  0.59515510  1
  Ta  Ta122  1  0.39950697  0.39926943  0.40542727  1
  Ta  Ta123  1  0.71105040  0.30908446  0.90756794  1
  Ta  Ta124  1  0.30124033  0.70403138  0.09991012  1
  Ta  Ta125  1  0.60002409  0.80438046  0.20237885  1
  Ta  Ta126  1  0.40211323  0.40041200  0.00005520  1
  Ta  Ta127  1  0.80019609  0.80438972  0.00611008  1
  Ta  Ta128  1  0.79818358  0.00195619  0.79833638  1
  Ta  Ta129  1  0.60883401  0.20573165  0.00828580  1
  Ta  Ta130  1  0.39502310  0.40609868  0.20336473  1
  Ta  Ta131  1  0.89760348  0.30208643  0.49394717  1
  Ta  Ta132  1  0.29319852  0.30200755  0.30547550  1
  Ta  Ta133  1  0.39919834  0.40007901  0.59940049  1
  Ta  Ta134  1  0.10636357  0.30716940  0.70092866  1
  Ta  Ta135  1  0.10497644  0.30072265  0.88647890  1
  Ta  Ta136  1  0.19172309  0.19362939  0.20836275  1
  Ta  Ta137  1  0.09077539  0.29860097  0.30445756  1
  Ta  Ta138  1  0.29935415  0.89742905  0.29920818  1
  Ta  Ta139  1  -0.00629776  0.80159645  0.41478919  1
  Ta  Ta140  1  0.00588117  0.59896220  0.80226327  1
  Ta  Ta141  1  0.10202310  0.09077977  0.09597010  1
  Ta  Ta142  1  0.50255731  0.10428211  0.50075730  1
  Ta  Ta143  1  0.69839391  0.49909966  0.69716689  1
  Ta  Ta144  1  0.00023962  0.39907667  -0.02417793  1
  Ta  Ta145  1  0.10388802  0.89584570  0.89417883  1
  Ta  Ta146  1  0.49836191  0.50226224  0.50651509  1
  Ta  Ta147  1  0.69867080  0.49574526  0.88982780  1
  Ta  Ta148  1  0.90478197  0.89795943  0.69874546  1
  Ta  Ta149  1  0.70358686  0.30348446  0.69729038  1
  Ti  Ti150  1  0.78409290  0.61517555  0.79621499  1
  Ti  Ti151  1  0.08719965  0.49908402  0.08584771  1
  Ti  Ti152  1  0.59148481  0.39589628  0.59996791  1
  Ti  Ti153  1  0.80873461  0.60599304  0.59788795  1
  Ti  Ti154  1  0.49420919  0.49938367  0.29722911  1
  Ti  Ti155  1  0.80768913  0.00282027  0.60259641  1
  Ti  Ti156  1  0.89669940  0.30561658  0.70085589  1
  Ti  Ti157  1  0.20325151  0.79137052  0.80983141  1
  Ti  Ti158  1  0.70399252  0.10532050  0.90559468  1
  Ti  Ti159  1  0.19722170  0.59472236  0.60428790  1
  Ti  Ti160  1  0.70661056  0.90853958  0.69834642  1
  Ti  Ti161  1  0.40212597  -0.00929811  0.21031547  1
  Ti  Ti162  1  0.78808497  0.59790764  0.20802553  1
  Ti  Ti163  1  0.91895781  0.10006078  0.31016082  1
  Ti  Ti164  1  0.20790837  0.79233988  0.40117415  1
  Ti  Ti165  1  0.87241286  0.49581792  0.31920042  1
  Ti  Ti166  1  0.90192283  0.90161502  0.50631200  1
  Ti  Ti167  1  0.00061357  0.39953718  0.79513336  1
  Ti  Ti168  1  0.39864078  0.20723571  0.40161989  1
  Ti  Ti169  1  0.60168641  0.60354427  0.59780849  1
  Ti  Ti170  1  0.60100150  0.00083306  0.60516667  1
  Ti  Ti171  1  0.29694237  0.30316495  0.49901769  1
  Ti  Ti172  1  0.39779256  -0.00382704  0.80932710  1
  Ti  Ti173  1  0.10297371  0.49169530  0.69638575  1
  Ti  Ti174  1  0.80735570  0.78820779  0.60757960  1
  Ti  Ti175  1  0.69327840  0.90721699  0.10502741  1
  Ti  Ti176  1  0.50109594  0.68809438  0.70361677  1
  Ti  Ti177  1  0.29946563  0.50180827  0.30930589  1
  Ti  Ti178  1  0.20298485  0.40642327  0.79459031  1
  Ti  Ti179  1  -0.00877625  0.79834425  0.60111530  1
  Ti  Ti180  1  0.59873183  0.00111822  -0.00185018  1
  Ti  Ti181  1  0.90843820  0.10203131  0.49752464  1
  Ti  Ti182  1  0.49576697  0.89588610  0.11000785  1
  Ti  Ti183  1  0.31275890  0.50039934  0.88813393  1
  Ti  Ti184  1  0.00352666  0.00674161  0.19674034  1
  Ti  Ti185  1  0.80212449  0.80419140  0.19288012  1
  Ti  Ti186  1  0.00285570  0.80318775  0.19914360  1
  Ti  Ti187  1  0.91068538  0.90599816  0.09515149  1
  Ti  Ti188  1  0.68645849  0.09972849  0.28080709  1
  Ti  Ti189  1  0.19554087  0.00406568  0.21164155  1
  Ti  Ti190  1  0.20166734  0.19430355  0.80329097  1
  Ti  Ti191  1  0.60695247  0.00049460  0.80394734  1
  Ti  Ti192  1  0.50504599  0.29587957  0.69807450  1
  Ti  Ti193  1  0.09685668  0.89737578  0.50123385  1
  Ti  Ti194  1  0.29765521  0.90210454  0.49482058  1
  Ti  Ti195  1  0.30110612  0.10177081  0.30134258  1
  Ti  Ti196  1  0.60177954  0.21405170  0.18559208  1
  Ti  Ti197  1  0.20479946  -0.00219519  -0.01207090  1
  Ti  Ti198  1  0.20472708  -0.00098011  0.80567237  1
  Ti  Ti199  1  0.80787023  0.39822902  0.59845036  1
  Mo  Mo200  1  0.29282095  0.69226908  0.50229851  1
  Mo  Mo201  1  -0.00423062  0.39929947  0.21763683  1
  Mo  Mo202  1  0.11034850  0.50483795  0.32586116  1
  Mo  Mo203  1  0.39350605  0.80143689  0.19898384  1
  Mo  Mo204  1  0.50738332  0.31483032  0.10120197  1
  Mo  Mo205  1  0.40237627  0.59667598  0.79979092  1
  Mo  Mo206  1  0.59147732  0.40137113  0.19948782  1
  Mo  Mo207  1  0.89082752  0.49385584  0.50850506  1
  Mo  Mo208  1  -0.00261251  0.19778624  0.40108613  1
  Mo  Mo209  1  -0.00087377  0.00003571  0.41336779  1
  Mo  Mo210  1  0.50053905  0.90160227  0.89136188  1
  Mo  Mo211  1  0.68580942  0.10138222  0.09859913  1
  Mo  Mo212  1  0.59675718  -0.00925366  0.19670525  1
  Mo  Mo213  1  0.60285909  0.20365164  0.60470814  1
  Mo  Mo214  1  0.39769936  0.20456575  0.79120794  1
  Mo  Mo215  1  0.70047061  0.50108141  0.30224817  1
  Mo  Mo216  1  0.39573686  0.80147773  -0.00300201  1
  Mo  Mo217  1  0.79260493  0.20245714  -0.00246058  1
  Mo  Mo218  1  0.89556542  0.70299616  0.50958694  1
  Mo  Mo219  1  0.49620023  0.30823948  0.49940365  1
  Mo  Mo220  1  0.09333723  0.09519757  0.49519155  1
  Mo  Mo221  1  0.89776105  0.30315909  0.88971880  1
  Mo  Mo222  1  0.79880201  0.39352234  0.40310672  1
  Mo  Mo223  1  0.20310679  0.60069878  0.40857047  1
  Mo  Mo224  1  0.29513385  0.70462465  0.29856567  1
  Mo  Mo225  1  0.69751472  0.29921475  0.09398837  1
  Mo  Mo226  1  0.10198822  0.50064919  0.51614617  1
  Mo  Mo227  1  0.60861858  0.59392742  0.79548999  1
  Mo  Mo228  1  0.59867948  0.39842036  -0.00789522  1
  Mo  Mo229  1  0.79340497  0.39273830  0.79269158  1
  Mo  Mo230  1  0.10022936  0.70166344  0.89601028  1
  Mo  Mo231  1  0.70417526  0.70403097  0.91000975  1
  Mo  Mo232  1  0.91602575  0.09671295  0.09764061  1
  Mo  Mo233  1  0.70514419  0.68400076  0.68659966  1
  Mo  Mo234  1  0.00198988  0.59234598  -0.01331547  1
  Mo  Mo235  1  0.70494798  0.70258911  0.28997694  1
  Mo  Mo236  1  0.51145050  0.69149082  0.50576666  1
  Mo  Mo237  1  0.30088751  0.49455870  0.69701362  1
  Mo  Mo238  1  0.19990160  0.40033243  0.60558575  1
  Mo  Mo239  1  0.00220718  0.80422351  0.79671597  1
  Mo  Mo240  1  0.09763881  0.10103492  0.29875806  1
  Mo  Mo241  1  0.30091557  0.70484415  0.89837877  1
  Mo  Mo242  1  0.90099114  0.70069186  0.70097580  1
  Mo  Mo243  1  0.29529177  0.09124232  0.89842620  1
  Mo  Mo244  1  0.40867722  0.59845012  0.60011930  1
  Mo  Mo245  1  0.49409885  0.90240824  0.29409274  1
  Mo  Mo246  1  0.79392337  0.59952965  0.40206578  1
  Mo  Mo247  1  0.00723272  -0.00476758  -0.00165309  1
  Mo  Mo248  1  0.09020273  0.49419162  0.88673143  1
  Mo  Mo249  1  0.80068103  0.40117283  -0.01003200  1
