# generated using pymatgen
data_HfZrTaTiMo
_symmetry_space_group_name_H-M   'P 1'
_cell_length_a   16.88798965
_cell_length_b   16.88317046
_cell_length_c   16.88288925
_cell_angle_alpha   90.01730279
_cell_angle_beta   90.01395574
_cell_angle_gamma   89.97116571
_symmetry_Int_Tables_number   1
_chemical_formula_structural   HfZrTaTiMo
_chemical_formula_sum   'Hf50 Zr50 Ta50 Ti50 Mo50'
_cell_volume   4813.69581664
_cell_formula_units_Z   50
loop_
 _symmetry_equiv_pos_site_id
 _symmetry_equiv_pos_as_xyz
  1  'x, y, z'
loop_
 _atom_site_type_symbol
 _atom_site_label
 _atom_site_symmetry_multiplicity
 _atom_site_fract_x
 _atom_site_fract_y
 _atom_site_fract_z
 _atom_site_occupancy
  Hf  Hf0  1  0.30530058  0.09342251  0.50915665  1
  Hf  Hf1  1  0.89062919  0.49536178  0.49797936  1
  Hf  Hf2  1  0.89456396  0.48912603  0.90504041  1
  Hf  Hf3  1  -0.00849248  0.00057353  0.60063553  1
  Hf  Hf4  1  0.08896950  0.48863705  0.89995413  1
  Hf  Hf5  1  0.30259911  0.69436174  0.69702464  1
  Hf  Hf6  1  0.68223454  0.90510294  0.69886468  1
  Hf  Hf7  1  0.30646810  0.50314461  0.50991184  1
  Hf  Hf8  1  0.29245920  0.69858907  0.51027316  1
  Hf  Hf9  1  0.20097473  0.20066538  0.79816195  1
  Hf  Hf10  1  0.89423587  0.49817171  0.30370162  1
  Hf  Hf11  1  0.40761450  0.59305875  0.80961853  1
  Hf  Hf12  1  0.20175576  0.39448143  0.01289259  1
  Hf  Hf13  1  0.89643928  0.09805657  0.10906895  1
  Hf  Hf14  1  0.51989737  0.49896806  0.28998371  1
  Hf  Hf15  1  0.89824921  0.30512720  0.49783087  1
  Hf  Hf16  1  0.31165406  0.69734352  0.90244279  1
  Hf  Hf17  1  0.50464070  0.89350633  0.10698928  1
  Hf  Hf18  1  0.20580811  0.80367496  -0.00350469  1
  Hf  Hf19  1  0.41000479  0.39184508  0.60329138  1
  Hf  Hf20  1  0.10997511  0.70149378  0.68782329  1
  Hf  Hf21  1  0.50501248  0.09643769  0.10141451  1
  Hf  Hf22  1  0.59896094  0.79120912  0.59790344  1
  Hf  Hf23  1  0.88874170  0.49386765  0.10137405  1
  Hf  Hf24  1  0.70509936  0.29374088  0.70894559  1
  Hf  Hf25  1  0.69373183  0.10390153  0.70530062  1
  Hf  Hf26  1  0.40072207  -0.00376239  0.20627218  1
  Hf  Hf27  1  0.10480761  0.09755985  0.50432053  1
  Hf  Hf28  1  0.40848898  0.79490900  0.40963764  1
  Hf  Hf29  1  0.19848936  0.20686191  0.60844975  1
  Hf  Hf30  1  0.08412428  0.29589677  0.89398183  1
  Hf  Hf31  1  -0.00083573  0.60682284  0.40447610  1
  Hf  Hf32  1  0.20955648  0.58445957  0.00062095  1
  Hf  Hf33  1  0.19864798  0.58928549  0.18627151  1
  Hf  Hf34  1  0.40811281  0.19857313  0.59930775  1
  Hf  Hf35  1  -0.00540376  0.19994795  0.60148962  1
  Hf  Hf36  1  0.70431560  0.49782340  0.70277068  1
  Hf  Hf37  1  0.59416578  0.40440236  0.80905145  1
  Hf  Hf38  1  0.20205591  0.80523284  0.79949735  1
  Hf  Hf39  1  -0.00683419  0.79792659  0.59539894  1
  Hf  Hf40  1  0.10193786  0.71550050  0.29848710  1
  Hf  Hf41  1  0.79801033  0.60493196  0.79971735  1
  Hf  Hf42  1  0.89780544  0.48454763  0.69390467  1
  Hf  Hf43  1  -0.01354371  0.79652931  0.00702648  1
  Hf  Hf44  1  0.31215925  0.70160167  0.10074094  1
  Hf  Hf45  1  0.79407358  -0.00389410  0.80023623  1
  Hf  Hf46  1  0.20236522  -0.00033073  -0.00349135  1
  Hf  Hf47  1  0.50377515  0.10825465  0.29831809  1
  Hf  Hf48  1  0.09739370  0.70350314  0.89910948  1
  Hf  Hf49  1  0.50366038  0.08334209  0.69602601  1
  Zr  Zr50  1  0.30681074  0.70129772  0.29068495  1
  Zr  Zr51  1  0.29980594  0.10022118  0.10132884  1
  Zr  Zr52  1  0.20305818  -0.00459756  0.39113686  1
  Zr  Zr53  1  0.69745880  0.09941962  0.11084188  1
  Zr  Zr54  1  0.10542318  0.89237909  0.50438582  1
  Zr  Zr55  1  0.10190797  0.49615414  0.51711926  1
  Zr  Zr56  1  0.79064218  -0.00014572  0.39414745  1
  Zr  Zr57  1  0.90353630  0.10852483  0.88970182  1
  Zr  Zr58  1  0.40229326  -0.00590155  -0.00336401  1
  Zr  Zr59  1  0.10499323  0.89775957  0.10414244  1
  Zr  Zr60  1  0.20643874  0.39525841  0.40560555  1
  Zr  Zr61  1  0.69863985  0.30108489  0.90250793  1
  Zr  Zr62  1  -0.00340275  0.60395203  0.19381096  1
  Zr  Zr63  1  0.59663000  0.20370580  0.00605641  1
  Zr  Zr64  1  0.40857776  0.39454631  0.39234487  1
  Zr  Zr65  1  0.69403998  0.70118867  0.90016383  1
  Zr  Zr66  1  0.59745244  0.20288028  0.59077012  1
  Zr  Zr67  1  0.30008397  0.88683584  0.29105609  1
  Zr  Zr68  1  0.51039587  0.88927841  0.30381416  1
  Zr  Zr69  1  0.60608122  0.39556015  0.59366788  1
  Zr  Zr70  1  -0.00803457  0.60328227  0.79638118  1
  Zr  Zr71  1  0.79541169  -0.00451041  0.00118283  1
  Zr  Zr72  1  0.78360465  0.79783149  0.39664056  1
  Zr  Zr73  1  0.80316155  0.20623423  -0.00038149  1
  Zr  Zr74  1  0.30253548  0.11094049  0.29596077  1
  Zr  Zr75  1  0.41081954  0.79812184  0.60405708  1
  Zr  Zr76  1  0.51353522  0.50611756  0.49126802  1
  Zr  Zr77  1  0.90624357  0.90528623  0.89177185  1
  Zr  Zr78  1  0.89489573  0.10347738  0.29773178  1
  Zr  Zr79  1  0.09942553  0.30359337  0.29784487  1
  Zr  Zr80  1  0.50544957  0.91783538  0.51172492  1
  Zr  Zr81  1  0.89521049  0.30870748  0.30012847  1
  Zr  Zr82  1  0.20703153  0.39732380  0.80110195  1
  Zr  Zr83  1  0.80049497  0.80252544  0.00209736  1
  Zr  Zr84  1  0.30188523  0.90435369  0.69051673  1
  Zr  Zr85  1  -0.00378274  0.60481449  0.00527237  1
  Zr  Zr86  1  0.09257098  0.09730288  0.89627761  1
  Zr  Zr87  1  0.19899115  0.21826570  0.18586476  1
  Zr  Zr88  1  0.80080802  0.61358635  0.01049646  1
  Zr  Zr89  1  -0.00866036  0.60366645  0.59911129  1
  Zr  Zr90  1  0.10063489  0.49576601  0.29719105  1
  Zr  Zr91  1  0.00164538  -0.00397120  0.39611775  1
  Zr  Zr92  1  0.20282294  0.60021752  0.39935358  1
  Zr  Zr93  1  0.20178388  0.58898246  0.80174440  1
  Zr  Zr94  1  0.20176447  0.20486923  0.40139300  1
  Zr  Zr95  1  0.50171306  0.50220125  0.69823128  1
  Zr  Zr96  1  0.39694643  0.40779730  0.00255367  1
  Zr  Zr97  1  0.79991610  0.00078291  0.59619773  1
  Zr  Zr98  1  0.79414878  0.79651366  0.19709077  1
  Zr  Zr99  1  0.30783434  0.49316423  0.28954400  1
  Ta  Ta100  1  0.09789442  0.09403769  0.70393720  1
  Ta  Ta101  1  0.60040425  0.80028302  -0.00098609  1
  Ta  Ta102  1  0.50310941  0.10026042  0.89677608  1
  Ta  Ta103  1  0.78862480  0.60664591  0.59555599  1
  Ta  Ta104  1  -0.00149307  0.20571039  0.19460738  1
  Ta  Ta105  1  0.69300018  0.10160656  0.49857070  1
  Ta  Ta106  1  0.50688974  0.69931826  0.10259218  1
  Ta  Ta107  1  0.70007400  0.31298204  0.10573383  1
  Ta  Ta108  1  0.20051870  0.20430466  -0.00119371  1
  Ta  Ta109  1  -0.00656832  0.80306879  0.20008120  1
  Ta  Ta110  1  0.60205784  0.20649469  0.39645507  1
  Ta  Ta111  1  0.79026636  0.20588870  0.40371600  1
  Ta  Ta112  1  0.60792022  0.60679477  0.60061757  1
  Ta  Ta113  1  0.78762204  0.60547986  0.20487303  1
  Ta  Ta114  1  0.88589746  0.70774294  0.69390721  1
  Ta  Ta115  1  -0.00249100  0.20287988  0.00939289  1
  Ta  Ta116  1  0.89432870  0.89060498  0.49491123  1
  Ta  Ta117  1  0.30091596  0.09506507  0.70126614  1
  Ta  Ta118  1  0.79969807  0.20018184  0.59647846  1
  Ta  Ta119  1  0.30569993  0.29843456  0.50486617  1
  Ta  Ta120  1  0.09970749  0.90480881  0.69945036  1
  Ta  Ta121  1  0.60161793  0.60208123  0.80391701  1
  Ta  Ta122  1  0.49734078  0.29689247  0.90120922  1
  Ta  Ta123  1  0.39961262  0.39965990  0.80644630  1
  Ta  Ta124  1  0.51280878  0.69721421  0.29496686  1
  Ta  Ta125  1  0.20241160  -0.00043611  0.80151632  1
  Ta  Ta126  1  0.39818573  0.20498805  0.00159317  1
  Ta  Ta127  1  0.00707602  0.39838292  0.18673114  1
  Ta  Ta128  1  0.69801024  0.30699367  0.29833239  1
  Ta  Ta129  1  0.40367831  0.00373555  0.40211643  1
  Ta  Ta130  1  -0.00332665  -0.00107763  0.01034961  1
  Ta  Ta131  1  0.00036787  0.19975162  0.39917007  1
  Ta  Ta132  1  0.79324283  0.80177109  0.79720589  1
  Ta  Ta133  1  0.89505436  0.70047928  0.30587079  1
  Ta  Ta134  1  0.40274800  -0.00381680  0.80063486  1
  Ta  Ta135  1  0.69858667  0.49846599  0.91285111  1
  Ta  Ta136  1  0.68917180  0.89987651  0.10215765  1
  Ta  Ta137  1  0.09708278  0.10059709  0.10208334  1
  Ta  Ta138  1  0.41276703  0.59136445  0.18995086  1
  Ta  Ta139  1  -0.00090676  -0.00607077  0.20210788  1
  Ta  Ta140  1  0.41429513  0.79851651  -0.00606161  1
  Ta  Ta141  1  0.68839578  0.09832566  0.89434975  1
  Ta  Ta142  1  0.30463434  0.50131738  0.69411488  1
  Ta  Ta143  1  -0.00497696  0.79961918  0.79076967  1
  Ta  Ta144  1  0.30443150  0.10137103  0.89618915  1
  Ta  Ta145  1  0.90252017  0.89149585  0.30413661  1
  Ta  Ta146  1  0.41090402  0.60458537  0.39606313  1
  Ta  Ta147  1  0.40165345  0.19752008  0.80163701  1
  Ta  Ta148  1  0.09664203  0.10235446  0.28963295  1
  Ta  Ta149  1  0.09277602  0.90416456  0.89356197  1
  Ti  Ti150  1  0.09599502  0.30443195  0.50702412  1
  Ti  Ti151  1  0.69686759  0.10842624  0.29821541  1
  Ti  Ti152  1  0.59438636  0.22022932  0.20210430  1
  Ti  Ti153  1  0.89780199  0.29587645  0.71057376  1
  Ti  Ti154  1  0.68788109  0.69467865  0.48845908  1
  Ti  Ti155  1  0.40934260  0.21656184  0.19162042  1
  Ti  Ti156  1  0.59722734  0.80007530  0.80322419  1
  Ti  Ti157  1  0.78657839  0.40949386  0.20560218  1
  Ti  Ti158  1  0.61612221  0.40053098  0.39837455  1
  Ti  Ti159  1  0.10584332  0.70652947  0.10140586  1
  Ti  Ti160  1  0.50593862  0.69898221  0.71060772  1
  Ti  Ti161  1  0.50602481  0.29186022  0.71389223  1
  Ti  Ti162  1  0.80244004  0.39268248  0.81108196  1
  Ti  Ti163  1  0.40638443  0.20429313  0.39851121  1
  Ti  Ti164  1  0.78383577  0.59534317  0.39738112  1
  Ti  Ti165  1  0.68968096  0.50318029  0.10447634  1
  Ti  Ti166  1  0.41650083  0.39548494  0.18697187  1
  Ti  Ti167  1  0.89872050  0.10604505  0.70827506  1
  Ti  Ti168  1  0.30611433  0.30642855  0.28877231  1
  Ti  Ti169  1  -0.00686078  0.38918449  0.00622640  1
  Ti  Ti170  1  0.00340484  0.39982780  0.40295131  1
  Ti  Ti171  1  0.29910947  0.90452762  0.50750985  1
  Ti  Ti172  1  0.41714481  0.60774122  0.59504382  1
  Ti  Ti173  1  0.30652577  0.90025666  0.89599223  1
  Ti  Ti174  1  0.51419430  0.90705234  0.89863230  1
  Ti  Ti175  1  0.69089564  0.90333778  0.49756084  1
  Ti  Ti176  1  0.19549519  -0.00470822  0.20367630  1
  Ti  Ti177  1  0.78974434  0.39288124  0.59052934  1
  Ti  Ti178  1  0.20243698  0.80384022  0.40078421  1
  Ti  Ti179  1  0.78683897  0.79572358  0.59832605  1
  Ti  Ti180  1  0.50481202  0.29971076  0.48719717  1
  Ti  Ti181  1  0.88700750  0.70363037  0.49480061  1
  Ti  Ti182  1  0.41443007  0.80514589  0.80432940  1
  Ti  Ti183  1  0.30533468  0.88808816  0.10709146  1
  Ti  Ti184  1  0.08298911  0.30777425  0.70325209  1
  Ti  Ti185  1  0.30408972  0.29611108  0.90182270  1
  Ti  Ti186  1  0.50410044  0.50611934  0.91301684  1
  Ti  Ti187  1  0.79757417  -0.01411084  0.20526192  1
  Ti  Ti188  1  0.60801402  -0.00547961  0.21046577  1
  Ti  Ti189  1  0.20360256  0.39446117  0.60901793  1
  Ti  Ti190  1  0.79516434  0.20949293  0.20381480  1
  Ti  Ti191  1  0.59610642  0.60397140  0.00488506  1
  Ti  Ti192  1  0.10756611  0.70371585  0.50162819  1
  Ti  Ti193  1  0.30971801  0.29939738  0.70290439  1
  Ti  Ti194  1  0.60182253  0.00709716  0.39756365  1
  Ti  Ti195  1  0.89506536  0.89604401  0.69625264  1
  Ti  Ti196  1  0.59268236  0.40122764  0.01149604  1
  Ti  Ti197  1  0.89455347  0.10236004  0.49372049  1
  Ti  Ti198  1  0.09431492  0.48879570  0.69870450  1
  Ti  Ti199  1  0.88978908  0.30626579  0.10250330  1
  Mo  Mo200  1  0.89896205  0.30156393  0.89947292  1
  Mo  Mo201  1  0.09409866  0.49038466  0.09504535  1
  Mo  Mo202  1  0.60177156  -0.00453595  -0.00343042  1
  Mo  Mo203  1  0.09675368  0.89844932  0.29783881  1
  Mo  Mo204  1  -0.00418754  0.19958685  0.79054888  1
  Mo  Mo205  1  0.79982862  0.19949185  0.79708619  1
  Mo  Mo206  1  -0.00482180  0.39138394  0.60488911  1
  Mo  Mo207  1  0.69605764  0.70287724  0.70051754  1
  Mo  Mo208  1  -0.00957360  0.39371388  0.79799754  1
  Mo  Mo209  1  0.30654311  0.49696315  0.89858059  1
  Mo  Mo210  1  0.89593847  0.70042300  0.11752184  1
  Mo  Mo211  1  0.20011972  0.00161183  0.60838924  1
  Mo  Mo212  1  0.50743219  0.69450249  0.49181130  1
  Mo  Mo213  1  0.60130233  0.79628229  0.40215355  1
  Mo  Mo214  1  0.60606378  0.79245321  0.19999646  1
  Mo  Mo215  1  0.69271625  0.69549096  0.29875400  1
  Mo  Mo216  1  0.50083485  0.10314783  0.48836884  1
  Mo  Mo217  1  0.70198751  0.50023727  0.30212938  1
  Mo  Mo218  1  0.70357940  0.29882267  0.49462639  1
  Mo  Mo219  1  0.69507702  0.90097785  0.29781175  1
  Mo  Mo220  1  0.60461676  0.40179341  0.19596844  1
  Mo  Mo221  1  0.19739811  0.59094206  0.60555982  1
  Mo  Mo222  1  -0.00054686  -0.00465926  0.78815961  1
  Mo  Mo223  1  0.70374024  0.50348659  0.49903436  1
  Mo  Mo224  1  0.60684554  0.60318024  0.39421788  1
  Mo  Mo225  1  0.31052982  0.30084107  0.10078466  1
  Mo  Mo226  1  0.59196677  0.19937739  0.80464048  1
  Mo  Mo227  1  0.50020514  0.89718894  0.71028831  1
  Mo  Mo228  1  0.79174538  0.40340950  0.00748563  1
  Mo  Mo229  1  0.50903228  0.50396445  0.09705039  1
  Mo  Mo230  1  0.31148587  0.49797127  0.10245299  1
  Mo  Mo231  1  -0.00859532  0.79511701  0.40110914  1
  Mo  Mo232  1  0.50365343  0.30299578  0.09798307  1
  Mo  Mo233  1  0.78929401  0.40143429  0.39952410  1
  Mo  Mo234  1  0.39999868  0.00311379  0.60053153  1
  Mo  Mo235  1  0.60707319  0.60069423  0.19512089  1
  Mo  Mo236  1  0.89855708  0.90467223  0.10989886  1
  Mo  Mo237  1  0.09109865  0.29692497  0.09245896  1
  Mo  Mo238  1  0.60480849  0.00419471  0.59488057  1
  Mo  Mo239  1  0.69023385  0.70134419  0.10157816  1
  Mo  Mo240  1  0.68968089  0.90106969  0.90060076  1
  Mo  Mo241  1  0.89870733  0.70910192  0.88118090  1
  Mo  Mo242  1  0.20275297  0.40213489  0.18751326  1
  Mo  Mo243  1  0.41245733  0.60066498  0.00221440  1
  Mo  Mo244  1  0.19570190  0.79676502  0.19283661  1
  Mo  Mo245  1  0.19864818  0.80341145  0.59894472  1
  Mo  Mo246  1  0.41036048  0.79020484  0.19450251  1
  Mo  Mo247  1  0.50464209  0.70300015  0.90324393  1
  Mo  Mo248  1  0.59636622  -0.00252156  0.80618698  1
  Mo  Mo249  1  0.50757018  0.30274361  0.29710038  1
