# generated using pymatgen
data_HfZrTaTiMo
_symmetry_space_group_name_H-M   'P 1'
_cell_length_a   16.88451853
_cell_length_b   16.88446915
_cell_length_c   16.89073600
_cell_angle_alpha   90.00931039
_cell_angle_beta   90.01653865
_cell_angle_gamma   89.94238536
_symmetry_Int_Tables_number   1
_chemical_formula_structural   HfZrTaTiMo
_chemical_formula_sum   'Hf50 Zr50 Ta50 Ti50 Mo50'
_cell_volume   4815.31189876
_cell_formula_units_Z   50
loop_
 _symmetry_equiv_pos_site_id
 _symmetry_equiv_pos_as_xyz
  1  'x, y, z'
loop_
 _atom_site_type_symbol
 _atom_site_label
 _atom_site_symmetry_multiplicity
 _atom_site_fract_x
 _atom_site_fract_y
 _atom_site_fract_z
 _atom_site_occupancy
  Hf  Hf0  1  0.49396716  0.49857046  0.50316838  1
  Hf  Hf1  1  0.39227095  0.59879438  0.00082793  1
  Hf  Hf2  1  0.49538660  0.50140137  0.69709155  1
  Hf  Hf3  1  0.49923857  0.29746819  0.50270367  1
  Hf  Hf4  1  0.80661563  0.60491962  0.59565494  1
  Hf  Hf5  1  0.20176482  0.59968337  0.20197191  1
  Hf  Hf6  1  0.89696551  0.49547885  0.29832133  1
  Hf  Hf7  1  0.09281141  0.90327406  0.89378666  1
  Hf  Hf8  1  0.40269156  0.19343716  0.60668638  1
  Hf  Hf9  1  0.70136530  0.10233127  0.50365553  1
  Hf  Hf10  1  0.70110608  0.90852051  0.89993885  1
  Hf  Hf11  1  0.69690793  0.69511532  0.29389946  1
  Hf  Hf12  1  0.69201090  0.90498541  0.50785102  1
  Hf  Hf13  1  0.91494493  0.08880122  0.71258704  1
  Hf  Hf14  1  0.10134794  0.70619595  0.09943093  1
  Hf  Hf15  1  0.50512733  0.90893889  0.90395992  1
  Hf  Hf16  1  -0.00049777  0.01033098  0.00752754  1
  Hf  Hf17  1  0.09461552  0.70175096  0.89278185  1
  Hf  Hf18  1  0.60169832  0.19416028  -0.00123232  1
  Hf  Hf19  1  0.80409089  0.39296643  0.79918348  1
  Hf  Hf20  1  0.19367015  0.78929937  0.59794176  1
  Hf  Hf21  1  0.30161711  0.70719088  0.10664954  1
  Hf  Hf22  1  0.89440138  0.90080339  0.89846621  1
  Hf  Hf23  1  0.20283193  0.00912481  0.00506355  1
  Hf  Hf24  1  0.58589081  0.79858598  0.40407728  1
  Hf  Hf25  1  -0.00097020  0.19996470  0.39107888  1
  Hf  Hf26  1  0.50248732  0.70036141  0.90568041  1
  Hf  Hf27  1  0.29654969  0.49361487  0.10345917  1
  Hf  Hf28  1  0.70484258  0.49729327  0.49308663  1
  Hf  Hf29  1  0.38946623  0.20029235  0.00105845  1
  Hf  Hf30  1  0.90584195  0.69794055  0.72065355  1
  Hf  Hf31  1  0.19714681  0.39974940  0.80895651  1
  Hf  Hf32  1  0.60722965  0.60155134  0.80250425  1
  Hf  Hf33  1  0.00389788  0.39480089  -0.00011552  1
  Hf  Hf34  1  0.60290101  0.60727596  0.59775694  1
  Hf  Hf35  1  0.50760289  0.49661815  0.91049395  1
  Hf  Hf36  1  -0.00257261  0.19525351  0.59980889  1
  Hf  Hf37  1  0.10206417  0.90175747  0.10776033  1
  Hf  Hf38  1  0.39753183  -0.00076756  0.39698781  1
  Hf  Hf39  1  0.89139508  0.70409483  0.09167959  1
  Hf  Hf40  1  0.11017256  0.49220620  0.29973955  1
  Hf  Hf41  1  0.39719275  0.80521052  0.79338215  1
  Hf  Hf42  1  0.59020410  0.60651926  0.39820018  1
  Hf  Hf43  1  0.50077655  0.50168580  0.10347457  1
  Hf  Hf44  1  0.80641232  -0.00146610  0.60611208  1
  Hf  Hf45  1  0.49662082  0.08784056  0.09852419  1
  Hf  Hf46  1  0.09912540  0.90637239  0.49342505  1
  Hf  Hf47  1  0.00182693  0.59761375  0.19599014  1
  Hf  Hf48  1  0.09951143  0.71155895  0.30058773  1
  Hf  Hf49  1  0.39376957  0.39576203  0.80552219  1
  Zr  Zr50  1  0.29289016  0.70079002  0.89210455  1
  Zr  Zr51  1  0.70467682  0.29472902  0.90489515  1
  Zr  Zr52  1  0.91127457  0.49746060  0.69811694  1
  Zr  Zr53  1  0.00010639  0.38637612  0.19301145  1
  Zr  Zr54  1  0.69569862  0.50102621  0.09760823  1
  Zr  Zr55  1  0.79354815  0.80423954  0.39518125  1
  Zr  Zr56  1  0.60636044  0.39746220  0.79736147  1
  Zr  Zr57  1  0.59563266  0.19004635  0.79896668  1
  Zr  Zr58  1  0.00909952  0.60759671  0.59684877  1
  Zr  Zr59  1  0.19761017  0.19643010  0.60627223  1
  Zr  Zr60  1  0.49418047  0.10020181  0.29317240  1
  Zr  Zr61  1  0.80785380  0.39150148  0.60430736  1
  Zr  Zr62  1  0.10008938  0.49521373  0.50304257  1
  Zr  Zr63  1  0.08629898  0.30626208  0.69730190  1
  Zr  Zr64  1  0.20091105  0.20063052  0.80241088  1
  Zr  Zr65  1  0.12492415  0.29827602  0.29723203  1
  Zr  Zr66  1  0.40683729  0.80249993  0.39918232  1
  Zr  Zr67  1  -0.00207960  0.00968650  0.38331353  1
  Zr  Zr68  1  0.08687758  0.91881407  0.69593979  1
  Zr  Zr69  1  0.40223656  0.00553218  0.79357827  1
  Zr  Zr70  1  0.29640483  0.90424125  0.50715983  1
  Zr  Zr71  1  0.58800454  0.20679674  0.20043167  1
  Zr  Zr72  1  0.29582221  0.09709467  0.50067036  1
  Zr  Zr73  1  -0.00091238  0.39989062  0.81136541  1
  Zr  Zr74  1  0.70201280  0.09880011  0.11065354  1
  Zr  Zr75  1  0.70117162  0.28771998  0.49902293  1
  Zr  Zr76  1  0.80229045  0.80019538  0.60634784  1
  Zr  Zr77  1  0.88595372  0.90848850  0.09821749  1
  Zr  Zr78  1  0.59393296  0.79915627  0.20521898  1
  Zr  Zr79  1  0.39912431  0.19431647  0.80416853  1
  Zr  Zr80  1  0.60371496  0.79942566  0.79900650  1
  Zr  Zr81  1  0.69676543  0.90596023  0.09849201  1
  Zr  Zr82  1  0.69809337  0.49555642  0.29522379  1
  Zr  Zr83  1  0.20434084  0.80820601  -0.00448890  1
  Zr  Zr84  1  -0.01077844  0.81006786  0.20266228  1
  Zr  Zr85  1  0.39674730  0.59738672  0.79934971  1
  Zr  Zr86  1  0.90457115  0.90225723  0.49178139  1
  Zr  Zr87  1  0.00843168  0.19901364  0.19269394  1
  Zr  Zr88  1  0.70750140  0.09875964  0.30380110  1
  Zr  Zr89  1  -0.00014615  0.79688689  0.60576865  1
  Zr  Zr90  1  0.70343708  0.29733923  0.30033924  1
  Zr  Zr91  1  0.71423828  0.29997444  0.10688334  1
  Zr  Zr92  1  0.20859305  0.60859861  0.40801511  1
  Zr  Zr93  1  -0.00362308  0.39037706  0.39815427  1
  Zr  Zr94  1  0.80293465  0.60044154  0.19709796  1
  Zr  Zr95  1  0.20685782  0.40168643  0.59986624  1
  Zr  Zr96  1  0.60775613  0.39889126  0.60408985  1
  Zr  Zr97  1  0.40144626  0.61179657  0.40472121  1
  Zr  Zr98  1  0.49758346  0.69611221  0.10618796  1
  Zr  Zr99  1  0.58741540  -0.00599152  0.40336759  1
  Ta  Ta100  1  0.20273131  0.00941057  0.19907077  1
  Ta  Ta101  1  0.39455754  0.19875330  0.39906606  1
  Ta  Ta102  1  0.19401243  0.80226563  0.78622612  1
  Ta  Ta103  1  0.90209882  0.70369603  0.30549967  1
  Ta  Ta104  1  0.69610065  0.69808287  0.09266596  1
  Ta  Ta105  1  0.10311308  0.09533718  0.49949191  1
  Ta  Ta106  1  0.20800380  0.80313840  0.39717304  1
  Ta  Ta107  1  0.30467858  0.49437801  0.30002465  1
  Ta  Ta108  1  0.80615590  0.39163659  0.39929516  1
  Ta  Ta109  1  0.29149645  0.49805078  0.90405922  1
  Ta  Ta110  1  0.30837751  0.70773664  0.28914726  1
  Ta  Ta111  1  0.39957618  0.81007560  0.00023359  1
  Ta  Ta112  1  0.89940008  0.49413271  0.09650531  1
  Ta  Ta113  1  0.10580942  0.29397111  0.49564076  1
  Ta  Ta114  1  0.39428837  0.39780154  0.60315448  1
  Ta  Ta115  1  0.29475132  0.90233222  0.69414322  1
  Ta  Ta116  1  0.00149149  0.59342816  -0.00109471  1
  Ta  Ta117  1  0.70472101  0.50224596  0.90707223  1
  Ta  Ta118  1  0.70059110  0.91297763  0.29452133  1
  Ta  Ta119  1  0.58860441  0.39783570  0.20416213  1
  Ta  Ta120  1  0.10738380  0.50894897  0.70339277  1
  Ta  Ta121  1  0.90244460  0.28331292  0.90444029  1
  Ta  Ta122  1  0.48842624  0.30335927  0.30460093  1
  Ta  Ta123  1  0.49906023  0.29667285  0.69907257  1
  Ta  Ta124  1  0.09142116  0.10424288  0.89634583  1
  Ta  Ta125  1  0.39241812  0.39197745  -0.00071457  1
  Ta  Ta126  1  0.60050642  0.80041614  0.00123255  1
  Ta  Ta127  1  0.19171288  0.59483609  -0.00272586  1
  Ta  Ta128  1  0.89413954  0.11104081  0.09889776  1
  Ta  Ta129  1  0.49861409  0.29998480  0.90491098  1
  Ta  Ta130  1  0.29626227  0.69350763  0.69143198  1
  Ta  Ta131  1  0.89701726  0.69987885  0.90101611  1
  Ta  Ta132  1  0.51004545  0.90173541  0.69034332  1
  Ta  Ta133  1  0.69774315  0.09091583  0.70092616  1
  Ta  Ta134  1  0.19642743  0.00564166  0.79655572  1
  Ta  Ta135  1  0.49926772  0.70236076  0.69378601  1
  Ta  Ta136  1  -0.00564029  0.79942985  -0.00259258  1
  Ta  Ta137  1  0.30315563  0.29980118  0.70215836  1
  Ta  Ta138  1  0.10578364  0.49041811  0.09887736  1
  Ta  Ta139  1  0.81080942  0.39689116  -0.00104204  1
  Ta  Ta140  1  0.79522156  0.02003285  -0.00856702  1
  Ta  Ta141  1  0.10635085  0.90188519  0.29708581  1
  Ta  Ta142  1  0.49767917  0.90727463  0.09767873  1
  Ta  Ta143  1  0.20503376  0.00402442  0.38707615  1
  Ta  Ta144  1  0.59342665  0.39881059  0.39492901  1
  Ta  Ta145  1  0.90688422  0.70303215  0.48388021  1
  Ta  Ta146  1  0.80136604  0.19111355  0.79935288  1
  Ta  Ta147  1  0.70563581  0.70086101  0.70360123  1
  Ta  Ta148  1  0.39727579  0.39331026  0.20098597  1
  Ta  Ta149  1  0.40193398  0.79605303  0.59625094  1
  Ti  Ti150  1  0.29037392  0.30250524  0.10281250  1
  Ti  Ti151  1  0.49342665  0.90782243  0.27949455  1
  Ti  Ti152  1  0.88877181  0.91200511  0.29828089  1
  Ti  Ti153  1  0.80982881  0.19577754  0.61062972  1
  Ti  Ti154  1  0.09395081  0.70748877  0.48579382  1
  Ti  Ti155  1  0.71262250  0.51012269  0.70626565  1
  Ti  Ti156  1  0.00018636  0.59884313  0.39571317  1
  Ti  Ti157  1  0.00024622  0.01226430  0.20027643  1
  Ti  Ti158  1  0.49238638  0.30224607  0.09929577  1
  Ti  Ti159  1  0.38931881  0.20179970  0.19826059  1
  Ti  Ti160  1  0.80120969  0.59742389  -0.00270089  1
  Ti  Ti161  1  0.90245667  0.10467375  0.89987138  1
  Ti  Ti162  1  0.30478706  0.51188250  0.51173566  1
  Ti  Ti163  1  0.09436291  0.28532387  0.90622859  1
  Ti  Ti164  1  0.70898601  0.69763906  0.90583323  1
  Ti  Ti165  1  0.29690003  0.90516976  0.88989011  1
  Ti  Ti166  1  0.60102919  0.39200447  0.00487772  1
  Ti  Ti167  1  0.50742532  0.08881701  0.90561567  1
  Ti  Ti168  1  0.58945974  0.19998813  0.39948561  1
  Ti  Ti169  1  0.90523800  0.90359012  0.71653410  1
  Ti  Ti170  1  0.30373899  0.89874131  0.10824949  1
  Ti  Ti171  1  0.38890448  -0.00091170  -0.00066310  1
  Ti  Ti172  1  0.40975730  -0.00293974  0.60046830  1
  Ti  Ti173  1  0.30036651  0.29678470  0.30256172  1
  Ti  Ti174  1  0.90457292  0.29898969  0.50583911  1
  Ti  Ti175  1  0.21427865  0.39954702  0.40682329  1
  Ti  Ti176  1  0.89440640  0.50660595  0.90043215  1
  Ti  Ti177  1  0.29352449  0.08883517  0.69410691  1
  Ti  Ti178  1  0.69655353  0.90570183  0.70465363  1
  Ti  Ti179  1  0.19678559  0.39224467  -0.00351018  1
  Ti  Ti180  1  0.39471149  0.39806431  0.40311682  1
  Ti  Ti181  1  0.79569609  0.80229810  0.20106197  1
  Ti  Ti182  1  0.90514653  0.49734142  0.49851327  1
  Ti  Ti183  1  0.19619785  0.19801164  0.00653425  1
  Ti  Ti184  1  0.70074252  0.70580271  0.50131180  1
  Ti  Ti185  1  0.11408633  0.10548453  0.29917666  1
  Ti  Ti186  1  0.29788291  0.89586326  0.28977681  1
  Ti  Ti187  1  0.29414976  0.09984431  0.90052328  1
  Ti  Ti188  1  0.49149708  0.50115609  0.29536635  1
  Ti  Ti189  1  0.29462518  0.50751282  0.69959397  1
  Ti  Ti190  1  0.00820158  0.59197684  0.80884997  1
  Ti  Ti191  1  0.29989725  0.29399691  0.49998624  1
  Ti  Ti192  1  0.81800554  0.20061547  0.39359988  1
  Ti  Ti193  1  0.20804426  0.19128561  0.18873545  1
  Ti  Ti194  1  0.80344926  0.60101404  0.40181340  1
  Ti  Ti195  1  0.89771118  0.09509466  0.49503392  1
  Ti  Ti196  1  0.50674811  0.09944679  0.50940358  1
  Ti  Ti197  1  0.79655543  0.79996461  0.80225671  1
  Ti  Ti198  1  0.38284262  0.00822896  0.19836362  1
  Ti  Ti199  1  0.69822955  0.28222966  0.69552252  1
  Mo  Mo200  1  0.89586074  0.10153647  0.29008690  1
  Mo  Mo201  1  0.19342050  0.00165755  0.60443732  1
  Mo  Mo202  1  0.60806828  0.60480458  -0.00154967  1
  Mo  Mo203  1  0.00148192  0.80589384  0.39120502  1
  Mo  Mo204  1  0.70275255  0.09697327  0.89324715  1
  Mo  Mo205  1  0.20204985  0.60377235  0.60261321  1
  Mo  Mo206  1  -0.00077695  0.00347893  0.81519889  1
  Mo  Mo207  1  0.50105111  0.70306699  0.51497466  1
  Mo  Mo208  1  0.89558975  0.28630834  0.70549932  1
  Mo  Mo209  1  0.10186789  0.10203286  0.10010418  1
  Mo  Mo210  1  0.29675747  0.30041272  0.90597129  1
  Mo  Mo211  1  0.30029721  0.70382344  0.50158691  1
  Mo  Mo212  1  0.29855941  0.10743625  0.29555888  1
  Mo  Mo213  1  -0.00267798  0.80127616  0.80386074  1
  Mo  Mo214  1  0.39918863  0.81358423  0.19681522  1
  Mo  Mo215  1  0.49436740  0.69158508  0.28584792  1
  Mo  Mo216  1  0.59820983  0.19376981  0.60469580  1
  Mo  Mo217  1  0.60038967  0.79825643  0.60314810  1
  Mo  Mo218  1  0.60127124  0.00059975  0.60326773  1
  Mo  Mo219  1  0.79968587  0.00468806  0.39814616  1
  Mo  Mo220  1  0.81448141  0.20214694  0.20171870  1
  Mo  Mo221  1  0.20894076  0.39580414  0.19823068  1
  Mo  Mo222  1  0.10414847  0.69210760  0.71193914  1
  Mo  Mo223  1  -0.00161477  0.19867971  0.80434931  1
  Mo  Mo224  1  0.00259769  0.20025016  0.00114349  1
  Mo  Mo225  1  0.20488338  0.80839470  0.20526186  1
  Mo  Mo226  1  0.00262590  0.39357446  0.59369236  1
  Mo  Mo227  1  0.19775278  0.59822550  0.79836391  1
  Mo  Mo228  1  -0.00167952  0.00957399  0.58517383  1
  Mo  Mo229  1  0.89954343  0.29704344  0.09311965  1
  Mo  Mo230  1  0.20352195  0.19816710  0.40377952  1
  Mo  Mo231  1  0.39543373  0.60132828  0.60144058  1
  Mo  Mo232  1  0.30014125  0.10112498  0.10030132  1
  Mo  Mo233  1  0.60168433  0.00091890  0.79613919  1
  Mo  Mo234  1  0.80666692  0.00476690  0.20145344  1
  Mo  Mo235  1  0.79854290  0.59785057  0.80756541  1
  Mo  Mo236  1  0.10255293  0.50290304  0.90614996  1
  Mo  Mo237  1  0.80546793  0.19778379  -0.00206472  1
  Mo  Mo238  1  0.80633102  0.39647122  0.19610653  1
  Mo  Mo239  1  0.11410309  0.29668962  0.09284614  1
  Mo  Mo240  1  0.09921521  0.09816726  0.70185003  1
  Mo  Mo241  1  0.79878756  0.00351211  0.80090643  1
  Mo  Mo242  1  0.60133684  0.00085744  -0.00093795  1
  Mo  Mo243  1  0.59214495  0.59561191  0.20213619  1
  Mo  Mo244  1  0.89106126  0.29722818  0.29251176  1
  Mo  Mo245  1  0.49809568  0.89983821  0.51490495  1
  Mo  Mo246  1  0.50904633  0.09385621  0.69160565  1
  Mo  Mo247  1  0.79478653  0.79141665  -0.00571770  1
  Mo  Mo248  1  0.59787419  -0.00484631  0.19992180  1
  Mo  Mo249  1  0.39688866  0.59086510  0.20653145  1
