# generated using pymatgen
data_HfZrTaTiMo
_symmetry_space_group_name_H-M   'P 1'
_cell_length_a   16.88909659
_cell_length_b   16.87157701
_cell_length_c   16.88525325
_cell_angle_alpha   90.00084952
_cell_angle_beta   89.99678724
_cell_angle_gamma   90.04538776
_symmetry_Int_Tables_number   1
_chemical_formula_structural   HfZrTaTiMo
_chemical_formula_sum   'Hf50 Zr50 Ta50 Ti50 Mo50'
_cell_volume   4811.37868559
_cell_formula_units_Z   50
loop_
 _symmetry_equiv_pos_site_id
 _symmetry_equiv_pos_as_xyz
  1  'x, y, z'
loop_
 _atom_site_type_symbol
 _atom_site_label
 _atom_site_symmetry_multiplicity
 _atom_site_fract_x
 _atom_site_fract_y
 _atom_site_fract_z
 _atom_site_occupancy
  Hf  Hf0  1  0.00487783  0.40121514  0.39087931  1
  Hf  Hf1  1  0.30069194  0.30010781  0.90799458  1
  Hf  Hf2  1  0.60412321  0.79971311  0.59716620  1
  Hf  Hf3  1  0.89197650  0.09299271  0.70407736  1
  Hf  Hf4  1  0.30886070  0.29576353  0.50186334  1
  Hf  Hf5  1  0.59842280  0.19498604  0.00032112  1
  Hf  Hf6  1  0.19604336  0.79822779  0.39450071  1
  Hf  Hf7  1  0.69903417  0.10175456  0.49917384  1
  Hf  Hf8  1  0.87366580  0.88990697  0.69968694  1
  Hf  Hf9  1  0.89986115  0.50062163  0.70467030  1
  Hf  Hf10  1  0.40275457  0.39865800  0.79951779  1
  Hf  Hf11  1  0.00750133  0.79278541  0.20433232  1
  Hf  Hf12  1  -0.00381175  0.39137576  0.00724175  1
  Hf  Hf13  1  0.79943470  0.60848712  0.39199124  1
  Hf  Hf14  1  0.69418651  0.90326980  0.30743217  1
  Hf  Hf15  1  0.60030500  0.00293974  0.00432556  1
  Hf  Hf16  1  0.89383033  0.69446930  0.10282685  1
  Hf  Hf17  1  0.29652785  0.51002553  0.50043670  1
  Hf  Hf18  1  0.40013747  0.00601659  0.79946371  1
  Hf  Hf19  1  0.10052307  0.49135100  0.90199711  1
  Hf  Hf20  1  0.89881934  0.49731218  0.89423526  1
  Hf  Hf21  1  0.49107887  0.69814912  0.90764150  1
  Hf  Hf22  1  0.40115580  -0.00120676  0.59455276  1
  Hf  Hf23  1  -0.00347875  0.80064035  0.80550233  1
  Hf  Hf24  1  0.69853506  0.69157286  0.10886604  1
  Hf  Hf25  1  0.40421381  0.19436916  0.79914002  1
  Hf  Hf26  1  0.70494427  0.50289783  0.71031191  1
  Hf  Hf27  1  0.50313974  0.69681046  0.29390843  1
  Hf  Hf28  1  0.61023820  0.61186459  0.39716365  1
  Hf  Hf29  1  0.60908517  0.60779708  0.59908114  1
  Hf  Hf30  1  0.59738313  -0.00014493  0.60227991  1
  Hf  Hf31  1  0.30004795  0.50662102  0.69931043  1
  Hf  Hf32  1  0.09295465  0.49974919  0.69953179  1
  Hf  Hf33  1  0.19209377  0.59801518  0.19347253  1
  Hf  Hf34  1  0.30596855  0.29365026  0.69639622  1
  Hf  Hf35  1  0.60255684  0.80255404  0.80320642  1
  Hf  Hf36  1  0.39950684  0.80883673  0.40467398  1
  Hf  Hf37  1  -0.00795090  0.20347214  0.20431109  1
  Hf  Hf38  1  0.69043424  0.29149364  0.11372135  1
  Hf  Hf39  1  0.69183135  0.29612853  0.69774618  1
  Hf  Hf40  1  0.10726479  0.29820142  0.29119645  1
  Hf  Hf41  1  0.00793088  0.61210119  0.38739762  1
  Hf  Hf42  1  0.30444890  0.50197098  0.29608582  1
  Hf  Hf43  1  0.40004599  0.78408562  0.79537970  1
  Hf  Hf44  1  0.59690585  0.19298074  0.80563778  1
  Hf  Hf45  1  0.59675510  0.61016055  0.79682795  1
  Hf  Hf46  1  0.90079605  0.70591787  0.50696245  1
  Hf  Hf47  1  0.80560253  0.20710400  0.38931689  1
  Hf  Hf48  1  0.79690028  0.79750808  0.39742960  1
  Hf  Hf49  1  0.20465048  0.00577935  0.00598915  1
  Zr  Zr50  1  0.40053162  0.39444558  0.39093439  1
  Zr  Zr51  1  0.10426248  0.09413528  0.29937498  1
  Zr  Zr52  1  0.00168084  0.61532018  0.80629100  1
  Zr  Zr53  1  0.00874678  0.60172011  0.00478596  1
  Zr  Zr54  1  0.89919406  0.10286749  0.09932976  1
  Zr  Zr55  1  0.69510939  0.50587775  0.27598813  1
  Zr  Zr56  1  0.19188573  0.39128724  0.59271391  1
  Zr  Zr57  1  0.49689611  0.89687292  0.69986604  1
  Zr  Zr58  1  0.11349364  0.89899782  0.90515733  1
  Zr  Zr59  1  0.40052904  0.00549289  0.20483542  1
  Zr  Zr60  1  0.72458831  0.71599881  0.70660156  1
  Zr  Zr61  1  0.80915834  0.39319444  0.19479003  1
  Zr  Zr62  1  0.28989414  0.70191036  0.68618212  1
  Zr  Zr63  1  0.41475646  0.61200242  0.60281294  1
  Zr  Zr64  1  0.00019383  -0.01120497  0.80476752  1
  Zr  Zr65  1  0.00746790  0.20118939  0.59959678  1
  Zr  Zr66  1  0.79329618  0.39564967  -0.00094984  1
  Zr  Zr67  1  0.50465884  0.29142487  0.50754522  1
  Zr  Zr68  1  0.78814142  0.20121858  -0.00703769  1
  Zr  Zr69  1  0.00272438  0.20046378  0.80712644  1
  Zr  Zr70  1  0.50255369  0.50319315  0.49495693  1
  Zr  Zr71  1  0.40535979  0.19708189  0.38012315  1
  Zr  Zr72  1  0.59850997  0.80564917  0.20062737  1
  Zr  Zr73  1  0.60054781  0.39918245  0.39218014  1
  Zr  Zr74  1  -0.00169525  -0.01197512  0.60245467  1
  Zr  Zr75  1  0.19956630  0.60759115  0.80853071  1
  Zr  Zr76  1  0.40538139  0.81362070  0.19788920  1
  Zr  Zr77  1  0.20208838  0.39754134  0.19141483  1
  Zr  Zr78  1  0.00557545  0.79452500  -0.00424521  1
  Zr  Zr79  1  0.90054581  0.09767460  0.90291184  1
  Zr  Zr80  1  0.59308485  0.00491188  0.19566737  1
  Zr  Zr81  1  0.80074924  0.20223433  0.60133244  1
  Zr  Zr82  1  0.09876273  0.50440812  0.49978578  1
  Zr  Zr83  1  0.60487470  0.59160998  0.00154110  1
  Zr  Zr84  1  0.00073627  0.20227028  0.40104906  1
  Zr  Zr85  1  0.89778010  0.08803094  0.50086590  1
  Zr  Zr86  1  0.90156942  0.50535953  0.29093678  1
  Zr  Zr87  1  0.30747366  0.89425921  0.90779286  1
  Zr  Zr88  1  0.20451918  0.20508355  0.39911052  1
  Zr  Zr89  1  0.29254373  0.89364117  0.69665063  1
  Zr  Zr90  1  0.59674359  0.00482723  0.80842496  1
  Zr  Zr91  1  0.79475005  0.40529537  0.59919993  1
  Zr  Zr92  1  0.89768127  0.89679693  0.09778248  1
  Zr  Zr93  1  0.49326901  0.49872062  0.90190727  1
  Zr  Zr94  1  0.19832057  0.39107513  0.80285533  1
  Zr  Zr95  1  0.30272094  0.69975357  0.29294672  1
  Zr  Zr96  1  0.19440982  0.19694203  0.60031142  1
  Zr  Zr97  1  -0.00193190  0.80353875  0.39616595  1
  Zr  Zr98  1  0.90811499  0.31494661  0.50679366  1
  Zr  Zr99  1  0.79470035  0.00304596  0.19997429  1
  Ta  Ta100  1  0.59968327  0.40467071  0.60156074  1
  Ta  Ta101  1  0.49748233  0.50479717  0.28739910  1
  Ta  Ta102  1  0.79904978  0.79436914  0.21022675  1
  Ta  Ta103  1  0.79354278  0.20235347  0.80699600  1
  Ta  Ta104  1  0.20486886  0.00744565  0.79972870  1
  Ta  Ta105  1  0.20044243  -0.00104496  0.59955783  1
  Ta  Ta106  1  0.10603458  0.90509048  0.29821807  1
  Ta  Ta107  1  0.09974015  0.10414855  0.10144955  1
  Ta  Ta108  1  0.40624296  0.40380148  0.60295336  1
  Ta  Ta109  1  0.79967185  0.60438189  0.59430981  1
  Ta  Ta110  1  0.20105724  0.20211111  0.00397384  1
  Ta  Ta111  1  0.29780589  0.89347513  0.09771749  1
  Ta  Ta112  1  0.59867401  0.80178366  0.00199815  1
  Ta  Ta113  1  0.00534026  -0.00445938  0.19795000  1
  Ta  Ta114  1  0.50289032  0.50017889  0.70447721  1
  Ta  Ta115  1  0.19811717  0.19344166  0.80499447  1
  Ta  Ta116  1  0.59768823  0.19770064  0.39057905  1
  Ta  Ta117  1  0.10359791  0.09233444  0.70308902  1
  Ta  Ta118  1  0.90287469  0.50584326  0.50016459  1
  Ta  Ta119  1  0.70371388  0.90284914  0.50227569  1
  Ta  Ta120  1  0.79474890  0.59095294  0.00132897  1
  Ta  Ta121  1  0.49988106  0.49714809  0.10895839  1
  Ta  Ta122  1  0.69460861  0.29881022  0.49527225  1
  Ta  Ta123  1  0.10490388  0.08794911  0.49755612  1
  Ta  Ta124  1  0.20218909  -0.00060568  0.19484487  1
  Ta  Ta125  1  0.00287095  -0.00171465  0.00336393  1
  Ta  Ta126  1  -0.00269831  0.60566402  0.60225094  1
  Ta  Ta127  1  0.90540247  0.30834734  0.70809848  1
  Ta  Ta128  1  0.10029268  0.70805277  0.69090934  1
  Ta  Ta129  1  0.01236582  0.60017437  0.19757345  1
  Ta  Ta130  1  0.30353782  0.09772022  0.49960258  1
  Ta  Ta131  1  0.70537457  0.89850411  0.89951777  1
  Ta  Ta132  1  0.70322502  0.09398735  0.70143393  1
  Ta  Ta133  1  0.29267314  0.69969888  0.50035111  1
  Ta  Ta134  1  0.40119788  0.60680006  0.39907132  1
  Ta  Ta135  1  0.69634554  0.29732077  0.29393836  1
  Ta  Ta136  1  0.30472461  0.70085743  0.09690421  1
  Ta  Ta137  1  0.30817731  0.49897950  0.09770996  1
  Ta  Ta138  1  0.79966126  0.39959245  0.39423271  1
  Ta  Ta139  1  0.19892206  0.60038487  0.00580544  1
  Ta  Ta140  1  0.30278666  0.50133834  0.90902252  1
  Ta  Ta141  1  0.50300992  0.29810282  0.69452205  1
  Ta  Ta142  1  0.10217217  0.90284834  0.49683263  1
  Ta  Ta143  1  0.79224431  0.00134445  -0.00324205  1
  Ta  Ta144  1  0.70167491  0.89613991  0.09608936  1
  Ta  Ta145  1  0.79705582  0.38563106  0.80993592  1
  Ta  Ta146  1  0.49435413  0.69445603  0.10048696  1
  Ta  Ta147  1  0.30122503  0.10346601  0.90820408  1
  Ta  Ta148  1  0.49869587  0.10244329  0.49853474  1
  Ta  Ta149  1  0.60029161  0.39550221  0.00348026  1
  Ti  Ti150  1  0.50527048  0.71008864  0.49115523  1
  Ti  Ti151  1  0.40154789  -0.00098709  0.01462800  1
  Ti  Ti152  1  0.79602755  0.80062240  -0.00024501  1
  Ti  Ti153  1  0.70614284  0.69975635  0.90282474  1
  Ti  Ti154  1  0.10916572  0.89405515  0.69722213  1
  Ti  Ti155  1  0.90080885  0.90356967  0.29767771  1
  Ti  Ti156  1  0.20010420  0.39829260  0.39390480  1
  Ti  Ti157  1  0.70148123  0.49791747  0.89527023  1
  Ti  Ti158  1  0.10534710  0.70344300  0.50840703  1
  Ti  Ti159  1  0.29368960  0.90524785  0.29596219  1
  Ti  Ti160  1  0.89595637  0.70303693  0.70108167  1
  Ti  Ti161  1  0.29881012  0.10154663  0.69558338  1
  Ti  Ti162  1  0.29614227  0.10529376  0.29104562  1
  Ti  Ti163  1  0.49426923  0.11305806  0.11059625  1
  Ti  Ti164  1  0.39948433  0.00104694  0.40095596  1
  Ti  Ti165  1  0.00593694  0.40414458  0.19376611  1
  Ti  Ti166  1  -0.00117083  0.80559846  0.60052141  1
  Ti  Ti167  1  0.19979332  0.39939910  0.00914292  1
  Ti  Ti168  1  0.50544299  0.90466203  0.31621494  1
  Ti  Ti169  1  0.30007445  0.11088525  0.10473021  1
  Ti  Ti170  1  0.10643440  0.89907304  0.10048526  1
  Ti  Ti171  1  0.39836841  0.38702071  0.20044761  1
  Ti  Ti172  1  0.19678359  0.79833592  0.19655922  1
  Ti  Ti173  1  0.09017237  0.30496668  0.70329159  1
  Ti  Ti174  1  0.69621878  0.10806194  0.29254659  1
  Ti  Ti175  1  0.40683942  0.80085088  0.59147829  1
  Ti  Ti176  1  0.80316760  -0.00392611  0.40134474  1
  Ti  Ti177  1  0.49433688  0.89640035  0.91004370  1
  Ti  Ti178  1  0.59421090  0.00597240  0.40339717  1
  Ti  Ti179  1  0.19741113  0.79383166  0.80775088  1
  Ti  Ti180  1  0.50008453  0.29803761  0.11045322  1
  Ti  Ti181  1  0.10233092  0.10157269  0.90665701  1
  Ti  Ti182  1  0.88389242  0.69788630  0.90030240  1
  Ti  Ti183  1  0.39647485  0.59708366  0.00520489  1
  Ti  Ti184  1  0.10169825  0.28986892  0.09857366  1
  Ti  Ti185  1  0.89813819  0.28734458  0.09748116  1
  Ti  Ti186  1  0.40261439  0.39470394  0.01027692  1
  Ti  Ti187  1  0.19377615  0.60454986  0.39060111  1
  Ti  Ti188  1  0.20853685  -0.00010036  0.40018033  1
  Ti  Ti189  1  0.09707817  0.29525946  0.90765253  1
  Ti  Ti190  1  -0.00329581  -0.00707409  0.39853325  1
  Ti  Ti191  1  0.70492446  0.49931659  0.49571921  1
  Ti  Ti192  1  0.29240463  0.89825334  0.50341823  1
  Ti  Ti193  1  0.49883255  0.30019632  0.90524479  1
  Ti  Ti194  1  0.89855617  0.09417153  0.29821186  1
  Ti  Ti195  1  0.48568155  0.09941258  0.91542152  1
  Ti  Ti196  1  0.39712017  0.20654077  0.01116880  1
  Ti  Ti197  1  0.89836528  0.50580286  0.10099858  1
  Ti  Ti198  1  0.59976232  0.39553448  0.80558084  1
  Ti  Ti199  1  0.30095674  0.69771465  0.91132956  1
  Mo  Mo200  1  0.79954119  0.80128872  0.58614881  1
  Mo  Mo201  1  0.79932456  0.60272693  0.80919581  1
  Mo  Mo202  1  0.59271255  0.19618497  0.20405483  1
  Mo  Mo203  1  0.90316548  0.29776375  0.89862734  1
  Mo  Mo204  1  0.70322996  0.90627090  0.70340442  1
  Mo  Mo205  1  0.40195335  0.79539950  0.00311901  1
  Mo  Mo206  1  0.89048690  0.89964609  0.90561259  1
  Mo  Mo207  1  0.30554460  0.30034648  0.09577662  1
  Mo  Mo208  1  0.10312313  0.30262337  0.49301807  1
  Mo  Mo209  1  0.49996340  0.70012429  0.70074251  1
  Mo  Mo210  1  0.20512470  0.79272635  0.00904188  1
  Mo  Mo211  1  0.19048290  0.80566659  0.58799658  1
  Mo  Mo212  1  0.50465267  0.90382446  0.49205941  1
  Mo  Mo213  1  0.11015025  0.70368840  0.09876095  1
  Mo  Mo214  1  0.18992222  0.60684030  0.59620470  1
  Mo  Mo215  1  0.80351258  0.80174167  0.82196837  1
  Mo  Mo216  1  0.79122832  -0.00086085  0.80413571  1
  Mo  Mo217  1  0.10134175  0.49325597  0.09648773  1
  Mo  Mo218  1  0.50236571  0.09758410  0.30415343  1
  Mo  Mo219  1  0.59060688  0.39670140  0.19574356  1
  Mo  Mo220  1  0.59478232  0.59851849  0.19559871  1
  Mo  Mo221  1  0.59876942  0.80659074  0.40545792  1
  Mo  Mo222  1  0.30165231  0.30030107  0.28890321  1
  Mo  Mo223  1  0.80286285  0.60161628  0.19356729  1
  Mo  Mo224  1  0.69514129  0.49455408  0.09418942  1
  Mo  Mo225  1  -0.00195853  0.40791401  0.60393524  1
  Mo  Mo226  1  0.69911326  0.70361289  0.29649816  1
  Mo  Mo227  1  0.69704769  0.09800687  0.10171481  1
  Mo  Mo228  1  0.70068334  0.09450013  0.89708996  1
  Mo  Mo229  1  0.79773768  0.19719862  0.20647772  1
  Mo  Mo230  1  0.39763522  0.20406584  0.19666496  1
  Mo  Mo231  1  0.10397810  0.70379145  0.29458064  1
  Mo  Mo232  1  0.01012920  0.20034001  0.00462752  1
  Mo  Mo233  1  0.40333867  0.19220341  0.60267883  1
  Mo  Mo234  1  0.10321000  0.49926368  0.29499769  1
  Mo  Mo235  1  0.59990370  0.19657630  0.59885641  1
  Mo  Mo236  1  0.39725789  0.59662482  0.80491969  1
  Mo  Mo237  1  0.50661615  0.29826664  0.28460564  1
  Mo  Mo238  1  0.89912241  0.30528635  0.29399375  1
  Mo  Mo239  1  0.89736577  0.89964001  0.49933433  1
  Mo  Mo240  1  -0.00377802  0.39007364  0.80684240  1
  Mo  Mo241  1  0.20546990  0.19611552  0.19217704  1
  Mo  Mo242  1  0.39933998  0.59685192  0.19426296  1
  Mo  Mo243  1  0.50201900  0.10922507  0.68708491  1
  Mo  Mo244  1  0.78897650  -0.00575656  0.60204234  1
  Mo  Mo245  1  0.68620008  0.30185897  0.89589336  1
  Mo  Mo246  1  0.49525309  0.89670275  0.08437959  1
  Mo  Mo247  1  0.70414295  0.70564741  0.50022025  1
  Mo  Mo248  1  0.89913800  0.69920878  0.29055059  1
  Mo  Mo249  1  0.11446163  0.70438759  0.90276653  1
