# generated using pymatgen
data_HfZrTaTiMo
_symmetry_space_group_name_H-M   'P 1'
_cell_length_a   16.90033051
_cell_length_b   16.87491999
_cell_length_c   16.88182149
_cell_angle_alpha   90.09036328
_cell_angle_beta   89.98417649
_cell_angle_gamma   89.97039858
_symmetry_Int_Tables_number   1
_chemical_formula_structural   HfZrTaTiMo
_chemical_formula_sum   'Hf50 Zr50 Ta50 Ti50 Mo50'
_cell_volume   4814.54897944
_cell_formula_units_Z   50
loop_
 _symmetry_equiv_pos_site_id
 _symmetry_equiv_pos_as_xyz
  1  'x, y, z'
loop_
 _atom_site_type_symbol
 _atom_site_label
 _atom_site_symmetry_multiplicity
 _atom_site_fract_x
 _atom_site_fract_y
 _atom_site_fract_z
 _atom_site_occupancy
  Hf  Hf0  1  0.31071680  0.49979582  0.29010244  1
  Hf  Hf1  1  0.50414513  0.70127807  0.70443595  1
  Hf  Hf2  1  0.30642543  0.30693665  0.30450369  1
  Hf  Hf3  1  0.89410279  0.89336837  0.89903643  1
  Hf  Hf4  1  0.20837594  0.80064666  -0.00772942  1
  Hf  Hf5  1  0.40528322  0.80881728  0.60091400  1
  Hf  Hf6  1  0.08733775  0.50563975  0.90294425  1
  Hf  Hf7  1  0.89800632  0.29673665  0.70118525  1
  Hf  Hf8  1  0.30196437  0.70489055  0.29173987  1
  Hf  Hf9  1  0.59912330  0.80310036  0.40182222  1
  Hf  Hf10  1  0.89373269  0.69682716  0.90349910  1
  Hf  Hf11  1  0.29723087  0.90010805  0.50065353  1
  Hf  Hf12  1  0.50100840  0.50956850  0.90342631  1
  Hf  Hf13  1  0.08416338  0.69744007  0.90081670  1
  Hf  Hf14  1  0.09762053  0.09772754  0.10228635  1
  Hf  Hf15  1  0.69310330  0.72319030  0.70598099  1
  Hf  Hf16  1  0.09875648  0.30041626  0.11426561  1
  Hf  Hf17  1  0.29999787  0.30278890  0.09920848  1
  Hf  Hf18  1  0.19978599  0.00157702  0.60797352  1
  Hf  Hf19  1  0.69523329  0.69999506  0.90216477  1
  Hf  Hf20  1  0.69876858  0.30455894  0.90170365  1
  Hf  Hf21  1  0.10208514  0.50217565  0.69219603  1
  Hf  Hf22  1  -0.00486431  0.19845149  -0.00494127  1
  Hf  Hf23  1  0.80207864  0.19610589  0.59135089  1
  Hf  Hf24  1  0.89059555  0.70238203  0.50075175  1
  Hf  Hf25  1  0.30321970  0.29103654  0.89675884  1
  Hf  Hf26  1  -0.00375307  0.00242409  0.59401927  1
  Hf  Hf27  1  0.09510318  0.10580885  0.30233625  1
  Hf  Hf28  1  0.60569044  0.60316459  0.40126726  1
  Hf  Hf29  1  0.20018596  0.40129442  0.79755703  1
  Hf  Hf30  1  0.10033652  0.89161590  0.30172265  1
  Hf  Hf31  1  0.42475871  0.40192795  0.17933149  1
  Hf  Hf32  1  0.09514005  0.10804969  0.70311668  1
  Hf  Hf33  1  0.19989465  -0.01521129  -0.00170380  1
  Hf  Hf34  1  0.08753713  0.69441813  0.09496559  1
  Hf  Hf35  1  0.57695755  0.40064880  0.02007925  1
  Hf  Hf36  1  0.10305394  0.70106630  0.50189123  1
  Hf  Hf37  1  -0.00147398  -0.01040535  0.20475435  1
  Hf  Hf38  1  0.59049308  0.19448117  -0.00095322  1
  Hf  Hf39  1  0.89731334  0.10137257  0.69908142  1
  Hf  Hf40  1  0.50312945  0.70159772  0.09025587  1
  Hf  Hf41  1  0.69813228  0.90762792  0.50837142  1
  Hf  Hf42  1  0.70202407  0.89726335  0.09977066  1
  Hf  Hf43  1  0.70717831  0.90071351  0.30452222  1
  Hf  Hf44  1  0.19300402  0.80184501  0.18216525  1
  Hf  Hf45  1  0.50703928  0.30360542  0.50777458  1
  Hf  Hf46  1  0.40925017  -0.00463340  0.40561091  1
  Hf  Hf47  1  0.21246480  0.59725180  0.80828600  1
  Hf  Hf48  1  -0.00934600  0.40176163  0.00426842  1
  Hf  Hf49  1  0.09781181  0.49042404  0.29490269  1
  Zr  Zr50  1  0.80013963  0.21137272  0.22538722  1
  Zr  Zr51  1  0.88863116  0.70829925  0.70404824  1
  Zr  Zr52  1  0.20392297  0.80285318  0.80671363  1
  Zr  Zr53  1  0.49949376  0.70137235  0.28496553  1
  Zr  Zr54  1  0.09695693  0.50194133  0.50340961  1
  Zr  Zr55  1  0.70123022  0.30919592  0.10199805  1
  Zr  Zr56  1  0.80552756  0.41457448  0.20283450  1
  Zr  Zr57  1  0.40158080  0.58961832  0.58119108  1
  Zr  Zr58  1  0.80574194  0.20048739  -0.00111457  1
  Zr  Zr59  1  0.51109317  0.09906865  0.51040755  1
  Zr  Zr60  1  0.70543260  0.48691608  0.49646950  1
  Zr  Zr61  1  0.09721525  0.29203708  0.89025744  1
  Zr  Zr62  1  -0.00419103  0.80779555  0.60040785  1
  Zr  Zr63  1  0.10251631  0.09957869  0.89683449  1
  Zr  Zr64  1  0.20579329  0.40558146  -0.00638600  1
  Zr  Zr65  1  0.20628811  0.40661685  0.40597551  1
  Zr  Zr66  1  0.19853438  0.81235742  0.62208240  1
  Zr  Zr67  1  0.40616953  0.19545448  0.19963448  1
  Zr  Zr68  1  0.89837628  0.49069224  0.49653653  1
  Zr  Zr69  1  0.10257952  0.89553379  0.49143427  1
  Zr  Zr70  1  0.09913620  0.49656454  0.10643415  1
  Zr  Zr71  1  0.59686717  -0.00386234  0.20467699  1
  Zr  Zr72  1  0.09768522  0.30103934  0.30204550  1
  Zr  Zr73  1  0.30278284  0.89459310  0.29192414  1
  Zr  Zr74  1  0.30353809  0.29756232  0.50390064  1
  Zr  Zr75  1  0.21095579  0.60588846  -0.00287293  1
  Zr  Zr76  1  0.78934701  0.59482023  0.60712153  1
  Zr  Zr77  1  0.69346647  0.10215807  0.89676414  1
  Zr  Zr78  1  0.20878480  0.19185453  0.20586107  1
  Zr  Zr79  1  0.79009362  0.00199648  0.79815798  1
  Zr  Zr80  1  0.69995877  0.49390934  0.91540895  1
  Zr  Zr81  1  0.90517103  0.10566542  0.11661900  1
  Zr  Zr82  1  0.70067124  0.09775458  0.10711349  1
  Zr  Zr83  1  0.30670069  0.69139146  0.70002636  1
  Zr  Zr84  1  0.40437384  0.60474310  0.40271156  1
  Zr  Zr85  1  0.39682805  0.40301117  0.80239283  1
  Zr  Zr86  1  0.80371835  0.00101784  -0.00147130  1
  Zr  Zr87  1  0.20323907  -0.01552728  0.79608510  1
  Zr  Zr88  1  0.41090682  0.80335370  0.40377460  1
  Zr  Zr89  1  0.49561595  0.49531850  0.69275448  1
  Zr  Zr90  1  0.69892960  0.29833654  0.49487677  1
  Zr  Zr91  1  -0.01911166  0.59525438  0.20410174  1
  Zr  Zr92  1  0.50002174  0.31016875  0.31541707  1
  Zr  Zr93  1  0.30597490  0.08487607  0.09650499  1
  Zr  Zr94  1  0.70512624  0.09385006  0.49503485  1
  Zr  Zr95  1  0.60885074  0.58867252  0.79138095  1
  Zr  Zr96  1  0.20207698  0.00705981  0.39502381  1
  Zr  Zr97  1  0.59581929  0.20600287  0.20272414  1
  Zr  Zr98  1  -0.00736340  0.60490042  0.39214388  1
  Zr  Zr99  1  -0.01280109  0.59340380  0.79057548  1
  Ta  Ta100  1  0.20383700  0.60206542  0.39615596  1
  Ta  Ta101  1  0.49659681  0.08842759  0.09538677  1
  Ta  Ta102  1  0.31644282  0.70417130  0.10094131  1
  Ta  Ta103  1  0.79496127  0.79610686  0.00419431  1
  Ta  Ta104  1  0.30972218  0.50727696  0.10041846  1
  Ta  Ta105  1  0.50340034  0.70317451  0.89629879  1
  Ta  Ta106  1  -0.00595672  0.39948043  0.79575931  1
  Ta  Ta107  1  -0.01146269  0.20072802  0.40316358  1
  Ta  Ta108  1  -0.00017457  0.80615484  0.79435798  1
  Ta  Ta109  1  0.69932759  0.29605681  0.69734911  1
  Ta  Ta110  1  0.10297134  0.11077889  0.49463756  1
  Ta  Ta111  1  0.51605025  0.70381378  0.51471872  1
  Ta  Ta112  1  0.90526679  0.30429619  0.11130658  1
  Ta  Ta113  1  0.50176054  0.09817717  0.30582966  1
  Ta  Ta114  1  0.09936507  0.29516092  0.49592599  1
  Ta  Ta115  1  0.28778513  0.70507041  0.49943422  1
  Ta  Ta116  1  0.50054090  0.09559685  0.69923750  1
  Ta  Ta117  1  0.89773246  0.89337635  0.10302029  1
  Ta  Ta118  1  0.30558221  0.09525531  0.89316943  1
  Ta  Ta119  1  0.79528558  0.40295547  0.79621953  1
  Ta  Ta120  1  0.59302178  -0.00550119  -0.00755721  1
  Ta  Ta121  1  0.80596216  -0.00321809  0.20867259  1
  Ta  Ta122  1  0.29965227  0.49597283  0.68840259  1
  Ta  Ta123  1  0.89376213  0.70027187  0.09883285  1
  Ta  Ta124  1  0.39973667  0.80712484  0.80242207  1
  Ta  Ta125  1  -0.00897203  0.00158999  0.40293239  1
  Ta  Ta126  1  0.09982140  0.69454636  0.69972068  1
  Ta  Ta127  1  0.88748424  0.90395002  0.70074781  1
  Ta  Ta128  1  0.88972723  0.49777607  0.90510004  1
  Ta  Ta129  1  0.49843881  0.29602626  0.89633670  1
  Ta  Ta130  1  0.30988123  0.09972196  0.69974100  1
  Ta  Ta131  1  -0.01073661  0.79823266  0.39291044  1
  Ta  Ta132  1  0.30507355  0.29707599  0.69583148  1
  Ta  Ta133  1  -0.00117669  0.20179289  0.59162650  1
  Ta  Ta134  1  0.00092882  0.38963941  0.59841382  1
  Ta  Ta135  1  0.59420637  0.19878344  0.79470202  1
  Ta  Ta136  1  0.79719441  0.60259171  0.38496577  1
  Ta  Ta137  1  0.59949888  0.39303665  0.79699913  1
  Ta  Ta138  1  0.40469464  0.19810699  0.60570425  1
  Ta  Ta139  1  0.31918517  0.89405352  0.09458160  1
  Ta  Ta140  1  0.60732386  0.59787113  0.19168911  1
  Ta  Ta141  1  0.30222825  0.10348058  0.50700001  1
  Ta  Ta142  1  0.59416810  -0.00163031  0.80005824  1
  Ta  Ta143  1  0.89463278  0.30444591  0.89435141  1
  Ta  Ta144  1  0.40740119  0.42513198  0.42696429  1
  Ta  Ta145  1  0.79376491  0.58914325  0.79672144  1
  Ta  Ta146  1  0.50781635  0.50177899  0.29564542  1
  Ta  Ta147  1  0.40402208  0.19207177  -0.00586524  1
  Ta  Ta148  1  -0.00620645  -0.00061754  0.80204049  1
  Ta  Ta149  1  0.20485179  0.60265120  0.19735809  1
  Ti  Ti150  1  0.69639080  0.50163903  0.09800564  1
  Ti  Ti151  1  0.89440133  0.89554841  0.30421138  1
  Ti  Ti152  1  0.70571274  0.09394529  0.31126541  1
  Ti  Ti153  1  0.79610288  0.19864324  0.80080606  1
  Ti  Ti154  1  -0.00598160  -0.00029011  -0.00126061  1
  Ti  Ti155  1  0.89308040  0.48770121  0.69250634  1
  Ti  Ti156  1  -0.00776128  0.59994436  0.60150665  1
  Ti  Ti157  1  0.80866852  0.39495192  0.38656174  1
  Ti  Ti158  1  0.20063214  0.39525358  0.60000248  1
  Ti  Ti159  1  0.69585663  0.88941946  0.89076759  1
  Ti  Ti160  1  0.60759717  0.59407486  0.60084176  1
  Ti  Ti161  1  0.40993581  -0.00725779  0.20751148  1
  Ti  Ti162  1  0.20800458  0.19714232  0.79201585  1
  Ti  Ti163  1  0.49715879  0.89590863  0.09667807  1
  Ti  Ti164  1  0.40750459  -0.00376766  -0.01494404  1
  Ti  Ti165  1  0.51070985  0.90321341  0.69412391  1
  Ti  Ti166  1  0.80131959  0.79448788  0.19819262  1
  Ti  Ti167  1  0.88569019  0.90801723  0.49563099  1
  Ti  Ti168  1  0.40201082  0.19406739  0.40644242  1
  Ti  Ti169  1  0.79896053  0.79438731  0.39835061  1
  Ti  Ti170  1  0.79582154  0.60008028  0.01212515  1
  Ti  Ti171  1  0.68811311  0.31616160  0.30770095  1
  Ti  Ti172  1  0.39703881  0.60400267  -0.00781059  1
  Ti  Ti173  1  0.50020524  0.29641989  0.69748185  1
  Ti  Ti174  1  0.60246348  0.80246056  -0.00054840  1
  Ti  Ti175  1  0.40572231  -0.00579028  0.79870149  1
  Ti  Ti176  1  0.70013643  0.70694131  0.50788753  1
  Ti  Ti177  1  0.89581542  0.10178973  0.31108330  1
  Ti  Ti178  1  0.70084897  0.70317603  0.29137105  1
  Ti  Ti179  1  0.40748478  0.19290018  0.79925858  1
  Ti  Ti180  1  0.60052383  0.80206741  0.19769566  1
  Ti  Ti181  1  0.20120960  0.20033131  0.60119609  1
  Ti  Ti182  1  -0.00408435  0.80515380  0.00577287  1
  Ti  Ti183  1  0.79435175  0.81222667  0.60391718  1
  Ti  Ti184  1  0.60441511  0.40036570  0.60646455  1
  Ti  Ti185  1  0.08686804  0.89782318  0.90109944  1
  Ti  Ti186  1  0.50305837  0.89289777  0.89857511  1
  Ti  Ti187  1  0.20508430  0.19297672  -0.00022468  1
  Ti  Ti188  1  0.89788530  0.30212387  0.49314755  1
  Ti  Ti189  1  0.30727639  0.09963953  0.30623487  1
  Ti  Ti190  1  0.60396111  0.19701511  0.39479002  1
  Ti  Ti191  1  0.79568082  0.60183086  0.20061603  1
  Ti  Ti192  1  0.59275403  -0.00688937  0.39838449  1
  Ti  Ti193  1  0.10264198  0.70231865  0.29902354  1
  Ti  Ti194  1  0.40103653  0.40034337  -0.00258239  1
  Ti  Ti195  1  0.69293463  0.49608421  0.29843343  1
  Ti  Ti196  1  0.09750266  0.29574558  0.69759784  1
  Ti  Ti197  1  0.69064208  0.09778616  0.68927882  1
  Ti  Ti198  1  -0.00811521  0.79656577  0.20246504  1
  Ti  Ti199  1  0.19739445  -0.00988792  0.19217652  1
  Mo  Mo200  1  0.21778231  0.40923595  0.19776761  1
  Mo  Mo201  1  0.80056124  -0.00010593  0.60068868  1
  Mo  Mo202  1  0.20196712  0.60243788  0.59920782  1
  Mo  Mo203  1  0.80185400  0.20308473  0.39785557  1
  Mo  Mo204  1  -0.00435190  0.20056376  0.20997428  1
  Mo  Mo205  1  0.59341641  0.81082621  0.80370098  1
  Mo  Mo206  1  0.90280826  0.10101248  0.49540502  1
  Mo  Mo207  1  0.60276665  0.60335043  0.00582871  1
  Mo  Mo208  1  0.89395218  0.50124611  0.30257219  1
  Mo  Mo209  1  0.49584290  0.09523698  0.89288147  1
  Mo  Mo210  1  0.19444314  0.78831825  0.39046246  1
  Mo  Mo211  1  0.70183468  0.48188024  0.69649060  1
  Mo  Mo212  1  0.40897301  0.80591511  0.18969021  1
  Mo  Mo213  1  0.80451017  0.38958723  0.60470087  1
  Mo  Mo214  1  0.40224203  0.00223574  0.60482228  1
  Mo  Mo215  1  0.40723285  0.80354248  -0.00767346  1
  Mo  Mo216  1  0.60231754  0.41081371  0.20260952  1
  Mo  Mo217  1  0.20792672  0.19693598  0.40593650  1
  Mo  Mo218  1  0.88963101  0.50526183  0.09568707  1
  Mo  Mo219  1  0.50885252  0.90195064  0.50877434  1
  Mo  Mo220  1  0.39961084  0.60359947  0.80745942  1
  Mo  Mo221  1  0.59800827  0.40804426  0.39938356  1
  Mo  Mo222  1  0.90446879  0.10694845  0.88976844  1
  Mo  Mo223  1  0.69577319  0.90689181  0.70062101  1
  Mo  Mo224  1  -0.00696718  0.20177778  0.79781937  1
  Mo  Mo225  1  0.49875904  0.52150154  0.09768543  1
  Mo  Mo226  1  0.08467450  0.89671757  0.09561842  1
  Mo  Mo227  1  0.80636711  0.39983239  0.00323969  1
  Mo  Mo228  1  0.50585637  0.90245213  0.29647338  1
  Mo  Mo229  1  0.88523977  0.70798047  0.29608979  1
  Mo  Mo230  1  0.32167081  0.91025531  0.70250449  1
  Mo  Mo231  1  0.70015024  0.70227784  0.10240506  1
  Mo  Mo232  1  0.39900918  0.39521307  0.60201559  1
  Mo  Mo233  1  0.80857510  0.00015049  0.39730099  1
  Mo  Mo234  1  -0.00354838  0.39327164  0.40331664  1
  Mo  Mo235  1  0.90952321  0.30749839  0.30506168  1
  Mo  Mo236  1  0.31048494  0.50105960  0.90242483  1
  Mo  Mo237  1  0.40479442  0.60214210  0.19272469  1
  Mo  Mo238  1  -0.01131715  0.39918226  0.20393856  1
  Mo  Mo239  1  0.79675332  0.80417703  0.80652632  1
  Mo  Mo240  1  0.60014474  0.20046662  0.61244152  1
  Mo  Mo241  1  0.31709917  0.90245357  0.90110111  1
  Mo  Mo242  1  0.52067372  0.50072411  0.50031809  1
  Mo  Mo243  1  0.31909815  0.70289928  0.90125312  1
  Mo  Mo244  1  0.28515741  0.50640031  0.50613330  1
  Mo  Mo245  1  0.60080750  -0.00028738  0.61014583  1
  Mo  Mo246  1  0.49442137  0.28413617  0.09046180  1
  Mo  Mo247  1  0.08016922  0.90597410  0.70659919  1
  Mo  Mo248  1  0.59912487  0.80788355  0.60165232  1
  Mo  Mo249  1  -0.01855258  0.59853338  0.00428687  1
