# generated using pymatgen
data_HfZrTaTiMo
_symmetry_space_group_name_H-M   'P 1'
_cell_length_a   16.89184806
_cell_length_b   16.89209543
_cell_length_c   16.88758621
_cell_angle_alpha   90.03298546
_cell_angle_beta   89.95728606
_cell_angle_gamma   90.03506802
_symmetry_Int_Tables_number   1
_chemical_formula_structural   HfZrTaTiMo
_chemical_formula_sum   'Hf50 Zr50 Ta50 Ti50 Mo50'
_cell_volume   4818.67901661
_cell_formula_units_Z   50
loop_
 _symmetry_equiv_pos_site_id
 _symmetry_equiv_pos_as_xyz
  1  'x, y, z'
loop_
 _atom_site_type_symbol
 _atom_site_label
 _atom_site_symmetry_multiplicity
 _atom_site_fract_x
 _atom_site_fract_y
 _atom_site_fract_z
 _atom_site_occupancy
  Hf  Hf0  1  0.50359720  0.09789459  0.29384242  1
  Hf  Hf1  1  0.50731274  0.09112320  0.10194361  1
  Hf  Hf2  1  0.00764365  0.59576646  0.00608017  1
  Hf  Hf3  1  0.60176367  0.80580613  0.80098304  1
  Hf  Hf4  1  0.19768355  0.39064515  0.40528082  1
  Hf  Hf5  1  0.20096966  0.00871892  -0.00049965  1
  Hf  Hf6  1  0.29753488  0.30163705  0.29154123  1
  Hf  Hf7  1  0.69995325  0.29927376  0.29859653  1
  Hf  Hf8  1  0.10289831  0.90885100  0.88975257  1
  Hf  Hf9  1  0.59915274  0.59862753  -0.00290484  1
  Hf  Hf10  1  0.60399525  0.39179011  -0.00785006  1
  Hf  Hf11  1  -0.00162578  0.39238405  -0.00418318  1
  Hf  Hf12  1  0.29239637  0.50290218  0.11318985  1
  Hf  Hf13  1  0.20259250  0.60595578  0.79797024  1
  Hf  Hf14  1  0.38847945  -0.00291751  0.39602066  1
  Hf  Hf15  1  0.59675316  0.60626799  0.20342190  1
  Hf  Hf16  1  0.90511399  0.10041749  0.70924699  1
  Hf  Hf17  1  0.20628234  0.80029232  0.00568906  1
  Hf  Hf18  1  0.49801264  0.90423721  0.90453890  1
  Hf  Hf19  1  0.20150685  0.00280877  0.20693130  1
  Hf  Hf20  1  0.10473744  0.28939392  0.09179387  1
  Hf  Hf21  1  0.70700764  0.09741005  0.70701807  1
  Hf  Hf22  1  0.10581689  0.49770788  0.89471961  1
  Hf  Hf23  1  0.70281942  0.09407390  0.09692269  1
  Hf  Hf24  1  0.40091373  0.39214601  0.40540441  1
  Hf  Hf25  1  -0.02155004  -0.02415155  0.40704607  1
  Hf  Hf26  1  0.60771985  -0.00071168  0.39498980  1
  Hf  Hf27  1  0.89447869  0.09638200  0.30796013  1
  Hf  Hf28  1  0.39164671  0.61081473  0.00141419  1
  Hf  Hf29  1  0.79593802  0.20586215  0.59793824  1
  Hf  Hf30  1  0.20526429  0.19368571  0.60550241  1
  Hf  Hf31  1  0.89975643  0.49310999  0.10416570  1
  Hf  Hf32  1  0.70516892  0.89855092  0.50165057  1
  Hf  Hf33  1  0.00048232  0.80187082  0.79819114  1
  Hf  Hf34  1  0.50377019  0.10310030  0.50878804  1
  Hf  Hf35  1  0.50430008  0.90417464  0.50159475  1
  Hf  Hf36  1  0.79798950  0.60082505  0.20485328  1
  Hf  Hf37  1  0.00347500  0.79509440  0.40963415  1
  Hf  Hf38  1  0.50397117  0.29340538  0.69463678  1
  Hf  Hf39  1  0.39247812  0.19746447  0.40567290  1
  Hf  Hf40  1  0.10910346  0.50528942  0.30326520  1
  Hf  Hf41  1  0.89679017  0.69939587  0.90189271  1
  Hf  Hf42  1  0.70794721  0.28813913  0.09615106  1
  Hf  Hf43  1  0.80106564  0.39171183  -0.01700338  1
  Hf  Hf44  1  0.58928084  0.39007633  0.19493016  1
  Hf  Hf45  1  0.91193995  0.11052326  0.50160905  1
  Hf  Hf46  1  0.40019949  0.61138044  0.20168342  1
  Hf  Hf47  1  -0.00121357  0.19831323  0.20138022  1
  Hf  Hf48  1  0.28773430  0.68923028  0.49554861  1
  Hf  Hf49  1  0.70297327  0.70467062  0.90209863  1
  Zr  Zr50  1  0.80091673  0.40667053  0.60359040  1
  Zr  Zr51  1  0.49388981  0.49706753  0.89351865  1
  Zr  Zr52  1  0.70040485  0.49508430  0.30632401  1
  Zr  Zr53  1  0.60121859  0.20882135  0.40609455  1
  Zr  Zr54  1  0.39620199  0.80532922  0.39246122  1
  Zr  Zr55  1  0.80390886  0.80787306  0.80398908  1
  Zr  Zr56  1  0.71084589  0.70025527  0.68415239  1
  Zr  Zr57  1  0.39531399  0.80718388  0.20035876  1
  Zr  Zr58  1  0.19258113  0.18826538  0.20791357  1
  Zr  Zr59  1  0.10332480  0.70310633  0.89488479  1
  Zr  Zr60  1  0.49447996  0.91084496  0.70028557  1
  Zr  Zr61  1  0.00529220  0.39206470  0.20409206  1
  Zr  Zr62  1  0.49920023  0.50350073  0.49942849  1
  Zr  Zr63  1  0.70248140  0.71899851  0.10253742  1
  Zr  Zr64  1  0.19837383  0.80851078  0.40495752  1
  Zr  Zr65  1  0.49451056  0.50074858  0.10116263  1
  Zr  Zr66  1  -0.00106149  0.00214125  0.19438511  1
  Zr  Zr67  1  0.29491088  0.70688800  0.69611217  1
  Zr  Zr68  1  0.60291706  0.60823527  0.40107962  1
  Zr  Zr69  1  0.38090705  0.38610849  0.79719554  1
  Zr  Zr70  1  0.29820210  0.50240068  0.69442160  1
  Zr  Zr71  1  0.39884321  0.01016759  -0.00353013  1
  Zr  Zr72  1  0.70997804  0.09287446  0.90416837  1
  Zr  Zr73  1  0.30021499  0.90443609  0.88561460  1
  Zr  Zr74  1  0.70150484  0.49046149  0.10576288  1
  Zr  Zr75  1  0.10366379  0.49824040  0.69652126  1
  Zr  Zr76  1  0.79560796  0.59049245  -0.00473325  1
  Zr  Zr77  1  0.00347565  0.59656094  0.19935794  1
  Zr  Zr78  1  -0.00336884  0.80430242  0.20407695  1
  Zr  Zr79  1  0.09369252  0.09285564  0.50723015  1
  Zr  Zr80  1  0.20314522  0.39969324  -0.00410054  1
  Zr  Zr81  1  0.50180167  0.49419792  0.69397071  1
  Zr  Zr82  1  0.29439937  0.50559496  0.50016882  1
  Zr  Zr83  1  0.60436296  0.59740749  0.79956991  1
  Zr  Zr84  1  0.91047027  0.90748460  0.70159231  1
  Zr  Zr85  1  0.81343736  0.81870193  0.40065978  1
  Zr  Zr86  1  0.50258397  0.70263117  0.69365218  1
  Zr  Zr87  1  0.81105904  -0.00008594  0.58867195  1
  Zr  Zr88  1  0.39547304  0.38999064  0.00142859  1
  Zr  Zr89  1  0.20289815  0.19092187  0.39971874  1
  Zr  Zr90  1  0.69963332  0.29916339  0.70426198  1
  Zr  Zr91  1  0.39717014  0.18805392  0.80774874  1
  Zr  Zr92  1  0.39068371  0.80786153  0.58727852  1
  Zr  Zr93  1  0.70184505  0.90811338  0.70278926  1
  Zr  Zr94  1  0.90861309  0.30245377  0.50257991  1
  Zr  Zr95  1  -0.00723758  0.39973599  0.80053776  1
  Zr  Zr96  1  0.59854714  0.19515613  0.80740355  1
  Zr  Zr97  1  0.89523277  0.69695937  0.30450152  1
  Zr  Zr98  1  0.00024340  0.80487734  0.00174848  1
  Zr  Zr99  1  0.09031764  0.29506561  0.51079588  1
  Ta  Ta100  1  0.80619767  0.19738059  0.20276952  1
  Ta  Ta101  1  0.50431349  0.71566757  0.09609488  1
  Ta  Ta102  1  0.39392495  0.38247098  0.59398385  1
  Ta  Ta103  1  0.89440294  0.10249563  0.08871084  1
  Ta  Ta104  1  0.49527038  0.71028923  0.90332783  1
  Ta  Ta105  1  0.40110459  0.19815703  0.19668244  1
  Ta  Ta106  1  0.19067658  0.80464796  0.59465408  1
  Ta  Ta107  1  0.00248110  0.60225635  0.40855979  1
  Ta  Ta108  1  0.70383198  0.71334857  0.30152686  1
  Ta  Ta109  1  0.10034167  0.50230428  0.50488989  1
  Ta  Ta110  1  0.29817843  0.50369794  0.30111163  1
  Ta  Ta111  1  0.09683403  0.70444477  0.69252064  1
  Ta  Ta112  1  0.80247349  -0.00015419  0.19999912  1
  Ta  Ta113  1  0.60352862  0.38980311  0.58387844  1
  Ta  Ta114  1  0.89281893  0.70751087  0.09749472  1
  Ta  Ta115  1  0.29882699  0.90487846  0.10298004  1
  Ta  Ta116  1  0.79755711  0.39619452  0.40855328  1
  Ta  Ta117  1  -0.00587300  0.00325531  -0.00645156  1
  Ta  Ta118  1  0.80347461  0.58718217  0.79148658  1
  Ta  Ta119  1  0.60381005  0.80168509  0.39788993  1
  Ta  Ta120  1  0.29549041  0.08984306  0.70707564  1
  Ta  Ta121  1  0.28666204  0.69273318  0.29788460  1
  Ta  Ta122  1  0.39908833  0.60767985  0.80240121  1
  Ta  Ta123  1  0.10255781  0.90276292  0.10034035  1
  Ta  Ta124  1  0.09936646  0.90058997  0.30109202  1
  Ta  Ta125  1  0.89710545  0.49698241  0.31325069  1
  Ta  Ta126  1  0.90084939  0.50432019  0.49899345  1
  Ta  Ta127  1  0.09918331  0.29266243  0.70875521  1
  Ta  Ta128  1  0.11010495  0.69955572  0.11057419  1
  Ta  Ta129  1  0.79754501  0.20385272  0.40017787  1
  Ta  Ta130  1  0.89975048  0.69626952  0.69325125  1
  Ta  Ta131  1  0.29889606  0.29123874  0.10079959  1
  Ta  Ta132  1  0.88822152  0.90107334  0.09260199  1
  Ta  Ta133  1  0.70299837  0.10229901  0.49706800  1
  Ta  Ta134  1  0.70358727  0.90046104  0.29028567  1
  Ta  Ta135  1  0.20560510  0.38591520  0.60561162  1
  Ta  Ta136  1  0.88644114  0.69477433  0.50841219  1
  Ta  Ta137  1  0.59366542  0.19929097  -0.00256660  1
  Ta  Ta138  1  0.10735514  0.69778957  0.30405840  1
  Ta  Ta139  1  0.39224503  0.19900621  0.60080243  1
  Ta  Ta140  1  -0.00296529  0.60019239  0.59864759  1
  Ta  Ta141  1  0.20388738  0.60461377  0.00669800  1
  Ta  Ta142  1  0.49772726  0.29516720  0.90086633  1
  Ta  Ta143  1  0.28804192  0.90669060  0.69971036  1
  Ta  Ta144  1  0.90377277  0.29341155  0.70522050  1
  Ta  Ta145  1  0.30193426  0.70942264  0.89564537  1
  Ta  Ta146  1  0.38552745  0.00614109  0.59427673  1
  Ta  Ta147  1  0.49636085  0.29685592  0.29785349  1
  Ta  Ta148  1  0.10342969  0.29028437  0.89549695  1
  Ta  Ta149  1  0.10361372  0.90826029  0.69913643  1
  Ti  Ti150  1  0.89800170  0.30275812  0.30553971  1
  Ti  Ti151  1  0.60725630  0.60174614  0.58997087  1
  Ti  Ti152  1  0.09783258  0.10238949  0.89510540  1
  Ti  Ti153  1  0.08985884  0.08458601  0.31594216  1
  Ti  Ti154  1  0.60820965  0.39796231  0.80636849  1
  Ti  Ti155  1  0.70375786  0.09804198  0.29656782  1
  Ti  Ti156  1  0.39586542  0.80350064  0.00704713  1
  Ti  Ti157  1  0.09776215  0.91034354  0.51141108  1
  Ti  Ti158  1  -0.00026182  0.79854988  0.59475130  1
  Ti  Ti159  1  0.90102146  0.50284807  0.89481306  1
  Ti  Ti160  1  0.00262707  0.40253402  0.39886305  1
  Ti  Ti161  1  0.39014362  -0.00023336  0.20627947  1
  Ti  Ti162  1  0.81142652  0.20195117  -0.01665244  1
  Ti  Ti163  1  0.59833833  0.20161857  0.19556124  1
  Ti  Ti164  1  0.09710105  0.09279245  0.70764742  1
  Ti  Ti165  1  0.59175739  0.00644866  0.81105709  1
  Ti  Ti166  1  0.69921276  0.90476213  0.10180991  1
  Ti  Ti167  1  0.50058479  0.70244834  0.49636635  1
  Ti  Ti168  1  0.60174651  0.81011530  0.00004961  1
  Ti  Ti169  1  0.90027114  0.28968898  0.09354762  1
  Ti  Ti170  1  -0.00538450  0.59880250  0.79056541  1
  Ti  Ti171  1  0.70920059  0.90930722  0.91222803  1
  Ti  Ti172  1  0.20714953  0.19944827  0.80321592  1
  Ti  Ti173  1  0.51320523  0.90429685  0.28718013  1
  Ti  Ti174  1  0.60520203  0.79531058  0.59095343  1
  Ti  Ti175  1  0.21036491  0.19378365  -0.00990133  1
  Ti  Ti176  1  0.49452214  0.49375747  0.30066981  1
  Ti  Ti177  1  0.70752460  0.50724276  0.49809288  1
  Ti  Ti178  1  0.00791383  0.21153985  0.38427888  1
  Ti  Ti179  1  0.49749320  0.09652034  0.69762555  1
  Ti  Ti180  1  0.59728652  0.39608309  0.40623991  1
  Ti  Ti181  1  0.40015827  0.80074703  0.79538018  1
  Ti  Ti182  1  0.80671572  0.39081929  0.20428994  1
  Ti  Ti183  1  0.50964962  0.90455425  0.10492982  1
  Ti  Ti184  1  0.29701693  0.50279529  0.89578740  1
  Ti  Ti185  1  0.80063582  0.39968701  0.80252965  1
  Ti  Ti186  1  0.20924854  -0.00191131  0.40220054  1
  Ti  Ti187  1  -0.00184725  0.40381034  0.60808901  1
  Ti  Ti188  1  0.30198589  0.10414870  0.10357811  1
  Ti  Ti189  1  0.40345089  0.60355061  0.59902003  1
  Ti  Ti190  1  0.40310839  0.60468559  0.39118764  1
  Ti  Ti191  1  0.69724096  0.49892291  0.69490092  1
  Ti  Ti192  1  0.50633006  0.71391173  0.29643530  1
  Ti  Ti193  1  0.19208752  0.39835853  0.19745966  1
  Ti  Ti194  1  0.60458103  0.00679100  0.60152250  1
  Ti  Ti195  1  0.40175217  0.39248081  0.19692472  1
  Ti  Ti196  1  0.09166552  0.10309627  0.08672526  1
  Ti  Ti197  1  0.20260406  0.80456911  0.20160579  1
  Ti  Ti198  1  -0.00553434  0.19807211  0.81268200  1
  Ti  Ti199  1  0.40007884  0.19796897  -0.00168046  1
  Mo  Mo200  1  0.79920347  0.80695259  0.19782254  1
  Mo  Mo201  1  0.69919368  0.30026272  0.49749047  1
  Mo  Mo202  1  0.29855252  0.70793381  0.10139042  1
  Mo  Mo203  1  0.09357458  0.69460937  0.50482539  1
  Mo  Mo204  1  0.20198460  0.60261067  0.20063772  1
  Mo  Mo205  1  0.30670061  0.09682996  0.29728032  1
  Mo  Mo206  1  0.29531817  0.28859745  0.90404772  1
  Mo  Mo207  1  0.19430805  0.59753029  0.39915839  1
  Mo  Mo208  1  0.90045835  0.50284805  0.69688492  1
  Mo  Mo209  1  0.90281080  0.89045504  0.51757724  1
  Mo  Mo210  1  0.00677888  0.00713940  0.80620726  1
  Mo  Mo211  1  0.60274805  -0.00663712  0.00328840  1
  Mo  Mo212  1  0.49460170  0.28727244  0.09822620  1
  Mo  Mo213  1  0.60898930  -0.00279416  0.20029427  1
  Mo  Mo214  1  0.19802079  0.38665508  0.79979168  1
  Mo  Mo215  1  0.79913513  0.80914877  0.00102165  1
  Mo  Mo216  1  0.50184192  0.09743869  0.90718354  1
  Mo  Mo217  1  0.49947491  0.29705016  0.50322659  1
  Mo  Mo218  1  0.40137417  0.00187569  0.79225057  1
  Mo  Mo219  1  0.59949034  0.19404974  0.60146263  1
  Mo  Mo220  1  0.09837925  0.30626226  0.29862994  1
  Mo  Mo221  1  0.29449452  0.28882797  0.70177235  1
  Mo  Mo222  1  0.10593914  0.50429260  0.09898302  1
  Mo  Mo223  1  0.89726244  0.90150107  0.28337130  1
  Mo  Mo224  1  0.28805672  0.90082309  0.29600527  1
  Mo  Mo225  1  0.29931754  0.29495142  0.50479455  1
  Mo  Mo226  1  0.18616831  0.60618980  0.59701326  1
  Mo  Mo227  1  0.80150924  0.59444174  0.40520193  1
  Mo  Mo228  1  0.80512639  0.79764138  0.59918165  1
  Mo  Mo229  1  0.00419060  0.19927713  0.62180382  1
  Mo  Mo230  1  0.90418639  0.10000704  0.90055858  1
  Mo  Mo231  1  0.19839879  0.80230801  0.78876210  1
  Mo  Mo232  1  0.81291543  0.00249861  0.81425514  1
  Mo  Mo233  1  0.29675790  0.10170502  0.89756639  1
  Mo  Mo234  1  0.80571729  0.20532733  0.80599500  1
  Mo  Mo235  1  0.29803272  0.09639603  0.50493526  1
  Mo  Mo236  1  0.70383441  0.49337986  0.88466154  1
  Mo  Mo237  1  0.80060437  0.59566942  0.59814585  1
  Mo  Mo238  1  0.70225497  0.70343050  0.49433338  1
  Mo  Mo239  1  0.19824961  -0.00110290  0.60379698  1
  Mo  Mo240  1  0.28844978  0.90656213  0.50384953  1
  Mo  Mo241  1  0.00036736  0.19526821  -0.00547748  1
  Mo  Mo242  1  0.90112173  0.29355483  0.89261541  1
  Mo  Mo243  1  0.70111302  0.29550145  0.89776761  1
  Mo  Mo244  1  0.80282780  -0.00249326  0.00405080  1
  Mo  Mo245  1  0.59886080  0.80632947  0.20255078  1
  Mo  Mo246  1  0.00660938  0.00128605  0.60488561  1
  Mo  Mo247  1  0.19740323  0.01140005  0.79962646  1
  Mo  Mo248  1  0.79641124  0.00640003  0.39598004  1
  Mo  Mo249  1  0.89960242  0.91098501  0.90303277  1
