# generated using pymatgen
data_HfZrTaTiMo
_symmetry_space_group_name_H-M   'P 1'
_cell_length_a   16.89118006
_cell_length_b   16.88129551
_cell_length_c   16.89781057
_cell_angle_alpha   89.99915366
_cell_angle_beta   90.01109794
_cell_angle_gamma   89.98368427
_symmetry_Int_Tables_number   1
_chemical_formula_structural   HfZrTaTiMo
_chemical_formula_sum   'Hf50 Zr50 Ta50 Ti50 Mo50'
_cell_volume   4818.32594518
_cell_formula_units_Z   50
loop_
 _symmetry_equiv_pos_site_id
 _symmetry_equiv_pos_as_xyz
  1  'x, y, z'
loop_
 _atom_site_type_symbol
 _atom_site_label
 _atom_site_symmetry_multiplicity
 _atom_site_fract_x
 _atom_site_fract_y
 _atom_site_fract_z
 _atom_site_occupancy
  Hf  Hf0  1  0.30005346  0.10363165  0.89875594  1
  Hf  Hf1  1  0.60131655  0.39399768  0.39911445  1
  Hf  Hf2  1  0.90551536  0.70170625  0.31209063  1
  Hf  Hf3  1  0.49049507  0.70412884  0.51413258  1
  Hf  Hf4  1  0.00664870  0.79612298  0.80366838  1
  Hf  Hf5  1  0.58783589  -0.00999022  0.41482720  1
  Hf  Hf6  1  0.70629636  0.29936964  0.90059005  1
  Hf  Hf7  1  0.80209614  0.41105177  0.80231362  1
  Hf  Hf8  1  0.29439615  0.30134944  0.69384830  1
  Hf  Hf9  1  0.60007147  0.20482848  0.79351386  1
  Hf  Hf10  1  0.19576766  0.00824784  0.40209516  1
  Hf  Hf11  1  0.80684461  -0.00326733  0.20485123  1
  Hf  Hf12  1  0.81130205  0.00716068  0.39692033  1
  Hf  Hf13  1  0.19494049  0.80314054  0.18935979  1
  Hf  Hf14  1  0.39024634  0.40850511  -0.00108685  1
  Hf  Hf15  1  0.49819055  0.70168005  0.29208470  1
  Hf  Hf16  1  0.00795395  0.20137975  0.19993743  1
  Hf  Hf17  1  0.89998991  0.69595524  0.89936925  1
  Hf  Hf18  1  0.19473189  0.01097761  0.59633345  1
  Hf  Hf19  1  0.68840300  0.09545334  0.30581038  1
  Hf  Hf20  1  0.60382379  -0.00315976  0.59911922  1
  Hf  Hf21  1  0.59941532  0.20222120  0.00391105  1
  Hf  Hf22  1  0.40778468  -0.00405003  -0.00238384  1
  Hf  Hf23  1  0.79334074  -0.00915375  -0.00898893  1
  Hf  Hf24  1  0.90802783  0.50023557  0.29319714  1
  Hf  Hf25  1  -0.00029351  0.00020396  0.20485006  1
  Hf  Hf26  1  0.00449797  0.80085737  0.19031494  1
  Hf  Hf27  1  0.80506519  0.19819008  0.59996852  1
  Hf  Hf28  1  0.00889064  0.60461429  0.19138536  1
  Hf  Hf29  1  0.80509022  0.79334727  0.19363116  1
  Hf  Hf30  1  0.30432873  0.50007949  0.29257624  1
  Hf  Hf31  1  0.69425743  0.09138551  0.09996945  1
  Hf  Hf32  1  0.79452397  0.19844437  0.20669088  1
  Hf  Hf33  1  0.59755710  0.60656228  0.41149080  1
  Hf  Hf34  1  0.57237827  -0.02149115  0.19969866  1
  Hf  Hf35  1  0.19833325  0.20276878  0.00763809  1
  Hf  Hf36  1  0.00350126  -0.00646816  -0.00204544  1
  Hf  Hf37  1  0.39093491  0.19699209  0.19500032  1
  Hf  Hf38  1  0.00143446  0.60010850  0.60838325  1
  Hf  Hf39  1  0.00707970  0.20110261  0.00450556  1
  Hf  Hf40  1  0.80291300  0.60390694  0.18542138  1
  Hf  Hf41  1  0.48607388  0.09832523  0.30295510  1
  Hf  Hf42  1  0.70098966  0.70421791  0.30304701  1
  Hf  Hf43  1  0.10077024  0.70393861  0.50114171  1
  Hf  Hf44  1  0.19941264  0.59743620  0.00244290  1
  Hf  Hf45  1  0.70584930  0.29999000  0.50688376  1
  Hf  Hf46  1  0.29886446  0.50081791  0.50662093  1
  Hf  Hf47  1  0.19938413  0.40597915  -0.00091918  1
  Hf  Hf48  1  0.00568372  0.19643190  0.39864227  1
  Hf  Hf49  1  0.11121866  0.29211439  0.50350363  1
  Zr  Zr50  1  0.00724202  0.40479033  0.00006747  1
  Zr  Zr51  1  0.49403588  0.51036936  0.10100326  1
  Zr  Zr52  1  0.79671183  0.41597457  0.00009301  1
  Zr  Zr53  1  0.40453589  0.00158911  0.59285745  1
  Zr  Zr54  1  0.89097236  0.10730901  0.89824035  1
  Zr  Zr55  1  0.89825551  0.09758359  0.70763262  1
  Zr  Zr56  1  0.70462754  0.49851431  0.50934280  1
  Zr  Zr57  1  0.10350805  0.89610445  0.69184575  1
  Zr  Zr58  1  0.00307212  -0.00702797  0.80510514  1
  Zr  Zr59  1  0.19836264  0.60242041  0.38945037  1
  Zr  Zr60  1  0.79547304  0.60725352  0.60773759  1
  Zr  Zr61  1  0.80056418  0.39330254  0.39481214  1
  Zr  Zr62  1  0.28783933  0.88975388  0.51001464  1
  Zr  Zr63  1  0.29521523  0.29389269  0.30523709  1
  Zr  Zr64  1  0.39115366  0.40851594  0.80248991  1
  Zr  Zr65  1  0.29056230  0.70003498  0.51724119  1
  Zr  Zr66  1  0.90278674  0.49588655  0.50477862  1
  Zr  Zr67  1  0.89703629  0.30142834  0.09763543  1
  Zr  Zr68  1  0.49814635  0.89127154  0.70838213  1
  Zr  Zr69  1  0.89698040  0.29461580  0.89636774  1
  Zr  Zr70  1  0.48747505  0.49047499  0.50365264  1
  Zr  Zr71  1  0.41972068  0.83033541  0.19429732  1
  Zr  Zr72  1  0.19367364  -0.00831152  0.00000376  1
  Zr  Zr73  1  0.31172885  0.70153944  0.10251528  1
  Zr  Zr74  1  0.31191426  0.30785447  0.49665211  1
  Zr  Zr75  1  0.89606481  0.89295296  0.08808614  1
  Zr  Zr76  1  0.70509707  0.10045107  0.89207948  1
  Zr  Zr77  1  0.60671940  0.80349785  0.59959079  1
  Zr  Zr78  1  0.49323876  0.50515070  0.29943862  1
  Zr  Zr79  1  0.48531743  0.30135470  0.31338549  1
  Zr  Zr80  1  0.19117443  0.40319744  0.39076762  1
  Zr  Zr81  1  0.79708386  -0.00359017  0.59914398  1
  Zr  Zr82  1  0.68286807  0.88382014  0.09345221  1
  Zr  Zr83  1  0.30345435  0.88939446  0.70054147  1
  Zr  Zr84  1  0.78119519  0.39580761  0.19525420  1
  Zr  Zr85  1  0.90825834  0.30437213  0.29670139  1
  Zr  Zr86  1  0.40328386  0.19983919  0.79981861  1
  Zr  Zr87  1  0.39387428  0.60056262  -0.01856214  1
  Zr  Zr88  1  0.41326877  0.20598862  0.60264331  1
  Zr  Zr89  1  0.69905607  0.51106673  0.29997640  1
  Zr  Zr90  1  0.49990164  0.30646121  0.90142145  1
  Zr  Zr91  1  0.19698013  0.78719748  0.81230653  1
  Zr  Zr92  1  0.40006885  0.80652375  0.40300995  1
  Zr  Zr93  1  0.59985373  0.20974088  0.20335327  1
  Zr  Zr94  1  0.60907257  0.60304530  0.79992321  1
  Zr  Zr95  1  0.90740441  0.89081887  0.50016379  1
  Zr  Zr96  1  0.69854979  0.89238638  0.30280613  1
  Zr  Zr97  1  0.50892404  0.71167714  0.09131301  1
  Zr  Zr98  1  0.30553950  0.89381046  0.89477964  1
  Zr  Zr99  1  0.29874798  0.91057686  0.29499436  1
  Ta  Ta100  1  0.39909769  0.59941767  0.61298148  1
  Ta  Ta101  1  0.59272443  0.80426888  0.40590209  1
  Ta  Ta102  1  0.19839535  0.00513924  0.79923660  1
  Ta  Ta103  1  0.49407254  0.70029089  0.70882629  1
  Ta  Ta104  1  0.19878950  0.59929403  0.19553840  1
  Ta  Ta105  1  0.60086609  0.20033671  0.60332444  1
  Ta  Ta106  1  0.10244608  0.50387605  0.50709164  1
  Ta  Ta107  1  0.90715995  0.30328982  0.50504263  1
  Ta  Ta108  1  0.09759871  0.30030481  0.69970589  1
  Ta  Ta109  1  0.10025864  0.10582365  0.89342055  1
  Ta  Ta110  1  0.29759876  0.10287512  0.69843741  1
  Ta  Ta111  1  0.89445318  0.10156309  0.09674273  1
  Ta  Ta112  1  0.60252077  0.40654885  0.00085281  1
  Ta  Ta113  1  0.39297481  0.00477561  0.40688385  1
  Ta  Ta114  1  0.00444810  0.00441638  0.39947935  1
  Ta  Ta115  1  0.60647176  0.60340546  -0.01035426  1
  Ta  Ta116  1  0.10116904  0.10783616  0.69954697  1
  Ta  Ta117  1  0.59729688  0.39689052  0.60386581  1
  Ta  Ta118  1  0.49637622  0.09770263  0.09761419  1
  Ta  Ta119  1  0.19350532  0.40603163  0.60758850  1
  Ta  Ta120  1  0.00382524  0.40544046  0.79585306  1
  Ta  Ta121  1  0.59717507  0.39736065  0.19578618  1
  Ta  Ta122  1  0.29626441  0.50522613  0.69934689  1
  Ta  Ta123  1  0.70453337  0.30489407  0.70006552  1
  Ta  Ta124  1  0.19743955  0.00433177  0.19785246  1
  Ta  Ta125  1  0.50806660  0.09302190  0.70558417  1
  Ta  Ta126  1  0.09758933  0.89805567  0.30479342  1
  Ta  Ta127  1  0.90224141  0.50308918  0.70468620  1
  Ta  Ta128  1  0.29205873  0.30025824  0.89949916  1
  Ta  Ta129  1  0.50855964  0.50204113  0.89101433  1
  Ta  Ta130  1  0.00259949  0.19887954  0.59996200  1
  Ta  Ta131  1  0.10021901  0.29907585  0.89340197  1
  Ta  Ta132  1  -0.00162359  0.79137506  0.60673165  1
  Ta  Ta133  1  0.89668406  0.89274818  0.70157677  1
  Ta  Ta134  1  0.09901313  0.70381900  0.29936788  1
  Ta  Ta135  1  0.01129478  0.40156531  0.39771466  1
  Ta  Ta136  1  0.49500167  0.30369035  0.09758550  1
  Ta  Ta137  1  0.80424772  0.19678905  0.39813280  1
  Ta  Ta138  1  0.89793611  0.70024885  0.71032880  1
  Ta  Ta139  1  0.09699852  0.89189248  0.49824584  1
  Ta  Ta140  1  0.19610649  0.19953763  0.19981163  1
  Ta  Ta141  1  0.59878850  0.60095263  0.60738358  1
  Ta  Ta142  1  0.39456764  0.39967071  0.19260428  1
  Ta  Ta143  1  0.50005976  0.49990614  0.70246909  1
  Ta  Ta144  1  0.19357752  0.40380652  0.79972717  1
  Ta  Ta145  1  0.02022618  0.80055886  -0.00381801  1
  Ta  Ta146  1  0.19807941  0.20240297  0.79739618  1
  Ta  Ta147  1  0.60252646  0.60507258  0.19265732  1
  Ta  Ta148  1  0.70313025  0.09889738  0.70586196  1
  Ta  Ta149  1  0.29181735  0.12009507  0.49712691  1
  Ti  Ti150  1  0.69108016  0.50623035  0.09687356  1
  Ti  Ti151  1  0.89946500  0.30758631  0.69587960  1
  Ti  Ti152  1  0.69781843  0.49117309  0.69993427  1
  Ti  Ti153  1  0.30308255  0.90262787  0.09530994  1
  Ti  Ti154  1  0.61168080  -0.01277865  0.79997628  1
  Ti  Ti155  1  0.59852479  0.20508226  0.40847292  1
  Ti  Ti156  1  0.69933677  0.10353616  0.49974532  1
  Ti  Ti157  1  0.40441970  0.79644099  -0.01379314  1
  Ti  Ti158  1  0.00095427  0.20648398  0.79377359  1
  Ti  Ti159  1  0.39465846  0.60600720  0.40196843  1
  Ti  Ti160  1  0.09244425  0.68317656  0.90443683  1
  Ti  Ti161  1  0.90975550  0.69462699  0.07840705  1
  Ti  Ti162  1  0.50468918  0.09799945  0.89656330  1
  Ti  Ti163  1  0.80308283  0.79727938  0.60518891  1
  Ti  Ti164  1  0.09415154  0.50576740  0.89179919  1
  Ti  Ti165  1  0.69281767  0.70264388  0.09294386  1
  Ti  Ti166  1  0.00350422  0.00303676  0.59571290  1
  Ti  Ti167  1  0.19500826  0.79581352  -0.00012678  1
  Ti  Ti168  1  0.89560856  0.89092878  0.89597303  1
  Ti  Ti169  1  0.50732584  0.88415437  0.89153532  1
  Ti  Ti170  1  0.29477536  0.30556451  0.10238194  1
  Ti  Ti171  1  0.40278682  0.00324037  0.80045578  1
  Ti  Ti172  1  0.70681531  0.70719249  0.49742090  1
  Ti  Ti173  1  0.90299992  0.70440172  0.49778118  1
  Ti  Ti174  1  0.50379940  0.31347259  0.70097558  1
  Ti  Ti175  1  0.59527457  -0.00940275  -0.01016374  1
  Ti  Ti176  1  0.79469824  0.59925471  0.80354591  1
  Ti  Ti177  1  0.39841430  0.20138795  0.00259989  1
  Ti  Ti178  1  0.30176597  0.69590766  0.70673471  1
  Ti  Ti179  1  0.19980785  0.79831719  0.39060140  1
  Ti  Ti180  1  0.80371719  0.60163945  0.40640787  1
  Ti  Ti181  1  0.78845335  0.79283705  -0.01217738  1
  Ti  Ti182  1  0.69986832  0.70933637  0.70607820  1
  Ti  Ti183  1  0.90631954  0.88876295  0.31102827  1
  Ti  Ti184  1  0.10562018  0.68816042  0.70257640  1
  Ti  Ti185  1  0.30594281  0.70027288  0.28868788  1
  Ti  Ti186  1  0.10010043  0.09646335  0.10104459  1
  Ti  Ti187  1  0.49758150  0.11065201  0.49785016  1
  Ti  Ti188  1  0.10702074  0.10299079  0.30079702  1
  Ti  Ti189  1  0.20491529  0.59418280  0.80455052  1
  Ti  Ti190  1  0.00497822  0.40089298  0.60422419  1
  Ti  Ti191  1  0.78925109  0.80540445  0.80107625  1
  Ti  Ti192  1  0.30182400  0.09292866  0.10251856  1
  Ti  Ti193  1  0.71329932  0.89044366  0.49289175  1
  Ti  Ti194  1  0.90763662  0.10254828  0.50031041  1
  Ti  Ti195  1  0.91097428  0.51552392  0.89857294  1
  Ti  Ti196  1  0.00848132  0.59363583  0.39959711  1
  Ti  Ti197  1  0.90923867  0.50091321  0.09896233  1
  Ti  Ti198  1  0.79200420  0.59936965  -0.00535216  1
  Ti  Ti199  1  0.10322733  0.49376940  0.10961483  1
  Mo  Mo200  1  0.60235899  0.79147215  -0.02332899  1
  Mo  Mo201  1  0.39715267  0.59991021  0.19658905  1
  Mo  Mo202  1  0.09993599  0.49873742  0.70314822  1
  Mo  Mo203  1  0.19673976  0.20309929  0.60570893  1
  Mo  Mo204  1  0.48935706  0.89702343  0.50787821  1
  Mo  Mo205  1  0.10465992  0.90214329  0.89990004  1
  Mo  Mo206  1  0.50187112  0.89883834  0.07256756  1
  Mo  Mo207  1  0.70705148  0.69892643  0.89805425  1
  Mo  Mo208  1  0.79637117  -0.01917649  0.79794887  1
  Mo  Mo209  1  0.69950659  0.50290217  0.90225398  1
  Mo  Mo210  1  0.09533261  0.09974821  0.50448078  1
  Mo  Mo211  1  0.69093728  0.30589478  0.09672665  1
  Mo  Mo212  1  0.40260562  0.40537447  0.60797433  1
  Mo  Mo213  1  0.29580597  0.49952069  0.10788153  1
  Mo  Mo214  1  0.00600513  0.80137187  0.40113547  1
  Mo  Mo215  1  0.00481127  0.59793532  0.00117007  1
  Mo  Mo216  1  0.19774544  0.59703134  0.61393955  1
  Mo  Mo217  1  0.79372496  0.19328284  0.01612703  1
  Mo  Mo218  1  0.80627663  0.39736578  0.61020369  1
  Mo  Mo219  1  0.69282111  0.28981583  0.30797827  1
  Mo  Mo220  1  0.19121202  0.78790119  0.61261296  1
  Mo  Mo221  1  0.40114446  0.78374652  0.80799914  1
  Mo  Mo222  1  0.39910253  0.19190900  0.40531554  1
  Mo  Mo223  1  0.39839458  0.60004246  0.79736146  1
  Mo  Mo224  1  0.39355577  0.00626602  0.19031510  1
  Mo  Mo225  1  0.09811894  0.50393176  0.29474304  1
  Mo  Mo226  1  0.39481310  0.79181740  0.61305027  1
  Mo  Mo227  1  0.01643179  0.40403345  0.20223206  1
  Mo  Mo228  1  0.70713585  0.89929615  0.70295779  1
  Mo  Mo229  1  0.69533602  0.89304570  0.89282793  1
  Mo  Mo230  1  0.29832327  0.69681943  0.89869371  1
  Mo  Mo231  1  0.19712253  0.19526145  0.39317678  1
  Mo  Mo232  1  0.50704171  0.29807984  0.50656079  1
  Mo  Mo233  1  0.80006687  0.21318735  0.78417114  1
  Mo  Mo234  1  0.10376154  0.90062777  0.10210979  1
  Mo  Mo235  1  0.29353111  0.10134331  0.30116257  1
  Mo  Mo236  1  0.60118787  0.79636244  0.20788311  1
  Mo  Mo237  1  0.60394873  0.40487506  0.79692008  1
  Mo  Mo238  1  -0.00014659  0.59858022  0.80015021  1
  Mo  Mo239  1  0.10238748  0.30188339  0.29565842  1
  Mo  Mo240  1  0.29018391  0.50026474  0.89013306  1
  Mo  Mo241  1  0.39747501  0.40182067  0.39991654  1
  Mo  Mo242  1  0.10412941  0.69974663  0.09583234  1
  Mo  Mo243  1  0.50221910  0.69950325  0.89258323  1
  Mo  Mo244  1  0.90369672  0.10075599  0.30069167  1
  Mo  Mo245  1  0.19951162  0.39864950  0.19384966  1
  Mo  Mo246  1  0.10754400  0.30443422  0.10464961  1
  Mo  Mo247  1  0.80293209  0.79461587  0.40758632  1
  Mo  Mo248  1  0.60479110  0.79577111  0.79759350  1
  Mo  Mo249  1  0.49492983  0.90458072  0.31925363  1
