# generated using pymatgen
data_HfZrTaTiMo
_symmetry_space_group_name_H-M   'P 1'
_cell_length_a   16.88870486
_cell_length_b   16.88740943
_cell_length_c   16.88581074
_cell_angle_alpha   90.07197290
_cell_angle_beta   89.99977029
_cell_angle_gamma   89.95262258
_symmetry_Int_Tables_number   1
_chemical_formula_structural   HfZrTaTiMo
_chemical_formula_sum   'Hf50 Zr50 Ta50 Ti50 Mo50'
_cell_volume   4815.93709169
_cell_formula_units_Z   50
loop_
 _symmetry_equiv_pos_site_id
 _symmetry_equiv_pos_as_xyz
  1  'x, y, z'
loop_
 _atom_site_type_symbol
 _atom_site_label
 _atom_site_symmetry_multiplicity
 _atom_site_fract_x
 _atom_site_fract_y
 _atom_site_fract_z
 _atom_site_occupancy
  Hf  Hf0  1  0.59742261  0.40245657  0.20046633  1
  Hf  Hf1  1  0.39438435  0.60114609  -0.00293515  1
  Hf  Hf2  1  0.40013230  0.80696585  0.38170648  1
  Hf  Hf3  1  0.90476175  0.69244222  0.10565078  1
  Hf  Hf4  1  0.29943689  0.49975787  0.11289070  1
  Hf  Hf5  1  0.70805889  0.10039530  0.49238865  1
  Hf  Hf6  1  0.20225460  0.20580852  0.00329345  1
  Hf  Hf7  1  0.30640485  0.69894301  0.49844946  1
  Hf  Hf8  1  0.28583628  0.69710476  0.88287098  1
  Hf  Hf9  1  0.50545083  0.11505648  0.50872232  1
  Hf  Hf10  1  0.10452366  0.92484294  0.12960211  1
  Hf  Hf11  1  0.70374483  0.10076507  0.10377719  1
  Hf  Hf12  1  0.69788829  0.70004673  0.89603559  1
  Hf  Hf13  1  0.00405996  0.00520841  0.00648657  1
  Hf  Hf14  1  0.30133483  0.09507232  0.89558490  1
  Hf  Hf15  1  0.41268383  -0.01405254  0.21466958  1
  Hf  Hf16  1  0.59162737  0.40324088  0.79376785  1
  Hf  Hf17  1  0.70523697  0.29900123  0.69828952  1
  Hf  Hf18  1  0.50396103  0.88521156  0.50212604  1
  Hf  Hf19  1  0.09588194  0.30494218  0.10299852  1
  Hf  Hf20  1  0.70224617  0.70043949  0.29595652  1
  Hf  Hf21  1  0.00310840  -0.00061933  0.59498489  1
  Hf  Hf22  1  0.60615699  0.59691023  0.00648094  1
  Hf  Hf23  1  0.30114687  0.09852964  0.11142572  1
  Hf  Hf24  1  0.18446670  0.80427490  0.39545246  1
  Hf  Hf25  1  0.90382906  0.49735211  0.50170495  1
  Hf  Hf26  1  0.89535163  0.10010865  0.10157417  1
  Hf  Hf27  1  0.80512204  0.20798658  0.80799700  1
  Hf  Hf28  1  -0.00845924  0.40641984  0.20506696  1
  Hf  Hf29  1  0.90598875  0.89345270  0.70688293  1
  Hf  Hf30  1  0.89885183  0.90150042  0.90185211  1
  Hf  Hf31  1  0.09706931  0.10252034  0.89569718  1
  Hf  Hf32  1  0.28974959  0.68591752  0.30296917  1
  Hf  Hf33  1  0.59715026  0.40070614  0.39886857  1
  Hf  Hf34  1  0.00333054  0.19812580  0.40077090  1
  Hf  Hf35  1  0.19346344  0.79463717  0.01525341  1
  Hf  Hf36  1  0.09957637  0.49751514  0.69892653  1
  Hf  Hf37  1  0.29646641  0.69891037  0.69139113  1
  Hf  Hf38  1  0.40391895  -0.00689017  -0.00002410  1
  Hf  Hf39  1  0.90281852  0.69973268  0.30316869  1
  Hf  Hf40  1  0.39636161  0.39892523  -0.00184872  1
  Hf  Hf41  1  0.79713238  0.79600211  0.00756527  1
  Hf  Hf42  1  0.29877184  0.50802801  0.69495506  1
  Hf  Hf43  1  0.79854493  0.59744920  0.39987844  1
  Hf  Hf44  1  0.40732697  0.20236471  0.00575306  1
  Hf  Hf45  1  0.80062547  0.59868826  0.80136983  1
  Hf  Hf46  1  0.09616412  0.70088660  0.70456391  1
  Hf  Hf47  1  0.20197100  0.60123277  0.00913241  1
  Hf  Hf48  1  0.69756491  0.31198301  0.09470124  1
  Hf  Hf49  1  0.21863276  0.39763649  0.80616103  1
  Zr  Zr50  1  0.19714754  0.19980995  0.40263286  1
  Zr  Zr51  1  0.08592759  0.68795960  0.49127642  1
  Zr  Zr52  1  0.40608240  -0.00468767  0.79620858  1
  Zr  Zr53  1  0.39957666  -0.00368562  0.59929627  1
  Zr  Zr54  1  0.60241306  0.20043515  0.81110262  1
  Zr  Zr55  1  0.40360493  -0.00288971  0.40127336  1
  Zr  Zr56  1  0.71007850  0.08980431  0.90937766  1
  Zr  Zr57  1  0.10238722  0.50406558  0.89700853  1
  Zr  Zr58  1  0.90172327  0.69965347  0.50174047  1
  Zr  Zr59  1  0.90705102  0.70514135  0.90191533  1
  Zr  Zr60  1  0.09635680  0.30781965  0.89943719  1
  Zr  Zr61  1  0.51486242  0.69490114  0.29840342  1
  Zr  Zr62  1  0.09811575  0.08305863  0.28764509  1
  Zr  Zr63  1  0.39759964  0.21318021  0.80624717  1
  Zr  Zr64  1  0.09545718  0.88933513  0.88547097  1
  Zr  Zr65  1  0.59079797  0.00074404  0.00321066  1
  Zr  Zr66  1  0.79695356  0.39809920  0.39140684  1
  Zr  Zr67  1  0.69026851  0.51498969  0.29176785  1
  Zr  Zr68  1  0.40387637  0.40064394  0.59674738  1
  Zr  Zr69  1  0.80322877  -0.00334657  0.60464327  1
  Zr  Zr70  1  0.30612965  0.49249278  0.30723233  1
  Zr  Zr71  1  0.70958388  0.90139474  0.30684351  1
  Zr  Zr72  1  0.30168266  0.10393649  0.30211291  1
  Zr  Zr73  1  0.10773446  0.50151532  0.30486269  1
  Zr  Zr74  1  0.89950034  0.89499575  0.48335571  1
  Zr  Zr75  1  0.09531575  0.10914608  0.69459528  1
  Zr  Zr76  1  0.50065425  0.28242453  0.68187153  1
  Zr  Zr77  1  0.50332075  0.70265598  0.89814068  1
  Zr  Zr78  1  0.60678128  -0.00659939  0.60526117  1
  Zr  Zr79  1  0.29852594  0.50947188  0.49717279  1
  Zr  Zr80  1  0.59979660  -0.00764091  0.79580550  1
  Zr  Zr81  1  0.40807747  0.59880559  0.20179100  1
  Zr  Zr82  1  0.49678785  0.70092601  0.68711853  1
  Zr  Zr83  1  0.18736628  0.81020065  0.59141160  1
  Zr  Zr84  1  0.69989059  0.90725736  0.09986155  1
  Zr  Zr85  1  0.59914617  0.39849453  0.59474151  1
  Zr  Zr86  1  0.80754272  0.21775219  -0.00243301  1
  Zr  Zr87  1  0.00816535  0.80157538  0.20689523  1
  Zr  Zr88  1  0.30493507  0.89318080  0.10973235  1
  Zr  Zr89  1  0.09622774  0.70023333  0.89532517  1
  Zr  Zr90  1  0.20432037  0.20676412  0.79749971  1
  Zr  Zr91  1  0.49871550  0.71080969  0.10316834  1
  Zr  Zr92  1  0.90064212  0.29564257  0.50031178  1
  Zr  Zr93  1  0.89430563  0.09932123  0.30332161  1
  Zr  Zr94  1  0.89903743  0.49663625  0.69728287  1
  Zr  Zr95  1  0.19793420  0.00191265  0.00223297  1
  Zr  Zr96  1  0.60032127  0.20661295  0.20266544  1
  Zr  Zr97  1  0.19969688  0.38878088  0.40988879  1
  Zr  Zr98  1  0.70556720  0.89149097  0.49452849  1
  Zr  Zr99  1  0.40130314  0.80243662  0.79656660  1
  Ta  Ta100  1  0.50450328  0.88737373  0.90702619  1
  Ta  Ta101  1  0.29538006  0.89614301  0.69376441  1
  Ta  Ta102  1  0.50083234  0.69892483  0.50100173  1
  Ta  Ta103  1  0.19721411  0.20399997  0.59355300  1
  Ta  Ta104  1  0.50245698  0.49872569  0.90177905  1
  Ta  Ta105  1  0.70329990  0.89645226  0.89837519  1
  Ta  Ta106  1  0.69710105  0.69727042  0.69743796  1
  Ta  Ta107  1  -0.00608512  0.20704968  0.00031608  1
  Ta  Ta108  1  0.50234105  0.10669227  0.69360170  1
  Ta  Ta109  1  0.59905616  0.59682011  0.60261582  1
  Ta  Ta110  1  0.19935032  0.39621523  0.20057151  1
  Ta  Ta111  1  0.89484891  0.50616548  0.10418227  1
  Ta  Ta112  1  0.60109119  0.20901813  0.39663289  1
  Ta  Ta113  1  0.29663893  0.10004449  0.50118255  1
  Ta  Ta114  1  0.59732345  0.00327052  0.39478885  1
  Ta  Ta115  1  0.90011980  0.10650414  0.70215416  1
  Ta  Ta116  1  0.19873460  -0.00526151  0.78637967  1
  Ta  Ta117  1  0.59711253  0.59300686  0.79468005  1
  Ta  Ta118  1  0.79631332  0.79469841  0.60563988  1
  Ta  Ta119  1  0.19667608  0.00054285  0.59559229  1
  Ta  Ta120  1  0.50370282  0.49392113  0.09988577  1
  Ta  Ta121  1  0.70185414  0.50078814  0.69948540  1
  Ta  Ta122  1  0.20658552  0.40314945  0.00362172  1
  Ta  Ta123  1  0.70241618  0.10713249  0.69829244  1
  Ta  Ta124  1  0.19574597  0.78762380  0.20197196  1
  Ta  Ta125  1  -0.01041327  0.40220970  0.00605208  1
  Ta  Ta126  1  0.80065920  -0.00357482  0.20308399  1
  Ta  Ta127  1  0.90189716  0.09478289  0.89803450  1
  Ta  Ta128  1  0.30384631  0.30222561  0.11039293  1
  Ta  Ta129  1  0.69888711  0.50555219  0.50445833  1
  Ta  Ta130  1  0.49987828  0.50700764  0.49714810  1
  Ta  Ta131  1  0.40303016  0.58918192  0.79787220  1
  Ta  Ta132  1  0.30112400  0.10205580  0.69111271  1
  Ta  Ta133  1  0.09313918  0.30278226  0.69502462  1
  Ta  Ta134  1  0.29293002  0.89282496  0.89351592  1
  Ta  Ta135  1  0.40445558  0.20614589  0.40269397  1
  Ta  Ta136  1  0.09122152  0.49623570  0.50252923  1
  Ta  Ta137  1  0.50446285  0.10540040  0.30275506  1
  Ta  Ta138  1  0.90437341  0.29865302  0.69649836  1
  Ta  Ta139  1  0.30471511  0.30078907  0.29529313  1
  Ta  Ta140  1  0.49094405  0.30786126  0.30149024  1
  Ta  Ta141  1  0.80054927  0.40358789  0.19916512  1
  Ta  Ta142  1  0.09640286  0.30150517  0.29827995  1
  Ta  Ta143  1  0.80364587  0.79997422  0.19954652  1
  Ta  Ta144  1  0.90042789  0.90339095  0.10436235  1
  Ta  Ta145  1  0.79674013  0.39870942  0.59843363  1
  Ta  Ta146  1  -0.00576110  0.59681966  0.79882369  1
  Ta  Ta147  1  0.59213693  0.20654469  0.00519670  1
  Ta  Ta148  1  -0.00825643  0.20667960  0.80406126  1
  Ta  Ta149  1  0.69839215  0.49449769  0.90167767  1
  Ti  Ti150  1  0.79818885  0.79698837  0.79435024  1
  Ti  Ti151  1  0.89921305  0.09927540  0.49589337  1
  Ti  Ti152  1  0.69877978  0.29401623  0.50159229  1
  Ti  Ti153  1  0.69424210  0.31450226  0.90619600  1
  Ti  Ti154  1  0.09726696  0.50445800  0.10799905  1
  Ti  Ti155  1  0.29505371  0.90260052  0.49513131  1
  Ti  Ti156  1  0.00339015  0.80654905  0.59727758  1
  Ti  Ti157  1  0.09515857  0.68677004  0.29927548  1
  Ti  Ti158  1  0.49987359  0.89096416  0.10694081  1
  Ti  Ti159  1  0.19334543  0.20122179  0.19840327  1
  Ti  Ti160  1  0.18932333  0.59973751  0.59378658  1
  Ti  Ti161  1  0.40896763  0.20716678  0.19978382  1
  Ti  Ti162  1  0.79864289  0.21525456  0.20374221  1
  Ti  Ti163  1  0.00233083  0.00229722  0.79400565  1
  Ti  Ti164  1  0.69872183  0.09889069  0.29810670  1
  Ti  Ti165  1  0.40067461  0.40248064  0.80140928  1
  Ti  Ti166  1  0.01000180  0.80231284  0.01657572  1
  Ti  Ti167  1  0.80526550  0.19909116  0.60031114  1
  Ti  Ti168  1  0.89776144  0.50198598  0.90694959  1
  Ti  Ti169  1  -0.00708416  0.58294337  0.38908354  1
  Ti  Ti170  1  -0.00974170  0.39842725  0.80534492  1
  Ti  Ti171  1  0.79253714  0.20731378  0.38931313  1
  Ti  Ti172  1  0.38925738  0.79493022  0.00081905  1
  Ti  Ti173  1  0.41461012  0.59655676  0.39578739  1
  Ti  Ti174  1  0.50128487  0.88573063  0.68739308  1
  Ti  Ti175  1  0.79259114  0.59721759  0.00828104  1
  Ti  Ti176  1  0.31105741  0.29632576  0.49983314  1
  Ti  Ti177  1  0.90377450  0.30205020  0.30082969  1
  Ti  Ti178  1  0.10139433  0.09352946  0.49487080  1
  Ti  Ti179  1  0.80520255  0.40663669  0.00309402  1
  Ti  Ti180  1  0.80397501  0.39916693  0.80503059  1
  Ti  Ti181  1  0.79734881  -0.00118215  0.79566378  1
  Ti  Ti182  1  -0.00197601  0.39622190  0.60042791  1
  Ti  Ti183  1  0.27913039  0.90426788  0.29586385  1
  Ti  Ti184  1  0.90370860  0.90351368  0.30554570  1
  Ti  Ti185  1  0.60530421  0.80491181  0.19885506  1
  Ti  Ti186  1  0.60618726  0.80360001  0.79045120  1
  Ti  Ti187  1  0.50467888  0.09645990  0.11307272  1
  Ti  Ti188  1  0.19873739  0.39349210  0.59707978  1
  Ti  Ti189  1  0.60248210  0.79675967  0.39885415  1
  Ti  Ti190  1  0.50006774  0.09876982  0.89792882  1
  Ti  Ti191  1  0.08920815  0.30079225  0.50622667  1
  Ti  Ti192  1  0.90593468  0.69940018  0.69642933  1
  Ti  Ti193  1  -0.00314564  0.20176576  0.19341805  1
  Ti  Ti194  1  0.79739831  0.60195156  0.60310428  1
  Ti  Ti195  1  0.30114147  0.29623540  0.68795599  1
  Ti  Ti196  1  0.69540241  0.69928405  0.50159433  1
  Ti  Ti197  1  0.60697051  0.79915107  0.00563535  1
  Ti  Ti198  1  0.00260455  0.59461391  0.00473235  1
  Ti  Ti199  1  0.50575023  0.30892441  0.90810932  1
  Mo  Mo200  1  0.19800156  -0.00351228  0.40585663  1
  Mo  Mo201  1  0.51919017  0.89693388  0.29893291  1
  Mo  Mo202  1  0.09378902  0.91065599  0.49287984  1
  Mo  Mo203  1  0.80729893  -0.00638599  -0.00114978  1
  Mo  Mo204  1  0.00030331  0.00059825  0.40072057  1
  Mo  Mo205  1  0.49707401  0.30290851  0.10344194  1
  Mo  Mo206  1  -0.00516979  0.79454922  0.78924829  1
  Mo  Mo207  1  0.60156898  0.60209938  0.41573879  1
  Mo  Mo208  1  0.80234193  0.78999697  0.39788931  1
  Mo  Mo209  1  0.60976191  0.79066045  0.59883469  1
  Mo  Mo210  1  0.39179489  0.79971812  0.20633790  1
  Mo  Mo211  1  0.19324129  0.59914608  0.19992601  1
  Mo  Mo212  1  0.60412444  0.59758107  0.18286524  1
  Mo  Mo213  1  0.79955948  0.60033148  0.19358980  1
  Mo  Mo214  1  0.39149164  0.80134850  0.58902823  1
  Mo  Mo215  1  0.49895746  0.29987332  0.49042244  1
  Mo  Mo216  1  0.00027011  0.19801109  0.59838188  1
  Mo  Mo217  1  0.30458598  0.30503730  0.91169998  1
  Mo  Mo218  1  0.40279038  0.39717873  0.20005379  1
  Mo  Mo219  1  0.89681353  0.50273624  0.29528618  1
  Mo  Mo220  1  0.19736043  0.80828694  0.78967321  1
  Mo  Mo221  1  0.59931459  0.00174790  0.20814919  1
  Mo  Mo222  1  0.09367928  0.11370498  0.10450362  1
  Mo  Mo223  1  0.70267947  0.69950776  0.10766915  1
  Mo  Mo224  1  0.59629266  0.40188345  -0.00354533  1
  Mo  Mo225  1  0.09905014  0.90334619  0.69498934  1
  Mo  Mo226  1  0.09628508  0.90538587  0.30750698  1
  Mo  Mo227  1  0.61735806  0.19766444  0.59263953  1
  Mo  Mo228  1  -0.00086487  0.59430107  0.20025686  1
  Mo  Mo229  1  0.20148855  0.59479228  0.79425887  1
  Mo  Mo230  1  0.90155053  0.31271071  0.89930331  1
  Mo  Mo231  1  0.40797000  0.60102411  0.59680752  1
  Mo  Mo232  1  0.70538076  0.50128843  0.09550437  1
  Mo  Mo233  1  0.50138754  0.49954100  0.30331976  1
  Mo  Mo234  1  0.00377901  0.80679819  0.39310347  1
  Mo  Mo235  1  0.18839861  0.59921337  0.40556753  1
  Mo  Mo236  1  0.89861382  0.30717580  0.10332572  1
  Mo  Mo237  1  0.79909606  0.00926562  0.39504469  1
  Mo  Mo238  1  0.09737749  0.68546920  0.10908438  1
  Mo  Mo239  1  0.00045701  0.39444631  0.39927764  1
  Mo  Mo240  1  0.30514345  0.50128388  0.89569963  1
  Mo  Mo241  1  0.29804134  0.70102156  0.11108488  1
  Mo  Mo242  1  0.49823756  0.50301737  0.70010070  1
  Mo  Mo243  1  0.40434935  0.39638960  0.40078034  1
  Mo  Mo244  1  0.38597933  0.19752870  0.59416745  1
  Mo  Mo245  1  0.70316225  0.29816692  0.29684102  1
  Mo  Mo246  1  0.21364375  0.00700650  0.20607331  1
  Mo  Mo247  1  -0.00146679  0.59244819  0.60656277  1
  Mo  Mo248  1  -0.01702421  0.00035450  0.20341824  1
  Mo  Mo249  1  0.70740173  0.88858292  0.70700316  1
