# generated using pymatgen
data_HfZrTaTiMo
_symmetry_space_group_name_H-M   'P 1'
_cell_length_a   16.88297270
_cell_length_b   16.88509529
_cell_length_c   16.89337918
_cell_angle_alpha   89.99276155
_cell_angle_beta   89.97752431
_cell_angle_gamma   89.97140156
_symmetry_Int_Tables_number   1
_chemical_formula_structural   HfZrTaTiMo
_chemical_formula_sum   'Hf50 Zr50 Ta50 Ti50 Mo50'
_cell_volume   4815.80477598
_cell_formula_units_Z   50
loop_
 _symmetry_equiv_pos_site_id
 _symmetry_equiv_pos_as_xyz
  1  'x, y, z'
loop_
 _atom_site_type_symbol
 _atom_site_label
 _atom_site_symmetry_multiplicity
 _atom_site_fract_x
 _atom_site_fract_y
 _atom_site_fract_z
 _atom_site_occupancy
  Hf  Hf0  1  0.49875537  0.29643543  0.68639465  1
  Hf  Hf1  1  0.51592814  0.69868006  0.90572191  1
  Hf  Hf2  1  0.70567867  0.30861326  0.10566843  1
  Hf  Hf3  1  0.30179538  0.49647783  0.89944888  1
  Hf  Hf4  1  0.60525867  0.61105328  0.59486127  1
  Hf  Hf5  1  0.31232685  0.51057809  0.11044373  1
  Hf  Hf6  1  0.09422080  0.50641924  0.70264297  1
  Hf  Hf7  1  0.69584631  0.88775022  0.89669140  1
  Hf  Hf8  1  0.79691415  0.40106391  0.39943936  1
  Hf  Hf9  1  0.29504338  0.10063034  0.88962179  1
  Hf  Hf10  1  0.29335830  0.30096873  0.88855732  1
  Hf  Hf11  1  0.69223635  0.69575412  0.08604671  1
  Hf  Hf12  1  0.10294062  0.31190434  0.69935322  1
  Hf  Hf13  1  0.18817311  0.58274842  0.20911825  1
  Hf  Hf14  1  0.19351085  0.00033341  0.00258268  1
  Hf  Hf15  1  0.10603571  0.29930745  0.30436424  1
  Hf  Hf16  1  0.40125683  0.19388878  0.40956398  1
  Hf  Hf17  1  0.70838711  0.90314777  0.71051731  1
  Hf  Hf18  1  0.40321081  0.60545333  0.79979892  1
  Hf  Hf19  1  0.19765665  0.60447634  0.00245227  1
  Hf  Hf20  1  0.40241821  0.20051213  -0.00731102  1
  Hf  Hf21  1  0.09958982  0.49625314  0.89153596  1
  Hf  Hf22  1  0.59818021  -0.01322969  0.42532041  1
  Hf  Hf23  1  0.71100064  0.89186151  0.30150755  1
  Hf  Hf24  1  0.90428974  0.70141402  0.70341965  1
  Hf  Hf25  1  0.90481127  0.30584614  0.29998798  1
  Hf  Hf26  1  0.60667782  0.59658798  0.39968297  1
  Hf  Hf27  1  0.89766285  0.49774029  0.10179110  1
  Hf  Hf28  1  0.71732925  0.09728228  0.89349648  1
  Hf  Hf29  1  0.80275579  -0.00574612  0.40879394  1
  Hf  Hf30  1  0.01863537  0.41455887  0.20420971  1
  Hf  Hf31  1  0.29405636  0.10115603  0.10888436  1
  Hf  Hf32  1  0.29204310  0.69350604  0.29880723  1
  Hf  Hf33  1  0.49984520  0.90248191  0.69974821  1
  Hf  Hf34  1  0.59404748  0.40127119  0.40269316  1
  Hf  Hf35  1  0.30108362  0.30205527  0.49535958  1
  Hf  Hf36  1  0.39623582  0.40060447  0.21218589  1
  Hf  Hf37  1  0.70034040  0.48995711  0.51769446  1
  Hf  Hf38  1  0.48846200  0.70273519  0.49425330  1
  Hf  Hf39  1  0.19252404  0.80617408  0.59918561  1
  Hf  Hf40  1  0.50153633  0.29904297  0.11610355  1
  Hf  Hf41  1  0.10768922  0.09859448  0.29229902  1
  Hf  Hf42  1  0.49619033  0.89389853  0.90265895  1
  Hf  Hf43  1  0.20449601  0.79363577  -0.00995837  1
  Hf  Hf44  1  0.39192717  0.79441183  0.80219271  1
  Hf  Hf45  1  0.60506855  0.81135509  0.59127038  1
  Hf  Hf46  1  -0.00027431  0.60202833  0.20029096  1
  Hf  Hf47  1  0.50624049  0.09814837  0.30591346  1
  Hf  Hf48  1  0.90143349  0.30911648  0.10350141  1
  Hf  Hf49  1  0.19621791  -0.00246988  0.59578920  1
  Zr  Zr50  1  0.00707743  0.20388310  0.00200770  1
  Zr  Zr51  1  0.80411153  0.19472714  0.20460856  1
  Zr  Zr52  1  0.51229032  0.50147036  0.69463850  1
  Zr  Zr53  1  0.59436890  0.00952161  0.80380030  1
  Zr  Zr54  1  0.48984532  0.09421403  0.10944607  1
  Zr  Zr55  1  0.20560439  0.19730559  0.59252986  1
  Zr  Zr56  1  0.69646773  0.29525315  0.30262039  1
  Zr  Zr57  1  0.20366702  0.61748167  0.80906323  1
  Zr  Zr58  1  0.69964831  0.10252075  0.51450397  1
  Zr  Zr59  1  0.60458162  -0.00598825  0.19926102  1
  Zr  Zr60  1  0.09788028  0.09916831  0.89723473  1
  Zr  Zr61  1  0.90231235  0.09954624  0.89591724  1
  Zr  Zr62  1  0.59366932  0.00302841  -0.00206660  1
  Zr  Zr63  1  0.71877033  0.70405348  0.30205129  1
  Zr  Zr64  1  0.09848581  0.70901182  0.10814908  1
  Zr  Zr65  1  0.59108713  0.20413506  0.80753598  1
  Zr  Zr66  1  0.39428195  -0.00117153  0.40628750  1
  Zr  Zr67  1  0.40223271  0.39318904  0.00228334  1
  Zr  Zr68  1  0.90284283  0.89130520  0.29900435  1
  Zr  Zr69  1  0.60038080  0.59911456  0.20863091  1
  Zr  Zr70  1  -0.00248766  0.19628937  0.40007874  1
  Zr  Zr71  1  0.69921272  0.70047349  0.71016944  1
  Zr  Zr72  1  0.39652428  0.60645402  0.60078022  1
  Zr  Zr73  1  0.59251164  0.19926581  -0.00637188  1
  Zr  Zr74  1  -0.00302307  0.20491793  0.60185758  1
  Zr  Zr75  1  0.49833034  0.89589709  0.30046939  1
  Zr  Zr76  1  0.00767527  -0.00335846  0.40401761  1
  Zr  Zr77  1  0.70387793  0.10070889  0.09912429  1
  Zr  Zr78  1  0.71254390  0.30641700  0.89396923  1
  Zr  Zr79  1  0.09803154  0.88643738  0.29129995  1
  Zr  Zr80  1  -0.00570391  0.59718977  0.59584967  1
  Zr  Zr81  1  -0.00311371  -0.00738310  0.78522019  1
  Zr  Zr82  1  0.19786427  0.40333944  0.01882881  1
  Zr  Zr83  1  0.38691648  0.80509612  0.39730765  1
  Zr  Zr84  1  0.29570606  0.49681049  0.70256819  1
  Zr  Zr85  1  0.69414657  0.50934292  0.89636091  1
  Zr  Zr86  1  0.80588052  0.59736862  0.41310141  1
  Zr  Zr87  1  0.59383316  0.79454081  0.19658480  1
  Zr  Zr88  1  0.10101975  0.69704942  0.49422317  1
  Zr  Zr89  1  0.89173662  0.89722484  0.88693132  1
  Zr  Zr90  1  0.90580679  0.09369216  0.09212531  1
  Zr  Zr91  1  0.49729880  0.10573621  0.68859447  1
  Zr  Zr92  1  0.60910072  0.79463905  0.41048232  1
  Zr  Zr93  1  0.59471503  0.39555149  -0.00214328  1
  Zr  Zr94  1  0.69944913  0.30541995  0.68797820  1
  Zr  Zr95  1  0.09825581  0.09957248  0.69866460  1
  Zr  Zr96  1  0.10254246  0.30580458  0.89409603  1
  Zr  Zr97  1  0.20173344  0.40446751  0.59231647  1
  Zr  Zr98  1  0.90984222  0.70735517  0.30550092  1
  Zr  Zr99  1  0.81145576  0.60435706  -0.00408012  1
  Ta  Ta100  1  0.50182998  0.50974293  0.09977360  1
  Ta  Ta101  1  0.50173063  0.50412216  0.90003763  1
  Ta  Ta102  1  0.69866393  0.70262641  0.89397496  1
  Ta  Ta103  1  0.80407538  -0.01214732  0.00218849  1
  Ta  Ta104  1  0.70366190  0.10607100  0.69488163  1
  Ta  Ta105  1  0.69981077  0.49976038  0.10291198  1
  Ta  Ta106  1  0.30131233  0.89927027  0.09545585  1
  Ta  Ta107  1  0.39405624  0.79932596  0.19494713  1
  Ta  Ta108  1  0.09759808  0.89574936  0.89798284  1
  Ta  Ta109  1  0.39657736  0.00323254  0.59273461  1
  Ta  Ta110  1  0.80334663  0.79940583  0.60185453  1
  Ta  Ta111  1  0.20229841  0.41067967  0.39249125  1
  Ta  Ta112  1  0.80628478  0.79407394  -0.00462746  1
  Ta  Ta113  1  0.89792632  0.09821376  0.50940895  1
  Ta  Ta114  1  0.70171579  0.89086849  0.09164888  1
  Ta  Ta115  1  0.59538979  0.40068638  0.79937889  1
  Ta  Ta116  1  0.29036393  0.70833715  0.69776438  1
  Ta  Ta117  1  0.00145261  0.60195758  -0.00324159  1
  Ta  Ta118  1  0.80421358  -0.00898198  0.19497600  1
  Ta  Ta119  1  0.29602837  0.90138831  0.89641689  1
  Ta  Ta120  1  0.00176035  0.80198225  0.79506898  1
  Ta  Ta121  1  0.00534831  0.19301987  0.19793930  1
  Ta  Ta122  1  0.70210369  0.09507888  0.30943331  1
  Ta  Ta123  1  0.80934315  0.20714412  0.78931414  1
  Ta  Ta124  1  -0.01206087  0.40471758  0.78986810  1
  Ta  Ta125  1  0.40336074  0.39838183  0.59054469  1
  Ta  Ta126  1  0.09753541  0.70375769  0.70202748  1
  Ta  Ta127  1  0.09422316  0.89768068  0.09307446  1
  Ta  Ta128  1  0.81400568  0.79628846  0.17629769  1
  Ta  Ta129  1  0.90002366  0.31051883  0.89591774  1
  Ta  Ta130  1  0.39384122  0.80449939  0.60147469  1
  Ta  Ta131  1  0.59976866  0.40909965  0.21003911  1
  Ta  Ta132  1  0.09180942  0.31179197  0.49309653  1
  Ta  Ta133  1  0.50029669  0.29623371  0.30595329  1
  Ta  Ta134  1  0.80252825  0.19670156  0.40600672  1
  Ta  Ta135  1  0.00073308  -0.00200238  0.18958952  1
  Ta  Ta136  1  0.40706434  0.39525497  0.79686429  1
  Ta  Ta137  1  0.89060547  0.09693147  0.69267449  1
  Ta  Ta138  1  0.10630829  0.29564048  0.11191263  1
  Ta  Ta139  1  0.89587779  0.30403951  0.50440745  1
  Ta  Ta140  1  0.29397388  0.09684131  0.29938018  1
  Ta  Ta141  1  0.30021857  0.50571064  0.49292878  1
  Ta  Ta142  1  0.90974270  0.89975948  0.51497439  1
  Ta  Ta143  1  0.29767269  0.90221605  0.70345141  1
  Ta  Ta144  1  0.89837433  0.09222198  0.29955962  1
  Ta  Ta145  1  0.20306272  -0.00646502  0.40284898  1
  Ta  Ta146  1  -0.01046459  0.21083130  0.79188291  1
  Ta  Ta147  1  0.80913023  0.59570885  0.79888352  1
  Ta  Ta148  1  -0.00975056  0.79592930  -0.00251570  1
  Ta  Ta149  1  0.39549556  0.19998055  0.21328340  1
  Ti  Ti150  1  0.80302479  0.60012686  0.20031004  1
  Ti  Ti151  1  0.49580831  0.49980137  0.50098185  1
  Ti  Ti152  1  0.48884893  0.69678904  0.30032812  1
  Ti  Ti153  1  0.80478860  0.59838793  0.60357307  1
  Ti  Ti154  1  0.29337461  0.69644624  0.49630474  1
  Ti  Ti155  1  0.89174887  0.31503143  0.69039041  1
  Ti  Ti156  1  0.89814317  0.49729215  0.30020579  1
  Ti  Ti157  1  0.00416558  0.40469693  0.00151650  1
  Ti  Ti158  1  0.30469260  0.69728558  0.10584172  1
  Ti  Ti159  1  0.19800136  0.60208531  0.59662716  1
  Ti  Ti160  1  0.20847179  0.80493902  0.19667696  1
  Ti  Ti161  1  0.00519573  0.80573939  0.41512076  1
  Ti  Ti162  1  0.39611485  0.00193572  -0.00474727  1
  Ti  Ti163  1  0.39768247  0.00356605  0.79910897  1
  Ti  Ti164  1  0.49194038  0.50449182  0.29929696  1
  Ti  Ti165  1  0.19622616  0.19850975  0.00870929  1
  Ti  Ti166  1  0.39901192  0.60709233  -0.00305741  1
  Ti  Ti167  1  0.30781117  0.29543589  0.69785032  1
  Ti  Ti168  1  0.80266927  0.40670271  -0.00452528  1
  Ti  Ti169  1  0.49474912  0.89362931  0.09343324  1
  Ti  Ti170  1  0.70609141  0.49419165  0.70226305  1
  Ti  Ti171  1  0.20201994  0.19221587  0.40489567  1
  Ti  Ti172  1  0.20342492  0.40556996  0.20843746  1
  Ti  Ti173  1  0.29848210  0.89952073  0.50455077  1
  Ti  Ti174  1  0.09829416  0.49661034  0.49423007  1
  Ti  Ti175  1  0.70007191  0.29848878  0.50956871  1
  Ti  Ti176  1  0.30530043  0.10271119  0.69754464  1
  Ti  Ti177  1  0.59683923  0.20004607  0.41370325  1
  Ti  Ti178  1  0.19848023  -0.00841066  0.19726023  1
  Ti  Ti179  1  0.60167381  0.19653803  0.20565558  1
  Ti  Ti180  1  0.08811335  0.70435753  0.89308404  1
  Ti  Ti181  1  0.29551194  0.29387741  0.30376654  1
  Ti  Ti182  1  0.80247163  -0.00769231  0.60433747  1
  Ti  Ti183  1  0.39374455  0.79425205  0.00120821  1
  Ti  Ti184  1  0.90453633  0.48331448  0.51049100  1
  Ti  Ti185  1  0.19890099  0.20149555  0.78930229  1
  Ti  Ti186  1  0.40011996  0.40141046  0.39910494  1
  Ti  Ti187  1  0.10033119  0.70121708  0.30661585  1
  Ti  Ti188  1  0.39283655  0.59376700  0.39384403  1
  Ti  Ti189  1  0.09677494  0.09857375  0.50072693  1
  Ti  Ti190  1  0.50800429  0.70809296  0.70446024  1
  Ti  Ti191  1  0.00013523  0.58960146  0.39875413  1
  Ti  Ti192  1  0.29429405  0.29247209  0.11323121  1
  Ti  Ti193  1  0.19606725  -0.00937588  0.79360087  1
  Ti  Ti194  1  0.49638690  0.69511806  0.09687875  1
  Ti  Ti195  1  0.90274415  0.70881669  0.50407567  1
  Ti  Ti196  1  0.39057962  -0.01046592  0.20513036  1
  Ti  Ti197  1  0.90447307  0.49878560  0.89226322  1
  Ti  Ti198  1  0.80596120  0.20532928  -0.00250986  1
  Ti  Ti199  1  0.20031173  0.80868432  0.40088366  1
  Mo  Mo200  1  -0.00096693  0.40538537  0.40248670  1
  Mo  Mo201  1  0.49192564  0.30355696  0.88724091  1
  Mo  Mo202  1  0.71620777  0.69783445  0.50741991  1
  Mo  Mo203  1  -0.00261345  0.60169556  0.80499663  1
  Mo  Mo204  1  0.10173465  0.09668048  0.10529323  1
  Mo  Mo205  1  0.19920791  0.59640505  0.40259940  1
  Mo  Mo206  1  0.90213793  0.69629152  0.09548297  1
  Mo  Mo207  1  0.10088468  0.89524492  0.70072854  1
  Mo  Mo208  1  0.39036721  0.20120795  0.79197487  1
  Mo  Mo209  1  0.59600680  0.59620368  0.00401563  1
  Mo  Mo210  1  0.89348775  0.50078291  0.69988612  1
  Mo  Mo211  1  0.09514884  0.49912734  0.08988432  1
  Mo  Mo212  1  0.59700844  0.79754074  0.00266545  1
  Mo  Mo213  1  0.19529322  0.80612035  0.79922280  1
  Mo  Mo214  1  0.39758324  0.19779309  0.59395752  1
  Mo  Mo215  1  0.70657106  0.50050068  0.29634804  1
  Mo  Mo216  1  0.80269421  0.40074333  0.59902128  1
  Mo  Mo217  1  0.29126824  0.90154755  0.28871737  1
  Mo  Mo218  1  0.80821539  0.80069946  0.42401558  1
  Mo  Mo219  1  0.71751623  0.89915467  0.51037005  1
  Mo  Mo220  1  0.59681412  0.79729977  0.79827349  1
  Mo  Mo221  1  0.00139821  0.80472220  0.60553250  1
  Mo  Mo222  1  0.10004177  0.89960081  0.49907731  1
  Mo  Mo223  1  0.20750076  0.39825231  0.79132054  1
  Mo  Mo224  1  0.59826790  0.00106471  0.60292687  1
  Mo  Mo225  1  0.80281380  0.20499988  0.59892470  1
  Mo  Mo226  1  0.50188506  0.10212006  0.50682709  1
  Mo  Mo227  1  -0.00101091  0.00028222  0.59815915  1
  Mo  Mo228  1  0.48622103  0.89961746  0.51081963  1
  Mo  Mo229  1  0.00162461  -0.01264525  -0.00079345  1
  Mo  Mo230  1  0.80423655  0.40635092  0.79459306  1
  Mo  Mo231  1  0.29425542  0.09711113  0.49667346  1
  Mo  Mo232  1  0.09853343  0.50247243  0.31714623  1
  Mo  Mo233  1  0.90095621  0.89706787  0.69462461  1
  Mo  Mo234  1  0.40528135  0.60659074  0.20295881  1
  Mo  Mo235  1  0.60377645  0.59666928  0.79808896  1
  Mo  Mo236  1  0.90319736  0.89724476  0.09191622  1
  Mo  Mo237  1  0.79871118  0.00883947  0.79278225  1
  Mo  Mo238  1  0.30314614  0.50049390  0.30614123  1
  Mo  Mo239  1  0.59625390  0.39981278  0.59581148  1
  Mo  Mo240  1  0.49869105  0.30200175  0.49827156  1
  Mo  Mo241  1  0.20401042  0.20215837  0.20398746  1
  Mo  Mo242  1  0.59734725  0.20258700  0.58840953  1
  Mo  Mo243  1  0.80410442  0.79037895  0.80108435  1
  Mo  Mo244  1  0.79483527  0.41226248  0.20483818  1
  Mo  Mo245  1  -0.00173426  0.40173015  0.59770185  1
  Mo  Mo246  1  -0.00098207  0.80133419  0.18936707  1
  Mo  Mo247  1  0.47765340  0.09978953  0.89310576  1
  Mo  Mo248  1  0.90610079  0.69873004  0.89405599  1
  Mo  Mo249  1  0.30833787  0.70465238  0.90459019  1
