# generated using pymatgen
data_HfZrTaTiMo
_symmetry_space_group_name_H-M   'P 1'
_cell_length_a   16.89208214
_cell_length_b   16.88618941
_cell_length_c   16.89103863
_cell_angle_alpha   90.02757423
_cell_angle_beta   89.98834908
_cell_angle_gamma   89.98995292
_symmetry_Int_Tables_number   1
_chemical_formula_structural   HfZrTaTiMo
_chemical_formula_sum   'Hf50 Zr50 Ta50 Ti50 Mo50'
_cell_volume   4818.04808672
_cell_formula_units_Z   50
loop_
 _symmetry_equiv_pos_site_id
 _symmetry_equiv_pos_as_xyz
  1  'x, y, z'
loop_
 _atom_site_type_symbol
 _atom_site_label
 _atom_site_symmetry_multiplicity
 _atom_site_fract_x
 _atom_site_fract_y
 _atom_site_fract_z
 _atom_site_occupancy
  Hf  Hf0  1  0.00057504  0.40474602  0.79232259  1
  Hf  Hf1  1  0.60418067  -0.00016971  0.40075787  1
  Hf  Hf2  1  0.49789881  0.70266618  0.10384294  1
  Hf  Hf3  1  0.60104289  0.19026034  0.40172035  1
  Hf  Hf4  1  0.39513421  0.00793841  0.40868191  1
  Hf  Hf5  1  0.59141245  0.00042768  0.18826513  1
  Hf  Hf6  1  0.21284677  0.20192947  0.81341008  1
  Hf  Hf7  1  0.30049479  0.68738021  0.09872193  1
  Hf  Hf8  1  0.70238002  0.89778818  0.50497721  1
  Hf  Hf9  1  0.49969149  0.50254520  0.30929479  1
  Hf  Hf10  1  0.88663574  0.49990911  0.89742698  1
  Hf  Hf11  1  0.50770302  0.69942552  0.48381211  1
  Hf  Hf12  1  0.19434062  0.80075238  -0.00125150  1
  Hf  Hf13  1  0.20639531  0.39818283  -0.00100005  1
  Hf  Hf14  1  0.89347740  0.28750028  0.50369297  1
  Hf  Hf15  1  0.49157754  0.30239284  0.89054162  1
  Hf  Hf16  1  0.89703087  0.91316524  0.29124835  1
  Hf  Hf17  1  0.13284163  0.48662350  0.49953429  1
  Hf  Hf18  1  0.70806513  0.29394126  0.70338422  1
  Hf  Hf19  1  0.40999110  0.60978318  0.60037697  1
  Hf  Hf20  1  0.60074217  0.00232197  0.80543249  1
  Hf  Hf21  1  0.79960487  0.19750323  -0.00063307  1
  Hf  Hf22  1  0.28744746  0.30879483  0.50068203  1
  Hf  Hf23  1  -0.00079579  0.40076071  0.41207920  1
  Hf  Hf24  1  0.88741474  0.70305875  0.70392408  1
  Hf  Hf25  1  0.39749914  0.80690834  0.00179310  1
  Hf  Hf26  1  0.90315974  0.69677433  0.29352681  1
  Hf  Hf27  1  0.09817643  0.09690267  0.50375585  1
  Hf  Hf28  1  0.79975967  0.80045879  -0.00039993  1
  Hf  Hf29  1  0.39191504  0.80223811  0.39107563  1
  Hf  Hf30  1  0.11154793  0.69842590  0.50520443  1
  Hf  Hf31  1  0.49798415  0.29193250  0.70235796  1
  Hf  Hf32  1  0.80450256  0.41731169  0.60113713  1
  Hf  Hf33  1  0.00168974  0.40033121  0.59889509  1
  Hf  Hf34  1  0.90251642  0.10337155  0.70285483  1
  Hf  Hf35  1  0.89436878  0.69332875  0.90124717  1
  Hf  Hf36  1  0.60391700  0.40535431  0.60119673  1
  Hf  Hf37  1  0.80255031  -0.00150776  0.80538276  1
  Hf  Hf38  1  0.68810136  0.49495868  0.30439878  1
  Hf  Hf39  1  0.09748298  0.09406870  0.90519391  1
  Hf  Hf40  1  0.39130262  0.39674623  0.00602899  1
  Hf  Hf41  1  -0.00424706  0.39728045  0.19653659  1
  Hf  Hf42  1  0.40175326  0.39734824  0.60259343  1
  Hf  Hf43  1  0.40245122  0.39719626  0.19055746  1
  Hf  Hf44  1  0.59983751  0.80598711  0.00279126  1
  Hf  Hf45  1  0.39377353  0.19532137  -0.00514599  1
  Hf  Hf46  1  0.29607534  0.89664932  0.51072362  1
  Hf  Hf47  1  0.89608517  0.50201499  0.08887269  1
  Hf  Hf48  1  0.09468576  0.91611348  0.29542930  1
  Hf  Hf49  1  0.20947742  0.19624972  0.00445356  1
  Zr  Zr50  1  0.89495194  0.30717362  0.90170521  1
  Zr  Zr51  1  0.60577430  0.40678280  0.80282411  1
  Zr  Zr52  1  0.40066619  0.00237424  0.80388564  1
  Zr  Zr53  1  0.40812542  0.80145936  0.60772150  1
  Zr  Zr54  1  -0.00355899  0.80480562  0.60588623  1
  Zr  Zr55  1  0.78894499  0.80180209  0.38701754  1
  Zr  Zr56  1  0.90301268  0.29013824  0.30842639  1
  Zr  Zr57  1  0.88813001  0.70604717  0.50107305  1
  Zr  Zr58  1  0.10897670  0.50212646  0.29645419  1
  Zr  Zr59  1  0.49653848  0.10293611  0.29501130  1
  Zr  Zr60  1  0.10863185  0.29948239  0.30413622  1
  Zr  Zr61  1  0.68965544  0.29931496  0.29735763  1
  Zr  Zr62  1  0.59801583  0.59371146  0.19398222  1
  Zr  Zr63  1  0.50027277  0.89928603  0.29220567  1
  Zr  Zr64  1  0.00492509  0.80487865  0.39974707  1
  Zr  Zr65  1  0.20527989  0.80138179  0.20155496  1
  Zr  Zr66  1  0.50700629  0.50219334  0.48660759  1
  Zr  Zr67  1  0.59096872  0.40533425  0.00382530  1
  Zr  Zr68  1  0.29964032  0.50236835  0.70201990  1
  Zr  Zr69  1  0.10197425  0.68800369  0.10296432  1
  Zr  Zr70  1  0.60251863  0.60141104  -0.00792530  1
  Zr  Zr71  1  0.80519129  0.20024938  0.19667560  1
  Zr  Zr72  1  0.69996680  0.29678380  0.50273443  1
  Zr  Zr73  1  -0.00142344  -0.00784117  0.60728506  1
  Zr  Zr74  1  0.00444395  0.59995924  0.79893484  1
  Zr  Zr75  1  0.59930252  0.79083384  0.61111816  1
  Zr  Zr76  1  0.70339881  0.90129812  0.10821029  1
  Zr  Zr77  1  -0.01071617  0.58645405  0.59817000  1
  Zr  Zr78  1  0.50057439  0.50553445  0.71106099  1
  Zr  Zr79  1  -0.00210425  0.59232363  0.40578785  1
  Zr  Zr80  1  -0.00004827  0.80171854  0.19129128  1
  Zr  Zr81  1  0.49962748  0.70574008  0.88870808  1
  Zr  Zr82  1  0.90637021  0.09366958  0.10477923  1
  Zr  Zr83  1  0.30133860  0.49710000  0.30661722  1
  Zr  Zr84  1  0.70520577  0.89179662  0.70109254  1
  Zr  Zr85  1  0.80424071  0.39910770  0.19978369  1
  Zr  Zr86  1  0.19405803  0.79930415  0.81003545  1
  Zr  Zr87  1  0.89884359  0.09535516  0.49739880  1
  Zr  Zr88  1  0.12012776  0.50366166  0.69300424  1
  Zr  Zr89  1  0.09516642  0.29427707  0.09981553  1
  Zr  Zr90  1  0.89239480  0.29388482  0.70292490  1
  Zr  Zr91  1  0.30553926  0.50488356  0.49710630  1
  Zr  Zr92  1  0.59829919  0.19441190  0.00089625  1
  Zr  Zr93  1  0.20108810  0.00441099  0.40163708  1
  Zr  Zr94  1  0.90560116  0.89464452  0.89117967  1
  Zr  Zr95  1  0.29398181  0.70470542  0.70045245  1
  Zr  Zr96  1  0.40146090  0.20079830  0.18141254  1
  Zr  Zr97  1  0.20352982  0.19244452  0.40370527  1
  Zr  Zr98  1  0.70386194  0.10110240  0.69473659  1
  Zr  Zr99  1  0.10283336  0.10111551  0.70774703  1
  Ta  Ta100  1  0.70496018  0.69763929  0.10037596  1
  Ta  Ta101  1  0.39621039  0.19726357  0.40679157  1
  Ta  Ta102  1  0.10678698  0.70098374  0.69451882  1
  Ta  Ta103  1  0.30277241  0.69859596  0.90147216  1
  Ta  Ta104  1  0.00536940  0.59905982  -0.00350232  1
  Ta  Ta105  1  0.29671098  0.90129032  0.70642226  1
  Ta  Ta106  1  0.49722363  0.10625377  0.70047222  1
  Ta  Ta107  1  0.20561187  0.00227967  0.60731149  1
  Ta  Ta108  1  0.30655620  0.10287872  0.70173861  1
  Ta  Ta109  1  0.60407708  0.19328723  0.80842735  1
  Ta  Ta110  1  0.39777665  0.80690544  0.19472837  1
  Ta  Ta111  1  0.50205510  0.90132367  0.50019564  1
  Ta  Ta112  1  0.30002178  0.91563034  0.09600903  1
  Ta  Ta113  1  0.30159084  0.91179773  0.28975689  1
  Ta  Ta114  1  0.79948870  0.40524521  0.40455686  1
  Ta  Ta115  1  0.79319026  0.59947429  0.39592406  1
  Ta  Ta116  1  0.79262166  0.18609242  0.39679345  1
  Ta  Ta117  1  0.29838090  0.90708710  0.90488046  1
  Ta  Ta118  1  0.10345208  0.90135893  0.70832083  1
  Ta  Ta119  1  0.49954240  0.70131394  0.29597798  1
  Ta  Ta120  1  0.10523701  0.50055784  0.09934645  1
  Ta  Ta121  1  0.10072225  0.91045122  0.09538048  1
  Ta  Ta122  1  0.78890928  0.60323280  0.60133372  1
  Ta  Ta123  1  0.89389837  0.90373049  0.49530870  1
  Ta  Ta124  1  0.60567744  0.60471274  0.60862767  1
  Ta  Ta125  1  0.00295808  0.20267513  0.80596346  1
  Ta  Ta126  1  0.70491703  0.30668229  0.89969104  1
  Ta  Ta127  1  0.58890295  -0.00348356  0.60570630  1
  Ta  Ta128  1  -0.00280869  -0.00610603  -0.00063003  1
  Ta  Ta129  1  0.20153673  0.80361085  0.39379244  1
  Ta  Ta130  1  0.70837486  0.49981831  0.09314649  1
  Ta  Ta131  1  0.30407621  0.29429724  0.29745621  1
  Ta  Ta132  1  0.70161549  0.30669435  0.09446111  1
  Ta  Ta133  1  0.79771245  0.59954842  0.20108519  1
  Ta  Ta134  1  0.79803905  0.00218251  -0.00369801  1
  Ta  Ta135  1  0.50130315  0.29415634  0.49806134  1
  Ta  Ta136  1  0.19882290  0.01190597  0.19405316  1
  Ta  Ta137  1  0.10813545  0.29861881  0.70312992  1
  Ta  Ta138  1  0.00516524  0.79650520  -0.00313300  1
  Ta  Ta139  1  0.49744647  0.10050019  0.51092345  1
  Ta  Ta140  1  0.21260485  0.39734481  0.18958567  1
  Ta  Ta141  1  0.89634638  0.69355521  0.09595863  1
  Ta  Ta142  1  0.20613119  0.39583393  0.80904057  1
  Ta  Ta143  1  0.69206369  0.50855587  0.49209073  1
  Ta  Ta144  1  0.30251588  0.10098939  0.28882525  1
  Ta  Ta145  1  0.48752955  0.50721124  0.89561889  1
  Ta  Ta146  1  0.10587796  0.69416523  0.29701444  1
  Ta  Ta147  1  0.50118435  0.29914229  0.30173594  1
  Ta  Ta148  1  0.70465143  0.09124047  0.28656030  1
  Ta  Ta149  1  0.29899559  0.70467914  0.49856545  1
  Ti  Ti150  1  0.90871509  0.09006252  0.30211698  1
  Ti  Ti151  1  0.09755502  0.90896743  0.89943008  1
  Ti  Ti152  1  0.68912174  0.70257060  0.28882672  1
  Ti  Ti153  1  0.70325540  0.09255337  0.50898500  1
  Ti  Ti154  1  0.69695456  0.70032632  0.49785282  1
  Ti  Ti155  1  0.70259484  0.09586402  0.09984828  1
  Ti  Ti156  1  0.00037134  0.39965283  0.00145002  1
  Ti  Ti157  1  0.70745288  0.50610774  0.89963905  1
  Ti  Ti158  1  0.59451490  0.00231511  -0.00024633  1
  Ti  Ti159  1  0.47991570  0.51682816  0.09239293  1
  Ti  Ti160  1  -0.00484574  0.20177745  -0.00000431  1
  Ti  Ti161  1  0.60471191  0.80659884  0.38861837  1
  Ti  Ti162  1  0.90851448  0.09559426  0.89939192  1
  Ti  Ti163  1  0.30783806  0.50444428  0.89692998  1
  Ti  Ti164  1  0.59583844  0.19886197  0.18684407  1
  Ti  Ti165  1  0.90117553  0.90319745  0.10081448  1
  Ti  Ti166  1  0.09734196  0.30095945  0.89986229  1
  Ti  Ti167  1  0.19570134  0.60340888  0.81279489  1
  Ti  Ti168  1  0.49635939  0.90000270  0.90069530  1
  Ti  Ti169  1  0.09973451  0.49734819  0.90366137  1
  Ti  Ti170  1  0.70646026  0.51077943  0.71229840  1
  Ti  Ti171  1  0.40307635  0.38586881  0.39888272  1
  Ti  Ti172  1  0.79678211  0.79822879  0.19912714  1
  Ti  Ti173  1  0.39377463  0.19835939  0.59596797  1
  Ti  Ti174  1  0.79304194  0.00078378  0.39250190  1
  Ti  Ti175  1  0.89644004  0.50158602  0.30297266  1
  Ti  Ti176  1  0.20153237  0.59242934  -0.00522038  1
  Ti  Ti177  1  0.78660767  0.79310147  0.80396308  1
  Ti  Ti178  1  0.49595828  0.09969301  0.89938061  1
  Ti  Ti179  1  0.21358091  0.61552166  0.39054639  1
  Ti  Ti180  1  0.40241163  -0.00074440  0.60564945  1
  Ti  Ti181  1  0.00709534  0.79623336  0.80122319  1
  Ti  Ti182  1  0.59982571  0.19403697  0.60039845  1
  Ti  Ti183  1  0.79527135  0.18937714  0.81483362  1
  Ti  Ti184  1  0.38983418  0.60353202  0.21031729  1
  Ti  Ti185  1  0.20341923  0.20020945  0.60368828  1
  Ti  Ti186  1  0.20408066  0.19520979  0.19441203  1
  Ti  Ti187  1  0.80763523  -0.01034815  0.60688811  1
  Ti  Ti188  1  0.00873733  0.20635630  0.60221791  1
  Ti  Ti189  1  0.09726299  0.09482530  0.09841155  1
  Ti  Ti190  1  0.10232299  0.90169675  0.50302134  1
  Ti  Ti191  1  0.39853847  0.60918072  0.79872446  1
  Ti  Ti192  1  0.00602222  0.19236517  0.20539583  1
  Ti  Ti193  1  0.00774107  0.19325772  0.40012713  1
  Ti  Ti194  1  0.20519822  0.00307165  0.80466715  1
  Ti  Ti195  1  -0.00208404  0.59316581  0.19704110  1
  Ti  Ti196  1  0.30730145  0.29838306  0.71001432  1
  Ti  Ti197  1  0.69551716  0.89868198  0.90069881  1
  Ti  Ti198  1  0.58856138  0.39832533  0.18729713  1
  Ti  Ti199  1  0.49920643  0.89124844  0.71456391  1
  Mo  Mo200  1  0.10047570  0.69191655  0.90182406  1
  Mo  Mo201  1  0.50808519  0.29639982  0.10086297  1
  Mo  Mo202  1  0.69755707  0.69554570  0.70898966  1
  Mo  Mo203  1  0.40407446  0.00260258  -0.00049638  1
  Mo  Mo204  1  0.30208514  0.30420359  0.89734070  1
  Mo  Mo205  1  0.19564185  0.81004708  0.60207866  1
  Mo  Mo206  1  0.79655352  0.60334474  0.00253043  1
  Mo  Mo207  1  0.49952483  0.09416701  0.08868601  1
  Mo  Mo208  1  0.30111021  0.70576662  0.29753392  1
  Mo  Mo209  1  0.20520324  0.38070554  0.61607962  1
  Mo  Mo210  1  0.80094357  0.00219808  0.19764455  1
  Mo  Mo211  1  0.60887730  0.61602659  0.39426496  1
  Mo  Mo212  1  0.00153617  -0.00108824  0.80426497  1
  Mo  Mo213  1  0.29606698  0.29567921  0.10225807  1
  Mo  Mo214  1  0.90084096  0.89225796  0.70424219  1
  Mo  Mo215  1  0.39533579  0.59905349  -0.00847537  1
  Mo  Mo216  1  0.88255580  0.50457225  0.49522292  1
  Mo  Mo217  1  0.20925436  0.61405449  0.59375177  1
  Mo  Mo218  1  0.49321904  0.90293917  0.09396985  1
  Mo  Mo219  1  0.39590643  0.80743215  0.80575757  1
  Mo  Mo220  1  0.79554541  0.18745329  0.59227769  1
  Mo  Mo221  1  0.39316262  0.39997479  0.80439548  1
  Mo  Mo222  1  0.59708737  0.38805851  0.40291145  1
  Mo  Mo223  1  0.00483551  0.00509618  0.19351178  1
  Mo  Mo224  1  0.79654709  0.40931766  0.79860107  1
  Mo  Mo225  1  0.60088470  0.80453468  0.80759145  1
  Mo  Mo226  1  0.39532054  0.00196037  0.18862359  1
  Mo  Mo227  1  0.30395124  0.10133710  0.51855921  1
  Mo  Mo228  1  0.40153912  0.19466280  0.79858460  1
  Mo  Mo229  1  0.29876962  0.08937521  0.90067290  1
  Mo  Mo230  1  0.79080739  0.60395770  0.80056392  1
  Mo  Mo231  1  0.90225734  0.29873942  0.09230566  1
  Mo  Mo232  1  0.69957744  0.09537280  0.90511318  1
  Mo  Mo233  1  0.60625091  0.60594822  0.80069020  1
  Mo  Mo234  1  0.20508495  0.38891867  0.38661999  1
  Mo  Mo235  1  0.50568303  0.69964982  0.71137310  1
  Mo  Mo236  1  0.09896316  0.29289634  0.50982195  1
  Mo  Mo237  1  -0.00196516  0.00194782  0.40100964  1
  Mo  Mo238  1  0.69954247  0.70217658  0.89877888  1
  Mo  Mo239  1  0.59795025  0.79793521  0.19836771  1
  Mo  Mo240  1  0.29670274  0.50656031  0.10254889  1
  Mo  Mo241  1  0.29904531  0.09306906  0.09765624  1
  Mo  Mo242  1  0.39815170  0.61588258  0.39332525  1
  Mo  Mo243  1  0.79252493  0.39921259  -0.00098009  1
  Mo  Mo244  1  0.88545044  0.50660560  0.70375925  1
  Mo  Mo245  1  0.69984958  0.90167707  0.29517345  1
  Mo  Mo246  1  0.20268917  0.59295155  0.20064117  1
  Mo  Mo247  1  0.79853822  0.79783897  0.59767161  1
  Mo  Mo248  1  0.09890552  0.10420861  0.29268971  1
  Mo  Mo249  1  0.19748240  0.00009660  0.00023201  1
