# generated using pymatgen
data_HfZrTaTiMo
_symmetry_space_group_name_H-M   'P 1'
_cell_length_a   16.89407764
_cell_length_b   16.88188024
_cell_length_c   16.88706940
_cell_angle_alpha   89.95601141
_cell_angle_beta   89.97447153
_cell_angle_gamma   89.98981579
_symmetry_Int_Tables_number   1
_chemical_formula_structural   HfZrTaTiMo
_chemical_formula_sum   'Hf50 Zr50 Ta50 Ti50 Mo50'
_cell_volume   4816.25431618
_cell_formula_units_Z   50
loop_
 _symmetry_equiv_pos_site_id
 _symmetry_equiv_pos_as_xyz
  1  'x, y, z'
loop_
 _atom_site_type_symbol
 _atom_site_label
 _atom_site_symmetry_multiplicity
 _atom_site_fract_x
 _atom_site_fract_y
 _atom_site_fract_z
 _atom_site_occupancy
  Hf  Hf0  1  0.89551328  0.29494327  0.89987708  1
  Hf  Hf1  1  0.09779530  0.09896286  0.49674814  1
  Hf  Hf2  1  0.10846256  0.09942028  0.30921672  1
  Hf  Hf3  1  0.59838872  0.80573328  0.80360236  1
  Hf  Hf4  1  0.20248618  0.19888470  0.20149980  1
  Hf  Hf5  1  -0.00333905  0.40066318  0.20021734  1
  Hf  Hf6  1  0.29023685  0.68668780  0.29166722  1
  Hf  Hf7  1  0.49159620  0.90518903  0.68538101  1
  Hf  Hf8  1  0.50187400  0.49984238  0.50001464  1
  Hf  Hf9  1  0.49531745  0.70823083  0.50390888  1
  Hf  Hf10  1  0.70239617  0.69819104  0.29196845  1
  Hf  Hf11  1  0.30142429  0.30522700  0.88701788  1
  Hf  Hf12  1  0.09593932  0.69851866  0.10260975  1
  Hf  Hf13  1  0.30183879  0.09525348  0.90560666  1
  Hf  Hf14  1  0.10370633  0.29705148  0.69692069  1
  Hf  Hf15  1  0.59652764  0.00895358  0.40287694  1
  Hf  Hf16  1  0.08982033  0.30184550  0.09318347  1
  Hf  Hf17  1  0.20248606  0.19820635  0.00045552  1
  Hf  Hf18  1  0.70411289  0.10525496  0.30781370  1
  Hf  Hf19  1  0.78910609  0.00183923  -0.00348856  1
  Hf  Hf20  1  0.40750720  -0.00081187  0.80828399  1
  Hf  Hf21  1  0.58976701  0.80040240  0.18813377  1
  Hf  Hf22  1  0.89939969  0.69847095  0.29458847  1
  Hf  Hf23  1  0.29612021  0.69720349  0.89880088  1
  Hf  Hf24  1  0.59736085  0.39870538  0.19811303  1
  Hf  Hf25  1  0.71407060  0.91694118  0.70194919  1
  Hf  Hf26  1  0.09675706  0.29713429  0.31697427  1
  Hf  Hf27  1  0.70379946  0.69518916  0.89992051  1
  Hf  Hf28  1  0.79535656  0.58594445  -0.00126361  1
  Hf  Hf29  1  0.20268007  0.19633415  0.60073634  1
  Hf  Hf30  1  0.10074748  0.50669947  0.31078017  1
  Hf  Hf31  1  0.70840433  0.29502566  0.30369936  1
  Hf  Hf32  1  0.61002875  0.80550716  0.60102036  1
  Hf  Hf33  1  0.70514529  0.49816147  0.30250807  1
  Hf  Hf34  1  0.49679460  0.30342891  0.70691140  1
  Hf  Hf35  1  0.09996762  0.49901333  0.69949028  1
  Hf  Hf36  1  0.80101139  0.60219322  0.58785599  1
  Hf  Hf37  1  0.19672838  0.41114159  0.00663328  1
  Hf  Hf38  1  0.40253889  0.39854998  0.39714901  1
  Hf  Hf39  1  0.00576440  0.80408184  0.79879653  1
  Hf  Hf40  1  0.90276416  0.69237791  0.89418191  1
  Hf  Hf41  1  0.09376346  0.49593874  0.49768984  1
  Hf  Hf42  1  0.42284901  0.79309125  0.01425550  1
  Hf  Hf43  1  0.71313343  0.70068589  0.70945038  1
  Hf  Hf44  1  0.80170984  0.80651925  0.19300379  1
  Hf  Hf45  1  0.60339834  0.39408984  0.60238702  1
  Hf  Hf46  1  0.10644127  0.91297591  0.30536758  1
  Hf  Hf47  1  0.90095588  0.69560612  0.70664907  1
  Hf  Hf48  1  -0.02049150  -0.00325852  0.39977905  1
  Hf  Hf49  1  0.69512601  0.30205231  0.89618853  1
  Zr  Zr50  1  0.90561099  0.29053204  0.68793515  1
  Zr  Zr51  1  0.40207892  0.41046771  0.01098861  1
  Zr  Zr52  1  0.41622116  0.80032573  0.81123537  1
  Zr  Zr53  1  0.39633209  0.79687139  0.39196899  1
  Zr  Zr54  1  0.19397259  0.40353360  0.20329640  1
  Zr  Zr55  1  0.40595598  0.59088694  0.00151896  1
  Zr  Zr56  1  0.60813938  0.60320419  0.59818408  1
  Zr  Zr57  1  0.09621096  0.50568356  0.88811408  1
  Zr  Zr58  1  0.50377174  0.30714377  0.90296418  1
  Zr  Zr59  1  0.90123203  0.49974352  0.69840771  1
  Zr  Zr60  1  0.89750286  0.69531758  0.09501291  1
  Zr  Zr61  1  0.30811967  0.30003542  0.11021030  1
  Zr  Zr62  1  0.88353428  0.08885186  0.69854576  1
  Zr  Zr63  1  0.30760292  0.90687281  0.09702203  1
  Zr  Zr64  1  0.30704349  0.69816968  0.70691601  1
  Zr  Zr65  1  0.60010571  0.00124760  0.80615884  1
  Zr  Zr66  1  0.00844788  0.18827212  0.79521372  1
  Zr  Zr67  1  0.29744085  0.91589124  0.29407754  1
  Zr  Zr68  1  0.69276235  0.89259025  0.31041294  1
  Zr  Zr69  1  0.29323164  0.10258792  0.71510851  1
  Zr  Zr70  1  0.19187175  0.79617428  0.60703691  1
  Zr  Zr71  1  0.19962888  0.79576986  0.40135685  1
  Zr  Zr72  1  0.50043426  0.90132912  0.50118261  1
  Zr  Zr73  1  0.39960178  0.01355669  0.40242951  1
  Zr  Zr74  1  -0.00525274  0.20125594  0.20398348  1
  Zr  Zr75  1  0.89619050  0.10762780  0.09654394  1
  Zr  Zr76  1  0.79563501  -0.00395954  0.20290760  1
  Zr  Zr77  1  0.79796613  0.39656871  0.18378877  1
  Zr  Zr78  1  0.88775109  0.10088145  0.89579512  1
  Zr  Zr79  1  0.39735272  0.39794859  0.60163698  1
  Zr  Zr80  1  0.81330068  0.81022613  0.59468657  1
  Zr  Zr81  1  0.10390924  0.30531500  0.89439085  1
  Zr  Zr82  1  0.08320553  0.30036108  0.50730001  1
  Zr  Zr83  1  0.90141028  0.49547264  0.89437604  1
  Zr  Zr84  1  0.18978635  0.80980656  0.19425486  1
  Zr  Zr85  1  0.00910606  -0.00646544  0.79212298  1
  Zr  Zr86  1  0.60398942  0.60269686  0.40502692  1
  Zr  Zr87  1  0.29473678  0.70047457  0.09980367  1
  Zr  Zr88  1  0.89765324  0.49444650  0.30560939  1
  Zr  Zr89  1  -0.00175672  -0.00213143  0.20044177  1
  Zr  Zr90  1  0.90399906  0.90222943  0.08678628  1
  Zr  Zr91  1  0.59803941  0.19917951  0.19625148  1
  Zr  Zr92  1  0.59752145  0.59185720  0.79117163  1
  Zr  Zr93  1  0.30082645  0.89594637  0.90518065  1
  Zr  Zr94  1  0.80667527  0.60311436  0.41139378  1
  Zr  Zr95  1  0.29494808  0.50187039  0.88559458  1
  Zr  Zr96  1  0.19948456  0.60223793  0.59834664  1
  Zr  Zr97  1  0.41169931  0.59728028  0.19638526  1
  Zr  Zr98  1  0.18970040  -0.00200465  0.61202918  1
  Zr  Zr99  1  0.30323799  0.90064846  0.50980222  1
  Ta  Ta100  1  0.00683779  0.19195445  -0.00662145  1
  Ta  Ta101  1  0.19499567  -0.00218913  0.00529443  1
  Ta  Ta102  1  0.40930913  0.01092718  0.19519246  1
  Ta  Ta103  1  0.50682681  0.70137284  0.30083754  1
  Ta  Ta104  1  0.49840352  0.29728338  0.10208155  1
  Ta  Ta105  1  0.59300121  0.20084257  0.40810168  1
  Ta  Ta106  1  0.29710207  0.50102862  0.30380329  1
  Ta  Ta107  1  0.60222077  0.20081795  0.59912479  1
  Ta  Ta108  1  0.09659127  0.90196145  0.49682153  1
  Ta  Ta109  1  0.30260669  0.29636744  0.30497348  1
  Ta  Ta110  1  0.51092707  0.68591643  0.90508648  1
  Ta  Ta111  1  0.10171950  0.09590429  0.09962934  1
  Ta  Ta112  1  0.20476031  0.39723053  0.40549274  1
  Ta  Ta113  1  0.49919470  0.90274386  0.29475269  1
  Ta  Ta114  1  0.50364387  0.10484005  0.90711658  1
  Ta  Ta115  1  0.59485963  0.00277451  0.19434471  1
  Ta  Ta116  1  0.00201247  0.80209093  0.59828167  1
  Ta  Ta117  1  0.00109493  0.80544674  0.20409610  1
  Ta  Ta118  1  0.29810097  0.50326330  0.49641564  1
  Ta  Ta119  1  0.29983438  0.89772611  0.70770218  1
  Ta  Ta120  1  -0.00204827  0.80214768  0.39930143  1
  Ta  Ta121  1  0.20666646  0.39692301  0.59825870  1
  Ta  Ta122  1  0.00048492  0.59531259  0.19771584  1
  Ta  Ta123  1  0.70454837  0.48315530  0.49635498  1
  Ta  Ta124  1  -0.00084708  0.39445765  0.79466877  1
  Ta  Ta125  1  0.29915752  0.49612980  0.70426171  1
  Ta  Ta126  1  0.88252621  0.11005204  0.30444396  1
  Ta  Ta127  1  -0.00756191  -0.01017355  0.60129148  1
  Ta  Ta128  1  0.50418550  0.50314812  0.30010996  1
  Ta  Ta129  1  0.68778444  0.90053255  0.08919152  1
  Ta  Ta130  1  0.00895263  0.80355318  -0.00763058  1
  Ta  Ta131  1  0.70719055  0.49128393  0.70012885  1
  Ta  Ta132  1  0.09621242  0.69745034  0.49213766  1
  Ta  Ta133  1  0.40006813  0.19905089  0.40358154  1
  Ta  Ta134  1  0.29931241  0.29556653  0.49786365  1
  Ta  Ta135  1  0.50082120  0.10457980  0.69771927  1
  Ta  Ta136  1  0.39926581  0.59861765  0.39828518  1
  Ta  Ta137  1  0.79087082  0.19886106  0.59373057  1
  Ta  Ta138  1  0.70009795  0.10356774  0.70078695  1
  Ta  Ta139  1  0.80056921  0.38997648  0.59509610  1
  Ta  Ta140  1  0.88945418  0.29810343  0.31281825  1
  Ta  Ta141  1  -0.00551645  0.60701664  0.59166359  1
  Ta  Ta142  1  0.40392696  0.19681237  0.00602055  1
  Ta  Ta143  1  0.59801695  0.19875626  0.79739091  1
  Ta  Ta144  1  0.70169148  0.69464657  0.09703531  1
  Ta  Ta145  1  0.19069271  0.60004640  0.00095950  1
  Ta  Ta146  1  0.70322029  0.72647337  0.48238076  1
  Ta  Ta147  1  0.40378571  0.20039161  0.80288063  1
  Ta  Ta148  1  0.79167293  0.39893452  0.00326638  1
  Ta  Ta149  1  -0.01908703  0.19609538  0.40993128  1
  Ti  Ti150  1  0.59945371  0.19817089  0.00450863  1
  Ti  Ti151  1  0.49834818  0.70270723  0.69625022  1
  Ti  Ti152  1  0.28664010  0.51243791  0.11588994  1
  Ti  Ti153  1  0.18835833  0.80062411  -0.00150601  1
  Ti  Ti154  1  0.30359900  0.09765198  0.10403145  1
  Ti  Ti155  1  0.59573122  0.39062868  0.39841342  1
  Ti  Ti156  1  0.01011045  0.00279614  -0.00721516  1
  Ti  Ti157  1  0.49203509  0.29383457  0.29556287  1
  Ti  Ti158  1  -0.00778624  0.60680163  0.40640389  1
  Ti  Ti159  1  0.40348864  0.40627667  0.20299508  1
  Ti  Ti160  1  0.09894721  0.69339807  0.30127583  1
  Ti  Ti161  1  0.10833704  0.90370441  0.89865848  1
  Ti  Ti162  1  0.60133936  0.79557106  -0.00006269  1
  Ti  Ti163  1  0.70139727  0.29548438  0.70487786  1
  Ti  Ti164  1  0.70365079  0.29680256  0.49257819  1
  Ti  Ti165  1  0.88256956  0.09528262  0.50265058  1
  Ti  Ti166  1  0.11652838  0.09658294  0.88950193  1
  Ti  Ti167  1  0.90586098  0.47886573  0.49757130  1
  Ti  Ti168  1  0.60838940  0.01135536  0.59549485  1
  Ti  Ti169  1  0.69709807  0.10220417  0.10197195  1
  Ti  Ti170  1  0.41190726  0.59120460  0.79509802  1
  Ti  Ti171  1  0.80764436  0.81664209  0.80435014  1
  Ti  Ti172  1  0.90020307  0.29793147  0.08932551  1
  Ti  Ti173  1  0.78710140  0.20663920  0.00716017  1
  Ti  Ti174  1  0.30302598  0.69441233  0.50058720  1
  Ti  Ti175  1  0.68865748  0.51477766  0.10660169  1
  Ti  Ti176  1  0.50869213  0.91465989  0.92740817  1
  Ti  Ti177  1  0.69734449  0.90171332  0.90479263  1
  Ti  Ti178  1  0.90770791  0.49677391  0.09231020  1
  Ti  Ti179  1  0.71010881  0.91299089  0.49480369  1
  Ti  Ti180  1  0.90041229  0.90680705  0.89816358  1
  Ti  Ti181  1  0.69817269  0.49150572  0.88758291  1
  Ti  Ti182  1  0.79978933  0.80260095  -0.00472762  1
  Ti  Ti183  1  0.49700939  0.29472629  0.50158748  1
  Ti  Ti184  1  0.38889655  0.01575215  0.60165475  1
  Ti  Ti185  1  0.39456247  0.20112659  0.60315510  1
  Ti  Ti186  1  0.52849931  0.66887180  0.09468637  1
  Ti  Ti187  1  0.49640436  0.10737925  0.29562443  1
  Ti  Ti188  1  0.09544015  0.68880684  0.71015651  1
  Ti  Ti189  1  0.19103034  0.79935904  0.80028041  1
  Ti  Ti190  1  0.82006659  0.81565784  0.39945324  1
  Ti  Ti191  1  0.69873834  0.10770532  0.89428065  1
  Ti  Ti192  1  0.40207649  0.59649483  0.60373321  1
  Ti  Ti193  1  0.00668786  0.59819620  -0.00166706  1
  Ti  Ti194  1  0.50857320  0.49077755  0.89151292  1
  Ti  Ti195  1  0.40801342  0.80071628  0.19630169  1
  Ti  Ti196  1  0.80050865  0.39328672  0.79441035  1
  Ti  Ti197  1  0.29634726  0.10372082  0.30334398  1
  Ti  Ti198  1  0.49753577  0.10785577  0.51084181  1
  Ti  Ti199  1  0.60470681  0.40772887  0.00911530  1
  Mo  Mo200  1  0.79955212  0.39257708  0.40927834  1
  Mo  Mo201  1  0.10048365  0.89311899  0.69766254  1
  Mo  Mo202  1  0.79510286  -0.00169050  0.81061134  1
  Mo  Mo203  1  0.60651785  0.59973161  0.20642458  1
  Mo  Mo204  1  0.79720662  0.00375293  0.59175955  1
  Mo  Mo205  1  0.69477106  0.10320673  0.50416741  1
  Mo  Mo206  1  -0.01023922  0.39592981  -0.00222497  1
  Mo  Mo207  1  0.60499134  0.39947754  0.79246468  1
  Mo  Mo208  1  0.49577344  0.49895945  0.69859418  1
  Mo  Mo209  1  0.49914538  0.10447764  0.09625193  1
  Mo  Mo210  1  0.40769847  0.00847981  0.00693862  1
  Mo  Mo211  1  0.20348752  0.59827062  0.40261860  1
  Mo  Mo212  1  0.39452748  0.79094956  0.60824363  1
  Mo  Mo213  1  0.90364375  0.90330911  0.50035110  1
  Mo  Mo214  1  0.79904998  0.20434326  0.18885474  1
  Mo  Mo215  1  0.60495319  0.01189588  0.00252286  1
  Mo  Mo216  1  0.20534412  0.00687232  0.41177687  1
  Mo  Mo217  1  -0.00476908  0.17592785  0.59656877  1
  Mo  Mo218  1  -0.00635293  0.39018505  0.40306605  1
  Mo  Mo219  1  0.20007854  -0.01053584  0.80673088  1
  Mo  Mo220  1  0.40055389  0.19659143  0.20620668  1
  Mo  Mo221  1  0.89512686  0.29261080  0.50358787  1
  Mo  Mo222  1  0.30100281  0.30011911  0.70046841  1
  Mo  Mo223  1  0.19796602  0.60528110  0.79927279  1
  Mo  Mo224  1  0.40453265  0.40496733  0.79465016  1
  Mo  Mo225  1  0.09642773  0.09802785  0.69550883  1
  Mo  Mo226  1  0.79777401  0.58673410  0.80033719  1
  Mo  Mo227  1  0.90765563  0.70918383  0.49672421  1
  Mo  Mo228  1  0.29995520  0.10629643  0.50106703  1
  Mo  Mo229  1  0.51232982  0.49299653  0.10576274  1
  Mo  Mo230  1  0.60720017  0.58536117  -0.00879889  1
  Mo  Mo231  1  0.90187936  0.89763281  0.29937423  1
  Mo  Mo232  1  0.18766234  0.59688531  0.20022511  1
  Mo  Mo233  1  0.10113814  0.70244481  0.90307827  1
  Mo  Mo234  1  0.08848280  0.50392901  0.09578944  1
  Mo  Mo235  1  0.59419450  0.80610689  0.39922862  1
  Mo  Mo236  1  0.21077772  0.20144842  0.40330913  1
  Mo  Mo237  1  0.78623955  0.20085655  0.79391764  1
  Mo  Mo238  1  0.69439607  0.29784102  0.09059179  1
  Mo  Mo239  1  0.90232034  0.89786036  0.69986481  1
  Mo  Mo240  1  0.20310429  0.39690666  0.78556377  1
  Mo  Mo241  1  0.09659561  0.90390840  0.09108364  1
  Mo  Mo242  1  0.79693343  0.00129887  0.40425708  1
  Mo  Mo243  1  -0.00431418  0.40851963  0.59994653  1
  Mo  Mo244  1  0.00201696  0.60327243  0.79706585  1
  Mo  Mo245  1  0.50370644  0.91295059  0.10117510  1
  Mo  Mo246  1  0.80384501  0.59785591  0.18801773  1
  Mo  Mo247  1  0.20454245  0.19891682  0.79992849  1
  Mo  Mo248  1  0.79536931  0.19891645  0.41431976  1
  Mo  Mo249  1  0.20624158  0.01102790  0.19182184  1
