# generated using pymatgen
data_HfZrTaTiMo
_symmetry_space_group_name_H-M   'P 1'
_cell_length_a   16.88950797
_cell_length_b   16.88890966
_cell_length_c   16.89489108
_cell_angle_alpha   89.99681519
_cell_angle_beta   89.97428391
_cell_angle_gamma   90.04440413
_symmetry_Int_Tables_number   1
_chemical_formula_structural   HfZrTaTiMo
_chemical_formula_sum   'Hf50 Zr50 Ta50 Ti50 Mo50'
_cell_volume   4819.18758872
_cell_formula_units_Z   50
loop_
 _symmetry_equiv_pos_site_id
 _symmetry_equiv_pos_as_xyz
  1  'x, y, z'
loop_
 _atom_site_type_symbol
 _atom_site_label
 _atom_site_symmetry_multiplicity
 _atom_site_fract_x
 _atom_site_fract_y
 _atom_site_fract_z
 _atom_site_occupancy
  Hf  Hf0  1  0.19874980  0.40793920  0.38783060  1
  Hf  Hf1  1  0.79923981  0.40189099  0.00075751  1
  Hf  Hf2  1  0.90027549  0.70114045  0.70729464  1
  Hf  Hf3  1  0.60456210  0.39392971  0.79861070  1
  Hf  Hf4  1  0.49532537  0.30624091  0.09868118  1
  Hf  Hf5  1  0.49164783  0.49108822  0.50519369  1
  Hf  Hf6  1  0.90659682  0.10298949  0.29482176  1
  Hf  Hf7  1  0.11913040  0.09687751  0.69790479  1
  Hf  Hf8  1  -0.00529260  0.39680265  0.60651932  1
  Hf  Hf9  1  0.49460131  0.69926454  0.10306560  1
  Hf  Hf10  1  0.19700904  0.79801374  0.19350954  1
  Hf  Hf11  1  0.70255869  0.11465936  0.90500637  1
  Hf  Hf12  1  0.60368273  0.61284917  0.80528697  1
  Hf  Hf13  1  0.69623893  0.10606147  0.09420706  1
  Hf  Hf14  1  0.70040349  0.49759357  0.90228364  1
  Hf  Hf15  1  0.11221230  0.30219373  0.70143769  1
  Hf  Hf16  1  0.40339487  0.19226044  0.39308045  1
  Hf  Hf17  1  0.90717827  0.70511253  0.09949572  1
  Hf  Hf18  1  0.00592360  0.80267825  0.81246778  1
  Hf  Hf19  1  0.59815296  -0.00531957  0.79905735  1
  Hf  Hf20  1  0.29695289  0.08969591  0.51031923  1
  Hf  Hf21  1  0.89462252  0.90044103  0.49936116  1
  Hf  Hf22  1  0.10762467  0.89698579  0.70265458  1
  Hf  Hf23  1  0.30550410  0.30805669  0.50295194  1
  Hf  Hf24  1  0.00619504  0.40467877  -0.00265110  1
  Hf  Hf25  1  0.80991887  0.60652973  0.40142795  1
  Hf  Hf26  1  0.50158922  0.10351627  0.69597071  1
  Hf  Hf27  1  0.69753804  0.10133149  0.50206533  1
  Hf  Hf28  1  0.39169079  0.60650175  -0.00723876  1
  Hf  Hf29  1  0.79419321  0.20470539  0.19850523  1
  Hf  Hf30  1  0.20048174  0.20111869  0.00306192  1
  Hf  Hf31  1  0.49776418  0.49599998  0.90594304  1
  Hf  Hf32  1  0.89729337  0.89428360  0.09894475  1
  Hf  Hf33  1  0.09360812  0.69997615  0.29161700  1
  Hf  Hf34  1  0.89483220  0.89718405  0.70356208  1
  Hf  Hf35  1  0.89314102  0.28405123  0.90433884  1
  Hf  Hf36  1  0.39532186  0.40642620  0.20045024  1
  Hf  Hf37  1  0.38991767  0.21288055  -0.00379564  1
  Hf  Hf38  1  0.79871173  0.40682120  0.19200122  1
  Hf  Hf39  1  -0.00061801  0.00969252  0.60480090  1
  Hf  Hf40  1  0.49758946  0.49533679  0.69696752  1
  Hf  Hf41  1  0.89197878  0.09730196  0.50043306  1
  Hf  Hf42  1  -0.00263685  0.20220088  0.60085830  1
  Hf  Hf43  1  0.49850673  0.89950148  0.49999342  1
  Hf  Hf44  1  0.30025961  0.09609816  0.89732589  1
  Hf  Hf45  1  0.80880590  0.39676200  0.40537207  1
  Hf  Hf46  1  0.79883467  0.00798611  0.79630532  1
  Hf  Hf47  1  0.79659979  0.20749870  0.40100881  1
  Hf  Hf48  1  0.91186057  0.50556640  0.49999460  1
  Hf  Hf49  1  0.80328621  0.39606830  0.79402629  1
  Zr  Zr50  1  0.39649766  0.38668282  0.80962308  1
  Zr  Zr51  1  0.70606547  0.49989941  0.30626033  1
  Zr  Zr52  1  0.21108308  0.19722451  0.19061541  1
  Zr  Zr53  1  0.40110423  0.80087187  0.60579968  1
  Zr  Zr54  1  0.50077748  0.70039516  0.69871298  1
  Zr  Zr55  1  0.09976307  0.29806055  0.29218213  1
  Zr  Zr56  1  0.59363837  0.20244725  0.21501333  1
  Zr  Zr57  1  0.59461024  -0.00882590  -0.00286299  1
  Zr  Zr58  1  0.01099147  0.41510828  0.19368308  1
  Zr  Zr59  1  0.20366402  0.19509684  0.40263314  1
  Zr  Zr60  1  0.60096712  0.59690518  0.40405664  1
  Zr  Zr61  1  0.49794459  0.11082882  0.10129573  1
  Zr  Zr62  1  0.80314925  0.60338535  0.60270211  1
  Zr  Zr63  1  0.00954879  -0.00177584  0.18822098  1
  Zr  Zr64  1  0.20239921  0.59792346  0.60298217  1
  Zr  Zr65  1  0.90391408  0.89318582  0.29424282  1
  Zr  Zr66  1  0.40339318  0.79908719  0.80747719  1
  Zr  Zr67  1  0.29874463  0.89582968  0.50082012  1
  Zr  Zr68  1  0.49471509  0.89657018  0.30541134  1
  Zr  Zr69  1  0.59335745  0.41264927  0.19772055  1
  Zr  Zr70  1  0.60127271  0.59284768  0.19826265  1
  Zr  Zr71  1  0.29221860  0.90250964  0.90404663  1
  Zr  Zr72  1  0.79502704  0.00458702  0.19721138  1
  Zr  Zr73  1  0.19402745  0.79953270  0.39532302  1
  Zr  Zr74  1  0.11059909  0.90554999  0.50894045  1
  Zr  Zr75  1  0.60633368  0.60199538  0.00794661  1
  Zr  Zr76  1  0.39513076  0.59023493  0.20245965  1
  Zr  Zr77  1  0.20480103  0.60006882  0.80751069  1
  Zr  Zr78  1  -0.00647316  0.40129869  0.79767323  1
  Zr  Zr79  1  0.90828523  0.28964524  0.09698580  1
  Zr  Zr80  1  0.60528294  0.79387642  0.40860466  1
  Zr  Zr81  1  0.89392958  0.89655955  0.90319952  1
  Zr  Zr82  1  -0.01277863  0.19131119  0.78817462  1
  Zr  Zr83  1  0.59642790  0.79892540  -0.01144589  1
  Zr  Zr84  1  0.70426332  0.89781757  0.30231310  1
  Zr  Zr85  1  0.60175296  0.80139200  0.19061024  1
  Zr  Zr86  1  0.10226608  0.69092133  0.50048870  1
  Zr  Zr87  1  0.00547258  0.20131423  0.41612182  1
  Zr  Zr88  1  0.40187581  0.80146795  -0.00026978  1
  Zr  Zr89  1  0.30383823  0.49934433  0.49725389  1
  Zr  Zr90  1  0.60514226  0.60823497  0.59640834  1
  Zr  Zr91  1  0.10198344  0.09883374  0.29359189  1
  Zr  Zr92  1  -0.00328705  0.79318583  0.59569869  1
  Zr  Zr93  1  0.59695549  0.20627502  0.80248787  1
  Zr  Zr94  1  0.91007034  0.30040703  0.29514280  1
  Zr  Zr95  1  0.10204163  0.09805652  0.89496336  1
  Zr  Zr96  1  0.80699970  0.39686252  0.60355700  1
  Zr  Zr97  1  0.41162641  -0.00401230  -0.00308857  1
  Zr  Zr98  1  0.40220504  0.20235198  0.80346352  1
  Zr  Zr99  1  0.49056446  0.69828923  0.30865130  1
  Ta  Ta100  1  0.30529970  0.30095085  0.29499926  1
  Ta  Ta101  1  0.10339434  0.49919537  0.70158389  1
  Ta  Ta102  1  0.39839115  0.00518540  0.20541779  1
  Ta  Ta103  1  0.90087511  0.51196525  0.90068839  1
  Ta  Ta104  1  0.80734445  0.79275167  0.40304040  1
  Ta  Ta105  1  0.59700221  0.20176276  0.59371581  1
  Ta  Ta106  1  0.59223764  0.20268668  0.40358666  1
  Ta  Ta107  1  0.29790611  0.90443071  0.10365239  1
  Ta  Ta108  1  0.49836832  0.30576333  0.68200412  1
  Ta  Ta109  1  0.78935496  0.79056599  -0.00034696  1
  Ta  Ta110  1  0.69340496  0.30210148  0.50261864  1
  Ta  Ta111  1  0.00711219  0.59879325  0.18918559  1
  Ta  Ta112  1  0.68738620  0.29876310  0.08431466  1
  Ta  Ta113  1  0.29429789  0.49495336  0.09223087  1
  Ta  Ta114  1  0.70043930  0.10876256  0.69557079  1
  Ta  Ta115  1  0.71288494  0.70248374  0.29247750  1
  Ta  Ta116  1  0.29979964  0.69715049  0.30325821  1
  Ta  Ta117  1  0.10981578  0.30999983  0.50784340  1
  Ta  Ta118  1  0.00843640  0.00000619  0.40581829  1
  Ta  Ta119  1  -0.00429081  0.79754393  0.39975478  1
  Ta  Ta120  1  0.61014165  0.80591639  0.60781144  1
  Ta  Ta121  1  0.59106638  -0.00050210  0.20209241  1
  Ta  Ta122  1  0.29769522  0.90239283  0.29957963  1
  Ta  Ta123  1  0.09907572  0.29515786  0.89863495  1
  Ta  Ta124  1  0.40263479  -0.00226246  0.61104807  1
  Ta  Ta125  1  0.40648853  -0.00367154  0.79564543  1
  Ta  Ta126  1  0.19609144  0.59092477  0.19723493  1
  Ta  Ta127  1  0.19425593  0.60061870  0.00517765  1
  Ta  Ta128  1  0.00593549  -0.00388858  -0.00575608  1
  Ta  Ta129  1  0.39420050  0.60359018  0.80570883  1
  Ta  Ta130  1  0.19632871  0.79425419  -0.00043536  1
  Ta  Ta131  1  0.79666164  0.60227328  0.80124064  1
  Ta  Ta132  1  0.69793794  0.50090590  0.69819428  1
  Ta  Ta133  1  0.20016675  0.79495587  0.80787054  1
  Ta  Ta134  1  0.39776507  0.00526042  0.39562412  1
  Ta  Ta135  1  0.79237918  -0.00176979  0.60678664  1
  Ta  Ta136  1  0.10257141  0.69984398  0.70488307  1
  Ta  Ta137  1  0.90540394  0.10497432  0.08530505  1
  Ta  Ta138  1  0.59282701  0.39471510  0.40173003  1
  Ta  Ta139  1  0.59469912  0.00856296  0.39999974  1
  Ta  Ta140  1  0.09670112  0.69458356  0.90428148  1
  Ta  Ta141  1  0.70294203  0.90321256  0.50021004  1
  Ta  Ta142  1  0.30232860  0.49135938  0.70175415  1
  Ta  Ta143  1  0.79749654  0.60628273  -0.00008176  1
  Ta  Ta144  1  0.30453126  0.69774779  0.49166415  1
  Ta  Ta145  1  0.60206858  -0.00451757  0.60344814  1
  Ta  Ta146  1  0.80438677  0.59970676  0.19177044  1
  Ta  Ta147  1  0.39094229  0.80466151  0.19944410  1
  Ta  Ta148  1  0.29563615  0.49272636  0.90589563  1
  Ta  Ta149  1  0.01107071  0.80033388  0.00132916  1
  Ti  Ti150  1  0.39460122  0.60147465  0.60453519  1
  Ti  Ti151  1  0.49075670  0.30478001  0.30273435  1
  Ti  Ti152  1  0.79912420  -0.00091864  -0.00100866  1
  Ti  Ti153  1  0.19777387  0.39443483  0.00288130  1
  Ti  Ti154  1  0.19983586  0.40609118  0.19564006  1
  Ti  Ti155  1  0.69414833  0.09997863  0.30462381  1
  Ti  Ti156  1  0.48623725  0.69935430  0.49652731  1
  Ti  Ti157  1  0.20104443  0.39917388  0.80631761  1
  Ti  Ti158  1  0.70329450  0.89849006  0.89750558  1
  Ti  Ti159  1  -0.00400433  0.00035373  0.80184926  1
  Ti  Ti160  1  0.80579812  0.20494596  0.60423260  1
  Ti  Ti161  1  0.21521477  0.20683684  0.80024892  1
  Ti  Ti162  1  0.20550578  0.19828220  0.59924931  1
  Ti  Ti163  1  0.90178051  0.69628954  0.90503598  1
  Ti  Ti164  1  0.69714143  0.29732687  0.69102928  1
  Ti  Ti165  1  -0.00006816  0.59680070  0.79965374  1
  Ti  Ti166  1  0.09764186  0.89930059  0.29731427  1
  Ti  Ti167  1  0.09985025  0.50220604  0.90212538  1
  Ti  Ti168  1  0.19171909  -0.00136956  0.00834044  1
  Ti  Ti169  1  0.00026513  0.59794831  0.60896385  1
  Ti  Ti170  1  0.90814187  0.50573253  0.29745647  1
  Ti  Ti171  1  0.20050059  0.59275342  0.38853713  1
  Ti  Ti172  1  0.49841124  0.09678232  0.50355578  1
  Ti  Ti173  1  0.20673391  -0.00474164  0.79805673  1
  Ti  Ti174  1  0.70938226  0.70520317  0.50209384  1
  Ti  Ti175  1  0.00607792  0.40230711  0.40101604  1
  Ti  Ti176  1  0.90355746  0.70327712  0.28899535  1
  Ti  Ti177  1  0.29525577  0.70210293  0.69981612  1
  Ti  Ti178  1  0.90527468  0.51179968  0.08882957  1
  Ti  Ti179  1  0.89584750  0.10307071  0.90612714  1
  Ti  Ti180  1  0.79805878  0.00008766  0.39726255  1
  Ti  Ti181  1  0.29402461  0.89961759  0.69805104  1
  Ti  Ti182  1  0.30007746  0.30628540  0.69184180  1
  Ti  Ti183  1  0.79398577  0.79937447  0.60217843  1
  Ti  Ti184  1  0.20394405  0.00011328  0.19765893  1
  Ti  Ti185  1  0.10110925  0.49781435  0.50346155  1
  Ti  Ti186  1  0.30543554  0.09441086  0.10164498  1
  Ti  Ti187  1  0.10240208  0.89530609  0.09721099  1
  Ti  Ti188  1  0.70473403  0.89737537  0.10059698  1
  Ti  Ti189  1  0.69446186  0.30670210  0.30385008  1
  Ti  Ti190  1  0.09530409  0.29181326  0.09785390  1
  Ti  Ti191  1  0.29459311  0.69846656  0.10188295  1
  Ti  Ti192  1  0.39736009  0.19790009  0.60169342  1
  Ti  Ti193  1  0.78464246  0.79108495  0.80149845  1
  Ti  Ti194  1  0.51597943  0.30551865  0.91928979  1
  Ti  Ti195  1  0.49531770  0.30509038  0.50326202  1
  Ti  Ti196  1  0.69723116  0.49025966  0.50618637  1
  Ti  Ti197  1  0.60392649  0.80243423  0.79756023  1
  Ti  Ti198  1  0.00190930  0.60234729  0.39453158  1
  Ti  Ti199  1  0.19857384  0.00456012  0.39562018  1
  Mo  Mo200  1  0.10295466  0.90033110  0.90292505  1
  Mo  Mo201  1  0.48791633  0.49450136  0.32173025  1
  Mo  Mo202  1  0.39251234  0.40203238  0.00187200  1
  Mo  Mo203  1  0.09745823  0.50865626  0.29856556  1
  Mo  Mo204  1  0.90316211  0.70072875  0.49828245  1
  Mo  Mo205  1  0.49229323  0.90064681  0.11454562  1
  Mo  Mo206  1  0.90392422  0.51241013  0.70801591  1
  Mo  Mo207  1  0.60363303  0.39593815  0.59766086  1
  Mo  Mo208  1  0.29312703  0.50088428  0.29598267  1
  Mo  Mo209  1  0.29060775  0.69760625  0.90271591  1
  Mo  Mo210  1  0.48513557  0.49698899  0.08271351  1
  Mo  Mo211  1  0.50254784  0.89823891  0.88524080  1
  Mo  Mo212  1  0.90309728  0.30144961  0.50266578  1
  Mo  Mo213  1  0.70191376  0.89801915  0.69901596  1
  Mo  Mo214  1  0.60197587  0.40472747  0.00366382  1
  Mo  Mo215  1  0.39460039  0.59776204  0.40009622  1
  Mo  Mo216  1  0.00777402  0.19143231  0.18183441  1
  Mo  Mo217  1  0.88796774  0.09647497  0.69738847  1
  Mo  Mo218  1  0.59403473  0.20293454  -0.00335796  1
  Mo  Mo219  1  0.19829437  0.40312713  0.60425140  1
  Mo  Mo220  1  0.40107105  0.39547509  0.39390272  1
  Mo  Mo221  1  0.49755643  0.10090677  0.89619624  1
  Mo  Mo222  1  0.10085525  0.69729164  0.09663220  1
  Mo  Mo223  1  0.49933463  0.09869434  0.30356058  1
  Mo  Mo224  1  0.79396955  0.20181725  0.79166518  1
  Mo  Mo225  1  0.39108177  0.79914187  0.39709038  1
  Mo  Mo226  1  0.00468528  0.79919075  0.19804339  1
  Mo  Mo227  1  0.00763618  0.19302491  -0.00645887  1
  Mo  Mo228  1  0.10657543  0.50191285  0.09351723  1
  Mo  Mo229  1  0.39362768  0.20241120  0.20241369  1
  Mo  Mo230  1  0.89053781  0.28960958  0.70145658  1
  Mo  Mo231  1  0.50329219  0.70080186  0.89622989  1
  Mo  Mo232  1  0.20962634  -0.00013468  0.61177334  1
  Mo  Mo233  1  0.69916059  0.30104635  0.90614355  1
  Mo  Mo234  1  0.70474001  0.70243670  0.89824939  1
  Mo  Mo235  1  0.20547336  0.79317116  0.61327447  1
  Mo  Mo236  1  0.30424403  0.09820796  0.70169233  1
  Mo  Mo237  1  0.30233423  0.09353679  0.29684638  1
  Mo  Mo238  1  0.71325846  0.50054468  0.09812875  1
  Mo  Mo239  1  0.28168790  0.30525117  0.90196208  1
  Mo  Mo240  1  0.29505484  0.31016610  0.10080770  1
  Mo  Mo241  1  0.70774096  0.69919281  0.10299246  1
  Mo  Mo242  1  0.79997466  0.79231946  0.19651603  1
  Mo  Mo243  1  0.70461233  0.70524070  0.70109025  1
  Mo  Mo244  1  -0.00032296  0.60139675  -0.00551383  1
  Mo  Mo245  1  0.79616830  0.20077666  0.00046507  1
  Mo  Mo246  1  0.10224694  0.09295326  0.09265370  1
  Mo  Mo247  1  0.10823678  0.09906926  0.50470113  1
  Mo  Mo248  1  0.39550202  0.39612691  0.60445330  1
  Mo  Mo249  1  0.50615874  0.90203564  0.69681472  1
