# generated using pymatgen
data_HfZrTaTiMo
_symmetry_space_group_name_H-M   'P 1'
_cell_length_a   16.89299619
_cell_length_b   16.88485103
_cell_length_c   16.88579651
_cell_angle_alpha   90.06845133
_cell_angle_beta   90.02245052
_cell_angle_gamma   90.01392240
_symmetry_Int_Tables_number   1
_chemical_formula_structural   HfZrTaTiMo
_chemical_formula_sum   'Hf50 Zr50 Ta50 Ti50 Mo50'
_cell_volume   4816.42844664
_cell_formula_units_Z   50
loop_
 _symmetry_equiv_pos_site_id
 _symmetry_equiv_pos_as_xyz
  1  'x, y, z'
loop_
 _atom_site_type_symbol
 _atom_site_label
 _atom_site_symmetry_multiplicity
 _atom_site_fract_x
 _atom_site_fract_y
 _atom_site_fract_z
 _atom_site_occupancy
  Hf  Hf0  1  0.09490811  0.90104842  0.49515248  1
  Hf  Hf1  1  0.80564437  0.59289535  0.80057157  1
  Hf  Hf2  1  0.59788022  0.40578746  -0.00566585  1
  Hf  Hf3  1  0.20369453  0.79938788  0.00477476  1
  Hf  Hf4  1  0.10280417  0.31012971  0.10247854  1
  Hf  Hf5  1  0.39644821  0.38696538  0.20654919  1
  Hf  Hf6  1  0.91081845  0.29341559  0.30499925  1
  Hf  Hf7  1  0.09691945  0.90117171  0.29700549  1
  Hf  Hf8  1  0.90278633  0.69605785  0.69726075  1
  Hf  Hf9  1  0.09948117  0.69939556  0.89827477  1
  Hf  Hf10  1  0.00218090  0.41953291  0.21832171  1
  Hf  Hf11  1  0.29420985  0.30968245  0.50688700  1
  Hf  Hf12  1  0.49936726  0.29181667  0.09399885  1
  Hf  Hf13  1  0.79562110  0.39910217  0.60125388  1
  Hf  Hf14  1  0.10561723  0.89902457  0.11123121  1
  Hf  Hf15  1  0.90025226  0.30635525  0.89448685  1
  Hf  Hf16  1  0.59751704  0.20921921  0.39749421  1
  Hf  Hf17  1  0.90650674  0.09313698  0.89456398  1
  Hf  Hf18  1  0.00246368  0.80024813  0.79668265  1
  Hf  Hf19  1  0.59727162  0.60359139  0.60237290  1
  Hf  Hf20  1  0.70264972  0.30112738  0.09510189  1
  Hf  Hf21  1  0.49350066  0.90351352  0.90377614  1
  Hf  Hf22  1  0.81121121  0.00205404  0.59994455  1
  Hf  Hf23  1  0.69587644  0.89589450  0.09787913  1
  Hf  Hf24  1  0.79728833  0.18823760  0.19922959  1
  Hf  Hf25  1  0.59367501  0.79246689  0.59816701  1
  Hf  Hf26  1  0.50063576  0.50306534  0.29340132  1
  Hf  Hf27  1  0.00125537  0.19729470  0.79811198  1
  Hf  Hf28  1  0.09581048  0.69324206  0.49223136  1
  Hf  Hf29  1  0.69989320  0.69395796  0.10427426  1
  Hf  Hf30  1  0.69712308  0.89704477  0.70366842  1
  Hf  Hf31  1  0.69378386  0.91027668  0.49307158  1
  Hf  Hf32  1  0.20749560  0.41167081  0.80566578  1
  Hf  Hf33  1  0.49927126  0.10054029  0.49999128  1
  Hf  Hf34  1  0.20434444  0.19505791  0.80097300  1
  Hf  Hf35  1  0.90073509  0.30242660  0.10842520  1
  Hf  Hf36  1  0.19738402  0.60057315  0.79557228  1
  Hf  Hf37  1  0.31257750  0.70013414  0.90205804  1
  Hf  Hf38  1  0.79766619  -0.00138855  0.20345880  1
  Hf  Hf39  1  0.39214050  0.19244367  0.80082536  1
  Hf  Hf40  1  0.80341239  0.40798179  -0.00308450  1
  Hf  Hf41  1  0.59835990  0.40035824  0.59939804  1
  Hf  Hf42  1  0.60166968  0.00427055  0.80559635  1
  Hf  Hf43  1  0.90547861  0.69328696  0.90213898  1
  Hf  Hf44  1  0.00503666  0.00089148  0.00598293  1
  Hf  Hf45  1  0.71228391  0.69269552  0.49733356  1
  Hf  Hf46  1  0.80023156  0.80209909  0.20653486  1
  Hf  Hf47  1  0.69213560  0.50070012  0.11253223  1
  Hf  Hf48  1  0.80808338  0.80564521  0.59663501  1
  Hf  Hf49  1  0.11076417  0.90805067  0.89175600  1
  Zr  Zr50  1  0.59897806  0.19225533  0.19714332  1
  Zr  Zr51  1  0.70200769  0.30661530  0.28951371  1
  Zr  Zr52  1  0.10070063  0.30785431  0.49828090  1
  Zr  Zr53  1  0.29321582  0.49889808  0.50316420  1
  Zr  Zr54  1  0.29856372  0.90233335  0.70996495  1
  Zr  Zr55  1  0.60754824  0.78931993  -0.01487043  1
  Zr  Zr56  1  0.49922502  0.28377751  0.90277196  1
  Zr  Zr57  1  0.89634046  0.50384010  0.49378901  1
  Zr  Zr58  1  0.39594030  0.20879276  0.38941178  1
  Zr  Zr59  1  0.49237510  0.09414983  0.69969210  1
  Zr  Zr60  1  0.00140314  0.19027554  0.60074837  1
  Zr  Zr61  1  0.80092972  0.80673683  0.39373815  1
  Zr  Zr62  1  0.60415028  0.20801268  0.60252818  1
  Zr  Zr63  1  0.39835110  0.40350683  -0.00472952  1
  Zr  Zr64  1  0.19200662  0.79791381  0.60145530  1
  Zr  Zr65  1  0.59457844  0.39929147  0.80643722  1
  Zr  Zr66  1  0.10038943  0.30569739  0.90740403  1
  Zr  Zr67  1  0.59416303  0.79958672  0.39398273  1
  Zr  Zr68  1  0.58801925  0.61073804  0.40105521  1
  Zr  Zr69  1  0.70292540  0.10314035  0.50046416  1
  Zr  Zr70  1  0.20131912  0.02017156  0.19603710  1
  Zr  Zr71  1  0.90083789  0.29368880  0.49980829  1
  Zr  Zr72  1  0.49798951  0.09284016  0.08895243  1
  Zr  Zr73  1  0.49650399  0.90933754  0.49786963  1
  Zr  Zr74  1  0.29311601  0.89382844  0.29017850  1
  Zr  Zr75  1  0.20562187  0.59279058  -0.00289125  1
  Zr  Zr76  1  0.69493897  0.50270914  0.29948449  1
  Zr  Zr77  1  0.79909154  0.59677178  -0.00146494  1
  Zr  Zr78  1  0.90573307  0.10072892  0.48187335  1
  Zr  Zr79  1  0.20340340  0.19566124  0.39898452  1
  Zr  Zr80  1  0.09833495  0.08234364  0.70619891  1
  Zr  Zr81  1  0.49717111  0.69229278  0.09302615  1
  Zr  Zr82  1  0.00509919  0.59750675  0.60275173  1
  Zr  Zr83  1  0.10221864  0.30917855  0.69754835  1
  Zr  Zr84  1  0.20072029  0.00529772  0.40545844  1
  Zr  Zr85  1  0.30050513  0.70285786  0.70865033  1
  Zr  Zr86  1  0.80449954  -0.00557856  0.00086180  1
  Zr  Zr87  1  0.70761103  0.29875424  0.71165551  1
  Zr  Zr88  1  0.30275557  0.49963936  0.10101473  1
  Zr  Zr89  1  0.29438473  0.69544839  0.49660071  1
  Zr  Zr90  1  0.39618433  0.79474237  0.20108911  1
  Zr  Zr91  1  0.08421109  0.49812171  0.90074680  1
  Zr  Zr92  1  0.38811913  0.00236754  0.39585109  1
  Zr  Zr93  1  0.49766678  0.89970507  0.09314245  1
  Zr  Zr94  1  0.40139990  0.80203971  0.59416844  1
  Zr  Zr95  1  -0.00474646  0.80736482  0.00136892  1
  Zr  Zr96  1  0.79679079  0.39820993  0.39996612  1
  Zr  Zr97  1  0.41002092  0.60553014  0.59945916  1
  Zr  Zr98  1  0.29687298  0.30566006  0.69475384  1
  Zr  Zr99  1  0.00724875  0.57699644  0.38107383  1
  Ta  Ta100  1  0.10098320  0.90001535  0.70277207  1
  Ta  Ta101  1  0.69399410  0.08863672  0.30843598  1
  Ta  Ta102  1  0.49926138  0.90124256  0.70912305  1
  Ta  Ta103  1  0.80393750  0.19203530  0.00125402  1
  Ta  Ta104  1  0.49655441  0.49714521  0.49588869  1
  Ta  Ta105  1  0.80264135  0.79900678  0.80455670  1
  Ta  Ta106  1  0.30459702  0.90194989  0.90344609  1
  Ta  Ta107  1  0.09639010  0.69431601  0.10577761  1
  Ta  Ta108  1  0.90805866  0.90402585  0.70348689  1
  Ta  Ta109  1  -0.00193801  0.79663220  0.20340767  1
  Ta  Ta110  1  0.60493419  0.60672760  0.80759360  1
  Ta  Ta111  1  0.00065860  0.19710558  0.00396447  1
  Ta  Ta112  1  0.89902787  0.30342583  0.70131856  1
  Ta  Ta113  1  0.10106826  0.30336617  0.30143202  1
  Ta  Ta114  1  0.49209541  0.30555601  0.50133926  1
  Ta  Ta115  1  0.71088632  0.10187658  0.70202344  1
  Ta  Ta116  1  0.20340323  0.20607332  0.20364300  1
  Ta  Ta117  1  0.10382063  0.09670224  0.90444783  1
  Ta  Ta118  1  0.40594941  0.40524199  0.60577794  1
  Ta  Ta119  1  0.10140792  0.70078088  0.29456785  1
  Ta  Ta120  1  -0.00097871  0.40984101  0.59963035  1
  Ta  Ta121  1  0.70156174  0.70141985  0.70638945  1
  Ta  Ta122  1  0.38350323  0.19435176  0.00410051  1
  Ta  Ta123  1  0.90695116  0.09897944  0.10519446  1
  Ta  Ta124  1  0.49842357  0.09638684  0.29618508  1
  Ta  Ta125  1  0.29315625  0.30258654  0.90944580  1
  Ta  Ta126  1  0.20221788  0.60191884  0.20365269  1
  Ta  Ta127  1  0.60467508  0.19028726  0.80640973  1
  Ta  Ta128  1  0.50166104  0.50953708  0.10299750  1
  Ta  Ta129  1  0.70349680  0.89582397  0.89377373  1
  Ta  Ta130  1  0.90386347  0.69677975  0.10664923  1
  Ta  Ta131  1  0.20300605  0.79613906  0.39487721  1
  Ta  Ta132  1  0.10375392  0.50075453  0.10516468  1
  Ta  Ta133  1  -0.00237100  -0.00435056  0.59504828  1
  Ta  Ta134  1  0.90169674  0.69632606  0.49117209  1
  Ta  Ta135  1  0.39902566  0.40052796  0.39562202  1
  Ta  Ta136  1  0.19959604  0.18267652  0.59980113  1
  Ta  Ta137  1  0.38863311  0.19835121  0.19949726  1
  Ta  Ta138  1  0.59894502  0.79711991  0.21032697  1
  Ta  Ta139  1  0.91263447  0.90717020  0.30251981  1
  Ta  Ta140  1  0.39887649  0.40464268  0.80269047  1
  Ta  Ta141  1  0.50104856  0.50503679  0.70926358  1
  Ta  Ta142  1  0.50002176  0.90749671  0.29545349  1
  Ta  Ta143  1  0.39680653  0.60314820  0.39151407  1
  Ta  Ta144  1  0.69575217  0.50266717  0.49850356  1
  Ta  Ta145  1  0.90557399  0.69426334  0.30149754  1
  Ta  Ta146  1  0.69923324  0.50354941  0.70296138  1
  Ta  Ta147  1  0.08837313  0.10385089  0.30360678  1
  Ta  Ta148  1  0.80822208  0.59787113  0.20737374  1
  Ta  Ta149  1  0.39367043  0.00894314  0.19581342  1
  Ti  Ti150  1  0.30091297  0.09195334  0.90776461  1
  Ti  Ti151  1  0.59377906  0.39380881  0.40326023  1
  Ti  Ti152  1  0.39652562  0.79434722  0.39701648  1
  Ti  Ti153  1  0.90063961  0.50388792  0.11094557  1
  Ti  Ti154  1  0.90875477  0.09753494  0.29970579  1
  Ti  Ti155  1  0.50397795  0.70261421  0.71771012  1
  Ti  Ti156  1  0.80053762  0.59424504  0.60387256  1
  Ti  Ti157  1  -0.00343382  0.79920499  0.39881534  1
  Ti  Ti158  1  0.60130449  0.00252208  0.60638702  1
  Ti  Ti159  1  0.80512047  0.80047573  -0.00527449  1
  Ti  Ti160  1  0.00924122  0.19498340  0.19542573  1
  Ti  Ti161  1  0.20264711  -0.00098734  0.59436749  1
  Ti  Ti162  1  0.49649484  0.29891669  0.70450871  1
  Ti  Ti163  1  0.30186970  0.69761309  0.09813564  1
  Ti  Ti164  1  0.70827575  0.29516863  0.89847799  1
  Ti  Ti165  1  0.21344983  0.00740305  0.80027005  1
  Ti  Ti166  1  0.71266603  0.09793850  0.89548971  1
  Ti  Ti167  1  0.40477019  0.80370197  0.80301798  1
  Ti  Ti168  1  0.20084168  0.59721951  0.39075751  1
  Ti  Ti169  1  0.39554884  0.60564254  0.20686112  1
  Ti  Ti170  1  0.28885177  0.30411549  0.09649661  1
  Ti  Ti171  1  0.61276680  0.00561707  -0.00496377  1
  Ti  Ti172  1  -0.00727218  0.40696350  0.00637662  1
  Ti  Ti173  1  0.38775340  -0.00346973  0.60240102  1
  Ti  Ti174  1  0.70255698  0.69142396  0.29790151  1
  Ti  Ti175  1  0.30441864  0.10128086  0.50833621  1
  Ti  Ti176  1  0.18957032  0.59455255  0.60802535  1
  Ti  Ti177  1  0.80807803  -0.00597532  0.79794641  1
  Ti  Ti178  1  0.60403591  0.59805310  -0.01090362  1
  Ti  Ti179  1  0.79035440  0.20302362  0.39764815  1
  Ti  Ti180  1  0.08880287  0.49890866  0.70694784  1
  Ti  Ti181  1  0.61509751  0.18594833  -0.00599895  1
  Ti  Ti182  1  0.30967993  0.50541247  0.70122939  1
  Ti  Ti183  1  0.90578707  0.90059845  0.11084170  1
  Ti  Ti184  1  0.48878398  0.51687716  0.89993693  1
  Ti  Ti185  1  0.80464697  -0.00667858  0.39386447  1
  Ti  Ti186  1  0.19729610  0.40573283  0.39097038  1
  Ti  Ti187  1  0.58733441  0.39214534  0.19991200  1
  Ti  Ti188  1  0.29688654  0.49793047  0.29645653  1
  Ti  Ti189  1  0.39598775  0.20287153  0.60366972  1
  Ti  Ti190  1  0.60348428  -0.00218665  0.20164154  1
  Ti  Ti191  1  0.48990645  0.09295045  0.90509442  1
  Ti  Ti192  1  -0.00473217  0.59327347  0.00866016  1
  Ti  Ti193  1  0.80648807  0.19441690  0.79711260  1
  Ti  Ti194  1  0.20316245  0.00761199  0.00802484  1
  Ti  Ti195  1  0.30489778  0.90239932  0.09367811  1
  Ti  Ti196  1  -0.00161761  0.80164045  0.59759506  1
  Ti  Ti197  1  0.19625575  0.19262622  0.00887007  1
  Ti  Ti198  1  0.70289967  0.49697145  0.89139684  1
  Ti  Ti199  1  0.49460896  0.69908998  0.89842379  1
  Mo  Mo200  1  0.49087956  0.70410138  0.29595168  1
  Mo  Mo201  1  0.70613628  0.70022207  0.89564225  1
  Mo  Mo202  1  0.29484448  0.10770948  0.09667205  1
  Mo  Mo203  1  0.80082778  0.40441763  0.80081510  1
  Mo  Mo204  1  0.09856543  0.11016432  0.09918255  1
  Mo  Mo205  1  0.39499076  0.80002157  -0.00096154  1
  Mo  Mo206  1  0.19569570  0.42384757  0.60724117  1
  Mo  Mo207  1  0.19915206  0.80382532  0.80429427  1
  Mo  Mo208  1  0.90709048  0.89702636  0.49702526  1
  Mo  Mo209  1  0.59262538  0.00435644  0.39227380  1
  Mo  Mo210  1  -0.01058761  0.40555113  0.78986208  1
  Mo  Mo211  1  0.69309524  0.90753274  0.29639139  1
  Mo  Mo212  1  0.40773411  0.59942683  0.80071248  1
  Mo  Mo213  1  0.29284333  0.30496097  0.29870320  1
  Mo  Mo214  1  0.90537828  0.49746276  0.89790814  1
  Mo  Mo215  1  -0.00206748  -0.00418480  0.80030699  1
  Mo  Mo216  1  0.40503725  0.60066137  0.00036835  1
  Mo  Mo217  1  0.80972512  0.40717409  0.19745439  1
  Mo  Mo218  1  0.00995959  0.39747894  0.40225199  1
  Mo  Mo219  1  -0.00026937  0.59911010  0.79546201  1
  Mo  Mo220  1  0.00012400  0.00113478  0.39906324  1
  Mo  Mo221  1  0.49601740  0.30039382  0.30143878  1
  Mo  Mo222  1  0.80459359  0.19797585  0.60869263  1
  Mo  Mo223  1  0.10684002  0.49671380  0.49841067  1
  Mo  Mo224  1  0.89631384  0.89910991  0.89276353  1
  Mo  Mo225  1  0.49132031  0.69779700  0.49129363  1
  Mo  Mo226  1  0.00230424  0.60247564  0.19688812  1
  Mo  Mo227  1  0.70274976  0.09430865  0.09393127  1
  Mo  Mo228  1  0.89743529  0.49493216  0.70137151  1
  Mo  Mo229  1  0.88820642  0.49836926  0.29851091  1
  Mo  Mo230  1  0.12034185  0.49998002  0.29675852  1
  Mo  Mo231  1  0.10059402  0.09451524  0.50145305  1
  Mo  Mo232  1  0.09809159  0.70240293  0.69974956  1
  Mo  Mo233  1  -0.00260008  0.00371010  0.20111854  1
  Mo  Mo234  1  0.29534831  0.69438103  0.30069644  1
  Mo  Mo235  1  0.19856388  0.39983104  0.00267938  1
  Mo  Mo236  1  0.30910434  0.50119612  0.89580759  1
  Mo  Mo237  1  0.59916062  0.79728885  0.79797809  1
  Mo  Mo238  1  0.00736429  0.19940644  0.39393003  1
  Mo  Mo239  1  0.20150893  0.40110921  0.20309633  1
  Mo  Mo240  1  0.59692716  0.60869589  0.20289311  1
  Mo  Mo241  1  0.39866089  0.00006567  0.80699324  1
  Mo  Mo242  1  0.69401147  0.30434868  0.49824090  1
  Mo  Mo243  1  0.30061954  0.10692674  0.29175377  1
  Mo  Mo244  1  0.89617246  0.09734006  0.70139843  1
  Mo  Mo245  1  0.38596118  0.00097460  0.00202978  1
  Mo  Mo246  1  0.29820866  0.09594656  0.69105916  1
  Mo  Mo247  1  0.19668783  0.78597240  0.19628057  1
  Mo  Mo248  1  0.80131291  0.60263361  0.39635935  1
  Mo  Mo249  1  0.29534120  0.89759874  0.49779393  1
