# generated using pymatgen
data_HfZrTaTiMo
_symmetry_space_group_name_H-M   'P 1'
_cell_length_a   16.88494435
_cell_length_b   16.88334253
_cell_length_c   16.89669285
_cell_angle_alpha   89.96397549
_cell_angle_beta   90.00185325
_cell_angle_gamma   90.00813489
_symmetry_Int_Tables_number   1
_chemical_formula_structural   HfZrTaTiMo
_chemical_formula_sum   'Hf50 Zr50 Ta50 Ti50 Mo50'
_cell_volume   4816.81186892
_cell_formula_units_Z   50
loop_
 _symmetry_equiv_pos_site_id
 _symmetry_equiv_pos_as_xyz
  1  'x, y, z'
loop_
 _atom_site_type_symbol
 _atom_site_label
 _atom_site_symmetry_multiplicity
 _atom_site_fract_x
 _atom_site_fract_y
 _atom_site_fract_z
 _atom_site_occupancy
  Hf  Hf0  1  0.89626644  0.51308312  0.50239872  1
  Hf  Hf1  1  0.69601736  0.08932397  0.49626068  1
  Hf  Hf2  1  0.90093315  0.69738354  0.50512977  1
  Hf  Hf3  1  0.61067994  0.80114064  0.40463781  1
  Hf  Hf4  1  0.10126595  0.29112079  0.49545104  1
  Hf  Hf5  1  0.19493118  0.39147843  -0.00187439  1
  Hf  Hf6  1  0.79041469  0.41717053  0.00073653  1
  Hf  Hf7  1  0.18956665  -0.00278048  0.39482091  1
  Hf  Hf8  1  0.59531863  0.19498506  0.79588239  1
  Hf  Hf9  1  0.90320699  0.50878837  0.69695857  1
  Hf  Hf10  1  0.29475614  0.50467823  0.71274650  1
  Hf  Hf11  1  0.90102371  0.29825295  0.49945598  1
  Hf  Hf12  1  0.50667684  0.90573863  0.90605000  1
  Hf  Hf13  1  -0.00049912  0.19212688  0.39343220  1
  Hf  Hf14  1  0.59938770  0.59441894  0.81110416  1
  Hf  Hf15  1  0.30274693  0.89773759  0.10910832  1
  Hf  Hf16  1  0.10128504  0.70794999  0.28927051  1
  Hf  Hf17  1  0.40997207  0.01317509  0.38831274  1
  Hf  Hf18  1  0.40425877  0.00431217  0.79616986  1
  Hf  Hf19  1  0.79793511  0.19442083  0.60950812  1
  Hf  Hf20  1  0.41413307  0.19858713  0.21673336  1
  Hf  Hf21  1  0.30808153  0.29774850  0.90351673  1
  Hf  Hf22  1  0.69535547  0.30158523  0.29638049  1
  Hf  Hf23  1  -0.00653379  -0.01306930  0.19794698  1
  Hf  Hf24  1  0.20704225  0.60544597  0.00339821  1
  Hf  Hf25  1  0.00075661  0.40436355  0.39427682  1
  Hf  Hf26  1  0.89173721  0.09217921  0.29469489  1
  Hf  Hf27  1  0.60830180  0.60849577  0.60205857  1
  Hf  Hf28  1  0.69828353  0.89904698  0.90511108  1
  Hf  Hf29  1  0.29337821  0.11199718  0.49222754  1
  Hf  Hf30  1  0.79756394  0.40058548  0.59797138  1
  Hf  Hf31  1  0.19446419  0.40515689  0.39558058  1
  Hf  Hf32  1  -0.00145489  0.20168216  0.79982976  1
  Hf  Hf33  1  0.29755865  0.10247806  0.70029273  1
  Hf  Hf34  1  0.19353056  0.60687197  0.60608895  1
  Hf  Hf35  1  0.00226496  0.59959998  0.39157931  1
  Hf  Hf36  1  0.79758050  0.40769830  0.39091407  1
  Hf  Hf37  1  0.30786729  0.49207284  0.08978335  1
  Hf  Hf38  1  0.68783221  0.30466382  0.50057515  1
  Hf  Hf39  1  0.70271708  0.90097656  0.71179724  1
  Hf  Hf40  1  0.71292323  0.70022052  0.90592362  1
  Hf  Hf41  1  0.50482333  0.90859928  0.50188844  1
  Hf  Hf42  1  0.08976846  0.29529737  0.10122083  1
  Hf  Hf43  1  0.50425555  0.70740251  0.29270961  1
  Hf  Hf44  1  0.69241395  0.08505813  0.30156554  1
  Hf  Hf45  1  0.59431521  0.59794726  0.00144790  1
  Hf  Hf46  1  0.40637322  0.20242451  0.60514628  1
  Hf  Hf47  1  0.60025303  0.41278968  -0.00206164  1
  Hf  Hf48  1  0.60118206  0.59310372  0.19152123  1
  Hf  Hf49  1  -0.01503611  -0.00274005  0.79511363  1
  Zr  Zr50  1  0.20204346  0.00164167  0.00314662  1
  Zr  Zr51  1  0.30163771  0.50264973  0.49984822  1
  Zr  Zr52  1  0.19821381  0.20485363  0.19677735  1
  Zr  Zr53  1  0.40465671  0.60042396  0.19229236  1
  Zr  Zr54  1  0.49498737  0.29562809  0.08299497  1
  Zr  Zr55  1  0.39666027  0.80193683  0.80103386  1
  Zr  Zr56  1  0.40713775  0.39865267  0.20292912  1
  Zr  Zr57  1  0.00797221  0.39686521  0.61029151  1
  Zr  Zr58  1  0.19760453  0.21033028  0.61174545  1
  Zr  Zr59  1  0.89433156  0.29954542  0.09850005  1
  Zr  Zr60  1  0.90071909  0.89564217  0.50806112  1
  Zr  Zr61  1  0.10458807  0.50646271  0.89555329  1
  Zr  Zr62  1  0.30595365  0.91189288  0.49862543  1
  Zr  Zr63  1  0.49098692  0.69707927  0.69984607  1
  Zr  Zr64  1  -0.01414715  -0.00935503  -0.00311074  1
  Zr  Zr65  1  0.90382312  0.70585478  0.29495029  1
  Zr  Zr66  1  0.60683388  0.79796631  0.60351043  1
  Zr  Zr67  1  0.89713951  0.08607516  0.50310689  1
  Zr  Zr68  1  0.49572673  0.69899551  0.49385881  1
  Zr  Zr69  1  0.79620134  0.20037279  0.39882613  1
  Zr  Zr70  1  0.89458990  0.30370953  0.90451312  1
  Zr  Zr71  1  -0.00093920  0.19386813  -0.00574544  1
  Zr  Zr72  1  0.29119847  0.10039297  0.29904737  1
  Zr  Zr73  1  0.60289315  0.40485226  0.19072970  1
  Zr  Zr74  1  0.39478302  0.38684969  0.60428830  1
  Zr  Zr75  1  0.29781947  0.89676322  0.90256354  1
  Zr  Zr76  1  0.79016551  0.19572461  0.19125238  1
  Zr  Zr77  1  0.20445817  0.80286650  0.60354234  1
  Zr  Zr78  1  0.71243913  0.90991384  0.50784536  1
  Zr  Zr79  1  0.29749100  0.29338434  0.31390347  1
  Zr  Zr80  1  0.19762959  0.39849808  0.60822833  1
  Zr  Zr81  1  -0.00141038  0.79809949  0.61741670  1
  Zr  Zr82  1  0.20305331  0.80395771  0.40070348  1
  Zr  Zr83  1  0.59462604  0.19914316  0.60792277  1
  Zr  Zr84  1  0.59979243  0.78838708  0.80355497  1
  Zr  Zr85  1  0.50673051  0.49956959  0.50143168  1
  Zr  Zr86  1  0.09992110  0.88945914  0.89364940  1
  Zr  Zr87  1  0.70042939  0.50036131  0.69459708  1
  Zr  Zr88  1  0.49983907  0.09969696  0.09226797  1
  Zr  Zr89  1  -0.00010495  -0.01397824  0.39322213  1
  Zr  Zr90  1  0.70450450  0.70746351  0.10068961  1
  Zr  Zr91  1  0.10322830  0.09286847  0.89657803  1
  Zr  Zr92  1  0.20486688  0.60391223  0.39548355  1
  Zr  Zr93  1  0.10466016  0.88913044  0.10634481  1
  Zr  Zr94  1  0.10559578  0.70472078  0.89605789  1
  Zr  Zr95  1  0.69699052  0.29261691  0.90373971  1
  Zr  Zr96  1  0.70431441  0.69590768  0.30086917  1
  Zr  Zr97  1  0.50859055  0.90043483  0.29479785  1
  Zr  Zr98  1  0.00054115  0.40849038  0.19535578  1
  Zr  Zr99  1  0.49682152  0.49580737  0.69787767  1
  Ta  Ta100  1  0.09775804  0.09274318  0.69793043  1
  Ta  Ta101  1  0.00356068  0.40090405  0.80050946  1
  Ta  Ta102  1  0.09014708  0.70444612  0.49736901  1
  Ta  Ta103  1  0.80072170  0.59295157  0.19267789  1
  Ta  Ta104  1  0.20050720  0.40151200  0.19835581  1
  Ta  Ta105  1  0.50319500  0.30283367  0.49346519  1
  Ta  Ta106  1  0.40631676  0.39963306  0.39534252  1
  Ta  Ta107  1  0.90166801  0.30079937  0.28876025  1
  Ta  Ta108  1  0.81099791  0.80843690  0.00067673  1
  Ta  Ta109  1  0.50295339  0.90605748  0.70073720  1
  Ta  Ta110  1  0.48257673  0.49198502  0.90388935  1
  Ta  Ta111  1  0.39518403  0.80817020  0.60517603  1
  Ta  Ta112  1  0.71713779  0.69339367  0.49787605  1
  Ta  Ta113  1  0.79986111  0.19080894  0.80032265  1
  Ta  Ta114  1  0.69836308  0.30495027  0.70452063  1
  Ta  Ta115  1  0.40458850  0.78921839  0.00373818  1
  Ta  Ta116  1  0.20008288  0.19902085  -0.00068925  1
  Ta  Ta117  1  0.89559630  0.50489992  0.29238348  1
  Ta  Ta118  1  0.30207274  0.10227377  0.10006161  1
  Ta  Ta119  1  -0.00813713  0.79832082  0.00170122  1
  Ta  Ta120  1  0.79707578  0.40712459  0.80371574  1
  Ta  Ta121  1  0.80635454  0.80513030  0.39552048  1
  Ta  Ta122  1  0.89785966  0.09615902  0.10083916  1
  Ta  Ta123  1  -0.00502373  0.19338759  0.61012633  1
  Ta  Ta124  1  0.19107734  0.38988498  0.79617907  1
  Ta  Ta125  1  0.80295502  0.60647120  0.79837991  1
  Ta  Ta126  1  0.10035232  0.90017237  0.70620828  1
  Ta  Ta127  1  0.90007548  0.51036446  0.89865092  1
  Ta  Ta128  1  0.49758417  0.29574047  0.90084294  1
  Ta  Ta129  1  0.39667444  0.60224945  0.81110844  1
  Ta  Ta130  1  0.60003054  0.19618992  0.19514263  1
  Ta  Ta131  1  0.89997817  0.70179302  0.09941232  1
  Ta  Ta132  1  0.59743810  0.39905592  0.80297580  1
  Ta  Ta133  1  0.49985538  0.10344492  0.90431734  1
  Ta  Ta134  1  0.09670318  0.09366350  0.50899111  1
  Ta  Ta135  1  0.09889987  0.09594033  0.10803151  1
  Ta  Ta136  1  -0.00162495  0.60562477  0.00033049  1
  Ta  Ta137  1  0.39839499  0.60174040  0.39190771  1
  Ta  Ta138  1  0.89336888  0.30184066  0.70705946  1
  Ta  Ta139  1  0.00049038  0.60397522  0.79617484  1
  Ta  Ta140  1  0.50696570  0.50611663  0.30778089  1
  Ta  Ta141  1  0.70113429  0.51296779  0.49028747  1
  Ta  Ta142  1  0.30572778  0.10508499  0.90177131  1
  Ta  Ta143  1  0.80458475  0.00164080  0.81188833  1
  Ta  Ta144  1  0.40223991  0.00203089  0.19866376  1
  Ta  Ta145  1  0.70178151  0.90031841  0.29574266  1
  Ta  Ta146  1  0.19546969  0.20490532  0.80310615  1
  Ta  Ta147  1  0.20667310  -0.00222501  0.79276619  1
  Ta  Ta148  1  0.09287450  0.51149022  0.50795416  1
  Ta  Ta149  1  -0.00002668  0.60023655  0.18980599  1
  Ti  Ti150  1  0.09953068  0.88625634  0.29027107  1
  Ti  Ti151  1  0.30378054  0.70856315  0.11025761  1
  Ti  Ti152  1  0.79740031  -0.00899549  0.18931498  1
  Ti  Ti153  1  0.58960623  0.78970325  0.00477926  1
  Ti  Ti154  1  0.90011308  0.50811806  0.09242013  1
  Ti  Ti155  1  0.39169966  0.60603121  0.60087536  1
  Ti  Ti156  1  0.30628572  0.29472882  0.09672311  1
  Ti  Ti157  1  0.09866290  0.70388093  0.10447080  1
  Ti  Ti158  1  0.50445375  0.10125500  0.49558662  1
  Ti  Ti159  1  0.09207833  0.89857541  0.50804455  1
  Ti  Ti160  1  0.40533186  0.20253496  0.79314766  1
  Ti  Ti161  1  0.40384015  0.00564151  0.60446706  1
  Ti  Ti162  1  0.10365596  0.50557107  0.28885430  1
  Ti  Ti163  1  0.79167569  0.40964248  0.19321383  1
  Ti  Ti164  1  0.58523634  0.19542550  0.38637671  1
  Ti  Ti165  1  0.82036704  -0.00071788  0.62974982  1
  Ti  Ti166  1  0.39808463  0.80350038  0.39750826  1
  Ti  Ti167  1  0.30411126  0.71115068  0.28999411  1
  Ti  Ti168  1  0.20411074  0.59985070  0.19462958  1
  Ti  Ti169  1  0.59244325  0.00869718  0.61271208  1
  Ti  Ti170  1  0.49952357  0.89140426  0.10406253  1
  Ti  Ti171  1  0.69450582  0.29091767  0.09037912  1
  Ti  Ti172  1  0.30049713  0.49716426  0.89824314  1
  Ti  Ti173  1  0.80178694  0.78803759  0.62051772  1
  Ti  Ti174  1  0.40373057  0.60805097  -0.00154237  1
  Ti  Ti175  1  0.69479053  0.89521340  0.09997443  1
  Ti  Ti176  1  0.69264790  0.09381391  0.90267985  1
  Ti  Ti177  1  0.10122237  0.70141901  0.71284014  1
  Ti  Ti178  1  0.60187156  0.40828779  0.39373088  1
  Ti  Ti179  1  0.59932784  -0.00069381  0.19053906  1
  Ti  Ti180  1  0.29927519  0.89807985  0.28910636  1
  Ti  Ti181  1  0.80663943  0.80995338  0.19661566  1
  Ti  Ti182  1  0.39976459  -0.00165933  0.00278608  1
  Ti  Ti183  1  0.40069907  0.39260760  0.79645222  1
  Ti  Ti184  1  0.69905322  0.09051851  0.70934007  1
  Ti  Ti185  1  0.20630137  0.79300256  0.00568817  1
  Ti  Ti186  1  0.29532462  0.70118743  0.89389087  1
  Ti  Ti187  1  0.30259586  0.50005947  0.29551862  1
  Ti  Ti188  1  0.80041222  -0.00235173  0.00385593  1
  Ti  Ti189  1  0.30396104  0.70350420  0.49803259  1
  Ti  Ti190  1  0.60574611  0.00412519  0.00683914  1
  Ti  Ti191  1  0.09830364  0.09949108  0.28914114  1
  Ti  Ti192  1  0.00147430  0.40696372  -0.00690694  1
  Ti  Ti193  1  0.10271910  0.50390393  0.09758871  1
  Ti  Ti194  1  0.90333121  0.70528482  0.89556855  1
  Ti  Ti195  1  0.09423948  0.29425042  0.29431222  1
  Ti  Ti196  1  0.79299597  0.18126965  -0.00094403  1
  Ti  Ti197  1  0.30035757  0.29359061  0.48798431  1
  Ti  Ti198  1  0.29383048  0.70194052  0.71017626  1
  Ti  Ti199  1  0.19846360  -0.00348006  0.60260247  1
  Mo  Mo200  1  0.80838919  0.80146781  0.80549671  1
  Mo  Mo201  1  0.79871948  -0.01334458  0.38692370  1
  Mo  Mo202  1  0.89193279  0.89574820  0.29578191  1
  Mo  Mo203  1  0.50389779  0.30293902  0.70648367  1
  Mo  Mo204  1  0.39546616  0.19468744  -0.00500274  1
  Mo  Mo205  1  0.89700798  0.89379786  0.71073197  1
  Mo  Mo206  1  0.39648667  0.39693581  -0.00592337  1
  Mo  Mo207  1  0.60232395  0.39784371  0.59782738  1
  Mo  Mo208  1  0.49264006  0.50280840  0.09183137  1
  Mo  Mo209  1  0.30269291  0.29862925  0.71712849  1
  Mo  Mo210  1  0.60381001  0.19263866  -0.00407480  1
  Mo  Mo211  1  0.17973868  0.19441726  0.40012699  1
  Mo  Mo212  1  0.49738726  0.09523981  0.70284009  1
  Mo  Mo213  1  0.20617873  0.79413772  0.20088767  1
  Mo  Mo214  1  0.70270437  0.50051682  0.29760282  1
  Mo  Mo215  1  0.80022774  0.60651540  0.60511238  1
  Mo  Mo216  1  0.40284619  0.80417418  0.19678336  1
  Mo  Mo217  1  0.50905677  0.09646715  0.29361495  1
  Mo  Mo218  1  0.80142447  0.60256965  0.39124855  1
  Mo  Mo219  1  -0.00224440  0.79642510  0.19314781  1
  Mo  Mo220  1  0.41652595  0.20345335  0.40673935  1
  Mo  Mo221  1  0.70780134  0.50985149  0.09609238  1
  Mo  Mo222  1  0.09852403  0.50672536  0.70412146  1
  Mo  Mo223  1  0.50970442  0.30651845  0.30848487  1
  Mo  Mo224  1  0.89269526  0.89681408  0.10044326  1
  Mo  Mo225  1  0.89916647  0.10285694  0.70635816  1
  Mo  Mo226  1  0.20466962  0.60214886  0.80165142  1
  Mo  Mo227  1  0.20236027  0.80198945  0.79130482  1
  Mo  Mo228  1  0.60164627  0.00482177  0.80420035  1
  Mo  Mo229  1  0.09141084  0.29473962  0.70665408  1
  Mo  Mo230  1  0.60442535  0.80702925  0.19128124  1
  Mo  Mo231  1  0.60201656  -0.00139870  0.40401819  1
  Mo  Mo232  1  0.00257950  0.80112282  0.39976557  1
  Mo  Mo233  1  0.49269657  0.69452565  0.90520649  1
  Mo  Mo234  1  0.19925479  -0.00103326  0.20290353  1
  Mo  Mo235  1  0.71106286  0.69923403  0.70434592  1
  Mo  Mo236  1  0.81205035  0.60675018  -0.00302732  1
  Mo  Mo237  1  0.49819083  0.70609256  0.09880100  1
  Mo  Mo238  1  0.10109062  0.30277437  0.90159387  1
  Mo  Mo239  1  0.30059500  0.90738363  0.69446450  1
  Mo  Mo240  1  0.90074961  0.70032757  0.70974255  1
  Mo  Mo241  1  0.89328038  0.89551802  0.90142970  1
  Mo  Mo242  1  -0.00354590  0.18979910  0.20054877  1
  Mo  Mo243  1  0.88603942  0.09873539  0.90499771  1
  Mo  Mo244  1  0.00623168  -0.00198108  0.60762504  1
  Mo  Mo245  1  0.70619557  0.50635718  0.89518709  1
  Mo  Mo246  1  0.69891859  0.08943440  0.09745565  1
  Mo  Mo247  1  0.00777494  0.60612424  0.60815559  1
  Mo  Mo248  1  -0.00366111  0.79774619  0.80274157  1
  Mo  Mo249  1  0.60344132  0.60061483  0.39887970  1
