# generated using pymatgen
data_HfZrTaTiMo
_symmetry_space_group_name_H-M   'P 1'
_cell_length_a   16.87872684
_cell_length_b   16.88820815
_cell_length_c   16.87639633
_cell_angle_alpha   89.97509059
_cell_angle_beta   89.97220629
_cell_angle_gamma   90.02740941
_symmetry_Int_Tables_number   1
_chemical_formula_structural   HfZrTaTiMo
_chemical_formula_sum   'Hf50 Zr50 Ta50 Ti50 Mo50'
_cell_volume   4810.63970763
_cell_formula_units_Z   50
loop_
 _symmetry_equiv_pos_site_id
 _symmetry_equiv_pos_as_xyz
  1  'x, y, z'
loop_
 _atom_site_type_symbol
 _atom_site_label
 _atom_site_symmetry_multiplicity
 _atom_site_fract_x
 _atom_site_fract_y
 _atom_site_fract_z
 _atom_site_occupancy
  Hf  Hf0  1  0.60448592  0.59874413  0.79552055  1
  Hf  Hf1  1  0.68378343  0.11172386  0.92852447  1
  Hf  Hf2  1  -0.00726519  -0.00854256  0.60329456  1
  Hf  Hf3  1  0.09852909  0.50400359  0.10138879  1
  Hf  Hf4  1  0.50953875  0.49514994  0.49893082  1
  Hf  Hf5  1  0.71095008  0.09551638  0.48803670  1
  Hf  Hf6  1  0.39481121  0.20848190  0.61429626  1
  Hf  Hf7  1  0.79603989  0.20810479  0.79033737  1
  Hf  Hf8  1  0.40204947  0.80003729  0.60602267  1
  Hf  Hf9  1  0.49208040  0.69999713  0.29384058  1
  Hf  Hf10  1  0.39518623  0.80090981  0.80126574  1
  Hf  Hf11  1  0.90309905  0.89722132  0.90087520  1
  Hf  Hf12  1  0.38915518  0.40997013  0.40109709  1
  Hf  Hf13  1  0.80648540  0.79591588  0.79676589  1
  Hf  Hf14  1  0.77201846  -0.02082935  0.00347428  1
  Hf  Hf15  1  0.69842481  0.29347288  0.09617049  1
  Hf  Hf16  1  0.90881935  0.89569087  0.10423787  1
  Hf  Hf17  1  0.49492762  0.09184186  0.71016833  1
  Hf  Hf18  1  0.01353017  0.01368338  -0.00679388  1
  Hf  Hf19  1  0.30712730  0.70115886  0.10719359  1
  Hf  Hf20  1  0.10614853  0.90640163  0.88649796  1
  Hf  Hf21  1  0.10002468  0.90341960  0.29803716  1
  Hf  Hf22  1  0.20499505  0.20083441  0.79620591  1
  Hf  Hf23  1  0.69595137  0.30394243  0.90157348  1
  Hf  Hf24  1  0.40062137  0.39842131  0.00685841  1
  Hf  Hf25  1  0.09799362  0.30245031  0.89803850  1
  Hf  Hf26  1  0.19056526  0.60319013  0.59267107  1
  Hf  Hf27  1  0.00013937  0.19594882  0.39923305  1
  Hf  Hf28  1  0.70584832  0.69676167  0.69278174  1
  Hf  Hf29  1  -0.00594514  0.18944691  0.60667728  1
  Hf  Hf30  1  -0.00211113  0.20000571  0.00148157  1
  Hf  Hf31  1  0.19679301  0.40534760  0.40270554  1
  Hf  Hf32  1  0.79333721  -0.00879544  0.19950249  1
  Hf  Hf33  1  0.10270138  0.90228806  0.50107524  1
  Hf  Hf34  1  0.40314724  0.59928306  0.59884637  1
  Hf  Hf35  1  0.39490416  0.40445806  0.20159680  1
  Hf  Hf36  1  0.61066632  0.80905138  0.00512057  1
  Hf  Hf37  1  0.30782914  0.91131137  0.10070199  1
  Hf  Hf38  1  0.52282755  0.09178635  0.09139082  1
  Hf  Hf39  1  0.80271179  0.60476900  0.20999580  1
  Hf  Hf40  1  0.60304988  0.80312101  0.20198204  1
  Hf  Hf41  1  0.59562415  -0.00694888  0.38897991  1
  Hf  Hf42  1  0.40640482  0.19163629  0.19542924  1
  Hf  Hf43  1  0.90887079  0.69651374  0.49816225  1
  Hf  Hf44  1  0.29991461  0.70163368  0.49728891  1
  Hf  Hf45  1  0.80057717  0.40943720  -0.00593815  1
  Hf  Hf46  1  0.19656474  0.80345698  0.60844005  1
  Hf  Hf47  1  -0.00772738  -0.00241064  0.40511868  1
  Hf  Hf48  1  0.59207473  0.39956455  0.19266745  1
  Hf  Hf49  1  0.59969638  0.60675074  0.19685052  1
  Zr  Zr50  1  0.88634043  0.09231367  0.30523416  1
  Zr  Zr51  1  0.20923455  0.80126636  -0.00816541  1
  Zr  Zr52  1  0.09471482  0.30574010  0.10858776  1
  Zr  Zr53  1  0.30766085  0.09108513  0.89673360  1
  Zr  Zr54  1  0.48845702  0.09837896  0.49968991  1
  Zr  Zr55  1  0.61047005  0.60005204  0.00172888  1
  Zr  Zr56  1  0.60382410  0.20444672  0.60740490  1
  Zr  Zr57  1  0.07703069  0.49463676  0.50998737  1
  Zr  Zr58  1  0.60315562  -0.00812405  0.59295139  1
  Zr  Zr59  1  -0.01685872  0.00061530  0.78795211  1
  Zr  Zr60  1  -0.00049388  0.19313896  0.20122559  1
  Zr  Zr61  1  0.88561952  0.09833647  0.09345399  1
  Zr  Zr62  1  0.11493496  0.07882176  0.70257583  1
  Zr  Zr63  1  0.39811317  0.81266997  0.38946241  1
  Zr  Zr64  1  0.80082301  0.79273296  -0.00238020  1
  Zr  Zr65  1  0.10406552  0.90023314  0.10070623  1
  Zr  Zr66  1  0.50596099  0.70269317  0.49399559  1
  Zr  Zr67  1  0.50135364  0.49721698  0.89498667  1
  Zr  Zr68  1  0.90399455  0.30740204  0.50334519  1
  Zr  Zr69  1  0.69799872  0.49718437  0.30557632  1
  Zr  Zr70  1  0.20052887  0.80262662  0.39945703  1
  Zr  Zr71  1  0.91170065  0.70290892  0.10438189  1
  Zr  Zr72  1  0.59374547  0.20054691  0.80131947  1
  Zr  Zr73  1  0.40279333  0.19400194  0.00315976  1
  Zr  Zr74  1  -0.01557241  0.40461298  0.80500754  1
  Zr  Zr75  1  0.69576451  0.30973001  0.49621626  1
  Zr  Zr76  1  0.00416840  0.60043885  0.21296965  1
  Zr  Zr77  1  0.90061241  0.49391852  0.10896202  1
  Zr  Zr78  1  0.20045208  0.20391134  0.60534772  1
  Zr  Zr79  1  0.59401589  0.19006338  0.39486774  1
  Zr  Zr80  1  0.70109383  0.09133231  0.70078409  1
  Zr  Zr81  1  0.69861832  0.50572721  0.50064520  1
  Zr  Zr82  1  0.29799945  0.09829903  0.50015534  1
  Zr  Zr83  1  -0.00268220  0.19315755  0.79892522  1
  Zr  Zr84  1  0.81114505  -0.01245232  0.60037112  1
  Zr  Zr85  1  0.19651969  0.60765950  0.79943869  1
  Zr  Zr86  1  0.20117681  0.39991242  0.79754651  1
  Zr  Zr87  1  0.69836456  0.30354745  0.29685470  1
  Zr  Zr88  1  0.50700605  0.89742758  0.70207149  1
  Zr  Zr89  1  0.87702186  0.10020807  0.90277174  1
  Zr  Zr90  1  0.30203759  0.69828495  0.29106478  1
  Zr  Zr91  1  0.49611775  0.30452638  0.50084736  1
  Zr  Zr92  1  0.19176107  0.59233936  0.39690733  1
  Zr  Zr93  1  0.20184217  0.40353779  0.00240408  1
  Zr  Zr94  1  0.19596399  0.18952309  0.00158898  1
  Zr  Zr95  1  0.29927804  0.29036862  0.30495417  1
  Zr  Zr96  1  0.50443876  0.70740058  0.90054593  1
  Zr  Zr97  1  0.49944640  0.29627015  0.30479493  1
  Zr  Zr98  1  0.29778522  0.50136637  0.69741815  1
  Zr  Zr99  1  0.40200276  0.60734667  0.00011868  1
  Ta  Ta100  1  0.30024982  0.50547548  0.90139730  1
  Ta  Ta101  1  0.29547673  0.29703921  0.10575242  1
  Ta  Ta102  1  0.50276810  0.49737940  0.69732249  1
  Ta  Ta103  1  0.20539180  0.80603125  0.20213397  1
  Ta  Ta104  1  0.70066630  0.89207983  0.70083795  1
  Ta  Ta105  1  0.19197336  0.19582907  0.39830497  1
  Ta  Ta106  1  0.08864048  0.49906935  0.69824563  1
  Ta  Ta107  1  0.20327220  0.80327386  0.79414298  1
  Ta  Ta108  1  0.09555011  0.70109171  0.89941476  1
  Ta  Ta109  1  0.09605741  0.30211338  0.30278073  1
  Ta  Ta110  1  0.09281077  0.71117341  0.30011709  1
  Ta  Ta111  1  -0.00811812  0.40176019  -0.00109077  1
  Ta  Ta112  1  0.30521472  0.08450015  0.70238325  1
  Ta  Ta113  1  0.09317430  0.31174985  0.69141939  1
  Ta  Ta114  1  0.19847600  0.40639391  0.21020841  1
  Ta  Ta115  1  0.80701870  0.40385687  0.40066860  1
  Ta  Ta116  1  0.69384002  0.09939342  0.28864724  1
  Ta  Ta117  1  0.49981586  0.31379076  0.70738115  1
  Ta  Ta118  1  0.10469627  0.70374224  0.10399267  1
  Ta  Ta119  1  0.30564237  0.30116549  0.90035086  1
  Ta  Ta120  1  0.80259747  0.59841919  -0.00665209  1
  Ta  Ta121  1  0.30078902  0.90907970  0.50054880  1
  Ta  Ta122  1  0.79659894  0.40836823  0.79632972  1
  Ta  Ta123  1  0.39871776  0.00252749  0.38657789  1
  Ta  Ta124  1  0.09577039  0.50718851  0.90180129  1
  Ta  Ta125  1  0.90483579  0.88698659  0.30411521  1
  Ta  Ta126  1  0.79844072  0.20263479  0.19681644  1
  Ta  Ta127  1  0.00240813  0.00271560  0.20558055  1
  Ta  Ta128  1  0.70802280  0.70017905  0.10371471  1
  Ta  Ta129  1  0.80433174  0.79828682  0.59423896  1
  Ta  Ta130  1  0.29730953  0.50881797  0.10708680  1
  Ta  Ta131  1  0.10493510  0.09387484  0.50095574  1
  Ta  Ta132  1  -0.00282852  0.60039645  0.79947486  1
  Ta  Ta133  1  0.09751242  0.29915053  0.50242208  1
  Ta  Ta134  1  0.80235321  0.20761050  0.39317876  1
  Ta  Ta135  1  0.49999500  0.30203597  0.90068222  1
  Ta  Ta136  1  0.49480489  0.50853079  0.10368578  1
  Ta  Ta137  1  0.90182335  0.49502449  0.30429115  1
  Ta  Ta138  1  0.90176957  0.69258778  0.69592988  1
  Ta  Ta139  1  0.59723384  0.40590911  0.00270037  1
  Ta  Ta140  1  0.60463282  -0.00499572  0.81875424  1
  Ta  Ta141  1  0.89990425  0.50714882  0.68815131  1
  Ta  Ta142  1  0.39254154  0.58972306  0.39750570  1
  Ta  Ta143  1  0.19871886  0.19344150  0.20510291  1
  Ta  Ta144  1  0.29736513  0.29772620  0.49865634  1
  Ta  Ta145  1  0.90055548  0.30895953  0.28946165  1
  Ta  Ta146  1  0.40482117  0.60384729  0.79257728  1
  Ta  Ta147  1  0.39696390  0.40071874  0.79938190  1
  Ta  Ta148  1  0.49677586  0.89941048  0.49529919  1
  Ta  Ta149  1  -0.00093957  0.80074326  0.60087803  1
  Ti  Ti150  1  0.59870266  0.60764439  0.60217739  1
  Ti  Ti151  1  0.00076117  0.60031386  0.39814644  1
  Ti  Ti152  1  0.88991625  0.10051663  0.49838882  1
  Ti  Ti153  1  0.60287174  0.79878770  0.79896022  1
  Ti  Ti154  1  0.90958777  0.69665205  0.89646314  1
  Ti  Ti155  1  0.80608568  0.59136583  0.80834277  1
  Ti  Ti156  1  0.70501071  0.50016578  0.10482117  1
  Ti  Ti157  1  0.80481612  0.79467523  0.20836775  1
  Ti  Ti158  1  0.70811023  0.89840140  0.30557106  1
  Ti  Ti159  1  0.39903093  0.20631299  0.80040330  1
  Ti  Ti160  1  0.80611755  0.79736228  0.40462290  1
  Ti  Ti161  1  0.70445718  0.89363475  0.49362523  1
  Ti  Ti162  1  0.50103372  0.90472229  0.10158127  1
  Ti  Ti163  1  0.50018459  0.90653167  0.91028619  1
  Ti  Ti164  1  0.19552659  0.59754506  0.20813986  1
  Ti  Ti165  1  0.19878494  0.60467933  -0.00085227  1
  Ti  Ti166  1  0.89809751  0.30687908  0.69432643  1
  Ti  Ti167  1  0.20289871  0.00346672  0.39091162  1
  Ti  Ti168  1  0.80241206  0.60147623  0.58821531  1
  Ti  Ti169  1  0.49324998  0.90530733  0.28580516  1
  Ti  Ti170  1  0.30034272  0.69877385  0.70017201  1
  Ti  Ti171  1  -0.00241648  0.59886770  -0.00471253  1
  Ti  Ti172  1  0.80151683  0.40561008  0.60091131  1
  Ti  Ti173  1  0.60672125  0.79516444  0.59293290  1
  Ti  Ti174  1  0.50014650  0.50527325  0.30102525  1
  Ti  Ti175  1  0.89206200  0.29733748  0.90597641  1
  Ti  Ti176  1  0.70475165  0.70491382  0.30976031  1
  Ti  Ti177  1  0.40479400  0.80515061  0.00297290  1
  Ti  Ti178  1  0.39720871  -0.00955948  0.60271884  1
  Ti  Ti179  1  0.79532645  -0.00789047  0.79699389  1
  Ti  Ti180  1  0.29820732  0.09757723  0.29583525  1
  Ti  Ti181  1  0.00333005  0.79953034  0.78977843  1
  Ti  Ti182  1  0.79766073  0.20500170  0.60240207  1
  Ti  Ti183  1  0.11319486  0.08866081  0.11272479  1
  Ti  Ti184  1  0.70629740  0.50423058  0.69674186  1
  Ti  Ti185  1  -0.00163188  0.40149700  0.39562171  1
  Ti  Ti186  1  0.40182749  0.00845702  0.19802642  1
  Ti  Ti187  1  0.00874164  0.79777273  -0.00353799  1
  Ti  Ti188  1  0.09003995  0.69707829  0.69786649  1
  Ti  Ti189  1  0.70407073  0.69808421  0.89697159  1
  Ti  Ti190  1  0.20359139  0.39925967  0.59701997  1
  Ti  Ti191  1  0.40011557  -0.01318491  0.80853296  1
  Ti  Ti192  1  0.60290552  0.60664910  0.39848252  1
  Ti  Ti193  1  0.30022909  0.69803150  0.89818600  1
  Ti  Ti194  1  0.60236694  0.80295237  0.39807415  1
  Ti  Ti195  1  0.39093518  0.40018429  0.60245147  1
  Ti  Ti196  1  0.80595895  0.60231654  0.40099395  1
  Ti  Ti197  1  0.20757090  0.00282792  -0.00584549  1
  Ti  Ti198  1  0.60678688  0.40055919  0.61192908  1
  Ti  Ti199  1  0.60777922  0.40534403  0.79730508  1
  Mo  Mo200  1  -0.00192439  0.60478202  0.60584408  1
  Mo  Mo201  1  0.30415328  0.30485916  0.70162380  1
  Mo  Mo202  1  0.20628027  -0.00650144  0.60104919  1
  Mo  Mo203  1  0.89787781  0.88290500  0.69948525  1
  Mo  Mo204  1  0.80372632  0.39898397  0.20057596  1
  Mo  Mo205  1  0.11148477  0.09508278  0.89589636  1
  Mo  Mo206  1  0.69540827  0.10428465  0.10756470  1
  Mo  Mo207  1  0.09226338  0.70340788  0.49549359  1
  Mo  Mo208  1  0.20534093  0.00418295  0.20550883  1
  Mo  Mo209  1  0.29365753  0.50409974  0.29533966  1
  Mo  Mo210  1  0.21543122  -0.01298404  0.79795136  1
  Mo  Mo211  1  0.89961236  0.88829871  0.49582726  1
  Mo  Mo212  1  0.59571207  0.41097583  0.39496528  1
  Mo  Mo213  1  0.09875316  0.88928816  0.70086692  1
  Mo  Mo214  1  0.30038444  0.90217237  0.70034216  1
  Mo  Mo215  1  0.80245560  0.21407430  0.00391687  1
  Mo  Mo216  1  0.49849176  0.70745516  0.10345612  1
  Mo  Mo217  1  0.29546096  0.09643691  0.10496768  1
  Mo  Mo218  1  0.40859465  -0.00245782  -0.00154189  1
  Mo  Mo219  1  0.49850585  0.09164451  0.28988535  1
  Mo  Mo220  1  0.00220231  0.39954060  0.20417668  1
  Mo  Mo221  1  0.38884728  0.19173101  0.39790444  1
  Mo  Mo222  1  0.30027298  0.91225134  0.29340038  1
  Mo  Mo223  1  0.69727477  0.89043586  0.88374769  1
  Mo  Mo224  1  0.30584610  0.89797200  0.90201639  1
  Mo  Mo225  1  0.70180341  0.31657659  0.69948251  1
  Mo  Mo226  1  0.00075421  0.79789951  0.40318079  1
  Mo  Mo227  1  0.50890720  0.69671290  0.69811987  1
  Mo  Mo228  1  -0.00794725  0.39746236  0.60594989  1
  Mo  Mo229  1  0.89525258  0.30191139  0.09995037  1
  Mo  Mo230  1  0.60246970  0.19397357  0.19635471  1
  Mo  Mo231  1  0.40504094  0.80915310  0.19221328  1
  Mo  Mo232  1  0.90174105  0.50855783  0.89837813  1
  Mo  Mo233  1  0.49985221  0.30470659  0.09767918  1
  Mo  Mo234  1  0.00602162  0.80168725  0.20481392  1
  Mo  Mo235  1  0.70333515  0.70308929  0.49426284  1
  Mo  Mo236  1  0.58842724  0.21841191  0.00256608  1
  Mo  Mo237  1  0.09354675  0.49536003  0.30107975  1
  Mo  Mo238  1  0.70274323  0.89015381  0.11857658  1
  Mo  Mo239  1  0.79663685  -0.01223025  0.39753112  1
  Mo  Mo240  1  0.70476314  0.50054430  0.89494845  1
  Mo  Mo241  1  0.30077666  0.49692807  0.50316509  1
  Mo  Mo242  1  0.40326186  0.59467210  0.20121962  1
  Mo  Mo243  1  0.90043413  0.70212282  0.30957647  1
  Mo  Mo244  1  0.10388740  0.09851064  0.30452326  1
  Mo  Mo245  1  0.59924673  -0.01845047  0.00316506  1
  Mo  Mo246  1  0.49864581  0.09182212  0.90110379  1
  Mo  Mo247  1  0.89533210  0.50364592  0.49500111  1
  Mo  Mo248  1  0.88541047  0.10952341  0.69423432  1
  Mo  Mo249  1  0.60455615  -0.00724652  0.20081572  1
