# generated using pymatgen
data_HfZrTaTiMo
_symmetry_space_group_name_H-M   'P 1'
_cell_length_a   16.88306500
_cell_length_b   16.88253579
_cell_length_c   16.88916977
_cell_angle_alpha   89.95594385
_cell_angle_beta   89.98421467
_cell_angle_gamma   89.99617299
_symmetry_Int_Tables_number   1
_chemical_formula_structural   HfZrTaTiMo
_chemical_formula_sum   'Hf50 Zr50 Ta50 Ti50 Mo50'
_cell_volume   4813.90069435
_cell_formula_units_Z   50
loop_
 _symmetry_equiv_pos_site_id
 _symmetry_equiv_pos_as_xyz
  1  'x, y, z'
loop_
 _atom_site_type_symbol
 _atom_site_label
 _atom_site_symmetry_multiplicity
 _atom_site_fract_x
 _atom_site_fract_y
 _atom_site_fract_z
 _atom_site_occupancy
  Hf  Hf0  1  0.30051528  0.31536576  0.09990034  1
  Hf  Hf1  1  0.60953377  0.79644780  0.21119244  1
  Hf  Hf2  1  0.49989039  0.69309083  0.10431178  1
  Hf  Hf3  1  0.81146729  -0.00065266  -0.00637870  1
  Hf  Hf4  1  0.59444223  0.60559921  0.79797514  1
  Hf  Hf5  1  0.60283491  0.79715907  -0.00903026  1
  Hf  Hf6  1  0.70357538  0.70450729  0.49699594  1
  Hf  Hf7  1  0.30528724  0.50890574  0.51075390  1
  Hf  Hf8  1  -0.00070590  0.39925994  0.59441770  1
  Hf  Hf9  1  0.89919634  0.88520789  0.50846747  1
  Hf  Hf10  1  0.70145750  0.89867965  0.70376910  1
  Hf  Hf11  1  0.40443650  0.59119136  0.38944420  1
  Hf  Hf12  1  0.09905212  0.70229155  0.89839678  1
  Hf  Hf13  1  0.30553885  0.69379461  0.27743165  1
  Hf  Hf14  1  0.69398635  0.30355664  0.50459352  1
  Hf  Hf15  1  0.29762777  0.90697020  0.09983006  1
  Hf  Hf16  1  0.89651162  0.49683706  0.70282854  1
  Hf  Hf17  1  0.39884933  0.19766473  0.59994332  1
  Hf  Hf18  1  0.39319187  0.79207149  0.39668897  1
  Hf  Hf19  1  0.19756278  0.60739120  0.39267538  1
  Hf  Hf20  1  0.69566003  0.29441152  0.69212879  1
  Hf  Hf21  1  0.49659715  0.70098826  0.89584892  1
  Hf  Hf22  1  0.50281109  0.90515237  0.09436514  1
  Hf  Hf23  1  0.80373754  -0.00689940  0.21201617  1
  Hf  Hf24  1  0.59886182  0.00089113  0.59952463  1
  Hf  Hf25  1  0.90302819  0.89231747  0.11036583  1
  Hf  Hf26  1  0.79490184  0.21023132  0.19889021  1
  Hf  Hf27  1  0.00541900  0.39879976  0.80534681  1
  Hf  Hf28  1  0.00744005  0.19449262  0.59565350  1
  Hf  Hf29  1  0.59512856  0.79781933  0.60369661  1
  Hf  Hf30  1  0.09686143  0.70151252  0.51164916  1
  Hf  Hf31  1  0.19737630  0.79302329  0.39077618  1
  Hf  Hf32  1  0.29997846  0.49955545  0.09489703  1
  Hf  Hf33  1  -0.00828510  0.60016078  0.19785094  1
  Hf  Hf34  1  0.60411766  -0.00162907  0.20983834  1
  Hf  Hf35  1  0.89622678  0.30513250  0.09497065  1
  Hf  Hf36  1  0.69026571  0.49925008  0.11123556  1
  Hf  Hf37  1  0.69684367  0.09575725  0.09531836  1
  Hf  Hf38  1  0.79935934  0.19823635  0.81032590  1
  Hf  Hf39  1  0.20319389  0.60308530  0.79330927  1
  Hf  Hf40  1  0.59349710  0.20929727  0.39697664  1
  Hf  Hf41  1  0.10530621  0.90288004  0.89798241  1
  Hf  Hf42  1  0.70268762  0.69443640  0.10380021  1
  Hf  Hf43  1  0.20363806  0.79785994  0.00499057  1
  Hf  Hf44  1  0.59466163  0.60004270  0.60207873  1
  Hf  Hf45  1  0.49586530  0.90254518  0.30334017  1
  Hf  Hf46  1  -0.00719923  0.00302957  -0.00480322  1
  Hf  Hf47  1  0.39908732  0.20090893  0.00649103  1
  Hf  Hf48  1  0.89361500  0.29752700  0.69798717  1
  Hf  Hf49  1  0.69287445  0.09665062  0.89967811  1
  Zr  Zr50  1  0.50203911  0.69238503  0.48848315  1
  Zr  Zr51  1  0.21375452  0.39655781  0.40618607  1
  Zr  Zr52  1  0.29957266  0.29858263  0.70161116  1
  Zr  Zr53  1  0.60064614  0.20861385  0.19963497  1
  Zr  Zr54  1  -0.00336196  0.19511354  -0.00396601  1
  Zr  Zr55  1  0.20827956  0.19932590  0.40440619  1
  Zr  Zr56  1  0.90015412  0.71174731  0.69268481  1
  Zr  Zr57  1  0.10961518  0.09273062  0.09447653  1
  Zr  Zr58  1  0.29270202  0.09429353  0.91170906  1
  Zr  Zr59  1  0.59670661  0.39609891  0.80103128  1
  Zr  Zr60  1  0.29883071  0.90474139  0.29299994  1
  Zr  Zr61  1  0.70485963  0.11212303  0.50539313  1
  Zr  Zr62  1  0.39840093  0.39773976  0.79910592  1
  Zr  Zr63  1  0.29711428  0.90170423  0.50906793  1
  Zr  Zr64  1  0.00244859  0.59540044  0.80511806  1
  Zr  Zr65  1  0.10209369  0.49645570  0.29379326  1
  Zr  Zr66  1  0.39617546  0.20658079  0.40520517  1
  Zr  Zr67  1  0.50445876  0.09832414  0.90634894  1
  Zr  Zr68  1  0.70360739  0.89735278  0.09862146  1
  Zr  Zr69  1  0.20056393  0.20308515  0.80608498  1
  Zr  Zr70  1  0.89621755  0.10482650  0.30865471  1
  Zr  Zr71  1  0.19810652  0.01493052  0.41309473  1
  Zr  Zr72  1  0.69029715  0.49229330  0.49278874  1
  Zr  Zr73  1  0.30104626  0.49675178  0.28195322  1
  Zr  Zr74  1  0.70214316  0.70473965  0.70188457  1
  Zr  Zr75  1  0.80701386  0.59399142  0.00010786  1
  Zr  Zr76  1  0.39687867  0.79052280  0.60754092  1
  Zr  Zr77  1  0.79977976  0.60040483  0.80562929  1
  Zr  Zr78  1  -0.00685200  0.59933335  0.59505045  1
  Zr  Zr79  1  0.69296888  0.50059276  0.90066423  1
  Zr  Zr80  1  0.10638051  0.30168036  0.29549546  1
  Zr  Zr81  1  0.39645655  -0.00113442  0.79915824  1
  Zr  Zr82  1  0.20517710  0.18680991  0.59108889  1
  Zr  Zr83  1  -0.00613060  0.40164845  0.19395397  1
  Zr  Zr84  1  0.09919989  0.90855208  0.28841330  1
  Zr  Zr85  1  0.88698684  0.09894721  0.49527483  1
  Zr  Zr86  1  -0.00467569  0.78975885  0.38725716  1
  Zr  Zr87  1  0.30446532  0.69546264  0.89951110  1
  Zr  Zr88  1  0.89512903  0.09600056  0.70212168  1
  Zr  Zr89  1  -0.00501530  0.80336804  -0.00368348  1
  Zr  Zr90  1  0.00643335  0.19743844  0.80617722  1
  Zr  Zr91  1  0.10102784  0.89588511  0.50844607  1
  Zr  Zr92  1  0.70592426  0.09993784  0.31787121  1
  Zr  Zr93  1  0.10379024  0.50169444  0.49994707  1
  Zr  Zr94  1  0.00577033  -0.00362601  0.60374639  1
  Zr  Zr95  1  0.40530604  0.19800949  0.19884345  1
  Zr  Zr96  1  0.88379237  0.29131788  0.49895234  1
  Zr  Zr97  1  0.49730441  0.90195983  0.49805202  1
  Zr  Zr98  1  -0.00170560  0.19836601  0.19413668  1
  Zr  Zr99  1  0.80433943  0.60173246  0.39557240  1
  Ta  Ta100  1  0.59438843  -0.00495963  0.80221344  1
  Ta  Ta101  1  0.10915112  0.08995676  0.70153634  1
  Ta  Ta102  1  0.10134302  0.90162625  0.10321271  1
  Ta  Ta103  1  0.69196702  0.10249306  0.70516758  1
  Ta  Ta104  1  0.09360531  0.69897896  0.09667631  1
  Ta  Ta105  1  0.20524267  0.39831759  0.60269549  1
  Ta  Ta106  1  0.40682616  0.40164790  0.40052824  1
  Ta  Ta107  1  0.89396633  0.49624181  0.29746329  1
  Ta  Ta108  1  0.50151867  0.31251259  0.09796965  1
  Ta  Ta109  1  0.10229138  0.30074570  0.49869018  1
  Ta  Ta110  1  0.40093573  0.19869700  0.80121769  1
  Ta  Ta111  1  -0.01091430  0.39915821  0.40042861  1
  Ta  Ta112  1  -0.00295574  0.00056655  0.39907172  1
  Ta  Ta113  1  0.90262589  0.70324438  0.89864397  1
  Ta  Ta114  1  0.30622295  0.30890729  0.28777684  1
  Ta  Ta115  1  0.80092393  0.79836277  -0.01005054  1
  Ta  Ta116  1  0.49963942  0.29700013  0.90360470  1
  Ta  Ta117  1  0.79496946  -0.00535331  0.60232337  1
  Ta  Ta118  1  0.89697677  0.30396099  0.90360474  1
  Ta  Ta119  1  0.79950691  0.80324157  0.80989304  1
  Ta  Ta120  1  0.39849713  0.79985772  0.79583912  1
  Ta  Ta121  1  0.09961909  0.10261219  0.29975138  1
  Ta  Ta122  1  0.69793746  0.49415351  0.69365892  1
  Ta  Ta123  1  -0.00888328  0.60099569  0.39516853  1
  Ta  Ta124  1  0.40523509  0.59278437  0.00041693  1
  Ta  Ta125  1  0.59754887  0.39945811  0.00366008  1
  Ta  Ta126  1  0.10423101  0.49754200  0.09172278  1
  Ta  Ta127  1  0.19766638  0.40443182  0.80085066  1
  Ta  Ta128  1  0.30073697  0.49786412  0.90324644  1
  Ta  Ta129  1  0.80384324  0.79700403  0.39152756  1
  Ta  Ta130  1  0.49978535  0.09667937  0.30602438  1
  Ta  Ta131  1  0.50441185  0.10351049  0.70195743  1
  Ta  Ta132  1  0.79533841  0.39949587  0.00011379  1
  Ta  Ta133  1  0.00242848  0.20418797  0.39961816  1
  Ta  Ta134  1  0.80017396  0.19933207  0.00124617  1
  Ta  Ta135  1  0.40138216  0.40037414  0.59903667  1
  Ta  Ta136  1  0.20354899  -0.00494752  0.79458693  1
  Ta  Ta137  1  0.89560015  0.70168386  0.10131153  1
  Ta  Ta138  1  0.49912026  0.89929562  0.70439530  1
  Ta  Ta139  1  0.50640980  0.30838877  0.50676254  1
  Ta  Ta140  1  0.10807815  0.50098209  0.69432505  1
  Ta  Ta141  1  -0.00546025  0.59392016  0.00254659  1
  Ta  Ta142  1  0.39714903  0.01045434  0.40441006  1
  Ta  Ta143  1  0.49596790  0.50002385  0.69871351  1
  Ta  Ta144  1  0.80313995  0.59800581  0.59027008  1
  Ta  Ta145  1  0.60314455  0.20972794  0.00527121  1
  Ta  Ta146  1  0.79817146  0.39913076  0.80693202  1
  Ta  Ta147  1  0.20786073  0.19916599  0.19483937  1
  Ta  Ta148  1  0.19680756  0.79375100  0.62055074  1
  Ta  Ta149  1  0.69440224  0.90175114  0.89727444  1
  Ti  Ti150  1  -0.00743323  0.00699679  0.19995898  1
  Ti  Ti151  1  0.19880002  0.60136845  0.00124652  1
  Ti  Ti152  1  0.10736516  0.31030016  0.09365718  1
  Ti  Ti153  1  -0.00850039  0.41270438  -0.00305281  1
  Ti  Ti154  1  0.00031390  0.79122477  0.20596944  1
  Ti  Ti155  1  0.30017003  0.90696507  0.69415202  1
  Ti  Ti156  1  0.30091524  0.30942789  0.90862884  1
  Ti  Ti157  1  0.00436284  0.80705802  0.79183303  1
  Ti  Ti158  1  0.80493139  -0.00468265  0.80535924  1
  Ti  Ti159  1  0.50142225  0.10179762  0.50268587  1
  Ti  Ti160  1  0.69481639  0.29748869  0.90260893  1
  Ti  Ti161  1  0.60256046  -0.00267278  0.40405692  1
  Ti  Ti162  1  0.70674024  0.89752624  0.49671675  1
  Ti  Ti163  1  0.18877465  0.60456736  0.18997821  1
  Ti  Ti164  1  0.30297693  0.50535733  0.70036048  1
  Ti  Ti165  1  0.40402122  0.80165024  0.19447517  1
  Ti  Ti166  1  0.80016790  0.40299476  0.39275836  1
  Ti  Ti167  1  0.20401009  0.20250543  0.00628773  1
  Ti  Ti168  1  0.50290748  0.49460933  0.50017631  1
  Ti  Ti169  1  0.50737700  0.29367792  0.69746098  1
  Ti  Ti170  1  -0.00242069  -0.00258197  0.80238998  1
  Ti  Ti171  1  0.30660115  0.69448164  0.09979170  1
  Ti  Ti172  1  0.30071453  0.89903778  0.90197286  1
  Ti  Ti173  1  0.79881216  0.59864782  0.20778633  1
  Ti  Ti174  1  0.41785261  0.41362867  0.19605273  1
  Ti  Ti175  1  0.49251767  0.49646837  0.90228343  1
  Ti  Ti176  1  0.20594648  0.80204108  0.79224490  1
  Ti  Ti177  1  0.30240765  0.10423397  0.29623780  1
  Ti  Ti178  1  0.80233790  0.79475551  0.21740636  1
  Ti  Ti179  1  0.40129828  0.80218024  -0.00258716  1
  Ti  Ti180  1  0.19078030  0.79160353  0.19549191  1
  Ti  Ti181  1  0.60408992  0.59183372  0.38117909  1
  Ti  Ti182  1  0.10741405  0.49783439  0.90623009  1
  Ti  Ti183  1  0.50074799  0.31404900  0.29780770  1
  Ti  Ti184  1  0.29258009  0.69296958  0.51106965  1
  Ti  Ti185  1  0.10728238  0.09200202  0.89944937  1
  Ti  Ti186  1  0.59653405  0.59841915  -0.00168817  1
  Ti  Ti187  1  0.10532516  0.30897661  0.91412600  1
  Ti  Ti188  1  0.80142233  0.41017350  0.59538718  1
  Ti  Ti189  1  0.79715677  0.40199550  0.19951314  1
  Ti  Ti190  1  0.39959437  0.01006603  0.19803328  1
  Ti  Ti191  1  0.40271312  0.60630818  0.61390609  1
  Ti  Ti192  1  0.69162052  0.32147722  0.29963170  1
  Ti  Ti193  1  0.10464908  0.30087751  0.69528855  1
  Ti  Ti194  1  0.60831947  0.79942426  0.39066276  1
  Ti  Ti195  1  0.89712019  0.89611241  0.69922697  1
  Ti  Ti196  1  0.50616986  0.09549345  0.09789346  1
  Ti  Ti197  1  0.50237109  0.69072961  0.29122044  1
  Ti  Ti198  1  0.40042334  -0.00167544  0.00041561  1
  Ti  Ti199  1  0.20564573  0.01174175  0.19751150  1
  Mo  Mo200  1  0.58995796  0.40331440  0.60409279  1
  Mo  Mo201  1  0.89765767  0.10099097  0.89746961  1
  Mo  Mo202  1  0.20049977  -0.00886840  -0.00285006  1
  Mo  Mo203  1  0.20427804  -0.00128411  0.61029728  1
  Mo  Mo204  1  0.89562673  0.49665905  0.49177775  1
  Mo  Mo205  1  0.90082293  0.49219812  0.90317546  1
  Mo  Mo206  1  0.10068062  0.70248857  0.70396358  1
  Mo  Mo207  1  0.39996064  0.59431569  0.80121798  1
  Mo  Mo208  1  0.59567083  0.80593755  0.80249726  1
  Mo  Mo209  1  0.31775726  0.08960576  0.51141363  1
  Mo  Mo210  1  0.30128242  0.69772885  0.70380651  1
  Mo  Mo211  1  0.49622067  0.89642315  0.89749210  1
  Mo  Mo212  1  0.10363522  0.89926514  0.70862004  1
  Mo  Mo213  1  0.00524282  0.79992924  0.61404731  1
  Mo  Mo214  1  0.30784539  0.31160305  0.50263214  1
  Mo  Mo215  1  0.60118221  0.59922925  0.20903308  1
  Mo  Mo216  1  0.49466074  0.69855053  0.70795274  1
  Mo  Mo217  1  0.59548807  0.19932816  0.80341907  1
  Mo  Mo218  1  0.89303781  0.10240891  0.10067682  1
  Mo  Mo219  1  0.80269791  -0.02237343  0.40582968  1
  Mo  Mo220  1  0.79335937  0.19073877  0.61480458  1
  Mo  Mo221  1  0.79864004  0.80194168  0.59849927  1
  Mo  Mo222  1  0.70085650  0.49710899  0.29596488  1
  Mo  Mo223  1  0.50777819  0.49753214  0.29444220  1
  Mo  Mo224  1  0.08860158  0.10184089  0.49543350  1
  Mo  Mo225  1  0.70267474  0.89625474  0.31424231  1
  Mo  Mo226  1  0.69898572  0.30679286  0.09546656  1
  Mo  Mo227  1  0.30326825  0.09474490  0.70181988  1
  Mo  Mo228  1  0.20426938  0.60167744  0.60805745  1
  Mo  Mo229  1  0.70062901  0.69658146  0.30007853  1
  Mo  Mo230  1  0.70018269  0.70462104  0.90325118  1
  Mo  Mo231  1  0.89742000  0.69647657  0.29243772  1
  Mo  Mo232  1  0.40421340  0.00467849  0.60420990  1
  Mo  Mo233  1  0.59705963  -0.00376655  -0.00269997  1
  Mo  Mo234  1  0.19530510  0.39510809  0.18882152  1
  Mo  Mo235  1  0.89995825  0.89930488  0.88560246  1
  Mo  Mo236  1  0.59790970  0.40297716  0.20053063  1
  Mo  Mo237  1  0.89801758  0.69846490  0.49759393  1
  Mo  Mo238  1  0.90292804  0.89902735  0.30108056  1
  Mo  Mo239  1  0.59097707  0.40274461  0.39482482  1
  Mo  Mo240  1  0.40565237  0.40253618  -0.00529198  1
  Mo  Mo241  1  0.09940533  0.69646222  0.28592667  1
  Mo  Mo242  1  0.50202070  0.50244802  0.09701432  1
  Mo  Mo243  1  0.59277030  0.19832312  0.60249952  1
  Mo  Mo244  1  0.89466770  0.30713518  0.30138312  1
  Mo  Mo245  1  0.41025418  0.59644474  0.19149393  1
  Mo  Mo246  1  0.89200703  0.50062273  0.10109620  1
  Mo  Mo247  1  0.30212610  0.09800616  0.10265947  1
  Mo  Mo248  1  0.19768506  0.40286465  -0.00792019  1
  Mo  Mo249  1  0.79529433  0.22776375  0.38372526  1
