# generated using pymatgen
data_HfZrTaTiMo
_symmetry_space_group_name_H-M   'P 1'
_cell_length_a   16.89058598
_cell_length_b   16.88284327
_cell_length_c   16.88743537
_cell_angle_alpha   90.01586752
_cell_angle_beta   89.98601986
_cell_angle_gamma   90.03782418
_symmetry_Int_Tables_number   1
_chemical_formula_structural   HfZrTaTiMo
_chemical_formula_sum   'Hf50 Zr50 Ta50 Ti50 Mo50'
_cell_volume   4815.63853724
_cell_formula_units_Z   50
loop_
 _symmetry_equiv_pos_site_id
 _symmetry_equiv_pos_as_xyz
  1  'x, y, z'
loop_
 _atom_site_type_symbol
 _atom_site_label
 _atom_site_symmetry_multiplicity
 _atom_site_fract_x
 _atom_site_fract_y
 _atom_site_fract_z
 _atom_site_occupancy
  Hf  Hf0  1  0.20232573  -0.00855433  0.58840931  1
  Hf  Hf1  1  0.38736753  0.00747114  -0.01013782  1
  Hf  Hf2  1  0.68666681  0.29804307  0.29295933  1
  Hf  Hf3  1  0.90945729  0.70385383  0.49516894  1
  Hf  Hf4  1  0.40008652  0.59845893  0.40742889  1
  Hf  Hf5  1  0.29356499  0.89730953  0.09102811  1
  Hf  Hf6  1  0.10598517  0.10779202  0.30236709  1
  Hf  Hf7  1  0.70409465  0.89668654  0.09708925  1
  Hf  Hf8  1  0.69891979  0.70419416  0.69108806  1
  Hf  Hf9  1  0.68851119  0.08745464  0.70505307  1
  Hf  Hf10  1  0.28525948  0.49368488  0.31338009  1
  Hf  Hf11  1  0.39554587  0.40060022  0.19847814  1
  Hf  Hf12  1  0.59800060  -0.00543255  0.19388018  1
  Hf  Hf13  1  0.68861366  0.50615953  0.29949220  1
  Hf  Hf14  1  0.80013471  0.79891266  0.80003907  1
  Hf  Hf15  1  0.50107455  0.90249077  0.70164378  1
  Hf  Hf16  1  0.40149216  0.80137083  0.20250728  1
  Hf  Hf17  1  0.00217440  -0.00496850  0.59191136  1
  Hf  Hf18  1  0.90661833  0.69332535  0.90485239  1
  Hf  Hf19  1  0.69774767  0.09254779  0.49802443  1
  Hf  Hf20  1  0.00166992  0.39782839  0.40305486  1
  Hf  Hf21  1  0.89307744  0.30551566  0.50738139  1
  Hf  Hf22  1  0.28935292  0.69372548  0.30136490  1
  Hf  Hf23  1  0.30257086  0.10352681  0.50145555  1
  Hf  Hf24  1  0.10364315  0.70271179  0.69457696  1
  Hf  Hf25  1  0.09872859  0.50625745  0.30506158  1
  Hf  Hf26  1  0.79921218  0.39523668  0.19422474  1
  Hf  Hf27  1  0.10373555  0.30065916  0.71280070  1
  Hf  Hf28  1  0.28496712  0.29317981  0.30578611  1
  Hf  Hf29  1  0.20880724  0.18973501  -0.00287620  1
  Hf  Hf30  1  0.00646007  0.80884802  0.80475813  1
  Hf  Hf31  1  0.59025496  -0.00634040  0.59303450  1
  Hf  Hf32  1  0.20910031  0.60424422  0.80528126  1
  Hf  Hf33  1  0.09155555  0.50193612  0.71395720  1
  Hf  Hf34  1  0.79612847  0.59572477  0.80723144  1
  Hf  Hf35  1  0.60292715  0.60256940  0.80248148  1
  Hf  Hf36  1  0.69582810  0.89068527  0.49911393  1
  Hf  Hf37  1  0.90857791  0.69691255  0.69906486  1
  Hf  Hf38  1  0.19906720  0.40359309  0.59376481  1
  Hf  Hf39  1  0.30081355  0.69946553  0.09278707  1
  Hf  Hf40  1  0.00382848  -0.00259806  0.00829736  1
  Hf  Hf41  1  0.79764355  -0.00207931  0.80344372  1
  Hf  Hf42  1  0.71099576  0.31165614  0.69203087  1
  Hf  Hf43  1  0.69504175  0.69925025  0.29657628  1
  Hf  Hf44  1  0.40123690  0.80197719  0.40256126  1
  Hf  Hf45  1  0.80000430  0.60845536  0.39596872  1
  Hf  Hf46  1  0.80135453  0.19527195  0.19604312  1
  Hf  Hf47  1  0.59180893  0.19228500  0.40421200  1
  Hf  Hf48  1  0.59754436  0.59580456  0.00644087  1
  Hf  Hf49  1  0.30295713  0.49910371  0.70615856  1
  Zr  Zr50  1  0.89742521  0.50695939  0.29311874  1
  Zr  Zr51  1  0.90492547  0.31007341  0.70858412  1
  Zr  Zr52  1  0.69890744  0.50154045  0.49676499  1
  Zr  Zr53  1  0.09250109  0.30448968  0.90357179  1
  Zr  Zr54  1  0.90408285  0.09820569  0.70628712  1
  Zr  Zr55  1  0.79196101  0.20389568  0.81888890  1
  Zr  Zr56  1  0.39842847  0.58599569  0.19495099  1
  Zr  Zr57  1  0.50438898  0.10112118  0.09698235  1
  Zr  Zr58  1  0.59089686  0.40557097  0.59991177  1
  Zr  Zr59  1  0.49557674  0.50608799  0.70777521  1
  Zr  Zr60  1  0.69718083  0.89560256  0.90126416  1
  Zr  Zr61  1  0.29961135  0.29837855  0.70194738  1
  Zr  Zr62  1  0.09532662  0.29496880  0.09906378  1
  Zr  Zr63  1  0.70478797  0.50500098  0.10380796  1
  Zr  Zr64  1  0.49168647  0.29739774  0.69961524  1
  Zr  Zr65  1  0.40308904  0.60280127  0.59701081  1
  Zr  Zr66  1  0.18759426  0.80323295  0.20286626  1
  Zr  Zr67  1  0.69973342  0.89693928  0.30478560  1
  Zr  Zr68  1  0.81156642  0.00022171  0.39778496  1
  Zr  Zr69  1  0.29695197  0.30369859  0.89716574  1
  Zr  Zr70  1  0.10310758  0.70106665  0.09049301  1
  Zr  Zr71  1  0.90928935  0.29736786  0.29260351  1
  Zr  Zr72  1  0.40524211  0.40252509  0.01497012  1
  Zr  Zr73  1  0.58768862  0.40675880  0.18409509  1
  Zr  Zr74  1  0.00678288  -0.00883931  0.80615159  1
  Zr  Zr75  1  0.89877140  0.49745676  0.70175412  1
  Zr  Zr76  1  0.19207477  0.81100798  0.40422286  1
  Zr  Zr77  1  0.39444302  0.19946632  0.19897590  1
  Zr  Zr78  1  0.49685112  0.89816891  0.90061594  1
  Zr  Zr79  1  0.10531493  0.29866020  0.29369790  1
  Zr  Zr80  1  0.20658643  0.80992426  0.80474806  1
  Zr  Zr81  1  -0.00199910  -0.00121594  0.19812764  1
  Zr  Zr82  1  0.11305269  0.10112437  0.70625346  1
  Zr  Zr83  1  0.79812463  0.18907221  0.60278836  1
  Zr  Zr84  1  0.90164782  0.50385364  0.49914462  1
  Zr  Zr85  1  0.39443431  0.79606802  0.79738986  1
  Zr  Zr86  1  0.69401433  0.30554403  0.49612053  1
  Zr  Zr87  1  0.49826104  0.30447927  0.30834192  1
  Zr  Zr88  1  0.10485236  0.10125080  0.89952065  1
  Zr  Zr89  1  0.80432398  0.19489214  0.39231327  1
  Zr  Zr90  1  0.49735993  0.09606060  0.29770514  1
  Zr  Zr91  1  0.09925912  0.69217678  0.90145747  1
  Zr  Zr92  1  0.00090100  0.81107896  0.00874758  1
  Zr  Zr93  1  0.00846524  0.20228099  0.59478308  1
  Zr  Zr94  1  0.39964000  0.19877627  -0.00208092  1
  Zr  Zr95  1  0.28960931  0.70418613  0.50434420  1
  Zr  Zr96  1  0.59405571  0.80046011  0.19436176  1
  Zr  Zr97  1  0.60458120  0.20261315  0.80212369  1
  Zr  Zr98  1  0.60943089  0.40447237  0.80729572  1
  Zr  Zr99  1  -0.00159159  0.60999308  0.19274293  1
  Ta  Ta100  1  0.28471574  0.29896102  0.10655640  1
  Ta  Ta101  1  0.59148495  0.19641110  0.60005913  1
  Ta  Ta102  1  0.49110090  0.09563359  0.69961626  1
  Ta  Ta103  1  0.69432638  0.09606476  0.29221698  1
  Ta  Ta104  1  0.30088752  0.29737023  0.49546883  1
  Ta  Ta105  1  0.80512521  0.60220973  0.00408048  1
  Ta  Ta106  1  0.30051978  0.90638736  0.29983884  1
  Ta  Ta107  1  0.48833012  0.29594439  0.50011716  1
  Ta  Ta108  1  0.69892401  0.70146409  0.91185645  1
  Ta  Ta109  1  0.39727934  -0.00631036  0.40793954  1
  Ta  Ta110  1  0.90018067  0.10326678  0.91062044  1
  Ta  Ta111  1  0.00829970  0.59955696  0.59578025  1
  Ta  Ta112  1  0.40623760  0.80887017  0.58995705  1
  Ta  Ta113  1  0.39883582  0.19272807  0.80400445  1
  Ta  Ta114  1  0.50781851  0.09670862  0.89011959  1
  Ta  Ta115  1  0.90486372  0.89537466  0.30309934  1
  Ta  Ta116  1  0.49727361  0.69978538  0.90750369  1
  Ta  Ta117  1  0.81263292  0.79829307  0.19671127  1
  Ta  Ta118  1  0.80765299  0.00093048  0.19846194  1
  Ta  Ta119  1  0.01020223  0.40276876  0.59534356  1
  Ta  Ta120  1  0.90219150  0.89521316  0.69734565  1
  Ta  Ta121  1  0.91324886  0.49544389  0.90508749  1
  Ta  Ta122  1  0.49381422  0.69656557  0.09568135  1
  Ta  Ta123  1  0.80077156  0.00430721  0.00412041  1
  Ta  Ta124  1  0.00699718  0.80816627  0.58983114  1
  Ta  Ta125  1  0.59992822  0.79345184  0.80069785  1
  Ta  Ta126  1  0.90347533  0.29760390  0.08901001  1
  Ta  Ta127  1  -0.00304789  0.80432291  0.19782988  1
  Ta  Ta128  1  0.59569783  0.60802203  0.59157558  1
  Ta  Ta129  1  0.20318005  0.58733498  0.00039169  1
  Ta  Ta130  1  0.79654800  0.39984205  0.39304073  1
  Ta  Ta131  1  0.60524657  0.00540494  -0.00516595  1
  Ta  Ta132  1  0.61626394  0.20254449  -0.00789737  1
  Ta  Ta133  1  0.39515871  0.40538250  0.58836855  1
  Ta  Ta134  1  0.19560840  0.59367731  0.19322942  1
  Ta  Ta135  1  0.90140868  0.49948180  0.09136656  1
  Ta  Ta136  1  0.19772535  -0.00108433  0.20248619  1
  Ta  Ta137  1  0.20329280  0.20154741  0.59751591  1
  Ta  Ta138  1  0.50553385  0.68961459  0.30074597  1
  Ta  Ta139  1  0.10481722  0.50763925  0.49084364  1
  Ta  Ta140  1  0.30922094  0.50331861  0.90474166  1
  Ta  Ta141  1  0.49575910  0.50272004  0.90682375  1
  Ta  Ta142  1  0.50653470  0.30171379  0.90523141  1
  Ta  Ta143  1  0.89488919  0.90256665  0.90689219  1
  Ta  Ta144  1  0.70144340  0.10288523  0.09860917  1
  Ta  Ta145  1  0.09847617  0.69981279  0.49404698  1
  Ta  Ta146  1  0.80495891  -0.01111445  0.59841106  1
  Ta  Ta147  1  0.19914747  0.59653415  0.59765153  1
  Ta  Ta148  1  0.80656999  0.80359845  0.59452925  1
  Ta  Ta149  1  0.20317654  0.00037342  0.39813780  1
  Ti  Ti150  1  0.79676696  0.39350474  0.00046162  1
  Ti  Ti151  1  0.11101555  0.29550750  0.48831162  1
  Ti  Ti152  1  0.70232938  0.49810725  0.91285483  1
  Ti  Ti153  1  0.69554064  0.89483440  0.69657869  1
  Ti  Ti154  1  0.19969894  0.40685787  0.00171899  1
  Ti  Ti155  1  0.70338521  0.69647827  0.10553870  1
  Ti  Ti156  1  0.10762507  0.89739464  0.69315693  1
  Ti  Ti157  1  0.70734526  0.50116970  0.68951945  1
  Ti  Ti158  1  0.90781379  0.70545537  0.30087594  1
  Ti  Ti159  1  0.39964908  0.60989356  0.80548283  1
  Ti  Ti160  1  0.80082661  0.40225040  0.81466194  1
  Ti  Ti161  1  -0.00051400  0.40501708  0.19205017  1
  Ti  Ti162  1  0.39224435  0.00118895  0.80036590  1
  Ti  Ti163  1  0.48630856  0.10076904  0.51035423  1
  Ti  Ti164  1  0.50729630  0.50381896  0.30657040  1
  Ti  Ti165  1  0.39638630  0.40409060  0.40755924  1
  Ti  Ti166  1  0.39588842  -0.00361838  0.20221706  1
  Ti  Ti167  1  0.69384594  0.70475128  0.49897880  1
  Ti  Ti168  1  0.49187671  0.89826772  0.08851165  1
  Ti  Ti169  1  -0.00433590  0.20042863  0.80871066  1
  Ti  Ti170  1  0.80000930  0.60608772  0.59502649  1
  Ti  Ti171  1  0.59650200  0.79592722  0.00259280  1
  Ti  Ti172  1  0.19676803  0.41210987  0.18799020  1
  Ti  Ti173  1  0.10554521  0.10335388  0.49209092  1
  Ti  Ti174  1  0.90393098  0.30024061  0.91169011  1
  Ti  Ti175  1  0.50772062  0.49809780  0.48900568  1
  Ti  Ti176  1  0.40462160  0.39909714  0.80756715  1
  Ti  Ti177  1  0.58813009  -0.00261159  0.40292850  1
  Ti  Ti178  1  0.51510655  0.28997953  0.09534756  1
  Ti  Ti179  1  0.90360080  0.09790261  0.49900460  1
  Ti  Ti180  1  0.49777073  0.89990138  0.30388690  1
  Ti  Ti181  1  0.19721833  0.41129023  0.81312335  1
  Ti  Ti182  1  0.39517103  0.19223410  0.39694074  1
  Ti  Ti183  1  0.00180623  -0.00440355  0.40451270  1
  Ti  Ti184  1  0.21276732  -0.00536389  0.80942930  1
  Ti  Ti185  1  0.50394856  0.70716640  0.69459424  1
  Ti  Ti186  1  0.89867310  0.10679961  0.09178764  1
  Ti  Ti187  1  0.09332258  0.90215273  0.30429885  1
  Ti  Ti188  1  0.10628770  0.10083571  0.10115236  1
  Ti  Ti189  1  -0.00342011  0.19568200  0.40043282  1
  Ti  Ti190  1  0.80779799  0.80097130  0.40038290  1
  Ti  Ti191  1  0.80769259  0.79521688  0.00870986  1
  Ti  Ti192  1  0.58573118  0.79564881  0.40851738  1
  Ti  Ti193  1  0.30509162  0.10028374  0.69654792  1
  Ti  Ti194  1  0.09012279  0.49908670  0.08650628  1
  Ti  Ti195  1  0.30577610  0.70522447  0.91617857  1
  Ti  Ti196  1  0.29312463  0.09570728  0.11067691  1
  Ti  Ti197  1  0.29752255  0.70684040  0.68954000  1
  Ti  Ti198  1  -0.00413290  0.18930723  0.19511187  1
  Ti  Ti199  1  0.30420583  0.90205799  0.68828889  1
  Mo  Mo200  1  0.10236458  0.49852613  0.90431187  1
  Mo  Mo201  1  0.50450433  0.70319288  0.49904235  1
  Mo  Mo202  1  0.00082434  0.59652846  0.80110356  1
  Mo  Mo203  1  0.30007093  0.09052427  0.30262245  1
  Mo  Mo204  1  0.19574178  0.60399254  0.40121263  1
  Mo  Mo205  1  0.09729171  0.90218443  0.49346267  1
  Mo  Mo206  1  0.00157663  0.80382631  0.39363129  1
  Mo  Mo207  1  -0.00243227  0.19449732  0.00410672  1
  Mo  Mo208  1  0.70310743  0.29499580  0.09373069  1
  Mo  Mo209  1  0.40270687  0.79951546  0.00031961  1
  Mo  Mo210  1  0.59749713  -0.00503555  0.79930053  1
  Mo  Mo211  1  0.10496674  0.90502980  0.10562972  1
  Mo  Mo212  1  0.59598293  0.60499238  0.40326746  1
  Mo  Mo213  1  0.60598974  0.19656125  0.19156223  1
  Mo  Mo214  1  0.30241842  0.90396831  0.49882698  1
  Mo  Mo215  1  0.00395662  0.60979300  0.39763021  1
  Mo  Mo216  1  0.19719260  0.39699608  0.40854708  1
  Mo  Mo217  1  0.59287307  0.60506187  0.19850358  1
  Mo  Mo218  1  0.19971662  0.80317364  0.60128655  1
  Mo  Mo219  1  0.29935084  0.90347609  0.90169452  1
  Mo  Mo220  1  0.19911932  0.00045894  0.00487246  1
  Mo  Mo221  1  0.80153920  0.20121303  0.00287238  1
  Mo  Mo222  1  0.20085538  0.19533004  0.40548073  1
  Mo  Mo223  1  -0.00356701  0.39752238  0.80811318  1
  Mo  Mo224  1  0.29098818  0.49566068  0.09749670  1
  Mo  Mo225  1  0.49667407  0.50606934  0.09676762  1
  Mo  Mo226  1  0.49862831  0.89997569  0.49855750  1
  Mo  Mo227  1  0.11546601  0.90442348  0.91519435  1
  Mo  Mo228  1  -0.00384190  0.39896348  0.00216491  1
  Mo  Mo229  1  0.59967838  0.79772924  0.60114548  1
  Mo  Mo230  1  0.20977356  0.19272220  0.79594242  1
  Mo  Mo231  1  0.90183736  0.89608555  0.49835305  1
  Mo  Mo232  1  0.39700962  0.00020218  0.60279118  1
  Mo  Mo233  1  0.30181207  0.09724888  0.88504762  1
  Mo  Mo234  1  0.39904326  0.20034796  0.60135743  1
  Mo  Mo235  1  0.90838882  0.09348976  0.29790420  1
  Mo  Mo236  1  0.00139837  0.59082231  -0.00098557  1
  Mo  Mo237  1  0.80419400  0.41085283  0.59357750  1
  Mo  Mo238  1  0.80426629  0.61395965  0.19505811  1
  Mo  Mo239  1  0.89649858  0.69865117  0.09900555  1
  Mo  Mo240  1  0.70089326  0.09398811  0.90546591  1
  Mo  Mo241  1  0.09251903  0.69901518  0.30387464  1
  Mo  Mo242  1  0.89234308  0.89969986  0.10231693  1
  Mo  Mo243  1  0.59118213  0.40013537  0.39963714  1
  Mo  Mo244  1  0.29588441  0.49672515  0.50096373  1
  Mo  Mo245  1  0.60053465  0.39801349  -0.00258589  1
  Mo  Mo246  1  0.39859281  0.59977335  -0.00365773  1
  Mo  Mo247  1  0.20217646  0.80659092  -0.00601794  1
  Mo  Mo248  1  0.70211394  0.31322018  0.90816971  1
  Mo  Mo249  1  0.20043010  0.18755274  0.19579152  1
