# generated using pymatgen
data_HfZrTaTiMo
_symmetry_space_group_name_H-M   'P 1'
_cell_length_a   16.89027293
_cell_length_b   16.89713239
_cell_length_c   16.87734457
_cell_angle_alpha   90.02006872
_cell_angle_beta   89.98221576
_cell_angle_gamma   89.93443906
_symmetry_Int_Tables_number   1
_chemical_formula_structural   HfZrTaTiMo
_chemical_formula_sum   'Hf50 Zr50 Ta50 Ti50 Mo50'
_cell_volume   4816.74282737
_cell_formula_units_Z   50
loop_
 _symmetry_equiv_pos_site_id
 _symmetry_equiv_pos_as_xyz
  1  'x, y, z'
loop_
 _atom_site_type_symbol
 _atom_site_label
 _atom_site_symmetry_multiplicity
 _atom_site_fract_x
 _atom_site_fract_y
 _atom_site_fract_z
 _atom_site_occupancy
  Hf  Hf0  1  0.60051598  0.38180055  0.00040303  1
  Hf  Hf1  1  0.09338558  0.49839903  0.50049389  1
  Hf  Hf2  1  0.30039817  0.29258973  0.70362062  1
  Hf  Hf3  1  -0.00292049  0.41658166  0.00832720  1
  Hf  Hf4  1  0.19812427  0.19244502  0.80154033  1
  Hf  Hf5  1  0.50157767  0.49709336  0.29389276  1
  Hf  Hf6  1  0.80377786  0.19748249  0.80012728  1
  Hf  Hf7  1  0.00325819  0.40020273  0.20002423  1
  Hf  Hf8  1  0.30219203  0.50395953  0.50110051  1
  Hf  Hf9  1  0.29622459  0.70692540  0.70491603  1
  Hf  Hf10  1  0.89600563  0.29374263  0.10918507  1
  Hf  Hf11  1  0.09434386  0.70079258  0.29357234  1
  Hf  Hf12  1  0.79963383  0.80919433  0.60933832  1
  Hf  Hf13  1  0.49754113  0.70690426  0.28935058  1
  Hf  Hf14  1  0.40318238  0.38925242  -0.00893821  1
  Hf  Hf15  1  0.90746442  0.09780474  0.90280150  1
  Hf  Hf16  1  0.60389763  0.81176911  0.79870266  1
  Hf  Hf17  1  0.80965327  -0.00483670  -0.00157193  1
  Hf  Hf18  1  0.59428453  0.38874431  0.81205750  1
  Hf  Hf19  1  0.59139382  -0.00396011  0.80853944  1
  Hf  Hf20  1  0.20396400  0.58904999  0.61615463  1
  Hf  Hf21  1  -0.00394424  0.60966357  0.59846013  1
  Hf  Hf22  1  0.71363164  0.70336563  0.90121836  1
  Hf  Hf23  1  0.49246297  0.49815039  0.70030024  1
  Hf  Hf24  1  0.50598559  0.50747044  0.09021141  1
  Hf  Hf25  1  0.59907548  0.80243295  0.40842609  1
  Hf  Hf26  1  0.40276689  0.80752699  0.81148876  1
  Hf  Hf27  1  0.49541777  0.09990353  0.30078113  1
  Hf  Hf28  1  0.30449227  0.49893976  0.09259457  1
  Hf  Hf29  1  0.79717748  0.39397967  0.80820218  1
  Hf  Hf30  1  0.89508183  0.70788267  0.70789073  1
  Hf  Hf31  1  0.09445153  0.90018587  0.30281028  1
  Hf  Hf32  1  0.19424450  0.39518716  0.39369661  1
  Hf  Hf33  1  0.10156512  0.90397261  0.90888907  1
  Hf  Hf34  1  0.71087237  0.29721939  0.29734599  1
  Hf  Hf35  1  0.40155731  0.38938243  0.40167694  1
  Hf  Hf36  1  0.09527470  0.30062018  0.69864972  1
  Hf  Hf37  1  0.69467565  0.50981127  0.91129267  1
  Hf  Hf38  1  0.10025673  0.29853747  0.90114855  1
  Hf  Hf39  1  0.29966395  0.49832300  0.29607155  1
  Hf  Hf40  1  0.00512520  0.00415782  0.79314090  1
  Hf  Hf41  1  0.70508995  0.10536521  0.29712843  1
  Hf  Hf42  1  0.60415483  0.81101586  0.60504200  1
  Hf  Hf43  1  0.89996443  0.89654657  0.29481423  1
  Hf  Hf44  1  0.59320949  0.61090463  0.80875506  1
  Hf  Hf45  1  0.00317696  0.38783587  0.39550542  1
  Hf  Hf46  1  0.39578706  0.60529188  0.19305308  1
  Hf  Hf47  1  0.39373547  0.80663032  0.40270537  1
  Hf  Hf48  1  0.79555439  0.39148369  0.00113677  1
  Hf  Hf49  1  0.28915108  0.90625138  0.51769478  1
  Zr  Zr50  1  0.69157716  0.10245779  0.70417872  1
  Zr  Zr51  1  -0.00405705  0.81575158  0.80065051  1
  Zr  Zr52  1  0.20131035  0.60367178  -0.00639910  1
  Zr  Zr53  1  0.80531572  0.79715815  0.40888212  1
  Zr  Zr54  1  0.70826658  0.49712849  0.49191990  1
  Zr  Zr55  1  0.10259041  0.50091201  0.89483784  1
  Zr  Zr56  1  0.70645932  0.89795078  0.29453107  1
  Zr  Zr57  1  0.90002328  0.50286236  0.48770059  1
  Zr  Zr58  1  0.20084063  0.00783009  0.39979569  1
  Zr  Zr59  1  -0.00129669  0.58773357  0.17414339  1
  Zr  Zr60  1  0.70646345  0.10524125  0.10175283  1
  Zr  Zr61  1  0.69560101  0.49562885  0.69970912  1
  Zr  Zr62  1  0.19874841  0.00948199  0.20457974  1
  Zr  Zr63  1  0.60065534  0.00046276  0.40566024  1
  Zr  Zr64  1  0.60156260  0.60268065  0.39814943  1
  Zr  Zr65  1  0.83408367  0.58768991  -0.00154509  1
  Zr  Zr66  1  0.39771023  0.19689354  0.19137783  1
  Zr  Zr67  1  0.29036943  0.28502137  0.49668064  1
  Zr  Zr68  1  0.60589909  0.60451875  0.60204155  1
  Zr  Zr69  1  0.30112183  0.70278800  0.51094538  1
  Zr  Zr70  1  0.38488405  0.00293222  0.19205937  1
  Zr  Zr71  1  0.70191440  0.10499653  0.50348211  1
  Zr  Zr72  1  0.30303023  0.71798694  0.09167040  1
  Zr  Zr73  1  0.70769690  0.29169511  0.49596721  1
  Zr  Zr74  1  -0.00135511  0.79118888  0.40994124  1
  Zr  Zr75  1  0.09575457  0.71192189  0.08673419  1
  Zr  Zr76  1  0.70523836  0.69506483  0.09081442  1
  Zr  Zr77  1  0.68901752  0.28995810  0.69484110  1
  Zr  Zr78  1  0.49346897  0.89890142  0.29527702  1
  Zr  Zr79  1  0.80702563  0.38846791  0.59940363  1
  Zr  Zr80  1  0.71607561  0.88837697  0.10629788  1
  Zr  Zr81  1  0.90889255  0.49013254  0.69439513  1
  Zr  Zr82  1  0.19174108  0.40618120  0.19572653  1
  Zr  Zr83  1  0.59426969  -0.00184320  0.18999423  1
  Zr  Zr84  1  0.39870705  0.60608386  0.39655858  1
  Zr  Zr85  1  -0.00491765  0.59955960  0.81279568  1
  Zr  Zr86  1  0.80357984  0.00189556  0.61298197  1
  Zr  Zr87  1  0.59350136  0.39334743  0.40456533  1
  Zr  Zr88  1  0.19851490  0.39724733  0.60354587  1
  Zr  Zr89  1  0.60192290  0.39187846  0.19272631  1
  Zr  Zr90  1  0.59258529  0.80493943  -0.01441315  1
  Zr  Zr91  1  0.60025539  -0.00541628  -0.00502985  1
  Zr  Zr92  1  0.40228455  0.00148508  -0.00617842  1
  Zr  Zr93  1  0.20301635  0.00088542  0.00735885  1
  Zr  Zr94  1  0.10614862  0.70560726  0.71044822  1
  Zr  Zr95  1  0.10841368  0.70497447  0.50782444  1
  Zr  Zr96  1  0.91257091  0.91051823  0.50445460  1
  Zr  Zr97  1  0.40093392  0.39183582  0.59991784  1
  Zr  Zr98  1  0.70923732  0.69968110  0.29300695  1
  Zr  Zr99  1  0.49102259  0.70036647  0.69530512  1
  Ta  Ta100  1  0.59662104  0.20591081  0.19263090  1
  Ta  Ta101  1  0.00406430  0.19163239  0.39722466  1
  Ta  Ta102  1  0.39885371  0.39335609  0.80696073  1
  Ta  Ta103  1  0.89471354  0.49674863  0.30179471  1
  Ta  Ta104  1  0.71342610  0.49568186  0.29838246  1
  Ta  Ta105  1  0.49254876  0.09448607  0.50306479  1
  Ta  Ta106  1  -0.00019809  0.00614560  0.19973951  1
  Ta  Ta107  1  0.49028474  0.90561473  0.50906974  1
  Ta  Ta108  1  0.19664748  0.60447154  0.39328405  1
  Ta  Ta109  1  0.39040114  0.60011819  0.80466899  1
  Ta  Ta110  1  0.20443767  0.39563853  -0.00454005  1
  Ta  Ta111  1  0.90697162  0.29601080  0.90119366  1
  Ta  Ta112  1  0.90511998  0.10383665  0.10347906  1
  Ta  Ta113  1  0.09636614  0.11074398  0.10417166  1
  Ta  Ta114  1  0.49798861  0.29020124  0.70160928  1
  Ta  Ta115  1  0.10063049  0.28092374  0.28957613  1
  Ta  Ta116  1  0.00009359  0.20093770  0.00211250  1
  Ta  Ta117  1  0.19637502  0.60255788  0.19503145  1
  Ta  Ta118  1  0.80625741  0.59568060  0.19611304  1
  Ta  Ta119  1  0.80876315  0.00602704  0.39817214  1
  Ta  Ta120  1  0.89903082  0.29284600  0.29637456  1
  Ta  Ta121  1  0.29336440  0.29538182  0.09494987  1
  Ta  Ta122  1  0.49317867  0.29359712  0.29680246  1
  Ta  Ta123  1  0.70335825  0.50063744  0.10278900  1
  Ta  Ta124  1  0.79861724  0.20294751  -0.00340417  1
  Ta  Ta125  1  0.49418479  0.50993675  0.50764434  1
  Ta  Ta126  1  0.10220275  0.90563250  0.50872282  1
  Ta  Ta127  1  0.10453654  0.29253966  0.09713009  1
  Ta  Ta128  1  0.40172015  0.61258297  -0.01572627  1
  Ta  Ta129  1  0.40239533  0.19578104  0.80477646  1
  Ta  Ta130  1  0.39801355  0.19080020  0.60188106  1
  Ta  Ta131  1  0.49531657  0.70345806  0.50837486  1
  Ta  Ta132  1  0.20196400  0.00182694  0.79758061  1
  Ta  Ta133  1  0.49854851  0.70337097  0.09243825  1
  Ta  Ta134  1  0.59323678  -0.00203411  0.60683954  1
  Ta  Ta135  1  0.90670890  0.10115535  0.50082949  1
  Ta  Ta136  1  0.80467607  0.59504424  0.80069694  1
  Ta  Ta137  1  0.90393597  0.68650328  0.30101647  1
  Ta  Ta138  1  0.58817472  0.20135546  0.39986393  1
  Ta  Ta139  1  0.29532131  0.28972740  0.29317605  1
  Ta  Ta140  1  0.80345079  0.60657613  0.60063265  1
  Ta  Ta141  1  0.70725435  0.69852798  0.50210102  1
  Ta  Ta142  1  0.00149912  0.19304722  0.60054494  1
  Ta  Ta143  1  0.29044302  0.70730988  0.29349268  1
  Ta  Ta144  1  0.38835442  0.00552323  0.40369958  1
  Ta  Ta145  1  0.20017838  0.80368713  0.39909150  1
  Ta  Ta146  1  0.48038496  0.88343742  0.09710520  1
  Ta  Ta147  1  0.40136319  0.20252287  -0.00883525  1
  Ta  Ta148  1  0.29969886  0.10139252  0.89807125  1
  Ta  Ta149  1  0.19842631  0.81090548  0.19493580  1
  Ti  Ti150  1  0.09785642  0.28931605  0.50160311  1
  Ti  Ti151  1  -0.00979733  0.81390446  -0.00080060  1
  Ti  Ti152  1  0.70238150  0.09820556  0.90040582  1
  Ti  Ti153  1  0.00268657  0.19146400  0.79568676  1
  Ti  Ti154  1  0.90984205  0.29599149  0.70123809  1
  Ti  Ti155  1  0.29928078  0.90202320  0.90389743  1
  Ti  Ti156  1  0.59052802  0.39097644  0.59232796  1
  Ti  Ti157  1  0.39388113  0.00688044  0.60432858  1
  Ti  Ti158  1  0.20581145  0.81075345  0.80502653  1
  Ti  Ti159  1  0.39580396  0.19348722  0.40348980  1
  Ti  Ti160  1  0.09091102  0.51255347  0.30501843  1
  Ti  Ti161  1  -0.00535410  0.80546022  0.19213927  1
  Ti  Ti162  1  0.81583322  0.19201030  0.39618376  1
  Ti  Ti163  1  0.21065025  0.40255586  0.80068965  1
  Ti  Ti164  1  0.10472127  0.70881789  0.90140543  1
  Ti  Ti165  1  0.81348286  0.81378518  -0.00832941  1
  Ti  Ti166  1  0.59056957  0.19662647  0.81661963  1
  Ti  Ti167  1  0.29992520  0.50103401  0.89456194  1
  Ti  Ti168  1  0.48652612  0.91261420  0.70204480  1
  Ti  Ti169  1  0.58312814  0.19780227  0.59148592  1
  Ti  Ti170  1  0.50130197  0.10409709  0.09161318  1
  Ti  Ti171  1  0.19587243  0.18708967  0.39392547  1
  Ti  Ti172  1  0.49424955  0.09988108  0.70436427  1
  Ti  Ti173  1  0.09476351  0.90505031  0.09757387  1
  Ti  Ti174  1  0.11477902  0.90439978  0.69047956  1
  Ti  Ti175  1  0.49896769  0.50546083  0.90235474  1
  Ti  Ti176  1  0.29993895  0.09139045  0.70215648  1
  Ti  Ti177  1  0.81625757  0.19344371  0.60676459  1
  Ti  Ti178  1  0.60565580  0.60063772  0.19515538  1
  Ti  Ti179  1  0.81357896  0.00502152  0.20055826  1
  Ti  Ti180  1  -0.00513193  0.39770790  0.80452586  1
  Ti  Ti181  1  0.28806018  0.11572765  0.09045638  1
  Ti  Ti182  1  0.80458939  -0.01410738  0.80032838  1
  Ti  Ti183  1  0.19761230  0.18270915  0.60126947  1
  Ti  Ti184  1  0.70217773  0.90746226  0.50305402  1
  Ti  Ti185  1  0.29826284  0.89665579  0.29519710  1
  Ti  Ti186  1  -0.00105436  0.80552783  0.60547724  1
  Ti  Ti187  1  0.59803207  0.20257391  -0.00339779  1
  Ti  Ti188  1  0.10182650  0.10036365  0.91170826  1
  Ti  Ti189  1  0.59876135  0.79905522  0.19111125  1
  Ti  Ti190  1  0.00013397  0.01273281  0.39237104  1
  Ti  Ti191  1  0.09663173  0.49271175  0.70552033  1
  Ti  Ti192  1  0.39633184  0.81080943  0.60779615  1
  Ti  Ti193  1  0.00290486  0.00804716  0.61361863  1
  Ti  Ti194  1  0.90235075  0.71033270  0.90024964  1
  Ti  Ti195  1  0.70736996  0.70267077  0.70742801  1
  Ti  Ti196  1  0.89924799  0.71082239  0.09801787  1
  Ti  Ti197  1  0.09869109  0.09342800  0.50544359  1
  Ti  Ti198  1  0.90560644  0.29396044  0.49745340  1
  Ti  Ti199  1  0.40231530  0.39038531  0.19207881  1
  Mo  Mo200  1  0.79824209  0.40007103  0.20108112  1
  Mo  Mo201  1  0.00378111  0.00711077  0.00932562  1
  Mo  Mo202  1  0.49564916  0.29145307  0.09716217  1
  Mo  Mo203  1  0.00331637  0.38241162  0.59558443  1
  Mo  Mo204  1  0.90580369  0.10365609  0.70134752  1
  Mo  Mo205  1  0.19852134  0.20119485  -0.00316255  1
  Mo  Mo206  1  0.29872193  0.29583286  0.89718886  1
  Mo  Mo207  1  0.39373021  0.00436099  0.79831063  1
  Mo  Mo208  1  0.49496590  0.28540426  0.50066012  1
  Mo  Mo209  1  0.90600545  0.90594132  0.90272575  1
  Mo  Mo210  1  0.59142415  0.60500212  0.00109956  1
  Mo  Mo211  1  0.19478095  0.00800265  0.60699308  1
  Mo  Mo212  1  0.69938230  0.28264913  0.90231766  1
  Mo  Mo213  1  0.11226260  0.49879592  0.09235165  1
  Mo  Mo214  1  0.80202514  0.19764403  0.19769436  1
  Mo  Mo215  1  0.10286322  0.10164326  0.69629961  1
  Mo  Mo216  1  0.79998162  0.80965458  0.80429357  1
  Mo  Mo217  1  0.39175347  0.80153705  0.20017414  1
  Mo  Mo218  1  0.90174490  0.09984148  0.30062752  1
  Mo  Mo219  1  0.89927005  0.48652224  0.89218258  1
  Mo  Mo220  1  0.90987482  0.90323827  0.10252172  1
  Mo  Mo221  1  0.90355781  0.90477205  0.70243051  1
  Mo  Mo222  1  0.81117031  0.39045104  0.39317591  1
  Mo  Mo223  1  0.29950130  0.10947019  0.30834356  1
  Mo  Mo224  1  0.19946708  0.81019450  -0.00395134  1
  Mo  Mo225  1  0.89058842  0.48687605  0.10995871  1
  Mo  Mo226  1  0.30220463  0.49616850  0.71501700  1
  Mo  Mo227  1  0.71384669  0.90049480  0.89564248  1
  Mo  Mo228  1  0.49688253  0.10318741  0.90046648  1
  Mo  Mo229  1  0.81732395  0.78951698  0.19768828  1
  Mo  Mo230  1  0.29943196  0.90809064  0.70639794  1
  Mo  Mo231  1  0.00063987  0.60934455  -0.00437341  1
  Mo  Mo232  1  0.89696709  0.69882953  0.50631988  1
  Mo  Mo233  1  0.00077027  0.59918764  0.39856037  1
  Mo  Mo234  1  0.39566063  0.80257911  -0.00739772  1
  Mo  Mo235  1  0.20450823  0.59754604  0.80286141  1
  Mo  Mo236  1  0.49849474  0.29140322  0.89669371  1
  Mo  Mo237  1  0.49010038  0.90335560  0.90089974  1
  Mo  Mo238  1  0.09532681  0.10192003  0.29857182  1
  Mo  Mo239  1  0.80374616  0.60029262  0.39670321  1
  Mo  Mo240  1  0.19872705  0.81040237  0.60616779  1
  Mo  Mo241  1  0.49494015  0.70101496  0.89891871  1
  Mo  Mo242  1  0.29524026  0.89840648  0.09772128  1
  Mo  Mo243  1  0.30121572  0.09998589  0.50552182  1
  Mo  Mo244  1  0.20045470  0.20047335  0.19711321  1
  Mo  Mo245  1  0.69871056  0.90527857  0.70508615  1
  Mo  Mo246  1  0.00028291  0.19774428  0.20018947  1
  Mo  Mo247  1  0.29272204  0.70480943  0.89402414  1
  Mo  Mo248  1  0.39928067  0.59981459  0.60721504  1
  Mo  Mo249  1  0.69924488  0.29267693  0.10040928  1
