# generated using pymatgen
data_HfZrTaTiMo
_symmetry_space_group_name_H-M   'P 1'
_cell_length_a   16.89532372
_cell_length_b   16.89286842
_cell_length_c   16.89162013
_cell_angle_alpha   89.95348548
_cell_angle_beta   90.03748417
_cell_angle_gamma   89.97792532
_symmetry_Int_Tables_number   1
_chemical_formula_structural   HfZrTaTiMo
_chemical_formula_sum   'Hf50 Zr50 Ta50 Ti50 Mo50'
_cell_volume   4821.04243733
_cell_formula_units_Z   50
loop_
 _symmetry_equiv_pos_site_id
 _symmetry_equiv_pos_as_xyz
  1  'x, y, z'
loop_
 _atom_site_type_symbol
 _atom_site_label
 _atom_site_symmetry_multiplicity
 _atom_site_fract_x
 _atom_site_fract_y
 _atom_site_fract_z
 _atom_site_occupancy
  Hf  Hf0  1  0.19470165  0.39605788  0.39490332  1
  Hf  Hf1  1  0.89809491  0.10132603  0.10832848  1
  Hf  Hf2  1  0.09655697  0.89048626  0.10493543  1
  Hf  Hf3  1  0.49841418  0.89752971  0.09572514  1
  Hf  Hf4  1  0.69737277  0.29890148  0.69410337  1
  Hf  Hf5  1  0.79343338  0.40242449  0.40181667  1
  Hf  Hf6  1  0.50091827  0.90792999  0.89678572  1
  Hf  Hf7  1  0.39735555  0.20199815  0.40639680  1
  Hf  Hf8  1  0.49451006  0.90101805  0.30742622  1
  Hf  Hf9  1  0.69531741  0.09506334  0.88955927  1
  Hf  Hf10  1  0.00308789  -0.00465912  0.20832254  1
  Hf  Hf11  1  0.40418002  0.60002296  0.19800077  1
  Hf  Hf12  1  0.30230314  0.10031769  0.30124676  1
  Hf  Hf13  1  0.59766240  0.19843927  0.00238081  1
  Hf  Hf14  1  0.20325242  -0.02206157  0.81940171  1
  Hf  Hf15  1  0.49637354  0.29586790  0.29779377  1
  Hf  Hf16  1  0.29870463  0.50596205  0.88667287  1
  Hf  Hf17  1  -0.00155450  0.20065034  0.60032915  1
  Hf  Hf18  1  0.61558475  0.80624795  -0.00278855  1
  Hf  Hf19  1  0.49450901  0.69899814  0.69508163  1
  Hf  Hf20  1  0.11113005  0.50001198  0.71686304  1
  Hf  Hf21  1  0.39760997  0.60418764  0.40002772  1
  Hf  Hf22  1  -0.00075015  0.19853661  0.00101392  1
  Hf  Hf23  1  0.89906523  0.30461261  0.10267909  1
  Hf  Hf24  1  0.29615555  0.09583180  0.71025992  1
  Hf  Hf25  1  0.89735646  0.30563215  0.89870439  1
  Hf  Hf26  1  0.90140568  0.49624251  0.30067091  1
  Hf  Hf27  1  0.00516179  0.38810464  0.39723391  1
  Hf  Hf28  1  -0.00599860  0.20116282  0.79418211  1
  Hf  Hf29  1  0.59504601  0.19378896  0.60027310  1
  Hf  Hf30  1  0.70888268  0.70772781  0.69496622  1
  Hf  Hf31  1  0.89233792  0.30802238  0.69682208  1
  Hf  Hf32  1  0.20367727  0.59845918  0.60210838  1
  Hf  Hf33  1  0.60350717  0.40526769  0.40849176  1
  Hf  Hf34  1  0.89791481  0.50764422  0.70288160  1
  Hf  Hf35  1  0.40164935  0.40058963  0.40188269  1
  Hf  Hf36  1  0.89718655  0.49853998  0.09594758  1
  Hf  Hf37  1  0.70484990  0.69132628  0.08753834  1
  Hf  Hf38  1  0.78759485  0.40852416  0.79908393  1
  Hf  Hf39  1  0.20626706  0.18945680  0.00691238  1
  Hf  Hf40  1  0.29344057  0.31008977  0.50967651  1
  Hf  Hf41  1  0.89256052  0.11061148  0.30470377  1
  Hf  Hf42  1  0.39987662  0.19866940  0.60099932  1
  Hf  Hf43  1  0.19525719  0.19650093  0.59548125  1
  Hf  Hf44  1  0.20148212  0.81366013  -0.01698136  1
  Hf  Hf45  1  0.20099678  0.80947980  0.40569673  1
  Hf  Hf46  1  0.01054550  0.59513587  0.20171753  1
  Hf  Hf47  1  0.00848223  0.39202096  0.59699768  1
  Hf  Hf48  1  0.70388277  0.70530745  0.30442023  1
  Hf  Hf49  1  0.90385497  0.50073299  0.49744785  1
  Zr  Zr50  1  0.60430727  0.40464856  0.19829578  1
  Zr  Zr51  1  0.09259438  0.10519416  0.30379372  1
  Zr  Zr52  1  0.39499515  -0.00149598  0.59435357  1
  Zr  Zr53  1  0.80302796  -0.00297699  -0.00084758  1
  Zr  Zr54  1  0.29836308  0.49812956  0.30047198  1
  Zr  Zr55  1  0.30328168  0.49909243  0.09558730  1
  Zr  Zr56  1  0.19649140  -0.01522491  0.58898407  1
  Zr  Zr57  1  0.60768236  0.00110218  0.39639095  1
  Zr  Zr58  1  0.90267823  0.89773531  0.50156311  1
  Zr  Zr59  1  0.09847363  0.71141818  0.09665210  1
  Zr  Zr60  1  0.90120820  0.09657833  0.49605260  1
  Zr  Zr61  1  0.79944423  0.61399455  0.58481653  1
  Zr  Zr62  1  0.00187756  0.60597132  0.60104564  1
  Zr  Zr63  1  0.18957574  -0.00722307  0.39841335  1
  Zr  Zr64  1  0.60756486  -0.00518023  0.20047991  1
  Zr  Zr65  1  0.10690892  0.49802544  0.49987615  1
  Zr  Zr66  1  0.79541453  -0.00625988  0.61771824  1
  Zr  Zr67  1  0.70334359  0.09819721  0.10168062  1
  Zr  Zr68  1  0.70512765  0.89185308  0.50243393  1
  Zr  Zr69  1  0.50420832  0.69702593  0.09180790  1
  Zr  Zr70  1  0.50057137  0.70065047  0.50352766  1
  Zr  Zr71  1  0.40594021  0.20168281  0.80118612  1
  Zr  Zr72  1  0.19830782  0.60208666  0.20003516  1
  Zr  Zr73  1  0.49885755  0.90108149  0.70132707  1
  Zr  Zr74  1  0.40129769  0.19199584  0.00869367  1
  Zr  Zr75  1  0.89642442  0.89358004  0.30587877  1
  Zr  Zr76  1  0.10939665  0.30416208  0.89096320  1
  Zr  Zr77  1  0.90646404  0.70681524  0.30358698  1
  Zr  Zr78  1  0.60762478  0.80040943  0.80008636  1
  Zr  Zr79  1  0.70232976  0.29372048  0.30156873  1
  Zr  Zr80  1  0.60564830  0.59537889  0.79356941  1
  Zr  Zr81  1  0.29272143  0.88743012  0.70418297  1
  Zr  Zr82  1  0.30222450  0.30542424  0.89792673  1
  Zr  Zr83  1  0.79762646  0.59831888  0.20459933  1
  Zr  Zr84  1  0.89802811  0.51469512  0.89826467  1
  Zr  Zr85  1  0.39294385  0.00703564  0.00149154  1
  Zr  Zr86  1  0.39906173  0.79810623  0.19969217  1
  Zr  Zr87  1  0.10423288  0.70809994  0.70719227  1
  Zr  Zr88  1  0.59400683  0.40706962  0.78964881  1
  Zr  Zr89  1  0.00320935  0.00338387  -0.00158348  1
  Zr  Zr90  1  0.09989309  0.08874186  0.70422509  1
  Zr  Zr91  1  0.90617318  0.70111780  0.08577309  1
  Zr  Zr92  1  0.50477135  0.70518089  0.30368198  1
  Zr  Zr93  1  0.49704560  0.69446828  0.90282900  1
  Zr  Zr94  1  0.70690842  0.10642643  0.49757052  1
  Zr  Zr95  1  0.08941931  0.69698520  0.89368108  1
  Zr  Zr96  1  0.10240689  0.10113848  0.89037539  1
  Zr  Zr97  1  0.30155199  0.68945870  0.70833101  1
  Zr  Zr98  1  0.49571321  0.30108682  0.10130680  1
  Zr  Zr99  1  0.10743427  0.29792024  0.10377232  1
  Ta  Ta100  1  0.10238997  0.70895071  0.49996984  1
  Ta  Ta101  1  0.79507681  0.80479655  0.18546169  1
  Ta  Ta102  1  0.40151053  0.40210109  0.19951958  1
  Ta  Ta103  1  0.19413328  0.59684743  -0.00344882  1
  Ta  Ta104  1  0.39205676  0.80077681  0.59343792  1
  Ta  Ta105  1  0.79607649  0.19509486  0.79703906  1
  Ta  Ta106  1  0.01102008  0.40306501  0.20272953  1
  Ta  Ta107  1  0.00854617  0.40684642  0.00084144  1
  Ta  Ta108  1  0.40044334  0.40588598  0.60703840  1
  Ta  Ta109  1  0.49536904  0.10214470  0.30016408  1
  Ta  Ta110  1  0.08806523  0.09316604  0.49551350  1
  Ta  Ta111  1  0.60399009  0.59626978  0.20298303  1
  Ta  Ta112  1  0.60316047  -0.00105321  0.60463650  1
  Ta  Ta113  1  0.59529413  0.19319040  0.19826160  1
  Ta  Ta114  1  0.60928411  0.59338047  0.40207549  1
  Ta  Ta115  1  0.39424471  0.80114930  0.80937155  1
  Ta  Ta116  1  0.61240130  0.80330886  0.19617715  1
  Ta  Ta117  1  0.29715831  0.70164475  0.50128527  1
  Ta  Ta118  1  0.30285371  0.50296306  0.50680095  1
  Ta  Ta119  1  0.49649656  0.50121955  0.90484133  1
  Ta  Ta120  1  0.49852004  0.09202144  0.49488399  1
  Ta  Ta121  1  0.39869134  0.00679901  0.19534445  1
  Ta  Ta122  1  0.79267564  0.59674735  0.40535575  1
  Ta  Ta123  1  0.69844944  0.50693534  0.90636135  1
  Ta  Ta124  1  0.50264098  0.30716198  0.89803622  1
  Ta  Ta125  1  0.69918896  0.50221132  0.09276290  1
  Ta  Ta126  1  0.90459037  0.89202648  0.09845451  1
  Ta  Ta127  1  0.79114346  0.39677836  0.00005163  1
  Ta  Ta128  1  0.19937023  -0.00214857  0.19670311  1
  Ta  Ta129  1  0.79642301  0.20490570  -0.00589227  1
  Ta  Ta130  1  0.19509136  0.40990124  -0.00022658  1
  Ta  Ta131  1  0.50256810  0.09107278  0.70594319  1
  Ta  Ta132  1  0.11176558  0.30426126  0.70307498  1
  Ta  Ta133  1  0.19474567  0.20353235  0.40493461  1
  Ta  Ta134  1  0.20069439  0.00234454  0.00803544  1
  Ta  Ta135  1  0.29297815  0.30840718  0.70410073  1
  Ta  Ta136  1  0.29622293  0.70791582  0.09024535  1
  Ta  Ta137  1  0.30266221  0.90238456  0.29892734  1
  Ta  Ta138  1  0.59673522  0.19980577  0.40244553  1
  Ta  Ta139  1  0.29650513  0.69812718  0.89807667  1
  Ta  Ta140  1  0.49562731  0.89981846  0.49565431  1
  Ta  Ta141  1  0.09239342  0.89030066  0.70443297  1
  Ta  Ta142  1  0.60194824  0.39964094  -0.00235764  1
  Ta  Ta143  1  0.19572640  0.60624214  0.39710893  1
  Ta  Ta144  1  0.70708642  0.90699978  0.88818349  1
  Ta  Ta145  1  0.89626217  0.70207459  0.71321523  1
  Ta  Ta146  1  0.10145644  0.71487166  0.29840926  1
  Ta  Ta147  1  0.69460657  0.29932173  0.89755681  1
  Ta  Ta148  1  0.49683308  0.50486871  0.50723695  1
  Ta  Ta149  1  0.29782931  0.89678686  0.10197017  1
  Ti  Ti150  1  0.20392589  0.18817440  0.19497865  1
  Ti  Ti151  1  0.10538786  0.29351138  0.29355340  1
  Ti  Ti152  1  0.50344863  0.09293223  0.88909783  1
  Ti  Ti153  1  0.08075147  0.89502358  0.89532433  1
  Ti  Ti154  1  0.49738071  0.30170254  0.69826914  1
  Ti  Ti155  1  0.00978901  0.60276989  0.39714024  1
  Ti  Ti156  1  0.60814209  0.59149173  0.59701650  1
  Ti  Ti157  1  0.59836078  0.19976870  0.79510940  1
  Ti  Ti158  1  0.60386836  0.80667625  0.59951191  1
  Ti  Ti159  1  0.01252192  0.81178678  0.40297752  1
  Ti  Ti160  1  0.80469243  0.77304930  0.43189790  1
  Ti  Ti161  1  0.29769606  0.09342755  0.49221733  1
  Ti  Ti162  1  0.89992344  0.08542759  0.71173234  1
  Ti  Ti163  1  0.50598974  0.50415572  0.09062588  1
  Ti  Ti164  1  -0.00817763  0.79719118  0.60067172  1
  Ti  Ti165  1  0.30012946  0.09870002  0.89164170  1
  Ti  Ti166  1  0.89571323  0.09472883  0.89173653  1
  Ti  Ti167  1  0.89636037  0.90279585  0.88786955  1
  Ti  Ti168  1  0.88380143  0.29397943  0.50208928  1
  Ti  Ti169  1  0.40204781  0.40107504  0.00079179  1
  Ti  Ti170  1  0.19453218  0.40643000  0.19939033  1
  Ti  Ti171  1  0.40223155  0.40656665  0.79281820  1
  Ti  Ti172  1  0.80057656  0.19004987  0.61122787  1
  Ti  Ti173  1  0.70884238  0.88820748  0.30653008  1
  Ti  Ti174  1  0.80657341  0.80211258  -0.01171626  1
  Ti  Ti175  1  0.50205780  0.30401328  0.50708566  1
  Ti  Ti176  1  0.70607913  0.10792655  0.30150786  1
  Ti  Ti177  1  0.48328488  0.51589438  0.69618436  1
  Ti  Ti178  1  -0.01323118  0.80150017  0.80216709  1
  Ti  Ti179  1  -0.00209146  -0.01013814  0.60637014  1
  Ti  Ti180  1  0.30153844  0.30207580  0.10845333  1
  Ti  Ti181  1  0.60139997  0.00177368  0.00387289  1
  Ti  Ti182  1  0.60283754  0.79829708  0.40525464  1
  Ti  Ti183  1  0.00353440  0.20163085  0.19787417  1
  Ti  Ti184  1  0.71834436  0.69176939  0.89743217  1
  Ti  Ti185  1  0.79631132  -0.01150605  0.20115426  1
  Ti  Ti186  1  0.00238649  0.40542831  0.80458597  1
  Ti  Ti187  1  0.29875934  0.29496557  0.28867868  1
  Ti  Ti188  1  0.50341129  0.50120634  0.30192382  1
  Ti  Ti189  1  0.29604412  0.70966737  0.30041431  1
  Ti  Ti190  1  0.39517439  0.60175934  -0.00183215  1
  Ti  Ti191  1  0.79249976  0.39973919  0.19767721  1
  Ti  Ti192  1  0.89774143  0.29666055  0.29489813  1
  Ti  Ti193  1  0.70195315  0.29561961  0.50510686  1
  Ti  Ti194  1  0.00926731  0.59087631  -0.00213070  1
  Ti  Ti195  1  0.00138462  0.21152775  0.40717242  1
  Ti  Ti196  1  0.79090944  0.20984652  0.19202767  1
  Ti  Ti197  1  0.59809034  0.41078312  0.60171621  1
  Ti  Ti198  1  0.79909133  0.00062937  0.39614541  1
  Ti  Ti199  1  0.78502183  0.41435486  0.59527610  1
  Mo  Mo200  1  0.09862163  0.50154885  0.30039953  1
  Mo  Mo201  1  -0.00933732  0.80836058  -0.01167863  1
  Mo  Mo202  1  0.31151192  0.89670671  0.90624996  1
  Mo  Mo203  1  0.10318380  0.29118305  0.50145844  1
  Mo  Mo204  1  0.70262672  0.50546920  0.69300106  1
  Mo  Mo205  1  0.29688083  0.09469758  0.10949149  1
  Mo  Mo206  1  -0.00171951  -0.00322083  0.40189976  1
  Mo  Mo207  1  0.10370699  0.09589803  0.10626627  1
  Mo  Mo208  1  0.40358562  0.60072293  0.80159352  1
  Mo  Mo209  1  0.39932304  0.00135460  0.39674518  1
  Mo  Mo210  1  0.60517093  0.00143064  0.79275060  1
  Mo  Mo211  1  0.08957662  0.89612810  0.51009293  1
  Mo  Mo212  1  0.92270363  0.69920848  0.49384912  1
  Mo  Mo213  1  0.80333239  0.80401367  0.80321371  1
  Mo  Mo214  1  0.81048140  0.79783466  0.60600935  1
  Mo  Mo215  1  0.39740057  0.59947116  0.59620568  1
  Mo  Mo216  1  0.89735311  0.70350657  0.89776510  1
  Mo  Mo217  1  -0.00651177  -0.00983357  0.79723975  1
  Mo  Mo218  1  0.10116266  0.89620360  0.29612908  1
  Mo  Mo219  1  -0.00485751  0.79995609  0.20549505  1
  Mo  Mo220  1  0.39609859  0.20051722  0.20372382  1
  Mo  Mo221  1  0.20533065  0.40222375  0.60597070  1
  Mo  Mo222  1  0.70082310  0.50315049  0.29897973  1
  Mo  Mo223  1  0.20480452  0.80413465  0.20651172  1
  Mo  Mo224  1  0.20208459  0.60070694  0.80572911  1
  Mo  Mo225  1  0.40138740  -0.00028176  0.80461238  1
  Mo  Mo226  1  0.10163624  0.49723047  0.09766159  1
  Mo  Mo227  1  0.69387905  0.10149784  0.70422351  1
  Mo  Mo228  1  0.80110781  0.20843178  0.40081301  1
  Mo  Mo229  1  0.39379857  0.80240728  0.40392345  1
  Mo  Mo230  1  0.39217181  0.79921541  -0.00226869  1
  Mo  Mo231  1  -0.00369833  0.60349488  0.80146952  1
  Mo  Mo232  1  0.79917026  0.59634781  -0.00321852  1
  Mo  Mo233  1  0.79810907  0.60493079  0.80063645  1
  Mo  Mo234  1  0.60125162  0.59301253  -0.00151331  1
  Mo  Mo235  1  0.90059416  0.89030261  0.70390420  1
  Mo  Mo236  1  0.20503072  0.20375740  0.79560871  1
  Mo  Mo237  1  0.70212417  0.30120167  0.09388937  1
  Mo  Mo238  1  0.20429748  0.40246182  0.80230120  1
  Mo  Mo239  1  0.50201201  0.09637933  0.10943565  1
  Mo  Mo240  1  0.70752525  0.89646364  0.09002462  1
  Mo  Mo241  1  0.19841635  0.80017920  0.80448383  1
  Mo  Mo242  1  0.30875489  0.89359918  0.49343753  1
  Mo  Mo243  1  0.19746850  0.79709445  0.59573839  1
  Mo  Mo244  1  0.69418206  0.50061557  0.50249255  1
  Mo  Mo245  1  0.09976603  0.50186838  0.90123765  1
  Mo  Mo246  1  0.70222397  0.89852791  0.70180165  1
  Mo  Mo247  1  0.30427905  0.49586984  0.70028899  1
  Mo  Mo248  1  0.80203985  0.00000441  0.79911307  1
  Mo  Mo249  1  0.68581193  0.69945681  0.50148429  1
