# generated using pymatgen
data_HfZrTaTiMo
_symmetry_space_group_name_H-M   'P 1'
_cell_length_a   16.87028983
_cell_length_b   16.88197120
_cell_length_c   16.89512283
_cell_angle_alpha   90.01357280
_cell_angle_beta   90.00079376
_cell_angle_gamma   90.02752546
_symmetry_Int_Tables_number   1
_chemical_formula_structural   HfZrTaTiMo
_chemical_formula_sum   'Hf50 Zr50 Ta50 Ti50 Mo50'
_cell_volume   4811.79359833
_cell_formula_units_Z   50
loop_
 _symmetry_equiv_pos_site_id
 _symmetry_equiv_pos_as_xyz
  1  'x, y, z'
loop_
 _atom_site_type_symbol
 _atom_site_label
 _atom_site_symmetry_multiplicity
 _atom_site_fract_x
 _atom_site_fract_y
 _atom_site_fract_z
 _atom_site_occupancy
  Hf  Hf0  1  0.80094823  0.80434025  0.39243231  1
  Hf  Hf1  1  0.09958288  0.30418062  0.29634535  1
  Hf  Hf2  1  0.59786591  0.20008234  0.19734610  1
  Hf  Hf3  1  0.21107697  0.60535031  0.81256143  1
  Hf  Hf4  1  0.29672555  0.90302394  0.30330625  1
  Hf  Hf5  1  0.69925092  0.50004747  0.50002519  1
  Hf  Hf6  1  0.49667910  0.49150905  0.30619141  1
  Hf  Hf7  1  0.59436803  0.38756664  0.59833902  1
  Hf  Hf8  1  0.40850617  0.60029220  0.18716678  1
  Hf  Hf9  1  0.79290737  0.79568520  0.61170514  1
  Hf  Hf10  1  0.10164402  0.29478697  0.50214065  1
  Hf  Hf11  1  0.09324109  0.70255554  0.90057730  1
  Hf  Hf12  1  0.30694701  0.31903123  0.92350205  1
  Hf  Hf13  1  0.68915383  0.90397939  0.29487386  1
  Hf  Hf14  1  0.09071489  0.88885933  0.49984949  1
  Hf  Hf15  1  0.79019857  0.20033008  0.19923803  1
  Hf  Hf16  1  0.00205719  0.00028747  0.80239158  1
  Hf  Hf17  1  0.60424619  0.39891519  0.20348360  1
  Hf  Hf18  1  0.39541229  0.39429845  0.78683012  1
  Hf  Hf19  1  0.20153356  0.19941446  0.40189233  1
  Hf  Hf20  1  0.79721465  0.19024656  0.00366932  1
  Hf  Hf21  1  0.89763563  0.29362440  0.71182290  1
  Hf  Hf22  1  0.90670530  0.70275005  0.71163576  1
  Hf  Hf23  1  0.29393434  0.49271369  0.09267966  1
  Hf  Hf24  1  0.00387457  -0.00245267  0.60700557  1
  Hf  Hf25  1  0.39880911  0.80043725  0.19331946  1
  Hf  Hf26  1  0.39961754  0.39615566  0.60044150  1
  Hf  Hf27  1  0.89685319  0.30567968  0.10024423  1
  Hf  Hf28  1  0.29221773  0.49997995  0.28659676  1
  Hf  Hf29  1  0.30420341  0.09257959  0.30278423  1
  Hf  Hf30  1  0.11343717  0.10381100  0.68988507  1
  Hf  Hf31  1  -0.00425120  -0.00788843  0.39260191  1
  Hf  Hf32  1  0.21211504  0.40281095  0.60083244  1
  Hf  Hf33  1  0.79051006  0.00851425  0.60859391  1
  Hf  Hf34  1  0.70716787  0.89737786  0.90338310  1
  Hf  Hf35  1  0.50214362  0.90111672  0.89951637  1
  Hf  Hf36  1  0.50998868  0.90385510  0.70256824  1
  Hf  Hf37  1  0.79745969  0.59240084  0.20153899  1
  Hf  Hf38  1  0.80092092  0.39774938  0.39398313  1
  Hf  Hf39  1  0.40807661  0.19915981  0.20095085  1
  Hf  Hf40  1  0.90784753  0.51089621  0.89557648  1
  Hf  Hf41  1  0.60358834  0.19641627  0.40030996  1
  Hf  Hf42  1  0.79746490  0.40728815  0.80602138  1
  Hf  Hf43  1  0.10244345  0.31044958  0.09951557  1
  Hf  Hf44  1  0.40241580  0.80184076  0.59733811  1
  Hf  Hf45  1  0.90636038  0.70413490  0.29536724  1
  Hf  Hf46  1  0.39508097  0.00038853  0.79365666  1
  Hf  Hf47  1  0.20396053  0.40646167  0.40368792  1
  Hf  Hf48  1  0.00832578  0.60842728  0.59660783  1
  Hf  Hf49  1  0.39246662  0.79837479  0.40845256  1
  Zr  Zr50  1  0.89833121  0.10612020  0.29329195  1
  Zr  Zr51  1  0.21008397  0.40208247  0.80229815  1
  Zr  Zr52  1  0.30036264  0.10419872  0.50486418  1
  Zr  Zr53  1  0.19207388  0.80471207  -0.00052754  1
  Zr  Zr54  1  0.30187641  0.09570116  0.90624403  1
  Zr  Zr55  1  -0.00370803  0.41451471  0.20929066  1
  Zr  Zr56  1  0.69639977  0.50074744  0.70395555  1
  Zr  Zr57  1  0.79352405  0.80579105  0.19398070  1
  Zr  Zr58  1  0.89837598  0.09785755  0.49275496  1
  Zr  Zr59  1  0.50395923  0.90161327  0.30205488  1
  Zr  Zr60  1  0.19463587  -0.00822136  0.79608121  1
  Zr  Zr61  1  0.49986490  0.48615310  0.90662419  1
  Zr  Zr62  1  0.69270646  0.90425077  0.49838299  1
  Zr  Zr63  1  0.60910871  0.78450803  0.79958877  1
  Zr  Zr64  1  0.38945188  0.60053866  0.40581657  1
  Zr  Zr65  1  0.20926160  0.20324949  0.19947398  1
  Zr  Zr66  1  0.40711618  0.20023974  0.01684277  1
  Zr  Zr67  1  0.60052700  0.19386947  0.59499073  1
  Zr  Zr68  1  0.78948093  0.59943253  -0.00686086  1
  Zr  Zr69  1  0.09989692  0.10009379  0.29885485  1
  Zr  Zr70  1  0.20005740  0.60314974  0.41126455  1
  Zr  Zr71  1  0.79088241  0.19872694  0.58885544  1
  Zr  Zr72  1  0.29982098  0.08780958  0.09410078  1
  Zr  Zr73  1  0.19689772  0.79927654  0.59757451  1
  Zr  Zr74  1  0.09639078  0.51115974  0.70906195  1
  Zr  Zr75  1  0.49866660  0.09298285  0.90527660  1
  Zr  Zr76  1  0.70018441  0.29238048  0.71058111  1
  Zr  Zr77  1  -0.00608298  0.40110341  0.59784967  1
  Zr  Zr78  1  0.50213275  0.29836541  0.90389743  1
  Zr  Zr79  1  0.60331292  0.59933829  0.39820021  1
  Zr  Zr80  1  -0.00535967  -0.00748594  0.19386891  1
  Zr  Zr81  1  0.89858277  0.89602069  0.50384969  1
  Zr  Zr82  1  0.40310772  0.78690399  -0.00227882  1
  Zr  Zr83  1  0.10377023  0.49569479  0.90900639  1
  Zr  Zr84  1  0.80277911  0.39265065  0.59307972  1
  Zr  Zr85  1  0.00451287  0.58791013  0.39211315  1
  Zr  Zr86  1  0.40365095  -0.00127303  0.59818720  1
  Zr  Zr87  1  0.10287942  0.09509997  0.09603949  1
  Zr  Zr88  1  0.59005005  0.60702565  0.00193779  1
  Zr  Zr89  1  0.60091750  0.60547105  0.60565857  1
  Zr  Zr90  1  0.40585489  0.60613679  0.81196396  1
  Zr  Zr91  1  0.29924278  0.70566502  0.70403921  1
  Zr  Zr92  1  0.10383234  0.69912110  0.29332596  1
  Zr  Zr93  1  0.89722312  0.29977080  0.90301068  1
  Zr  Zr94  1  -0.00666972  0.19700398  0.59633021  1
  Zr  Zr95  1  0.91481457  0.71123042  0.49688098  1
  Zr  Zr96  1  0.50456526  0.70146663  0.29921143  1
  Zr  Zr97  1  0.20983449  0.20843752  0.80491097  1
  Zr  Zr98  1  0.10318919  0.29863668  0.70082208  1
  Zr  Zr99  1  0.90059066  0.70288837  0.09060935  1
  Ta  Ta100  1  0.40627317  -0.00083272  0.19495435  1
  Ta  Ta101  1  0.20103987  0.79377032  0.40389924  1
  Ta  Ta102  1  0.89688136  0.89547644  0.08827889  1
  Ta  Ta103  1  0.50192157  0.90449291  0.09256267  1
  Ta  Ta104  1  0.89562211  0.89845658  0.71057929  1
  Ta  Ta105  1  0.60259544  0.79659926  0.00142248  1
  Ta  Ta106  1  0.29765160  0.89841736  0.90163027  1
  Ta  Ta107  1  0.49971324  0.50179839  0.69936377  1
  Ta  Ta108  1  0.50137210  0.10426959  0.69894126  1
  Ta  Ta109  1  -0.00013689  -0.00649670  -0.00359833  1
  Ta  Ta110  1  0.09987465  0.70783431  0.70808202  1
  Ta  Ta111  1  0.79855786  -0.00159244  0.19146038  1
  Ta  Ta112  1  0.90180411  0.50958776  0.70501990  1
  Ta  Ta113  1  0.39712302  0.59955180  -0.00157874  1
  Ta  Ta114  1  0.49526319  0.49277974  0.49757619  1
  Ta  Ta115  1  0.29012203  0.69424678  0.10160125  1
  Ta  Ta116  1  0.00579425  0.19532166  0.81021886  1
  Ta  Ta117  1  0.90106579  0.09556879  0.90196192  1
  Ta  Ta118  1  0.40394391  0.39584269  0.19770014  1
  Ta  Ta119  1  0.00449749  0.80712190  0.19132870  1
  Ta  Ta120  1  0.40029438  0.59992376  0.59489284  1
  Ta  Ta121  1  0.00276306  0.60029435  0.00629442  1
  Ta  Ta122  1  0.49490732  0.30097954  0.30796134  1
  Ta  Ta123  1  0.50388710  0.70074711  0.50279318  1
  Ta  Ta124  1  0.69271688  0.29945888  0.90637923  1
  Ta  Ta125  1  0.00757835  0.81334068  0.80645021  1
  Ta  Ta126  1  0.19453190  0.20868322  -0.00261088  1
  Ta  Ta127  1  0.00162421  0.59515746  0.19441736  1
  Ta  Ta128  1  0.60082472  0.19276130  0.80438103  1
  Ta  Ta129  1  0.80195697  0.60114559  0.39848156  1
  Ta  Ta130  1  0.80144096  0.00170415  0.00316161  1
  Ta  Ta131  1  -0.00523151  0.40183553  0.39991469  1
  Ta  Ta132  1  0.89790677  0.49886226  0.09496782  1
  Ta  Ta133  1  0.60252868  0.79693849  0.60296231  1
  Ta  Ta134  1  0.48921031  0.29380905  0.48971619  1
  Ta  Ta135  1  0.89788036  0.50403420  0.49918363  1
  Ta  Ta136  1  0.89915896  0.29855107  0.29797102  1
  Ta  Ta137  1  0.70267153  0.70108068  0.49935142  1
  Ta  Ta138  1  -0.00060987  0.19549146  -0.00049620  1
  Ta  Ta139  1  0.78952105  0.20661450  0.39715040  1
  Ta  Ta140  1  0.40909843  0.00189453  0.40607816  1
  Ta  Ta141  1  0.59781577  0.79719865  0.18382853  1
  Ta  Ta142  1  0.60523547  0.19300082  0.00609713  1
  Ta  Ta143  1  0.89829860  0.71063349  0.90017404  1
  Ta  Ta144  1  0.10308376  0.09746177  0.90654484  1
  Ta  Ta145  1  0.19847050  0.80396683  0.19309111  1
  Ta  Ta146  1  0.79020209  0.61163440  0.80041787  1
  Ta  Ta147  1  0.80415921  0.60425291  0.60005625  1
  Ta  Ta148  1  0.19771308  -0.01462718  0.19362838  1
  Ta  Ta149  1  0.79634775  0.00176392  0.38870565  1
  Ti  Ti150  1  0.59501086  0.00176982  0.19223681  1
  Ti  Ti151  1  0.70098995  0.90181906  0.70794180  1
  Ti  Ti152  1  0.09995128  0.49805727  0.50410896  1
  Ti  Ti153  1  0.70162641  0.70491672  0.09403772  1
  Ti  Ti154  1  0.60575156  0.00051895  0.00451007  1
  Ti  Ti155  1  0.60068882  0.79594549  0.40427089  1
  Ti  Ti156  1  0.20412184  0.60564778  0.59337312  1
  Ti  Ti157  1  0.29631461  0.31166562  0.10413493  1
  Ti  Ti158  1  0.30919277  0.29362571  0.49780239  1
  Ti  Ti159  1  0.69861714  0.50056664  0.30126677  1
  Ti  Ti160  1  0.19065051  -0.00000382  0.40700329  1
  Ti  Ti161  1  0.69700814  0.09116526  0.10089951  1
  Ti  Ti162  1  0.68805447  0.49431146  0.89973262  1
  Ti  Ti163  1  0.30494490  0.51285963  0.69655416  1
  Ti  Ti164  1  0.29207880  0.90779879  0.50083851  1
  Ti  Ti165  1  -0.00509967  0.19873712  0.18947903  1
  Ti  Ti166  1  0.89669535  0.89460238  0.90221281  1
  Ti  Ti167  1  0.30176383  0.90328542  0.09161874  1
  Ti  Ti168  1  0.50757753  0.31278956  0.09503315  1
  Ti  Ti169  1  0.78886660  0.18515417  0.81079448  1
  Ti  Ti170  1  0.00165340  0.40146568  0.00008537  1
  Ti  Ti171  1  0.60354230  0.01018604  0.59734251  1
  Ti  Ti172  1  0.40280271  0.20558640  0.78990936  1
  Ti  Ti173  1  0.69924571  0.30676283  0.09414302  1
  Ti  Ti174  1  0.00343416  0.39536145  0.80484434  1
  Ti  Ti175  1  0.79497923  0.40477483  -0.00298639  1
  Ti  Ti176  1  0.10879993  0.50164818  0.10663895  1
  Ti  Ti177  1  0.39723606  0.79739009  0.80543439  1
  Ti  Ti178  1  0.60698330  0.38903101  0.40107783  1
  Ti  Ti179  1  0.69459948  0.49393103  0.09537384  1
  Ti  Ti180  1  0.60179301  0.60562974  0.80476693  1
  Ti  Ti181  1  0.89653555  0.10267041  0.70972200  1
  Ti  Ti182  1  0.50002495  0.09647754  0.30577838  1
  Ti  Ti183  1  0.20278086  0.60188590  -0.00201419  1
  Ti  Ti184  1  0.59257540  0.39083242  0.79352198  1
  Ti  Ti185  1  -0.00392638  0.20381361  0.40247561  1
  Ti  Ti186  1  0.49822863  0.69882751  0.70077760  1
  Ti  Ti187  1  0.61084386  0.01124474  0.80019137  1
  Ti  Ti188  1  0.09900769  0.69921901  0.09910960  1
  Ti  Ti189  1  0.69402393  0.09217989  0.29866895  1
  Ti  Ti190  1  0.29318275  0.69897364  0.28940836  1
  Ti  Ti191  1  0.10249336  0.89332374  0.30008699  1
  Ti  Ti192  1  0.29139906  0.89752781  0.69998334  1
  Ti  Ti193  1  0.30022978  0.10773378  0.68896967  1
  Ti  Ti194  1  0.79617387  0.40263505  0.20467680  1
  Ti  Ti195  1  0.60038277  0.60035525  0.19179500  1
  Ti  Ti196  1  0.79666545  0.00568516  0.80471173  1
  Ti  Ti197  1  0.31030299  0.30557310  0.30621741  1
  Ti  Ti198  1  0.69629557  0.70067522  0.29753486  1
  Ti  Ti199  1  0.50980919  0.90364235  0.49872303  1
  Mo  Mo200  1  -0.00398229  0.80171111  -0.00079665  1
  Mo  Mo201  1  0.20726008  0.20264445  0.59513289  1
  Mo  Mo202  1  0.19447963  0.60392409  0.19003445  1
  Mo  Mo203  1  0.39959180  -0.01232225  0.00145513  1
  Mo  Mo204  1  0.40336320  0.19772521  0.39684524  1
  Mo  Mo205  1  0.41041535  0.40589513  0.01726790  1
  Mo  Mo206  1  0.90221912  0.30086420  0.48342130  1
  Mo  Mo207  1  0.89934368  0.09539035  0.09262305  1
  Mo  Mo208  1  0.79599512  0.80427563  -0.00363369  1
  Mo  Mo209  1  0.09570600  0.29609286  0.90713765  1
  Mo  Mo210  1  0.00547227  0.80335328  0.37838014  1
  Mo  Mo211  1  0.30270228  0.70183893  0.50551364  1
  Mo  Mo212  1  0.49842981  0.29196374  0.70213154  1
  Mo  Mo213  1  0.70463702  0.69824777  0.70008058  1
  Mo  Mo214  1  0.09710190  0.89749974  0.70109275  1
  Mo  Mo215  1  0.69937988  0.09426997  0.48691498  1
  Mo  Mo216  1  0.09557077  0.89679665  0.09736265  1
  Mo  Mo217  1  0.30458269  0.28347327  0.68505404  1
  Mo  Mo218  1  0.60855371  0.39729438  0.00772509  1
  Mo  Mo219  1  0.69789138  0.30103413  0.29505327  1
  Mo  Mo220  1  0.70079399  0.09625609  0.90389220  1
  Mo  Mo221  1  0.50135869  0.70165644  0.89990584  1
  Mo  Mo222  1  0.89349575  0.50272505  0.29795305  1
  Mo  Mo223  1  0.10344952  0.70393928  0.50142220  1
  Mo  Mo224  1  0.89540694  0.90018353  0.28785518  1
  Mo  Mo225  1  0.59869612  0.00732611  0.40075792  1
  Mo  Mo226  1  0.19344358  0.40024231  0.00514397  1
  Mo  Mo227  1  0.70325269  0.70188943  0.90109479  1
  Mo  Mo228  1  0.20037735  0.80370303  0.80274602  1
  Mo  Mo229  1  0.19628693  -0.00614719  -0.00195908  1
  Mo  Mo230  1  0.69560170  0.30015010  0.49041156  1
  Mo  Mo231  1  0.30371045  0.50298274  0.91046302  1
  Mo  Mo232  1  0.80468790  0.80469559  0.80324730  1
  Mo  Mo233  1  0.30192703  0.50221500  0.50836460  1
  Mo  Mo234  1  0.50725034  0.08952156  0.10227086  1
  Mo  Mo235  1  0.19989305  -0.00285307  0.59607053  1
  Mo  Mo236  1  0.69472690  0.90585677  0.09612133  1
  Mo  Mo237  1  0.10368593  0.09352308  0.49809333  1
  Mo  Mo238  1  0.50066439  0.09750275  0.49922897  1
  Mo  Mo239  1  0.20371884  0.40056130  0.20422813  1
  Mo  Mo240  1  0.10312450  0.49896393  0.29543749  1
  Mo  Mo241  1  0.39519605  0.39672382  0.40094228  1
  Mo  Mo242  1  -0.00208290  0.60910521  0.80592652  1
  Mo  Mo243  1  0.00196664  0.80406743  0.62088943  1
  Mo  Mo244  1  0.50211446  0.49739449  0.10513055  1
  Mo  Mo245  1  0.09855851  0.90309377  0.90375250  1
  Mo  Mo246  1  0.50140764  0.70082062  0.09847698  1
  Mo  Mo247  1  0.29746346  0.70429413  0.90747771  1
  Mo  Mo248  1  0.40576648  0.20125800  0.60073486  1
  Mo  Mo249  1  0.69686347  0.09533477  0.70893881  1
