# generated using pymatgen
data_HfZrTaTiMo
_symmetry_space_group_name_H-M   'P 1'
_cell_length_a   16.88245095
_cell_length_b   16.88633325
_cell_length_c   16.88655056
_cell_angle_alpha   90.02724280
_cell_angle_beta   89.95771840
_cell_angle_gamma   89.97322314
_symmetry_Int_Tables_number   1
_chemical_formula_structural   HfZrTaTiMo
_chemical_formula_sum   'Hf50 Zr50 Ta50 Ti50 Mo50'
_cell_volume   4814.06092618
_cell_formula_units_Z   50
loop_
 _symmetry_equiv_pos_site_id
 _symmetry_equiv_pos_as_xyz
  1  'x, y, z'
loop_
 _atom_site_type_symbol
 _atom_site_label
 _atom_site_symmetry_multiplicity
 _atom_site_fract_x
 _atom_site_fract_y
 _atom_site_fract_z
 _atom_site_occupancy
  Hf  Hf0  1  0.20226920  0.78717143  0.59241211  1
  Hf  Hf1  1  0.70377266  0.89231891  0.50100306  1
  Hf  Hf2  1  0.29456597  0.68782156  0.70385834  1
  Hf  Hf3  1  0.10476134  0.50003916  0.69036341  1
  Hf  Hf4  1  0.49529198  0.29948472  0.91063896  1
  Hf  Hf5  1  0.29507080  0.49699994  0.50265276  1
  Hf  Hf6  1  0.01084048  0.40762256  0.20813539  1
  Hf  Hf7  1  0.10098802  0.89526356  0.49616065  1
  Hf  Hf8  1  0.69462619  0.89654194  0.29229147  1
  Hf  Hf9  1  -0.01105611  0.59661093  0.81035097  1
  Hf  Hf10  1  0.09808305  0.89442313  0.10241855  1
  Hf  Hf11  1  0.90474712  0.49206423  0.49171368  1
  Hf  Hf12  1  0.39933279  0.40108059  0.80055341  1
  Hf  Hf13  1  0.49676423  0.29688265  0.09687614  1
  Hf  Hf14  1  0.10729208  0.10423158  0.70278181  1
  Hf  Hf15  1  0.40255226  -0.00059801  0.40257979  1
  Hf  Hf16  1  0.58915920  0.59662832  0.20423130  1
  Hf  Hf17  1  0.38798319  0.20913971  0.80343181  1
  Hf  Hf18  1  0.29875736  0.89685439  0.29302765  1
  Hf  Hf19  1  0.30197469  0.30309381  0.29379478  1
  Hf  Hf20  1  0.39751019  0.19869562  0.40413898  1
  Hf  Hf21  1  0.50612539  0.29093375  0.29797663  1
  Hf  Hf22  1  0.00176218  0.01138901  0.00557983  1
  Hf  Hf23  1  0.40209464  0.59118931  0.38692464  1
  Hf  Hf24  1  0.10249619  0.29500421  0.90627355  1
  Hf  Hf25  1  0.40209334  0.59798261  0.59238555  1
  Hf  Hf26  1  0.40140190  0.39961455  0.40637272  1
  Hf  Hf27  1  0.59784504  0.40318813  0.79732804  1
  Hf  Hf28  1  0.49259768  0.09992424  0.71069147  1
  Hf  Hf29  1  0.79241538  0.40533051  0.80131228  1
  Hf  Hf30  1  0.29979990  0.70083867  0.10794595  1
  Hf  Hf31  1  0.50868919  0.09597799  0.28986882  1
  Hf  Hf32  1  0.39447396  0.20241209  0.59394320  1
  Hf  Hf33  1  0.78651294  0.20613504  0.00650560  1
  Hf  Hf34  1  -0.00315480  -0.00034528  0.39756146  1
  Hf  Hf35  1  0.30886687  0.09890669  0.09776348  1
  Hf  Hf36  1  0.59836658  0.80464044  0.00413860  1
  Hf  Hf37  1  0.10534762  0.89854220  0.70259628  1
  Hf  Hf38  1  0.50036207  0.89667527  0.70060665  1
  Hf  Hf39  1  0.10089251  0.69869304  0.10639091  1
  Hf  Hf40  1  0.50343004  0.89702386  0.29601604  1
  Hf  Hf41  1  0.21135601  0.80968107  -0.00110276  1
  Hf  Hf42  1  -0.00004201  0.40642759  0.80625782  1
  Hf  Hf43  1  0.60606605  0.40206255  0.19926991  1
  Hf  Hf44  1  0.20288965  0.39757914  0.81016086  1
  Hf  Hf45  1  0.89457636  0.90001385  0.69689748  1
  Hf  Hf46  1  0.69492575  0.51111387  0.08582747  1
  Hf  Hf47  1  0.79517556  0.60010443  0.39238803  1
  Hf  Hf48  1  0.90634967  0.51202312  0.09966678  1
  Hf  Hf49  1  0.91033581  0.70242870  0.09176036  1
  Zr  Zr50  1  0.30407412  0.69865538  0.29393755  1
  Zr  Zr51  1  -0.00091448  0.78510985  0.59970071  1
  Zr  Zr52  1  0.89619701  0.50390258  0.69145475  1
  Zr  Zr53  1  0.79865876  0.59982391  0.20592683  1
  Zr  Zr54  1  0.29944736  0.09873228  0.90474160  1
  Zr  Zr55  1  0.90206976  0.89690985  0.90766884  1
  Zr  Zr56  1  0.29625542  0.69634322  0.90039636  1
  Zr  Zr57  1  0.80065551  -0.00102164  0.39220271  1
  Zr  Zr58  1  0.30171561  0.09406486  0.29687668  1
  Zr  Zr59  1  0.77878934  0.40198749  0.59155165  1
  Zr  Zr60  1  0.69977415  0.67890697  0.71186953  1
  Zr  Zr61  1  0.49863246  0.10415076  0.91086456  1
  Zr  Zr62  1  0.60850450  0.78772847  0.59953520  1
  Zr  Zr63  1  0.60512073  0.00248308  0.60228263  1
  Zr  Zr64  1  0.60040257  0.79480180  0.80557222  1
  Zr  Zr65  1  0.79967433  0.19962525  0.19667302  1
  Zr  Zr66  1  0.70007246  0.70372300  0.09957970  1
  Zr  Zr67  1  0.40837227  0.59459990  0.80535216  1
  Zr  Zr68  1  0.09921586  0.30014274  0.69437274  1
  Zr  Zr69  1  0.00350488  0.41136480  -0.00777680  1
  Zr  Zr70  1  0.90297310  0.30641429  0.30819370  1
  Zr  Zr71  1  0.50832603  0.69758414  0.48774201  1
  Zr  Zr72  1  0.00203149  0.19442552  0.00608458  1
  Zr  Zr73  1  0.40617808  0.42551402  0.21023929  1
  Zr  Zr74  1  0.68803582  0.10149072  0.90796145  1
  Zr  Zr75  1  0.79653116  0.40147803  -0.00474549  1
  Zr  Zr76  1  0.70310019  0.90363337  0.90239435  1
  Zr  Zr77  1  0.89013543  0.89768382  0.50871166  1
  Zr  Zr78  1  0.79270592  0.20237176  0.60086983  1
  Zr  Zr79  1  0.90411223  0.30505962  0.69470133  1
  Zr  Zr80  1  0.40742664  0.60489543  0.00507833  1
  Zr  Zr81  1  0.29324369  0.30684723  0.68317596  1
  Zr  Zr82  1  0.90381887  0.30580806  0.49501182  1
  Zr  Zr83  1  0.50499551  0.91569345  0.89938475  1
  Zr  Zr84  1  -0.00503530  0.79031483  0.79732541  1
  Zr  Zr85  1  0.39597648  -0.00282541  0.59822053  1
  Zr  Zr86  1  0.19730537  0.20134325  0.19679891  1
  Zr  Zr87  1  0.39378365  0.79664787  0.59769823  1
  Zr  Zr88  1  0.10395917  0.89703639  0.29935392  1
  Zr  Zr89  1  0.10134206  0.90229491  0.89982214  1
  Zr  Zr90  1  0.60034191  0.20135281  0.60385070  1
  Zr  Zr91  1  0.09416190  0.69868273  0.91308789  1
  Zr  Zr92  1  0.79963135  0.00688426  0.79775628  1
  Zr  Zr93  1  0.89477343  0.89648620  0.10402119  1
  Zr  Zr94  1  0.00470583  0.00658243  0.60120063  1
  Zr  Zr95  1  0.67698758  0.49652852  0.47270323  1
  Zr  Zr96  1  0.79106408  0.59947216  0.58945352  1
  Zr  Zr97  1  0.10253270  0.69579007  0.29620084  1
  Zr  Zr98  1  0.90484575  0.30732720  0.10340998  1
  Zr  Zr99  1  0.30434468  0.49161342  0.91414702  1
  Ta  Ta100  1  0.20358542  0.78895183  0.40581313  1
  Ta  Ta101  1  0.71506161  0.89302986  0.69309053  1
  Ta  Ta102  1  0.79301381  0.40641423  0.20293372  1
  Ta  Ta103  1  0.68745935  0.70700733  0.30112364  1
  Ta  Ta104  1  0.79497120  0.00860377  0.01529547  1
  Ta  Ta105  1  0.19943665  0.20338127  0.40230400  1
  Ta  Ta106  1  0.90047574  0.10463237  0.30066853  1
  Ta  Ta107  1  0.50154885  0.90530092  0.10537657  1
  Ta  Ta108  1  -0.00415839  0.80056013  0.20682078  1
  Ta  Ta109  1  0.50051731  0.30424934  0.50291328  1
  Ta  Ta110  1  0.00449314  0.19405466  0.19872025  1
  Ta  Ta111  1  0.50023389  0.69346625  0.70662859  1
  Ta  Ta112  1  0.30577214  0.30687782  0.09361006  1
  Ta  Ta113  1  0.29230737  0.09903936  0.69878133  1
  Ta  Ta114  1  0.89870579  0.10517746  0.69886748  1
  Ta  Ta115  1  0.29513176  0.49851469  0.69170239  1
  Ta  Ta116  1  0.89389436  0.10575999  0.90262389  1
  Ta  Ta117  1  0.00849494  0.60038371  0.58860937  1
  Ta  Ta118  1  0.60437825  0.20740707  0.79948524  1
  Ta  Ta119  1  0.09900718  0.10030474  0.30220121  1
  Ta  Ta120  1  0.69649803  0.10338047  0.29917693  1
  Ta  Ta121  1  0.50656022  0.89439463  0.49191265  1
  Ta  Ta122  1  0.00093389  0.01268594  0.80530550  1
  Ta  Ta123  1  0.69235227  0.51366706  0.89564137  1
  Ta  Ta124  1  0.10640281  0.30448376  0.10224444  1
  Ta  Ta125  1  0.19381109  0.00389606  0.19327078  1
  Ta  Ta126  1  0.80089834  0.78967198  0.39767854  1
  Ta  Ta127  1  0.89641524  0.10432099  0.50009099  1
  Ta  Ta128  1  0.29216716  0.09937007  0.50021689  1
  Ta  Ta129  1  0.10623790  0.68721226  0.70071089  1
  Ta  Ta130  1  0.40382079  0.80723736  -0.00339024  1
  Ta  Ta131  1  -0.00283899  0.19532538  0.80357150  1
  Ta  Ta132  1  0.89608336  0.29623052  0.89616243  1
  Ta  Ta133  1  0.30549386  0.90609036  0.10474503  1
  Ta  Ta134  1  -0.00571084  0.79138010  0.40023450  1
  Ta  Ta135  1  0.20620667  0.58455661  0.20673655  1
  Ta  Ta136  1  0.39700603  0.80145865  0.80783638  1
  Ta  Ta137  1  0.20250748  -0.00070943  0.59665341  1
  Ta  Ta138  1  0.09778301  0.30113837  0.49443857  1
  Ta  Ta139  1  0.59308640  0.40353786  0.59759255  1
  Ta  Ta140  1  0.00313081  0.19868101  0.59435431  1
  Ta  Ta141  1  0.79522121  0.20164830  0.40029497  1
  Ta  Ta142  1  0.19970104  0.40579932  0.20179120  1
  Ta  Ta143  1  -0.00323799  0.00901862  0.19919904  1
  Ta  Ta144  1  0.09993440  0.50781060  0.10217361  1
  Ta  Ta145  1  0.79360971  0.20375797  0.80012683  1
  Ta  Ta146  1  0.80562013  0.78233367  0.80122772  1
  Ta  Ta147  1  0.70385829  0.09780007  0.49693582  1
  Ta  Ta148  1  0.69917560  0.30070501  0.30336885  1
  Ta  Ta149  1  0.49942681  0.70496428  0.10499817  1
  Ti  Ti150  1  0.79659818  0.79877746  -0.00397541  1
  Ti  Ti151  1  0.19204471  0.39952074  0.58242289  1
  Ti  Ti152  1  0.19986409  0.40162315  0.00718301  1
  Ti  Ti153  1  0.50367169  0.09889536  0.49979254  1
  Ti  Ti154  1  0.40438193  -0.00362495  0.00669313  1
  Ti  Ti155  1  0.52879232  0.49450945  0.32802326  1
  Ti  Ti156  1  0.19668877  0.00436262  0.00162275  1
  Ti  Ti157  1  0.69479419  0.68963811  0.90213312  1
  Ti  Ti158  1  0.79965534  0.79743754  0.20369577  1
  Ti  Ti159  1  0.90362232  0.50026976  0.30341842  1
  Ti  Ti160  1  0.38686603  -0.00658499  0.80294645  1
  Ti  Ti161  1  0.81244148  0.60370098  -0.01754166  1
  Ti  Ti162  1  0.29710481  0.90004014  0.49557471  1
  Ti  Ti163  1  0.39401563  0.79682410  0.40454680  1
  Ti  Ti164  1  0.10241294  0.10207232  0.49547005  1
  Ti  Ti165  1  0.59911387  0.59275928  0.59533513  1
  Ti  Ti166  1  0.00679718  0.59992791  0.40064948  1
  Ti  Ti167  1  0.50045707  0.50193958  0.69342433  1
  Ti  Ti168  1  0.02038660  0.41083699  0.39811224  1
  Ti  Ti169  1  0.40353323  0.80296447  0.19321128  1
  Ti  Ti170  1  0.89737300  0.69666703  0.49819409  1
  Ti  Ti171  1  0.19770207  0.59176277  0.00459959  1
  Ti  Ti172  1  0.19642614  0.59736317  0.40574720  1
  Ti  Ti173  1  0.20163867  0.20078462  0.80851113  1
  Ti  Ti174  1  0.60527141  0.19921719  0.40725408  1
  Ti  Ti175  1  0.50360466  0.49928866  0.08835060  1
  Ti  Ti176  1  0.10137840  0.29667914  0.30227755  1
  Ti  Ti177  1  0.00263482  0.19587191  0.39945227  1
  Ti  Ti178  1  0.49481206  0.30437586  0.69484688  1
  Ti  Ti179  1  0.19862640  0.40218248  0.39319884  1
  Ti  Ti180  1  0.61305406  0.38609249  -0.00168577  1
  Ti  Ti181  1  0.40475899  0.19366557  0.19401321  1
  Ti  Ti182  1  0.19915612  0.20014013  0.58763436  1
  Ti  Ti183  1  0.30468472  0.50033412  0.10372328  1
  Ti  Ti184  1  0.50136872  0.71009529  0.29577472  1
  Ti  Ti185  1  0.51027782  0.49904136  0.91433297  1
  Ti  Ti186  1  0.79876822  0.00675540  0.19607885  1
  Ti  Ti187  1  0.61025966  0.19854955  0.18257976  1
  Ti  Ti188  1  0.69431558  0.30375591  0.70043603  1
  Ti  Ti189  1  0.60239846  0.00117509  0.40173540  1
  Ti  Ti190  1  0.19999135  0.00225931  0.40092252  1
  Ti  Ti191  1  0.19374521  0.58683211  0.80958964  1
  Ti  Ti192  1  0.60891007  0.00188546  0.18602501  1
  Ti  Ti193  1  0.20620238  0.80179643  0.80315094  1
  Ti  Ti194  1  0.20215898  0.00056977  0.80539135  1
  Ti  Ti195  1  0.19934543  0.19642971  0.00342933  1
  Ti  Ti196  1  0.89849088  0.89717238  0.29756466  1
  Ti  Ti197  1  0.61144228  0.00515120  0.78646026  1
  Ti  Ti198  1  0.29568287  0.90034079  0.70315529  1
  Ti  Ti199  1  0.90636598  0.69598373  0.29607001  1
  Mo  Mo200  1  0.29664177  0.29677169  0.92005926  1
  Mo  Mo201  1  -0.00021512  0.80162133  0.00667621  1
  Mo  Mo202  1  0.50388239  0.09833441  0.09988225  1
  Mo  Mo203  1  0.19993538  0.59818412  0.59534588  1
  Mo  Mo204  1  0.01179626  0.40296485  0.58894176  1
  Mo  Mo205  1  0.29124972  0.29986153  0.49431632  1
  Mo  Mo206  1  0.60226601  0.00239315  0.01908922  1
  Mo  Mo207  1  0.59838324  0.20076225  0.00518556  1
  Mo  Mo208  1  0.59878142  0.61440128  0.39151676  1
  Mo  Mo209  1  0.59060547  0.59412944  0.80650395  1
  Mo  Mo210  1  0.40471900  0.40375691  0.60094453  1
  Mo  Mo211  1  0.69493486  0.29990025  0.89644808  1
  Mo  Mo212  1  0.40411200  -0.00098795  0.19657165  1
  Mo  Mo213  1  0.69326210  0.29606432  0.49261692  1
  Mo  Mo214  1  0.10166432  0.49859119  0.49468469  1
  Mo  Mo215  1  0.79800217  0.01209966  0.60187846  1
  Mo  Mo216  1  0.10688606  0.50213973  0.90900977  1
  Mo  Mo217  1  0.79173266  0.39909890  0.38757141  1
  Mo  Mo218  1  0.30371178  0.90544401  0.90272618  1
  Mo  Mo219  1  0.40592806  0.59898615  0.20087287  1
  Mo  Mo220  1  0.10270313  0.50243558  0.30328709  1
  Mo  Mo221  1  0.68507108  0.49909719  0.70303632  1
  Mo  Mo222  1  0.29829591  0.69262836  0.49170120  1
  Mo  Mo223  1  0.59278436  0.60967454  -0.00309584  1
  Mo  Mo224  1  0.49888389  0.70623966  0.90340079  1
  Mo  Mo225  1  0.10478847  0.09975487  0.10405722  1
  Mo  Mo226  1  0.89831742  0.69405410  0.69435318  1
  Mo  Mo227  1  0.20363623  0.80783277  0.19932494  1
  Mo  Mo228  1  0.10276357  0.10141336  0.89746529  1
  Mo  Mo229  1  0.89654072  0.09870763  0.10599101  1
  Mo  Mo230  1  0.09891422  0.69308355  0.49383417  1
  Mo  Mo231  1  0.69679386  0.09926729  0.10543675  1
  Mo  Mo232  1  0.00257204  0.60026606  -0.00026295  1
  Mo  Mo233  1  0.89567292  0.70163529  0.90430172  1
  Mo  Mo234  1  0.60297242  0.80480162  0.39582932  1
  Mo  Mo235  1  0.70167717  0.10334919  0.70203538  1
  Mo  Mo236  1  0.40249584  0.40390057  0.00687305  1
  Mo  Mo237  1  0.59449665  0.80026539  0.19741527  1
  Mo  Mo238  1  0.89077550  0.50256911  0.89920001  1
  Mo  Mo239  1  0.69850152  0.49762882  0.29561048  1
  Mo  Mo240  1  0.39553972  0.20235926  0.00525943  1
  Mo  Mo241  1  0.69557185  0.30427292  0.10400084  1
  Mo  Mo242  1  0.80257104  0.78218915  0.60395587  1
  Mo  Mo243  1  0.70119419  0.69905318  0.49018530  1
  Mo  Mo244  1  0.49926914  0.49621186  0.50165611  1
  Mo  Mo245  1  0.70263815  0.90204203  0.10378829  1
  Mo  Mo246  1  0.00397101  0.60038609  0.20796057  1
  Mo  Mo247  1  0.29031773  0.49757414  0.30590757  1
  Mo  Mo248  1  0.80030964  0.59758121  0.80750800  1
  Mo  Mo249  1  0.59721256  0.37780764  0.39936058  1
