# generated using pymatgen
data_HfZrTaTiMo
_symmetry_space_group_name_H-M   'P 1'
_cell_length_a   16.88091913
_cell_length_b   16.88018776
_cell_length_c   16.88509124
_cell_angle_alpha   90.06667512
_cell_angle_beta   89.95727463
_cell_angle_gamma   90.02528090
_symmetry_Int_Tables_number   1
_chemical_formula_structural   HfZrTaTiMo
_chemical_formula_sum   'Hf50 Zr50 Ta50 Ti50 Mo50'
_cell_volume   4811.45376743
_cell_formula_units_Z   50
loop_
 _symmetry_equiv_pos_site_id
 _symmetry_equiv_pos_as_xyz
  1  'x, y, z'
loop_
 _atom_site_type_symbol
 _atom_site_label
 _atom_site_symmetry_multiplicity
 _atom_site_fract_x
 _atom_site_fract_y
 _atom_site_fract_z
 _atom_site_occupancy
  Hf  Hf0  1  0.59854943  0.20639171  0.40218852  1
  Hf  Hf1  1  0.40067146  0.39663035  0.20932418  1
  Hf  Hf2  1  0.10145552  0.90412268  0.09549598  1
  Hf  Hf3  1  -0.00370028  0.19535856  0.40001142  1
  Hf  Hf4  1  0.60837069  0.59964969  0.20577298  1
  Hf  Hf5  1  0.19003306  0.79722515  0.39874308  1
  Hf  Hf6  1  0.80482702  0.79910438  0.60043101  1
  Hf  Hf7  1  0.30353794  0.30195511  0.31425858  1
  Hf  Hf8  1  0.69495892  0.50393749  0.70472921  1
  Hf  Hf9  1  0.19614529  0.00238332  0.19933412  1
  Hf  Hf10  1  0.79263056  0.60848811  0.40150677  1
  Hf  Hf11  1  0.89445081  0.69756734  0.09947268  1
  Hf  Hf12  1  0.59544284  0.39802539  0.59040223  1
  Hf  Hf13  1  0.00056956  0.80186389  0.79089774  1
  Hf  Hf14  1  0.39196018  0.18088919  -0.00052095  1
  Hf  Hf15  1  0.40004490  -0.00244347  0.60782275  1
  Hf  Hf16  1  0.60441221  0.39549968  0.20402964  1
  Hf  Hf17  1  0.49763712  0.50615875  0.90251031  1
  Hf  Hf18  1  0.40404179  0.39393539  0.58847926  1
  Hf  Hf19  1  0.60665199  0.19893497  0.19710363  1
  Hf  Hf20  1  0.50583528  0.29156911  0.70305883  1
  Hf  Hf21  1  0.29586752  0.89291221  0.09263864  1
  Hf  Hf22  1  0.30595968  0.50400454  0.09795198  1
  Hf  Hf23  1  0.20967868  0.39672079  0.60196015  1
  Hf  Hf24  1  0.10255856  0.30562782  0.50203578  1
  Hf  Hf25  1  0.60676239  0.39372323  -0.00228363  1
  Hf  Hf26  1  0.69919634  0.10628176  0.69453799  1
  Hf  Hf27  1  0.90008450  0.90749505  0.09616824  1
  Hf  Hf28  1  0.09691572  0.50419744  0.50381646  1
  Hf  Hf29  1  0.51012953  0.89199650  0.70607552  1
  Hf  Hf30  1  0.10010738  0.69366803  0.28806795  1
  Hf  Hf31  1  0.90066009  0.90403835  0.89830433  1
  Hf  Hf32  1  0.50794850  0.69793667  0.48918757  1
  Hf  Hf33  1  0.39352545  -0.00106398  0.80736608  1
  Hf  Hf34  1  -0.00014635  0.40201205  0.20850442  1
  Hf  Hf35  1  0.78764217  0.80861992  0.20522109  1
  Hf  Hf36  1  0.88163652  0.29600220  0.30145606  1
  Hf  Hf37  1  0.39029526  0.79183220  0.39119913  1
  Hf  Hf38  1  0.00123891  0.40277566  0.39397388  1
  Hf  Hf39  1  0.09616728  0.50065662  0.69191162  1
  Hf  Hf40  1  0.50181719  0.90001843  0.90771285  1
  Hf  Hf41  1  0.49701429  0.50346534  0.09439835  1
  Hf  Hf42  1  0.40105962  0.19395426  0.80889909  1
  Hf  Hf43  1  0.50124689  0.50112824  0.31264952  1
  Hf  Hf44  1  0.69723457  0.89604265  0.89816464  1
  Hf  Hf45  1  0.30096503  0.10114466  0.31019921  1
  Hf  Hf46  1  0.20179884  0.60375652  0.79340463  1
  Hf  Hf47  1  0.39809000  0.61359914  0.80075913  1
  Hf  Hf48  1  0.49830896  0.10291817  0.30032708  1
  Hf  Hf49  1  0.69544537  0.50537868  0.49875438  1
  Zr  Zr50  1  -0.00054350  0.80027612  0.59939217  1
  Zr  Zr51  1  0.49465799  0.70786662  0.10334523  1
  Zr  Zr52  1  0.78968452  0.19620516  0.81257311  1
  Zr  Zr53  1  0.69502323  0.69838087  0.89970928  1
  Zr  Zr54  1  0.00254592  0.80950288  0.20365035  1
  Zr  Zr55  1  -0.00690750  0.61003624  0.79191681  1
  Zr  Zr56  1  0.00243343  0.60941075  0.00164075  1
  Zr  Zr57  1  -0.00327495  0.40773812  0.00463525  1
  Zr  Zr58  1  0.00773251  -0.00682388  0.59017876  1
  Zr  Zr59  1  0.29069556  0.10258286  0.50724036  1
  Zr  Zr60  1  0.60459299  0.00406110  0.39513557  1
  Zr  Zr61  1  0.20629279  0.60830321  0.00009953  1
  Zr  Zr62  1  0.20413315  0.59459313  0.38838331  1
  Zr  Zr63  1  0.11104204  0.09770233  0.69320304  1
  Zr  Zr64  1  0.70076731  0.89025325  0.49240292  1
  Zr  Zr65  1  0.69399617  0.69724439  0.70603753  1
  Zr  Zr66  1  0.69756539  0.70231671  0.09838964  1
  Zr  Zr67  1  0.50214518  0.88752116  0.49571065  1
  Zr  Zr68  1  0.60546287  -0.00234915  0.59674117  1
  Zr  Zr69  1  0.80167551  -0.00000462  0.39475858  1
  Zr  Zr70  1  0.90695731  0.10395303  0.09697185  1
  Zr  Zr71  1  0.50401866  0.50117271  0.70911901  1
  Zr  Zr72  1  0.61186208  0.19412395  -0.01046505  1
  Zr  Zr73  1  0.20180140  0.40157378  -0.00494050  1
  Zr  Zr74  1  0.09862355  0.50154228  0.89327644  1
  Zr  Zr75  1  0.88789183  0.29876599  0.50123682  1
  Zr  Zr76  1  0.11355442  0.89566269  0.90073988  1
  Zr  Zr77  1  0.10158247  0.10045610  0.30473027  1
  Zr  Zr78  1  -0.00661631  0.39993421  0.79439219  1
  Zr  Zr79  1  0.39360149  0.60270864  0.20761365  1
  Zr  Zr80  1  0.29281334  0.88691684  0.51767271  1
  Zr  Zr81  1  0.39671601  0.00406289  0.18630150  1
  Zr  Zr82  1  0.30890499  0.49694349  0.70474160  1
  Zr  Zr83  1  0.29167512  0.71704852  0.90202396  1
  Zr  Zr84  1  0.09564302  0.29736174  0.09309451  1
  Zr  Zr85  1  -0.00326922  -0.00712549  0.40417260  1
  Zr  Zr86  1  0.90301979  0.29650284  0.91070951  1
  Zr  Zr87  1  0.39823033  -0.00422194  0.40498187  1
  Zr  Zr88  1  0.00071507  0.20241714  0.20654530  1
  Zr  Zr89  1  0.00379192  0.19719304  0.59927600  1
  Zr  Zr90  1  0.60885152  0.00603086  0.80244654  1
  Zr  Zr91  1  0.89673712  0.69972525  0.29946654  1
  Zr  Zr92  1  0.49851908  0.29584289  0.09467294  1
  Zr  Zr93  1  0.40000461  0.19734830  0.19560785  1
  Zr  Zr94  1  0.10574170  0.51291389  0.11331997  1
  Zr  Zr95  1  0.50345307  0.89096735  0.28824310  1
  Zr  Zr96  1  0.18550773  -0.01021088  0.41412422  1
  Zr  Zr97  1  0.80003960  0.40183973  0.80255987  1
  Zr  Zr98  1  0.69701035  0.29407549  0.69557574  1
  Zr  Zr99  1  0.20217172  0.20362906  0.19664729  1
  Ta  Ta100  1  0.39658022  0.80416220  0.79839263  1
  Ta  Ta101  1  0.80333359  0.60322235  0.79954991  1
  Ta  Ta102  1  0.89404640  0.28994839  0.69599299  1
  Ta  Ta103  1  0.20765270  0.59912944  0.59703225  1
  Ta  Ta104  1  0.00031459  0.80257381  0.40560057  1
  Ta  Ta105  1  0.39699507  0.80175541  -0.00217223  1
  Ta  Ta106  1  0.80280894  -0.00591455  0.59971308  1
  Ta  Ta107  1  0.80126600  0.40377175  0.60139496  1
  Ta  Ta108  1  0.88893704  0.10245317  0.50351377  1
  Ta  Ta109  1  0.30007784  0.10016973  0.69804903  1
  Ta  Ta110  1  0.79535245  0.00378716  0.20112486  1
  Ta  Ta111  1  0.88727196  0.50989782  0.91127441  1
  Ta  Ta112  1  -0.00163016  0.59907662  0.39917299  1
  Ta  Ta113  1  0.20721122  -0.00276326  0.79654827  1
  Ta  Ta114  1  0.00628912  0.00142342  0.79509505  1
  Ta  Ta115  1  0.60190492  0.38901612  0.81489819  1
  Ta  Ta116  1  0.39638851  0.60120418  0.39818655  1
  Ta  Ta117  1  0.90227701  0.09604285  0.89728618  1
  Ta  Ta118  1  0.70097509  0.50576647  0.90283358  1
  Ta  Ta119  1  0.89095744  0.50043784  0.30438424  1
  Ta  Ta120  1  0.60803911  0.79259614  0.60149338  1
  Ta  Ta121  1  0.50927517  0.70457796  0.29928343  1
  Ta  Ta122  1  0.20146438  0.19354809  -0.00605849  1
  Ta  Ta123  1  0.89657130  0.09802620  0.70038934  1
  Ta  Ta124  1  0.89165268  0.30168956  0.10061079  1
  Ta  Ta125  1  0.09989822  0.29157643  0.89657658  1
  Ta  Ta126  1  0.40500721  0.60102331  0.59443003  1
  Ta  Ta127  1  0.00482206  0.00383451  -0.00908540  1
  Ta  Ta128  1  0.50419700  0.10767161  0.69919005  1
  Ta  Ta129  1  0.00088694  0.79951780  -0.00212209  1
  Ta  Ta130  1  0.00112031  0.19398776  0.79885883  1
  Ta  Ta131  1  0.29328156  0.89347068  0.28964546  1
  Ta  Ta132  1  0.30013461  0.69619189  0.50447747  1
  Ta  Ta133  1  0.39865593  0.20346593  0.59847187  1
  Ta  Ta134  1  0.80078273  0.80566340  -0.00058961  1
  Ta  Ta135  1  0.29931426  0.29687191  0.90126142  1
  Ta  Ta136  1  0.61208969  0.00141498  0.19749291  1
  Ta  Ta137  1  0.20313868  0.19857534  0.80143917  1
  Ta  Ta138  1  0.29761891  0.30220472  0.09470546  1
  Ta  Ta139  1  0.20430917  0.39175280  0.80007772  1
  Ta  Ta140  1  0.79369849  0.59416822  0.20413839  1
  Ta  Ta141  1  0.79183498  0.00743804  -0.00119692  1
  Ta  Ta142  1  0.30632847  0.49860303  0.49312196  1
  Ta  Ta143  1  0.59208792  0.39188804  0.40422304  1
  Ta  Ta144  1  0.79658048  0.19647919  0.00190387  1
  Ta  Ta145  1  0.89298227  0.70484122  0.90177400  1
  Ta  Ta146  1  0.20009291  0.40566901  0.21449908  1
  Ta  Ta147  1  0.79432546  0.40619231  0.20026681  1
  Ta  Ta148  1  0.80285034  0.80182455  0.79287194  1
  Ta  Ta149  1  0.59546986  0.60214373  0.59421557  1
  Ti  Ti150  1  0.79647012  0.19345496  0.19680885  1
  Ti  Ti151  1  0.79844605  -0.00185858  0.79590698  1
  Ti  Ti152  1  0.40335802  0.38999550  0.81042297  1
  Ti  Ti153  1  0.40698043  0.21451563  0.41400701  1
  Ti  Ti154  1  0.10043777  0.69398429  0.50498792  1
  Ti  Ti155  1  0.71226802  0.30149213  0.09816037  1
  Ti  Ti156  1  0.11590671  0.71008573  0.10447968  1
  Ti  Ti157  1  0.20416700  0.80995077  0.78204862  1
  Ti  Ti158  1  0.40570341  0.79210104  0.60672258  1
  Ti  Ti159  1  0.50108477  0.10706191  0.50812353  1
  Ti  Ti160  1  0.30834850  0.50096482  0.90158317  1
  Ti  Ti161  1  0.89993502  0.90827356  0.70021857  1
  Ti  Ti162  1  0.20003439  0.40403283  0.39663936  1
  Ti  Ti163  1  0.59835816  0.80206197  0.00397347  1
  Ti  Ti164  1  0.69777543  0.49821800  0.30947508  1
  Ti  Ti165  1  -0.01029238  0.39834740  0.60182713  1
  Ti  Ti166  1  0.89860145  0.50889427  0.68906187  1
  Ti  Ti167  1  0.09866053  0.30052473  0.70481413  1
  Ti  Ti168  1  0.79905554  0.79695282  0.39912723  1
  Ti  Ti169  1  0.89768294  0.90129901  0.30170793  1
  Ti  Ti170  1  0.70406739  0.29909427  0.30486204  1
  Ti  Ti171  1  0.79306057  0.40267479  0.40499064  1
  Ti  Ti172  1  0.51101318  0.08582907  0.09026348  1
  Ti  Ti173  1  0.30486924  0.29527938  0.70629058  1
  Ti  Ti174  1  0.70866897  0.50259620  0.08921246  1
  Ti  Ti175  1  0.20605743  0.20996447  0.60121661  1
  Ti  Ti176  1  0.09818868  0.09987502  0.09084205  1
  Ti  Ti177  1  0.10002560  0.10124489  0.89712744  1
  Ti  Ti178  1  0.19402052  0.20601462  0.40744701  1
  Ti  Ti179  1  -0.00859642  0.59201258  0.20560719  1
  Ti  Ti180  1  0.79986982  0.60583727  0.60027445  1
  Ti  Ti181  1  0.50404956  0.70473386  0.89884287  1
  Ti  Ti182  1  0.10306735  0.69797767  0.68764656  1
  Ti  Ti183  1  0.88821945  0.50107747  0.09993032  1
  Ti  Ti184  1  0.29869833  0.70761603  0.68887774  1
  Ti  Ti185  1  0.50163757  0.90144196  0.09764832  1
  Ti  Ti186  1  0.50737580  0.09137351  0.90488189  1
  Ti  Ti187  1  0.70422128  0.29305410  0.50420120  1
  Ti  Ti188  1  0.40202843  0.39010699  -0.00777979  1
  Ti  Ti189  1  0.69262956  0.90462348  0.09604122  1
  Ti  Ti190  1  0.70771453  0.10645167  0.30134332  1
  Ti  Ti191  1  0.70683790  0.11027102  0.50433561  1
  Ti  Ti192  1  0.89919958  0.50511415  0.50311696  1
  Ti  Ti193  1  0.50753103  0.70030047  0.70593053  1
  Ti  Ti194  1  0.10205802  0.70946121  0.89736513  1
  Ti  Ti195  1  -0.00261849  0.00336130  0.20885200  1
  Ti  Ti196  1  0.59829097  0.60165950  -0.00020749  1
  Ti  Ti197  1  0.29227175  0.70796329  0.27956947  1
  Ti  Ti198  1  0.21288777  0.00906143  -0.00883700  1
  Ti  Ti199  1  0.90382312  0.69413723  0.50278977  1
  Mo  Mo200  1  0.19624013  0.78889266  0.60373538  1
  Mo  Mo201  1  0.59999978  0.59940063  0.39947472  1
  Mo  Mo202  1  0.89714288  0.89597364  0.49577689  1
  Mo  Mo203  1  0.70445551  0.09761272  0.10263816  1
  Mo  Mo204  1  0.00429353  0.19058487  -0.00843791  1
  Mo  Mo205  1  0.49892998  0.29766380  0.50134992  1
  Mo  Mo206  1  0.19974031  -0.01421570  0.61030886  1
  Mo  Mo207  1  0.79925854  0.19467965  0.59958180  1
  Mo  Mo208  1  0.29174688  0.09816398  0.89458926  1
  Mo  Mo209  1  0.10822385  0.90149875  0.69865880  1
  Mo  Mo210  1  0.60099564  0.80746648  0.19700513  1
  Mo  Mo211  1  0.40148912  0.61111352  -0.00613025  1
  Mo  Mo212  1  0.59405963  0.19941461  0.80963112  1
  Mo  Mo213  1  0.79783516  0.60103055  0.00014924  1
  Mo  Mo214  1  0.79694521  0.40215102  0.00840968  1
  Mo  Mo215  1  0.19573265  0.80027161  0.00441590  1
  Mo  Mo216  1  0.30043258  0.49648289  0.30465340  1
  Mo  Mo217  1  0.10990183  0.30651257  0.30842933  1
  Mo  Mo218  1  0.09911158  0.88126334  0.50440802  1
  Mo  Mo219  1  0.09691477  0.89676258  0.29911954  1
  Mo  Mo220  1  0.69864120  0.89977168  0.29593099  1
  Mo  Mo221  1  0.09564440  0.50238996  0.30291708  1
  Mo  Mo222  1  0.69630174  0.70315333  0.30239115  1
  Mo  Mo223  1  0.70685109  0.89679787  0.70131454  1
  Mo  Mo224  1  0.89481620  0.69623463  0.70096649  1
  Mo  Mo225  1  0.61322697  0.79059878  0.39011761  1
  Mo  Mo226  1  0.20484388  0.60156195  0.19871908  1
  Mo  Mo227  1  -0.00319996  0.60318682  0.59229667  1
  Mo  Mo228  1  0.70295523  0.30466147  0.90628043  1
  Mo  Mo229  1  0.70006693  0.69781436  0.50130647  1
  Mo  Mo230  1  0.49826040  0.50471214  0.49535375  1
  Mo  Mo231  1  0.29953675  0.30142335  0.49793648  1
  Mo  Mo232  1  0.79143128  0.19635672  0.40058842  1
  Mo  Mo233  1  0.59565532  0.79732359  0.79911973  1
  Mo  Mo234  1  0.30102909  0.70573149  0.10072380  1
  Mo  Mo235  1  0.19818375  0.80296442  0.19949324  1
  Mo  Mo236  1  0.30287801  0.90098580  0.89923313  1
  Mo  Mo237  1  0.40124585  0.40245499  0.40418086  1
  Mo  Mo238  1  0.89129246  0.09886486  0.29772838  1
  Mo  Mo239  1  0.59693021  0.59753598  0.80475323  1
  Mo  Mo240  1  0.50258596  0.30078470  0.30734660  1
  Mo  Mo241  1  0.60279126  -0.00369684  0.00620809  1
  Mo  Mo242  1  0.10391738  0.11329268  0.50468322  1
  Mo  Mo243  1  0.40165916  -0.00330147  -0.00225027  1
  Mo  Mo244  1  0.49648988  0.29736276  0.89913091  1
  Mo  Mo245  1  0.39766542  0.80024123  0.19479265  1
  Mo  Mo246  1  0.70566442  0.09270308  0.90185309  1
  Mo  Mo247  1  0.59555719  0.19778933  0.59058357  1
  Mo  Mo248  1  0.29085638  0.09751052  0.09100358  1
  Mo  Mo249  1  0.30409165  0.89537318  0.70209740  1
