# generated using pymatgen
data_HfZrTaTiMo
_symmetry_space_group_name_H-M   'P 1'
_cell_length_a   16.88413053
_cell_length_b   16.88656891
_cell_length_c   16.88840843
_cell_angle_alpha   90.02141520
_cell_angle_beta   89.93419855
_cell_angle_gamma   90.03499764
_symmetry_Int_Tables_number   1
_chemical_formula_structural   HfZrTaTiMo
_chemical_formula_sum   'Hf50 Zr50 Ta50 Ti50 Mo50'
_cell_volume   4815.13472902
_cell_formula_units_Z   50
loop_
 _symmetry_equiv_pos_site_id
 _symmetry_equiv_pos_as_xyz
  1  'x, y, z'
loop_
 _atom_site_type_symbol
 _atom_site_label
 _atom_site_symmetry_multiplicity
 _atom_site_fract_x
 _atom_site_fract_y
 _atom_site_fract_z
 _atom_site_occupancy
  Hf  Hf0  1  0.60178868  0.80051365  0.40071829  1
  Hf  Hf1  1  0.89757023  0.29278705  0.29534293  1
  Hf  Hf2  1  0.69397895  0.89725562  0.90196878  1
  Hf  Hf3  1  0.19405807  0.59911669  0.79994501  1
  Hf  Hf4  1  0.88938068  0.10863495  0.89729410  1
  Hf  Hf5  1  0.69873693  0.69644817  0.91086670  1
  Hf  Hf6  1  0.20045752  0.39395926  0.38877752  1
  Hf  Hf7  1  0.10191156  0.29299176  0.50376426  1
  Hf  Hf8  1  0.40946141  0.00167741  0.17854585  1
  Hf  Hf9  1  0.40051566  0.20684295  0.80140593  1
  Hf  Hf10  1  0.49402950  0.69435906  0.50324649  1
  Hf  Hf11  1  0.71240319  0.30423819  0.89532452  1
  Hf  Hf12  1  0.58907965  0.00259844  0.01849522  1
  Hf  Hf13  1  0.30421682  0.50879663  0.09529982  1
  Hf  Hf14  1  0.39762425  0.79608500  0.79931340  1
  Hf  Hf15  1  0.49478251  0.50328372  0.70387373  1
  Hf  Hf16  1  0.89552991  0.50215689  0.90927342  1
  Hf  Hf17  1  0.89655653  0.90527864  0.90124784  1
  Hf  Hf18  1  0.20287322  0.61004156  0.40126578  1
  Hf  Hf19  1  0.10159011  0.10104310  0.29976237  1
  Hf  Hf20  1  0.69495633  0.09849366  0.50711485  1
  Hf  Hf21  1  0.69042758  0.47246859  0.29475067  1
  Hf  Hf22  1  0.30621255  0.51004194  0.28787616  1
  Hf  Hf23  1  0.90475115  0.49672500  0.29138479  1
  Hf  Hf24  1  0.18598251  0.01218907  0.79637112  1
  Hf  Hf25  1  0.39497816  0.39378190  0.60719444  1
  Hf  Hf26  1  0.39480282  0.00692079  0.79908982  1
  Hf  Hf27  1  0.39881951  0.20062013  0.60109064  1
  Hf  Hf28  1  0.00749210  0.40279800  0.00229498  1
  Hf  Hf29  1  0.50322263  0.90123746  0.69773721  1
  Hf  Hf30  1  0.51111161  0.09899474  0.69272746  1
  Hf  Hf31  1  0.69998602  0.49569523  0.09247946  1
  Hf  Hf32  1  0.50357781  0.69715879  0.90770836  1
  Hf  Hf33  1  0.89247975  0.29622132  0.71477758  1
  Hf  Hf34  1  0.20712849  0.79600020  0.39339313  1
  Hf  Hf35  1  0.10846202  0.29388613  0.90259664  1
  Hf  Hf36  1  0.09942187  0.29240908  0.70307240  1
  Hf  Hf37  1  0.29131256  0.10467432  0.08848523  1
  Hf  Hf38  1  0.50385507  0.50357024  0.90419774  1
  Hf  Hf39  1  0.00235802  0.59836490  0.61043928  1
  Hf  Hf40  1  0.60764058  0.59039456  0.59883780  1
  Hf  Hf41  1  0.20230382  0.40663037  0.80253043  1
  Hf  Hf42  1  0.69604075  0.30271519  0.49241134  1
  Hf  Hf43  1  0.39632611  0.39319717  -0.00502908  1
  Hf  Hf44  1  0.79734749  0.81215863  0.60545769  1
  Hf  Hf45  1  0.29748203  0.10624964  0.49161183  1
  Hf  Hf46  1  0.20096724  0.79515341  0.59963452  1
  Hf  Hf47  1  0.09884814  0.49734538  0.49981605  1
  Hf  Hf48  1  0.10819655  0.89537674  0.10019507  1
  Hf  Hf49  1  0.01041000  0.59899803  0.80246213  1
  Zr  Zr50  1  0.00098488  0.80271731  0.79752477  1
  Zr  Zr51  1  0.70369236  0.10459462  0.70301009  1
  Zr  Zr52  1  0.00290761  0.01303049  0.00484664  1
  Zr  Zr53  1  0.70452562  0.70442290  0.28866193  1
  Zr  Zr54  1  0.60231208  0.39678046  0.60070632  1
  Zr  Zr55  1  0.70097952  0.09878835  0.89729417  1
  Zr  Zr56  1  0.09716458  0.90353491  0.49286992  1
  Zr  Zr57  1  0.70375834  0.48328333  0.71914036  1
  Zr  Zr58  1  0.79370285  0.00282809  0.01780719  1
  Zr  Zr59  1  0.59142112  0.59454872  0.19782934  1
  Zr  Zr60  1  0.60466997  0.19669502  0.19672159  1
  Zr  Zr61  1  0.30073022  0.90578813  0.29955126  1
  Zr  Zr62  1  0.80268431  0.60426740  0.80089389  1
  Zr  Zr63  1  0.38121500  0.78519340  0.19142654  1
  Zr  Zr64  1  0.80368474  0.80728190  0.01837030  1
  Zr  Zr65  1  0.60085377  0.58976394  0.39876462  1
  Zr  Zr66  1  0.01104692  0.18362885  0.80269238  1
  Zr  Zr67  1  0.08686255  0.70754158  0.50235261  1
  Zr  Zr68  1  0.59908902  0.00053460  0.19498327  1
  Zr  Zr69  1  0.90241388  0.49510500  0.49678469  1
  Zr  Zr70  1  0.30423941  0.10416059  0.29550536  1
  Zr  Zr71  1  0.70479214  0.69985268  0.50008037  1
  Zr  Zr72  1  0.01363876  0.39278351  0.19272163  1
  Zr  Zr73  1  0.21429201  0.63449886  0.19053626  1
  Zr  Zr74  1  -0.00990504  0.79298142  0.19046901  1
  Zr  Zr75  1  0.79909634  0.59221629  0.39659131  1
  Zr  Zr76  1  0.29447438  0.90336669  0.70051275  1
  Zr  Zr77  1  0.69722489  0.70120885  0.70337168  1
  Zr  Zr78  1  0.49777449  0.90421581  0.50234480  1
  Zr  Zr79  1  -0.00134393  0.00273601  0.19205658  1
  Zr  Zr80  1  0.19539290  0.60088736  0.61221829  1
  Zr  Zr81  1  0.49419700  0.90101319  0.90647648  1
  Zr  Zr82  1  0.39432889  0.00920796  0.59816313  1
  Zr  Zr83  1  0.19470768  0.79393925  0.79738090  1
  Zr  Zr84  1  -0.00340039  0.79853229  0.00451759  1
  Zr  Zr85  1  0.69829689  0.69425651  0.10011995  1
  Zr  Zr86  1  0.49057445  0.89348208  0.30041108  1
  Zr  Zr87  1  0.50994526  0.30815302  0.29791462  1
  Zr  Zr88  1  0.39506343  0.39866239  0.39545147  1
  Zr  Zr89  1  0.10861220  0.51066289  0.28656640  1
  Zr  Zr90  1  0.60016497  0.20039137  0.00150335  1
  Zr  Zr91  1  0.89916803  0.90046959  0.30098116  1
  Zr  Zr92  1  0.29361442  0.10418456  0.90327837  1
  Zr  Zr93  1  0.59941019  0.00266332  0.40168774  1
  Zr  Zr94  1  0.89992097  0.48940977  0.70719695  1
  Zr  Zr95  1  0.89741600  0.10312724  0.30110350  1
  Zr  Zr96  1  0.00475597  -0.00003958  0.79741894  1
  Zr  Zr97  1  0.00775578  0.39161313  0.39224337  1
  Zr  Zr98  1  0.90837987  0.89691595  0.50154865  1
  Zr  Zr99  1  0.30586089  0.50632511  0.50735119  1
  Ta  Ta100  1  0.89954079  0.70139838  0.50222618  1
  Ta  Ta101  1  0.30274867  0.90076352  0.49537142  1
  Ta  Ta102  1  0.60290140  0.80680002  0.59991317  1
  Ta  Ta103  1  0.09771964  0.70916589  0.29059353  1
  Ta  Ta104  1  0.19447671  0.00670327  0.59885455  1
  Ta  Ta105  1  0.80123862  0.20306489  0.59971721  1
  Ta  Ta106  1  0.79776067  0.39425700  0.59858773  1
  Ta  Ta107  1  0.90064340  0.29688172  0.09879483  1
  Ta  Ta108  1  0.40198530  0.20873833  -0.00199181  1
  Ta  Ta109  1  0.39691630  0.39408044  0.80452471  1
  Ta  Ta110  1  0.00497533  0.19623614  0.18714271  1
  Ta  Ta111  1  0.49293549  0.11012938  0.30217108  1
  Ta  Ta112  1  0.80276562  -0.00039977  0.59974314  1
  Ta  Ta113  1  0.09961802  0.69899899  0.90978296  1
  Ta  Ta114  1  0.89938418  0.29621198  0.50049805  1
  Ta  Ta115  1  -0.00146130  0.60891583  0.38920444  1
  Ta  Ta116  1  0.30356255  0.50652395  0.90172479  1
  Ta  Ta117  1  0.49847623  0.49442318  0.49769730  1
  Ta  Ta118  1  0.19930145  0.39898353  0.60769609  1
  Ta  Ta119  1  -0.00543760  0.00866384  0.60335798  1
  Ta  Ta120  1  0.49620804  0.10000100  0.90377118  1
  Ta  Ta121  1  0.89832626  0.69754218  0.90494749  1
  Ta  Ta122  1  0.80255216  0.80445819  0.79788073  1
  Ta  Ta123  1  0.90093737  0.70681907  0.69490985  1
  Ta  Ta124  1  0.70289516  0.30577363  0.10706214  1
  Ta  Ta125  1  0.60023493  0.19918971  0.39799399  1
  Ta  Ta126  1  0.79938797  0.20149106  0.01182979  1
  Ta  Ta127  1  0.19768390  0.00266983  0.19301556  1
  Ta  Ta128  1  0.70439233  0.89871123  0.29661399  1
  Ta  Ta129  1  0.69934766  0.49823218  0.90858987  1
  Ta  Ta130  1  0.39991827  0.39991592  0.19301606  1
  Ta  Ta131  1  0.49649296  0.29620996  0.49376904  1
  Ta  Ta132  1  0.59773634  0.20652731  0.80132703  1
  Ta  Ta133  1  0.70448207  0.10197941  0.30090754  1
  Ta  Ta134  1  0.50161991  0.30516366  0.09949914  1
  Ta  Ta135  1  0.11031021  0.50603239  0.09747489  1
  Ta  Ta136  1  0.30263314  0.69712818  0.90661579  1
  Ta  Ta137  1  0.29587773  0.29555249  0.50006161  1
  Ta  Ta138  1  0.80032010  0.59084070  0.59829076  1
  Ta  Ta139  1  0.29443712  0.90123070  0.90934980  1
  Ta  Ta140  1  0.48769469  0.69665875  0.29988615  1
  Ta  Ta141  1  0.39597186  0.79460149  0.59844762  1
  Ta  Ta142  1  0.79539706  0.00196454  0.19624407  1
  Ta  Ta143  1  0.79559795  -0.00048945  0.40641788  1
  Ta  Ta144  1  0.00071587  0.39190673  0.60463719  1
  Ta  Ta145  1  -0.00889627  0.19209868  0.59796350  1
  Ta  Ta146  1  0.19848796  0.20548545  0.39379588  1
  Ta  Ta147  1  0.79683431  0.19840001  0.40316336  1
  Ta  Ta148  1  0.80007756  0.80366992  0.39993525  1
  Ta  Ta149  1  0.59968442  0.00034145  0.80011488  1
  Ti  Ti150  1  0.60091143  0.20675561  0.59881001  1
  Ti  Ti151  1  0.89412813  0.69801780  0.29422389  1
  Ti  Ti152  1  -0.00477445  0.01060665  0.40650875  1
  Ti  Ti153  1  0.49916708  0.49995382  0.09540671  1
  Ti  Ti154  1  0.80444917  0.58721825  0.19415595  1
  Ti  Ti155  1  0.60137503  0.60048171  0.80253427  1
  Ti  Ti156  1  0.10890263  0.89919919  0.90990448  1
  Ti  Ti157  1  0.59042082  0.80153721  0.19415230  1
  Ti  Ti158  1  0.39624833  0.60433687  0.39952025  1
  Ti  Ti159  1  0.00961194  0.40659349  0.80779019  1
  Ti  Ti160  1  0.10209581  0.89743012  0.29484348  1
  Ti  Ti161  1  0.20208905  0.78917476  0.00709986  1
  Ti  Ti162  1  0.09070113  0.89848174  0.68542687  1
  Ti  Ti163  1  0.39963089  0.80093754  0.00455885  1
  Ti  Ti164  1  0.19775563  0.20539324  0.19630306  1
  Ti  Ti165  1  0.49705926  0.49716707  0.29718013  1
  Ti  Ti166  1  0.80896637  0.39793056  0.00620138  1
  Ti  Ti167  1  0.80517248  0.39458238  0.19430428  1
  Ti  Ti168  1  0.09947163  0.10248288  0.49981738  1
  Ti  Ti169  1  0.40632101  0.01154358  0.40323774  1
  Ti  Ti170  1  0.28964942  0.29217160  0.70534716  1
  Ti  Ti171  1  0.79853345  0.39379208  0.39950310  1
  Ti  Ti172  1  0.00014137  0.19835891  0.40249505  1
  Ti  Ti173  1  0.50490126  0.29984450  0.70102321  1
  Ti  Ti174  1  0.19641465  0.60110195  -0.00450661  1
  Ti  Ti175  1  0.39873581  0.60167905  0.80397316  1
  Ti  Ti176  1  0.49134997  0.68748274  0.09415233  1
  Ti  Ti177  1  0.10580764  0.28601367  0.08889553  1
  Ti  Ti178  1  0.90213312  0.29670288  0.90245993  1
  Ti  Ti179  1  0.59341480  0.38878475  0.80653493  1
  Ti  Ti180  1  0.20404417  0.38616699  0.19279006  1
  Ti  Ti181  1  0.50027724  0.69722563  0.69746469  1
  Ti  Ti182  1  0.20506507  0.40025863  0.00015478  1
  Ti  Ti183  1  0.60225460  0.80284280  0.79478699  1
  Ti  Ti184  1  0.89150389  0.68203195  0.09603568  1
  Ti  Ti185  1  0.00248930  0.60274192  0.18973909  1
  Ti  Ti186  1  0.29605921  0.90202214  0.09047926  1
  Ti  Ti187  1  0.19960531  0.19247241  0.60519667  1
  Ti  Ti188  1  0.59562879  0.80480319  0.01631854  1
  Ti  Ti189  1  0.30609490  0.50391108  0.70315222  1
  Ti  Ti190  1  0.40073852  0.20648177  0.18947037  1
  Ti  Ti191  1  0.31077072  0.69102805  0.69547489  1
  Ti  Ti192  1  0.19774218  0.00197372  0.39832917  1
  Ti  Ti193  1  0.89321648  0.10065132  0.70259819  1
  Ti  Ti194  1  0.79696198  -0.01203281  0.78780474  1
  Ti  Ti195  1  -0.00435209  0.79332515  0.39027701  1
  Ti  Ti196  1  0.59678398  0.39332197  -0.00189738  1
  Ti  Ti197  1  0.11701278  0.11527470  0.93246255  1
  Ti  Ti198  1  0.30472565  0.29331795  0.29531507  1
  Ti  Ti199  1  0.00501071  0.59694766  0.00638259  1
  Mo  Mo200  1  0.09248553  0.70901424  0.70504209  1
  Mo  Mo201  1  0.79952973  0.20317505  0.80049967  1
  Mo  Mo202  1  -0.00668962  0.20452520  0.00303239  1
  Mo  Mo203  1  0.30353269  0.70052897  0.07646417  1
  Mo  Mo204  1  0.80333188  0.59596769  0.00202507  1
  Mo  Mo205  1  0.69658350  0.90406312  0.70216538  1
  Mo  Mo206  1  -0.00517694  0.80321419  0.60605493  1
  Mo  Mo207  1  0.19956279  0.80791617  0.19832489  1
  Mo  Mo208  1  0.59376264  0.39844376  0.18868377  1
  Mo  Mo209  1  0.10162412  0.69648155  0.09443774  1
  Mo  Mo210  1  0.39720508  -0.00217658  -0.00172429  1
  Mo  Mo211  1  0.19967688  -0.01186887  -0.00069262  1
  Mo  Mo212  1  0.40552799  0.60023055  0.60750594  1
  Mo  Mo213  1  0.59458712  0.39721924  0.40140077  1
  Mo  Mo214  1  0.11014745  0.10715590  0.09999105  1
  Mo  Mo215  1  0.09709370  0.48478419  0.70210438  1
  Mo  Mo216  1  0.09822007  0.10083933  0.68136106  1
  Mo  Mo217  1  0.40605272  0.59770105  0.19599861  1
  Mo  Mo218  1  0.30202020  0.30440390  0.10500189  1
  Mo  Mo219  1  0.20377470  0.19897274  0.79898501  1
  Mo  Mo220  1  0.39656673  0.79259148  0.40631819  1
  Mo  Mo221  1  0.79989340  0.20159616  0.20127314  1
  Mo  Mo222  1  0.28824620  0.10851434  0.69997297  1
  Mo  Mo223  1  0.89622206  0.11053321  0.10219366  1
  Mo  Mo224  1  0.30061849  0.30621934  0.89751513  1
  Mo  Mo225  1  0.49555857  0.88301025  0.09948005  1
  Mo  Mo226  1  0.70480310  0.10859526  0.10854521  1
  Mo  Mo227  1  0.50322015  0.11178429  0.49595434  1
  Mo  Mo228  1  0.70284610  0.90387904  0.49992547  1
  Mo  Mo229  1  0.80419691  0.39791809  0.81198204  1
  Mo  Mo230  1  0.40074042  0.20327503  0.39999276  1
  Mo  Mo231  1  0.10639008  0.50235637  0.91125660  1
  Mo  Mo232  1  0.70347361  0.48989070  0.49789569  1
  Mo  Mo233  1  0.50402797  0.30101112  0.89859674  1
  Mo  Mo234  1  0.90439863  0.49858935  0.10158297  1
  Mo  Mo235  1  0.21605944  0.22385888  0.00311251  1
  Mo  Mo236  1  0.70069315  0.29577289  0.70189301  1
  Mo  Mo237  1  0.30840909  0.70395898  0.50388815  1
  Mo  Mo238  1  0.80212283  0.80567272  0.20234284  1
  Mo  Mo239  1  0.89912845  0.91213061  0.10595224  1
  Mo  Mo240  1  0.89650939  0.90621393  0.70020784  1
  Mo  Mo241  1  0.48712999  0.11488354  0.09662875  1
  Mo  Mo242  1  0.30842308  0.70247135  0.31287735  1
  Mo  Mo243  1  0.61054592  -0.00663510  0.60312546  1
  Mo  Mo244  1  0.69356770  0.89296385  0.11407893  1
  Mo  Mo245  1  0.59789928  0.59382783  -0.00113710  1
  Mo  Mo246  1  0.89653947  0.10228543  0.50109659  1
  Mo  Mo247  1  0.70708113  0.29578625  0.29938561  1
  Mo  Mo248  1  0.10435677  0.28578195  0.29271870  1
  Mo  Mo249  1  0.40105609  0.59871540  -0.00104898  1
