# generated using pymatgen
data_HfZrTaTiMo
_symmetry_space_group_name_H-M   'P 1'
_cell_length_a   16.87895991
_cell_length_b   16.88338182
_cell_length_c   16.89008741
_cell_angle_alpha   90.01335198
_cell_angle_beta   90.02719065
_cell_angle_gamma   90.03019295
_symmetry_Int_Tables_number   1
_chemical_formula_structural   HfZrTaTiMo
_chemical_formula_sum   'Hf50 Zr50 Ta50 Ti50 Mo50'
_cell_volume   4813.23315901
_cell_formula_units_Z   50
loop_
 _symmetry_equiv_pos_site_id
 _symmetry_equiv_pos_as_xyz
  1  'x, y, z'
loop_
 _atom_site_type_symbol
 _atom_site_label
 _atom_site_symmetry_multiplicity
 _atom_site_fract_x
 _atom_site_fract_y
 _atom_site_fract_z
 _atom_site_occupancy
  Hf  Hf0  1  0.79368198  0.80179284  0.80650652  1
  Hf  Hf1  1  -0.00227924  -0.00004994  -0.00427380  1
  Hf  Hf2  1  0.59670752  0.79454286  0.19994719  1
  Hf  Hf3  1  0.19951162  0.80099082  0.59537003  1
  Hf  Hf4  1  0.10199848  0.49641436  0.10510006  1
  Hf  Hf5  1  0.69749572  0.49394612  0.69770732  1
  Hf  Hf6  1  0.20196778  0.20380184  0.40423739  1
  Hf  Hf7  1  -0.00033626  0.80848431  0.80239320  1
  Hf  Hf8  1  0.89922676  0.50126208  0.70199451  1
  Hf  Hf9  1  0.09683949  0.09918840  0.29338640  1
  Hf  Hf10  1  0.19508279  -0.01058448  0.19561542  1
  Hf  Hf11  1  0.69321039  0.09684533  0.90015450  1
  Hf  Hf12  1  0.90422078  0.70110649  0.49709689  1
  Hf  Hf13  1  0.00129791  0.60039227  0.00182643  1
  Hf  Hf14  1  0.00407371  0.80579669  0.00002550  1
  Hf  Hf15  1  0.69592801  0.91146467  0.69724863  1
  Hf  Hf16  1  0.09115346  0.30342734  0.28743784  1
  Hf  Hf17  1  0.58985892  0.39038207  0.40423124  1
  Hf  Hf18  1  0.49607850  0.90510582  0.49885528  1
  Hf  Hf19  1  0.60228416  0.21647171  0.00347491  1
  Hf  Hf20  1  0.89588008  0.90954873  0.69623132  1
  Hf  Hf21  1  0.31255744  0.30425543  0.29425106  1
  Hf  Hf22  1  0.30998509  0.69878377  0.08847208  1
  Hf  Hf23  1  0.19368641  0.19623249  -0.00324543  1
  Hf  Hf24  1  0.89814011  0.90437839  0.11072227  1
  Hf  Hf25  1  0.90541470  0.69009117  0.89218171  1
  Hf  Hf26  1  0.20327336  0.20183441  0.18703997  1
  Hf  Hf27  1  0.00299127  0.59296913  0.21279374  1
  Hf  Hf28  1  0.10837617  0.69839903  0.10342030  1
  Hf  Hf29  1  0.40924212  0.20574965  0.40931574  1
  Hf  Hf30  1  0.30291894  0.09150399  0.08766289  1
  Hf  Hf31  1  0.78768979  0.59748759  -0.00586962  1
  Hf  Hf32  1  0.40294363  -0.01400207  0.19361206  1
  Hf  Hf33  1  0.90358423  0.69383872  0.70254027  1
  Hf  Hf34  1  0.50536981  0.89657833  0.68829290  1
  Hf  Hf35  1  0.60380668  0.78930210  0.40224301  1
  Hf  Hf36  1  -0.01204838  0.19068699  -0.01122284  1
  Hf  Hf37  1  0.09575790  0.10693250  0.70309276  1
  Hf  Hf38  1  0.09197508  0.29462061  0.88816328  1
  Hf  Hf39  1  0.89956639  0.90400284  0.50360652  1
  Hf  Hf40  1  0.30684811  0.10680961  0.70182105  1
  Hf  Hf41  1  -0.00959555  0.39798839  -0.00536631  1
  Hf  Hf42  1  0.79359410  0.20068766  0.19239853  1
  Hf  Hf43  1  0.20351771  0.79675622  0.39532385  1
  Hf  Hf44  1  0.69760482  0.49449639  0.50656762  1
  Hf  Hf45  1  0.89732846  0.30609975  0.50613442  1
  Hf  Hf46  1  0.89882192  0.49005791  0.50427272  1
  Hf  Hf47  1  0.49616273  0.10971600  0.89633591  1
  Hf  Hf48  1  0.89643172  0.70106878  0.10891287  1
  Hf  Hf49  1  0.59472747  0.60033166  0.19776591  1
  Zr  Zr50  1  0.10058078  0.50769219  0.89245047  1
  Zr  Zr51  1  0.69844237  0.49622826  0.30014082  1
  Zr  Zr52  1  0.69834353  0.08526497  0.08452864  1
  Zr  Zr53  1  0.29743389  0.69439946  0.70124292  1
  Zr  Zr54  1  0.30100282  0.89467319  0.69642915  1
  Zr  Zr55  1  0.40605071  -0.00453851  0.80361427  1
  Zr  Zr56  1  0.30233355  0.49965537  0.50622421  1
  Zr  Zr57  1  0.29488631  0.89851487  0.90336473  1
  Zr  Zr58  1  0.69429370  0.10346696  0.51364531  1
  Zr  Zr59  1  0.29997335  0.29983959  0.69686168  1
  Zr  Zr60  1  0.42118857  0.82619911  0.01000510  1
  Zr  Zr61  1  0.10043991  0.10035522  0.50303707  1
  Zr  Zr62  1  -0.00112687  0.00245472  0.40087630  1
  Zr  Zr63  1  0.80409430  0.20731847  0.00106666  1
  Zr  Zr64  1  0.30492974  0.50309147  0.89950685  1
  Zr  Zr65  1  0.20789496  0.79957483  0.20608647  1
  Zr  Zr66  1  0.40779998  0.79259138  0.79810872  1
  Zr  Zr67  1  0.48877148  0.69103791  0.91626412  1
  Zr  Zr68  1  0.20427923  0.39823461  0.19632226  1
  Zr  Zr69  1  0.69291872  0.91022939  0.50567707  1
  Zr  Zr70  1  0.70404470  0.30034868  0.50780119  1
  Zr  Zr71  1  0.49105511  0.31027996  0.10196887  1
  Zr  Zr72  1  0.20602136  0.38991676  0.00168021  1
  Zr  Zr73  1  0.60182129  0.19970547  0.20396254  1
  Zr  Zr74  1  0.90035444  0.30628725  0.29365054  1
  Zr  Zr75  1  0.30589796  0.09708000  0.30101456  1
  Zr  Zr76  1  0.69293942  0.69254657  0.70082356  1
  Zr  Zr77  1  0.89976314  0.89972124  0.29479648  1
  Zr  Zr78  1  0.31350991  0.29748844  0.89062270  1
  Zr  Zr79  1  0.10116954  0.49676036  0.70175245  1
  Zr  Zr80  1  0.79398246  0.79440528  0.59474992  1
  Zr  Zr81  1  0.80220644  0.60147767  0.39627082  1
  Zr  Zr82  1  0.40572163  0.60010484  0.39911856  1
  Zr  Zr83  1  0.19701477  0.59896100  0.59357438  1
  Zr  Zr84  1  0.49431530  0.09755383  0.09143641  1
  Zr  Zr85  1  0.00483957  0.60174536  0.59337484  1
  Zr  Zr86  1  0.59773958  0.59368685  0.81145327  1
  Zr  Zr87  1  0.79597320  0.01045728  0.39743279  1
  Zr  Zr88  1  0.80283649  0.80242714  -0.00662343  1
  Zr  Zr89  1  0.40920783  0.59071672  0.79714433  1
  Zr  Zr90  1  0.80395472  0.20310324  0.80781567  1
  Zr  Zr91  1  -0.00195929  0.20556047  0.40357874  1
  Zr  Zr92  1  0.20385084  -0.00138600  0.59692348  1
  Zr  Zr93  1  0.59790432  0.60473244  0.40167747  1
  Zr  Zr94  1  0.89942771  0.30696787  0.69770378  1
  Zr  Zr95  1  0.30330884  0.50200042  0.30129148  1
  Zr  Zr96  1  0.60073916  0.00412130  0.20616166  1
  Zr  Zr97  1  0.19477796  0.39699428  0.40371010  1
  Zr  Zr98  1  0.60652160  0.79191544  -0.00173970  1
  Zr  Zr99  1  0.70463575  0.89848831  0.29511225  1
  Ta  Ta100  1  0.79385089  0.60043672  0.59569616  1
  Ta  Ta101  1  0.09966090  0.30260945  0.69602673  1
  Ta  Ta102  1  0.69673865  0.90781992  0.89714304  1
  Ta  Ta103  1  0.90004415  0.10251139  0.69904228  1
  Ta  Ta104  1  0.59215873  0.39032631  0.61178042  1
  Ta  Ta105  1  0.79765563  0.19888944  0.39433390  1
  Ta  Ta106  1  0.19503265  0.00448454  0.80354314  1
  Ta  Ta107  1  0.00801136  0.59602572  0.39393034  1
  Ta  Ta108  1  0.40648262  0.60373160  0.19557027  1
  Ta  Ta109  1  0.41041190  0.39529106  0.40984932  1
  Ta  Ta110  1  -0.01182329  0.19353100  0.18252262  1
  Ta  Ta111  1  0.59730145  0.78622855  0.59582137  1
  Ta  Ta112  1  0.59348033  0.40140502  0.80376832  1
  Ta  Ta113  1  0.10247126  0.69916420  0.71367053  1
  Ta  Ta114  1  0.79700116  0.40194593  0.19653192  1
  Ta  Ta115  1  0.59612691  0.59222139  0.00774860  1
  Ta  Ta116  1  0.00526315  0.79493877  0.39611652  1
  Ta  Ta117  1  0.50329006  0.10384307  0.69700352  1
  Ta  Ta118  1  0.08621671  0.29879444  0.09809845  1
  Ta  Ta119  1  0.39664335  0.79925209  0.40255336  1
  Ta  Ta120  1  0.79543497  0.79176112  0.39787131  1
  Ta  Ta121  1  0.90080572  0.10150219  0.29122105  1
  Ta  Ta122  1  0.69849871  0.31275768  0.90465439  1
  Ta  Ta123  1  0.89278179  0.10531173  0.51409249  1
  Ta  Ta124  1  0.41082344  0.39580552  0.60113667  1
  Ta  Ta125  1  0.70499467  0.69799488  0.10617418  1
  Ta  Ta126  1  0.30278749  0.09845180  0.90012035  1
  Ta  Ta127  1  0.09832140  0.89800314  0.49721953  1
  Ta  Ta128  1  0.20754805  -0.00904459  0.40274065  1
  Ta  Ta129  1  0.69838052  0.30152489  0.29899253  1
  Ta  Ta130  1  0.00893603  0.80270202  0.60141402  1
  Ta  Ta131  1  0.57781112  -0.02255560  -0.00499412  1
  Ta  Ta132  1  0.30267119  0.49117508  0.69942543  1
  Ta  Ta133  1  0.90143716  0.70434699  0.29707298  1
  Ta  Ta134  1  0.50396164  0.09801598  0.50591555  1
  Ta  Ta135  1  0.10339234  0.90072803  0.89612410  1
  Ta  Ta136  1  0.79331196  0.40057083  0.80721917  1
  Ta  Ta137  1  0.30615053  0.70060567  0.50057868  1
  Ta  Ta138  1  0.89518535  0.49869042  0.10261058  1
  Ta  Ta139  1  0.70461058  0.89840215  0.09829875  1
  Ta  Ta140  1  0.49633182  0.89921502  0.30946492  1
  Ta  Ta141  1  0.01244951  0.80125871  0.20367080  1
  Ta  Ta142  1  0.30987905  0.50123392  0.10233194  1
  Ta  Ta143  1  0.89482601  0.49951826  0.89664595  1
  Ta  Ta144  1  0.60166112  0.40125367  0.19320555  1
  Ta  Ta145  1  0.20258937  0.39712857  0.79673274  1
  Ta  Ta146  1  -0.00001929  0.20496868  0.60072215  1
  Ta  Ta147  1  -0.00195133  0.00698657  0.80724624  1
  Ta  Ta148  1  0.40726684  0.20256955  0.59723493  1
  Ta  Ta149  1  0.19859284  0.19584666  0.80229682  1
  Ti  Ti150  1  0.30111702  0.30620305  0.50730466  1
  Ti  Ti151  1  0.79135093  0.20118241  0.61693580  1
  Ti  Ti152  1  0.20571986  0.60450593  0.21096879  1
  Ti  Ti153  1  0.19187873  0.60422292  0.39159490  1
  Ti  Ti154  1  0.10258128  0.90069809  0.70352599  1
  Ti  Ti155  1  0.49424803  0.69785211  0.50913078  1
  Ti  Ti156  1  0.48990512  0.70433717  0.29973609  1
  Ti  Ti157  1  0.49849410  0.30159879  0.29351500  1
  Ti  Ti158  1  0.49498553  0.48946470  0.29239220  1
  Ti  Ti159  1  0.49694306  0.30604597  0.89560415  1
  Ti  Ti160  1  0.10076077  0.70309023  0.49519033  1
  Ti  Ti161  1  0.40573376  0.40922167  0.00089908  1
  Ti  Ti162  1  0.39964660  0.79797843  0.20233651  1
  Ti  Ti163  1  0.00213500  0.00094169  0.60355900  1
  Ti  Ti164  1  0.59934279  0.00959218  0.39605482  1
  Ti  Ti165  1  0.39825989  0.19960288  0.19442118  1
  Ti  Ti166  1  0.09843972  0.48736822  0.50293022  1
  Ti  Ti167  1  0.40995520  0.59803847  0.60760347  1
  Ti  Ti168  1  0.59793137  0.00486517  0.79627418  1
  Ti  Ti169  1  0.80303355  0.00717284  0.80239026  1
  Ti  Ti170  1  0.09570974  0.90287307  0.30147205  1
  Ti  Ti171  1  0.39878664  0.00248344  0.59478510  1
  Ti  Ti172  1  -0.00599279  0.39844037  0.80167044  1
  Ti  Ti173  1  0.70294195  0.49596803  0.09837299  1
  Ti  Ti174  1  0.60609202  0.20936402  0.79560837  1
  Ti  Ti175  1  0.19334786  0.80274874  -0.00053355  1
  Ti  Ti176  1  0.00287857  0.41174607  0.39072073  1
  Ti  Ti177  1  0.80090139  0.39901680  0.39196376  1
  Ti  Ti178  1  0.20502650  0.59850309  -0.00018356  1
  Ti  Ti179  1  0.49212293  0.29596808  0.71147926  1
  Ti  Ti180  1  0.29577322  0.90152145  0.09048715  1
  Ti  Ti181  1  0.29338095  0.69907149  0.89940087  1
  Ti  Ti182  1  0.19873280  0.20636580  0.59381560  1
  Ti  Ti183  1  0.59923984  0.19922373  0.39757961  1
  Ti  Ti184  1  0.59815940  0.79335765  0.80285622  1
  Ti  Ti185  1  0.79954393  0.59689655  0.20603534  1
  Ti  Ti186  1  0.78849111  0.59595186  0.80673203  1
  Ti  Ti187  1  0.18777155  0.00051536  -0.00406563  1
  Ti  Ti188  1  0.30782286  0.09647924  0.49724053  1
  Ti  Ti189  1  0.31063612  0.90167702  0.30980243  1
  Ti  Ti190  1  0.50496711  0.49970027  0.51237674  1
  Ti  Ti191  1  0.09170544  0.09347961  0.10150724  1
  Ti  Ti192  1  0.79755053  0.01324316  0.19927305  1
  Ti  Ti193  1  0.39588102  0.20742433  0.00148789  1
  Ti  Ti194  1  0.59851663  0.20559394  0.61363151  1
  Ti  Ti195  1  0.49242503  0.09601747  0.30789199  1
  Ti  Ti196  1  0.81197711  -0.00126537  -0.01207842  1
  Ti  Ti197  1  0.89576253  0.31194354  0.09798273  1
  Ti  Ti198  1  0.60061807  0.41012259  -0.00148073  1
  Ti  Ti199  1  0.11133205  0.69917448  0.89124858  1
  Mo  Mo200  1  0.89664986  0.09162978  0.10071037  1
  Mo  Mo201  1  0.69278644  0.30140492  0.70937119  1
  Mo  Mo202  1  0.30301986  0.89732372  0.49589120  1
  Mo  Mo203  1  0.79636872  0.79249006  0.20053238  1
  Mo  Mo204  1  0.50167461  0.48943987  0.90804117  1
  Mo  Mo205  1  0.10240518  0.09727630  0.89626537  1
  Mo  Mo206  1  0.89657456  0.30857767  0.89576424  1
  Mo  Mo207  1  0.79297207  0.40154575  0.60983487  1
  Mo  Mo208  1  0.50880853  0.89716146  0.11908263  1
  Mo  Mo209  1  0.10221849  0.89670653  0.09341203  1
  Mo  Mo210  1  0.40136607  0.59219106  0.00717826  1
  Mo  Mo211  1  0.00273386  0.00040373  0.19580618  1
  Mo  Mo212  1  0.20188737  0.39547692  0.60215409  1
  Mo  Mo213  1  0.50019348  0.49372412  0.69669999  1
  Mo  Mo214  1  0.50446928  0.29285581  0.51018132  1
  Mo  Mo215  1  0.69653000  0.10440408  0.70708372  1
  Mo  Mo216  1  0.09681727  0.30729532  0.50813413  1
  Mo  Mo217  1  0.70219849  0.10986404  0.30612800  1
  Mo  Mo218  1  0.40472369  0.19866099  0.79720846  1
  Mo  Mo219  1  -0.00826242  0.40101136  0.19188468  1
  Mo  Mo220  1  0.40260173  0.79233406  0.59129583  1
  Mo  Mo221  1  0.79878779  0.01349838  0.61044898  1
  Mo  Mo222  1  0.50010138  0.69753355  0.10711859  1
  Mo  Mo223  1  0.51281285  0.89854270  0.87897655  1
  Mo  Mo224  1  0.70919444  0.69897903  0.29470733  1
  Mo  Mo225  1  0.40731434  0.39895629  0.79403142  1
  Mo  Mo226  1  0.00700044  0.39700228  0.59694221  1
  Mo  Mo227  1  0.40326717  0.00051169  -0.00206261  1
  Mo  Mo228  1  0.50281554  0.69596642  0.68813953  1
  Mo  Mo229  1  0.79735128  0.40562868  0.00115645  1
  Mo  Mo230  1  0.10177638  0.69811102  0.30360784  1
  Mo  Mo231  1  0.69781957  0.69317903  0.50001433  1
  Mo  Mo232  1  0.30725732  0.30239348  0.09449128  1
  Mo  Mo233  1  0.69518758  0.69746919  0.90347417  1
  Mo  Mo234  1  0.00386778  0.60030103  0.80404690  1
  Mo  Mo235  1  0.89868395  0.09922343  0.89266286  1
  Mo  Mo236  1  0.10099424  0.50110018  0.30255749  1
  Mo  Mo237  1  0.40245355  0.00147238  0.40213495  1
  Mo  Mo238  1  0.30468852  0.69835579  0.29971892  1
  Mo  Mo239  1  0.59441971  0.00991088  0.60638285  1
  Mo  Mo240  1  0.19399142  0.79992564  0.80392360  1
  Mo  Mo241  1  0.89774626  0.90806934  0.89291588  1
  Mo  Mo242  1  0.20453202  0.60031971  0.80162442  1
  Mo  Mo243  1  0.40571898  0.40729149  0.20041179  1
  Mo  Mo244  1  0.69993082  0.31717339  0.09961315  1
  Mo  Mo245  1  0.59261379  0.59569448  0.59890346  1
  Mo  Mo246  1  0.90061083  0.49896840  0.29829085  1
  Mo  Mo247  1  0.00066961  0.19933364  0.79404798  1
  Mo  Mo248  1  0.50001429  0.50136652  0.09860901  1
  Mo  Mo249  1  0.69692583  0.49573571  0.90331211  1
