# generated using pymatgen
data_HfZrTaTiMo
_symmetry_space_group_name_H-M   'P 1'
_cell_length_a   16.89444974
_cell_length_b   16.89074291
_cell_length_c   16.88497891
_cell_angle_alpha   90.01471199
_cell_angle_beta   89.94154674
_cell_angle_gamma   89.97006452
_symmetry_Int_Tables_number   1
_chemical_formula_structural   HfZrTaTiMo
_chemical_formula_sum   'Hf50 Zr50 Ta50 Ti50 Mo50'
_cell_volume   4818.29100337
_cell_formula_units_Z   50
loop_
 _symmetry_equiv_pos_site_id
 _symmetry_equiv_pos_as_xyz
  1  'x, y, z'
loop_
 _atom_site_type_symbol
 _atom_site_label
 _atom_site_symmetry_multiplicity
 _atom_site_fract_x
 _atom_site_fract_y
 _atom_site_fract_z
 _atom_site_occupancy
  Hf  Hf0  1  0.78515287  0.59801516  0.79031456  1
  Hf  Hf1  1  0.81409309  0.00250880  -0.01346875  1
  Hf  Hf2  1  0.59943147  0.20403828  -0.00358431  1
  Hf  Hf3  1  0.40956969  -0.00385248  0.40845733  1
  Hf  Hf4  1  0.90069115  0.30611671  0.29639404  1
  Hf  Hf5  1  -0.00343106  0.79886823  0.80765165  1
  Hf  Hf6  1  -0.00136842  0.19394290  0.60028689  1
  Hf  Hf7  1  0.19502485  -0.00235397  0.20943652  1
  Hf  Hf8  1  0.70328124  0.29218436  0.69749153  1
  Hf  Hf9  1  -0.01269402  0.00227689  0.80607594  1
  Hf  Hf10  1  0.50497759  0.10700522  0.30197400  1
  Hf  Hf11  1  0.00903951  0.00567520  0.40380975  1
  Hf  Hf12  1  0.00482831  0.60342637  0.20350096  1
  Hf  Hf13  1  0.10524163  0.69283613  0.70392318  1
  Hf  Hf14  1  0.89632599  0.69801430  0.69246329  1
  Hf  Hf15  1  0.59321417  0.40075778  0.39909966  1
  Hf  Hf16  1  0.19887686  0.40302540  0.00046466  1
  Hf  Hf17  1  0.51329687  0.70222874  0.49236591  1
  Hf  Hf18  1  0.90442265  0.70095426  0.49127055  1
  Hf  Hf19  1  0.59371298  0.59581505  0.21492782  1
  Hf  Hf20  1  0.78686968  0.00643015  0.60292713  1
  Hf  Hf21  1  0.10345214  0.09613182  0.10560471  1
  Hf  Hf22  1  0.79304735  0.80151284  0.39099968  1
  Hf  Hf23  1  0.40859484  0.40521550  0.20769704  1
  Hf  Hf24  1  0.29996434  0.50072350  0.50293987  1
  Hf  Hf25  1  0.29934364  0.89715744  0.50273164  1
  Hf  Hf26  1  0.00303643  0.59799091  0.00034580  1
  Hf  Hf27  1  -0.00659278  0.19072747  -0.00032144  1
  Hf  Hf28  1  0.30646363  0.30214807  0.69368692  1
  Hf  Hf29  1  0.50443738  0.49928906  0.90088280  1
  Hf  Hf30  1  0.01044336  0.19888952  0.20785121  1
  Hf  Hf31  1  0.70433570  0.89475664  0.09894969  1
  Hf  Hf32  1  0.78944251  0.40918063  0.59805905  1
  Hf  Hf33  1  0.19546412  0.19386040  0.59226868  1
  Hf  Hf34  1  0.90054573  0.89686092  0.10333528  1
  Hf  Hf35  1  0.89814654  0.09771503  0.29777865  1
  Hf  Hf36  1  0.19070143  0.40901162  0.60763091  1
  Hf  Hf37  1  0.39492249  0.60367012  -0.00192426  1
  Hf  Hf38  1  0.00544918  0.60050234  0.59600513  1
  Hf  Hf39  1  0.49899627  0.09712840  0.89264686  1
  Hf  Hf40  1  0.90805936  0.89823823  0.29833333  1
  Hf  Hf41  1  0.89884503  0.89252188  0.50347707  1
  Hf  Hf42  1  0.50512619  0.49986230  0.09409388  1
  Hf  Hf43  1  0.69909822  0.89788047  0.89584872  1
  Hf  Hf44  1  0.39508131  0.40107337  0.80360414  1
  Hf  Hf45  1  0.39421341  0.61460905  0.80212431  1
  Hf  Hf46  1  0.59982023  -0.00456162  0.78368218  1
  Hf  Hf47  1  0.20550870  -0.00502114  0.80238492  1
  Hf  Hf48  1  0.00242229  0.00476532  0.59920252  1
  Hf  Hf49  1  0.29731071  0.30157392  0.30290852  1
  Zr  Zr50  1  0.20491649  0.19755005  0.80053805  1
  Zr  Zr51  1  0.90364879  0.50360164  0.29827568  1
  Zr  Zr52  1  0.09992273  0.50474681  0.49208389  1
  Zr  Zr53  1  0.49574808  0.49500977  0.69861060  1
  Zr  Zr54  1  0.69158574  0.49734569  0.90768211  1
  Zr  Zr55  1  0.00279349  0.40390150  -0.00146857  1
  Zr  Zr56  1  0.30622982  0.88233409  0.10130073  1
  Zr  Zr57  1  0.29773670  0.30924302  0.50073475  1
  Zr  Zr58  1  0.91451929  0.31896592  0.50873798  1
  Zr  Zr59  1  0.10414065  0.90024969  0.70091183  1
  Zr  Zr60  1  0.19749383  0.40783207  0.80592286  1
  Zr  Zr61  1  0.41326567  0.59765863  0.38905392  1
  Zr  Zr62  1  0.00835661  0.19863926  0.40475498  1
  Zr  Zr63  1  0.60282677  0.80063307  0.20767482  1
  Zr  Zr64  1  0.79776863  0.60115652  0.38967654  1
  Zr  Zr65  1  0.20718000  -0.00669210  -0.00316828  1
  Zr  Zr66  1  0.79115282  0.79116149  0.80154251  1
  Zr  Zr67  1  -0.00074116  -0.00558301  -0.00940792  1
  Zr  Zr68  1  0.79812977  0.20743174  0.41508382  1
  Zr  Zr69  1  0.79169570  0.40500500  0.40424308  1
  Zr  Zr70  1  0.00394605  0.79023503  0.20064961  1
  Zr  Zr71  1  0.29609854  0.88424070  0.30848866  1
  Zr  Zr72  1  0.30443671  0.11224637  0.29349523  1
  Zr  Zr73  1  0.29387415  0.69666988  0.49319267  1
  Zr  Zr74  1  0.89625050  0.29823038  0.89062508  1
  Zr  Zr75  1  0.30914088  0.09814406  0.89788507  1
  Zr  Zr76  1  0.29938634  0.29461386  0.10999042  1
  Zr  Zr77  1  0.19576419  0.00886814  0.40668551  1
  Zr  Zr78  1  0.49500092  0.89274808  0.09442933  1
  Zr  Zr79  1  0.89678415  0.30459554  0.10658882  1
  Zr  Zr80  1  0.70613727  0.10915878  0.88239488  1
  Zr  Zr81  1  0.89287395  0.89403410  0.69413461  1
  Zr  Zr82  1  0.40467271  0.80162457  0.60065647  1
  Zr  Zr83  1  0.60291994  0.60019271  0.60899973  1
  Zr  Zr84  1  0.49154102  0.70210995  0.10814338  1
  Zr  Zr85  1  0.00471778  0.41121753  0.80520236  1
  Zr  Zr86  1  0.70289513  0.30967549  0.09428150  1
  Zr  Zr87  1  0.40399700  0.20861768  -0.00589013  1
  Zr  Zr88  1  0.29560614  0.49993218  0.30443401  1
  Zr  Zr89  1  0.79283815  -0.00272689  0.40345181  1
  Zr  Zr90  1  0.69772174  0.29232833  0.30199542  1
  Zr  Zr91  1  0.70353484  0.09827244  0.09991441  1
  Zr  Zr92  1  0.10385696  0.88902104  0.09962163  1
  Zr  Zr93  1  0.40516953  -0.01229481  0.20709918  1
  Zr  Zr94  1  0.41395297  0.21007034  0.40854251  1
  Zr  Zr95  1  0.59407826  0.20516048  0.19692009  1
  Zr  Zr96  1  0.08913444  0.29892899  0.70206139  1
  Zr  Zr97  1  0.88853631  0.50330174  0.10229290  1
  Zr  Zr98  1  0.59735243  -0.00129925  -0.00154766  1
  Zr  Zr99  1  0.21672044  0.79168972  0.80234009  1
  Ta  Ta100  1  0.89883016  0.69126339  0.90105913  1
  Ta  Ta101  1  0.09604810  0.70062710  0.31826722  1
  Ta  Ta102  1  0.41471727  0.40322701  0.40642232  1
  Ta  Ta103  1  0.30098031  0.69808730  0.10848654  1
  Ta  Ta104  1  0.60117138  -0.00736406  0.40212557  1
  Ta  Ta105  1  0.18893387  0.20117340  0.39811961  1
  Ta  Ta106  1  0.30548970  0.89996184  0.69434466  1
  Ta  Ta107  1  0.79368301  -0.00534396  0.20677692  1
  Ta  Ta108  1  0.09972129  0.28985531  0.90502648  1
  Ta  Ta109  1  0.49723530  0.89103769  0.89026838  1
  Ta  Ta110  1  0.89591480  0.30417651  0.69799200  1
  Ta  Ta111  1  0.90143937  0.50041800  0.69756334  1
  Ta  Ta112  1  0.30895175  0.09345582  0.69085504  1
  Ta  Ta113  1  0.30510474  0.10332259  0.10548721  1
  Ta  Ta114  1  0.60294705  0.79030703  -0.00935043  1
  Ta  Ta115  1  0.69964059  0.70403771  0.50122907  1
  Ta  Ta116  1  0.60203242  0.61167555  0.79905192  1
  Ta  Ta117  1  0.39777914  0.40146286  -0.00171012  1
  Ta  Ta118  1  0.69545848  0.09960054  0.30591986  1
  Ta  Ta119  1  0.29580921  0.50591892  0.90673825  1
  Ta  Ta120  1  0.88877377  0.69630564  0.10170697  1
  Ta  Ta121  1  0.49866957  0.70830469  0.70351831  1
  Ta  Ta122  1  0.59731359  0.40443720  0.20617277  1
  Ta  Ta123  1  0.79773541  0.40318982  -0.00829526  1
  Ta  Ta124  1  0.10316961  0.68992025  0.90169304  1
  Ta  Ta125  1  0.10458465  0.09653547  0.70355672  1
  Ta  Ta126  1  0.69764190  0.89059707  0.69198576  1
  Ta  Ta127  1  0.68821270  0.51045184  0.49573089  1
  Ta  Ta128  1  0.80040939  0.79289929  -0.00396981  1
  Ta  Ta129  1  0.01120084  0.79493069  0.59447100  1
  Ta  Ta130  1  0.79613299  0.40520375  0.79565295  1
  Ta  Ta131  1  0.19057592  0.40262771  0.20696550  1
  Ta  Ta132  1  0.49991290  0.10230785  0.69355283  1
  Ta  Ta133  1  0.70242017  0.69406108  0.10126441  1
  Ta  Ta134  1  0.40244167  0.60290449  0.60035609  1
  Ta  Ta135  1  0.40631231  -0.00827596  0.78781354  1
  Ta  Ta136  1  0.89566294  0.50837547  0.89367547  1
  Ta  Ta137  1  0.59825600  0.20285046  0.59640333  1
  Ta  Ta138  1  0.60150234  -0.00382381  0.20759073  1
  Ta  Ta139  1  0.20013988  0.79268834  0.59982373  1
  Ta  Ta140  1  0.69079446  0.10635538  0.50049617  1
  Ta  Ta141  1  0.48991074  0.10092525  0.10394941  1
  Ta  Ta142  1  0.19920558  0.19762076  0.00294496  1
  Ta  Ta143  1  0.40773161  0.20085973  0.59752807  1
  Ta  Ta144  1  0.50048240  0.30104711  0.69641753  1
  Ta  Ta145  1  0.80614330  0.19802813  -0.00582478  1
  Ta  Ta146  1  0.10831034  0.50389291  0.10165484  1
  Ta  Ta147  1  0.69533524  0.50516153  0.09909601  1
  Ta  Ta148  1  0.19837238  0.60354464  0.20519668  1
  Ta  Ta149  1  0.10463159  0.29804910  0.10266584  1
  Ti  Ti150  1  0.69061372  0.69823858  0.30645054  1
  Ti  Ti151  1  0.10318839  0.88818998  0.49521576  1
  Ti  Ti152  1  0.69876457  0.30252272  0.89501016  1
  Ti  Ti153  1  0.59783071  0.61464261  -0.00559159  1
  Ti  Ti154  1  0.40132889  -0.00411642  -0.00223835  1
  Ti  Ti155  1  0.49899008  0.30532266  0.09852010  1
  Ti  Ti156  1  0.50908388  0.10127346  0.50127533  1
  Ti  Ti157  1  0.09968951  0.31224638  0.49885231  1
  Ti  Ti158  1  0.40453341  0.20210619  0.79359025  1
  Ti  Ti159  1  0.79370261  0.60348984  -0.00320962  1
  Ti  Ti160  1  0.29909827  0.50969537  0.69547060  1
  Ti  Ti161  1  0.69070420  0.89225697  0.50131676  1
  Ti  Ti162  1  0.10292569  0.88865997  0.90384847  1
  Ti  Ti163  1  0.11089389  0.69729805  0.09304602  1
  Ti  Ti164  1  0.20994407  0.78790652  -0.00759927  1
  Ti  Ti165  1  0.01212770  0.40349350  0.20001919  1
  Ti  Ti166  1  -0.00517081  0.19220158  0.79960095  1
  Ti  Ti167  1  0.29845776  0.50551625  0.10438690  1
  Ti  Ti168  1  0.59703788  0.39910985  0.59221792  1
  Ti  Ti169  1  0.41381448  -0.00291367  0.59844185  1
  Ti  Ti170  1  0.90555064  0.50342149  0.49821255  1
  Ti  Ti171  1  0.79832962  0.79091625  0.20620251  1
  Ti  Ti172  1  0.87953859  0.11606701  0.70357318  1
  Ti  Ti173  1  0.59626183  -0.00342228  0.59723181  1
  Ti  Ti174  1  0.01821835  0.40441043  0.38256887  1
  Ti  Ti175  1  0.50625061  0.88799824  0.31034933  1
  Ti  Ti176  1  0.19522336  0.60247033  0.39477035  1
  Ti  Ti177  1  0.51044903  0.31004370  0.89395525  1
  Ti  Ti178  1  0.19712539  0.00107339  0.59806448  1
  Ti  Ti179  1  0.79968561  0.19422003  0.19745157  1
  Ti  Ti180  1  0.31435270  0.89263666  0.89552640  1
  Ti  Ti181  1  0.90267753  0.09025256  0.11092676  1
  Ti  Ti182  1  0.59708069  0.20038715  0.79025598  1
  Ti  Ti183  1  0.79304879  0.59862405  0.59908387  1
  Ti  Ti184  1  0.20640519  0.60052314  0.80616374  1
  Ti  Ti185  1  0.09647088  0.51205444  0.70717901  1
  Ti  Ti186  1  0.40381270  0.78521746  -0.02030917  1
  Ti  Ti187  1  0.09754930  0.89130193  0.30701481  1
  Ti  Ti188  1  0.10101565  0.10178786  0.89716595  1
  Ti  Ti189  1  0.89166403  0.10243008  0.50541705  1
  Ti  Ti190  1  0.78387090  0.41532338  0.20733577  1
  Ti  Ti191  1  0.59737595  0.80316676  0.60263718  1
  Ti  Ti192  1  0.59822904  0.79293400  0.79933962  1
  Ti  Ti193  1  0.19967022  0.78593663  0.21264208  1
  Ti  Ti194  1  0.79990172  -0.00047313  0.79402050  1
  Ti  Ti195  1  0.40590088  0.79456536  0.39748939  1
  Ti  Ti196  1  0.30494042  0.10028455  0.50424749  1
  Ti  Ti197  1  0.29654412  0.30088446  0.90140709  1
  Ti  Ti198  1  0.60838519  0.40456837  0.78940447  1
  Ti  Ti199  1  -0.00591488  0.79214982  -0.00352973  1
  Mo  Mo200  1  0.10426222  0.30387060  0.29860123  1
  Mo  Mo201  1  0.60322736  0.60034419  0.40069265  1
  Mo  Mo202  1  0.69825323  0.90227003  0.29840447  1
  Mo  Mo203  1  0.10535152  0.51284920  0.90369653  1
  Mo  Mo204  1  0.79734621  0.20814087  0.79540965  1
  Mo  Mo205  1  0.19282038  0.79628367  0.40645650  1
  Mo  Mo206  1  0.89671172  0.10670170  0.88511584  1
  Mo  Mo207  1  0.39849181  0.78766910  0.22089795  1
  Mo  Mo208  1  0.69369054  0.70523397  0.69209909  1
  Mo  Mo209  1  0.90116365  0.70321196  0.29588978  1
  Mo  Mo210  1  0.10319427  0.69993924  0.49918244  1
  Mo  Mo211  1  0.69758148  0.49533319  0.69636656  1
  Mo  Mo212  1  0.40464967  0.20686610  0.19711186  1
  Mo  Mo213  1  0.30088130  0.69615323  0.69354735  1
  Mo  Mo214  1  0.69777516  0.69693434  0.90516552  1
  Mo  Mo215  1  -0.00072514  0.60308323  0.39794794  1
  Mo  Mo216  1  0.59818683  0.39327682  0.00223324  1
  Mo  Mo217  1  0.68947812  0.30002616  0.50558530  1
  Mo  Mo218  1  0.20476156  0.60043500  0.60921698  1
  Mo  Mo219  1  0.00294695  0.80129851  0.40351129  1
  Mo  Mo220  1  0.50000934  0.49916742  0.29949042  1
  Mo  Mo221  1  0.49675139  0.70378470  0.30288765  1
  Mo  Mo222  1  0.50109904  0.30710230  0.51158027  1
  Mo  Mo223  1  0.39353213  0.59878603  0.19779145  1
  Mo  Mo224  1  0.19975813  0.20126377  0.19930223  1
  Mo  Mo225  1  0.79782466  0.20173942  0.60049455  1
  Mo  Mo226  1  0.29813454  0.69800824  0.90671546  1
  Mo  Mo227  1  0.29631111  0.69780902  0.29800222  1
  Mo  Mo228  1  0.69324765  0.10035773  0.69090436  1
  Mo  Mo229  1  0.10487286  0.09923617  0.50636183  1
  Mo  Mo230  1  0.00014991  -0.00136383  0.20770402  1
  Mo  Mo231  1  0.40300742  0.80326105  0.79658041  1
  Mo  Mo232  1  0.10188669  0.10280781  0.30012549  1
  Mo  Mo233  1  0.20050343  0.60129770  0.00908955  1
  Mo  Mo234  1  0.49892817  0.30266000  0.29859126  1
  Mo  Mo235  1  0.60236808  0.80194806  0.40200147  1
  Mo  Mo236  1  0.78911921  0.79601284  0.59389830  1
  Mo  Mo237  1  0.50478522  0.89919946  0.69612715  1
  Mo  Mo238  1  0.10167656  0.50488772  0.29705691  1
  Mo  Mo239  1  0.69457584  0.50220816  0.30021028  1
  Mo  Mo240  1  0.50067158  0.50171408  0.50379584  1
  Mo  Mo241  1  -0.00534227  0.60232428  0.80271605  1
  Mo  Mo242  1  0.89735568  0.88543852  0.90225553  1
  Mo  Mo243  1  -0.00226455  0.41123714  0.60734311  1
  Mo  Mo244  1  0.50319738  0.70264870  0.89509246  1
  Mo  Mo245  1  0.78939650  0.60735509  0.19919567  1
  Mo  Mo246  1  0.50746960  0.89932294  0.49826484  1
  Mo  Mo247  1  0.19235040  0.39671648  0.39834301  1
  Mo  Mo248  1  0.60030859  0.19921367  0.40922657  1
  Mo  Mo249  1  0.40367317  0.40503778  0.60035791  1
