# generated using pymatgen
data_HfZrTaTiMo
_symmetry_space_group_name_H-M   'P 1'
_cell_length_a   16.89017679
_cell_length_b   16.88077400
_cell_length_c   16.87826038
_cell_angle_alpha   89.97981883
_cell_angle_beta   90.02035204
_cell_angle_gamma   90.02405250
_symmetry_Int_Tables_number   1
_chemical_formula_structural   HfZrTaTiMo
_chemical_formula_sum   'Hf50 Zr50 Ta50 Ti50 Mo50'
_cell_volume   4812.31603779
_cell_formula_units_Z   50
loop_
 _symmetry_equiv_pos_site_id
 _symmetry_equiv_pos_as_xyz
  1  'x, y, z'
loop_
 _atom_site_type_symbol
 _atom_site_label
 _atom_site_symmetry_multiplicity
 _atom_site_fract_x
 _atom_site_fract_y
 _atom_site_fract_z
 _atom_site_occupancy
  Hf  Hf0  1  0.39697208  0.00471321  0.40349341  1
  Hf  Hf1  1  0.09889064  0.69202601  0.89076079  1
  Hf  Hf2  1  0.09874894  0.49867028  0.89692157  1
  Hf  Hf3  1  0.89058276  0.69634393  0.09973616  1
  Hf  Hf4  1  0.90190278  0.10595464  0.70239771  1
  Hf  Hf5  1  0.19119482  0.40148005  0.20338888  1
  Hf  Hf6  1  0.79892569  0.00097928  -0.00320086  1
  Hf  Hf7  1  0.40595095  0.00467971  0.59853353  1
  Hf  Hf8  1  0.80484529  0.20964538  0.20100934  1
  Hf  Hf9  1  0.49483573  0.11039501  0.10778772  1
  Hf  Hf10  1  0.79939547  0.60522270  0.80671553  1
  Hf  Hf11  1  0.09824422  0.89002263  0.70199118  1
  Hf  Hf12  1  0.49437141  0.31286656  0.89900367  1
  Hf  Hf13  1  0.60408377  0.20672256  -0.00869257  1
  Hf  Hf14  1  0.59588891  0.39422808  0.60564470  1
  Hf  Hf15  1  0.70790007  0.69924108  0.50742151  1
  Hf  Hf16  1  0.59905653  -0.00313429  -0.00740953  1
  Hf  Hf17  1  0.29294496  0.50447351  0.08569130  1
  Hf  Hf18  1  0.29744645  0.10494460  0.10380301  1
  Hf  Hf19  1  0.89632043  0.89339976  0.89767532  1
  Hf  Hf20  1  0.08935867  0.29834613  0.09273284  1
  Hf  Hf21  1  0.10162573  0.89402347  0.89770141  1
  Hf  Hf22  1  0.00700808  0.59765619  0.00521353  1
  Hf  Hf23  1  0.21318686  0.59981278  0.79438055  1
  Hf  Hf24  1  0.89145201  0.49439161  0.09303706  1
  Hf  Hf25  1  0.49692268  0.90375555  0.10324269  1
  Hf  Hf26  1  0.39341472  0.19876952  0.41016735  1
  Hf  Hf27  1  0.00851555  0.60539277  0.40358227  1
  Hf  Hf28  1  0.70191368  0.90463797  0.30281204  1
  Hf  Hf29  1  0.80375659  0.39438982  0.39432485  1
  Hf  Hf30  1  0.71149596  0.30387445  0.51107268  1
  Hf  Hf31  1  0.29531854  0.10322336  0.69654499  1
  Hf  Hf32  1  0.60058538  0.59525911  0.60449140  1
  Hf  Hf33  1  0.20139148  0.39229092  -0.00643066  1
  Hf  Hf34  1  0.89617835  0.90102049  0.50356924  1
  Hf  Hf35  1  0.89920511  0.50039523  0.29405257  1
  Hf  Hf36  1  0.40119595  0.79788402  0.60486338  1
  Hf  Hf37  1  0.00486848  0.79296534  0.00544248  1
  Hf  Hf38  1  0.89493031  0.69826400  0.29656347  1
  Hf  Hf39  1  0.01350271  0.79499116  0.20397934  1
  Hf  Hf40  1  0.70847484  0.50021470  0.50820664  1
  Hf  Hf41  1  0.29735945  0.10715847  0.29761114  1
  Hf  Hf42  1  0.08821294  0.28896742  0.89377725  1
  Hf  Hf43  1  0.60441918  0.80734268  0.60067719  1
  Hf  Hf44  1  0.89619076  0.49844716  0.50683188  1
  Hf  Hf45  1  0.71082124  0.49789946  0.90525078  1
  Hf  Hf46  1  0.70257829  0.69223543  0.29493618  1
  Hf  Hf47  1  0.89563198  0.70126388  0.69897531  1
  Hf  Hf48  1  0.89858896  0.90337069  0.30229997  1
  Hf  Hf49  1  0.70763073  0.49663755  0.70459002  1
  Zr  Zr50  1  0.79613736  0.20794813  0.80599250  1
  Zr  Zr51  1  -0.00010491  -0.00201952  0.61096773  1
  Zr  Zr52  1  0.60428539  0.39799927  0.39642849  1
  Zr  Zr53  1  0.49329017  0.29684832  0.29305450  1
  Zr  Zr54  1  0.59552563  0.59668110  0.18316901  1
  Zr  Zr55  1  0.79589641  0.20777747  0.00144290  1
  Zr  Zr56  1  0.39620729  0.60419514  0.19833858  1
  Zr  Zr57  1  0.21036848  0.77863906  0.00368849  1
  Zr  Zr58  1  0.49555903  0.69158953  0.50009743  1
  Zr  Zr59  1  0.29505763  0.90354541  0.50079997  1
  Zr  Zr60  1  0.50071246  0.49231449  0.29760489  1
  Zr  Zr61  1  0.20341598  0.39363221  0.79235227  1
  Zr  Zr62  1  0.01283940  0.59722131  0.19727742  1
  Zr  Zr63  1  0.60390946  0.00196606  0.60411424  1
  Zr  Zr64  1  0.89178514  0.69741060  0.50523777  1
  Zr  Zr65  1  0.40216524  0.79767767  -0.00443738  1
  Zr  Zr66  1  0.40655215  0.19952224  0.59811819  1
  Zr  Zr67  1  0.30064809  0.90228209  0.70111808  1
  Zr  Zr68  1  -0.00247532  0.40106655  0.78805182  1
  Zr  Zr69  1  0.37860329  0.40402371  0.20459169  1
  Zr  Zr70  1  0.60341059  0.40748993  0.00371687  1
  Zr  Zr71  1  0.49514970  0.30273733  0.10623869  1
  Zr  Zr72  1  0.09828478  0.10422715  0.09479992  1
  Zr  Zr73  1  0.29748361  0.10402538  0.89243987  1
  Zr  Zr74  1  0.19344063  0.39535090  0.60606563  1
  Zr  Zr75  1  0.50441592  0.10478221  0.29745882  1
  Zr  Zr76  1  0.59666307  0.79498266  0.19312897  1
  Zr  Zr77  1  0.39790216  0.79987850  0.39759446  1
  Zr  Zr78  1  0.40313800  0.00190044  -0.00941931  1
  Zr  Zr79  1  0.19436946  0.59846834  0.20066825  1
  Zr  Zr80  1  0.90466362  0.10357453  0.30439178  1
  Zr  Zr81  1  0.59614425  0.60437699  -0.00515242  1
  Zr  Zr82  1  0.69777430  0.09864098  0.10466762  1
  Zr  Zr83  1  0.40293897  0.20312383  0.79905062  1
  Zr  Zr84  1  0.70641082  0.09356706  0.31171597  1
  Zr  Zr85  1  0.19456397  0.79060149  0.40072836  1
  Zr  Zr86  1  0.18842896  0.00676740  0.79713003  1
  Zr  Zr87  1  0.90047338  0.90296313  0.09851455  1
  Zr  Zr88  1  0.50648580  0.69503245  0.70481568  1
  Zr  Zr89  1  0.89030434  0.09747975  0.49608363  1
  Zr  Zr90  1  0.00384559  0.39606435  0.59834756  1
  Zr  Zr91  1  0.61209359  0.20772352  0.40503873  1
  Zr  Zr92  1  0.19982921  0.78395737  0.59918296  1
  Zr  Zr93  1  0.60026072  0.79936735  0.39933445  1
  Zr  Zr94  1  0.08261666  0.10784689  0.50091906  1
  Zr  Zr95  1  0.59621356  0.79246518  -0.00838195  1
  Zr  Zr96  1  0.29389473  0.90913012  0.10304542  1
  Zr  Zr97  1  0.10691350  0.90708504  0.09934664  1
  Zr  Zr98  1  0.29755815  0.49675255  0.50588200  1
  Zr  Zr99  1  0.40379457  0.61397494  -0.00427100  1
  Ta  Ta100  1  0.51836474  0.09967778  0.49628686  1
  Ta  Ta101  1  0.80004064  0.80155604  0.39914043  1
  Ta  Ta102  1  0.00193856  0.79424782  0.59657963  1
  Ta  Ta103  1  0.19241264  0.00891235  0.59519809  1
  Ta  Ta104  1  0.19346134  0.00955211  0.40198993  1
  Ta  Ta105  1  0.60582066  0.20342614  0.79783827  1
  Ta  Ta106  1  0.59888338  -0.00352102  0.20122362  1
  Ta  Ta107  1  0.29313485  0.29912420  0.50297161  1
  Ta  Ta108  1  0.41289432  -0.00530316  0.80035534  1
  Ta  Ta109  1  0.91139440  0.30842858  0.29680526  1
  Ta  Ta110  1  0.30839071  0.49737524  0.89959452  1
  Ta  Ta111  1  0.90057604  0.49784794  0.90065549  1
  Ta  Ta112  1  0.70529072  0.09607947  0.70211770  1
  Ta  Ta113  1  0.19085424  0.19939543  0.59531525  1
  Ta  Ta114  1  0.70333160  0.70767422  0.70715185  1
  Ta  Ta115  1  0.79487644  0.80152965  0.19650389  1
  Ta  Ta116  1  0.29836228  0.69386521  0.30511727  1
  Ta  Ta117  1  0.59915758  0.59314754  0.39940788  1
  Ta  Ta118  1  0.90055815  0.31001922  0.90505550  1
  Ta  Ta119  1  0.40186713  0.60221009  0.79938747  1
  Ta  Ta120  1  0.09644311  0.89985798  0.49951708  1
  Ta  Ta121  1  0.00622680  0.00582835  0.20628368  1
  Ta  Ta122  1  0.00446803  0.79668938  0.40283528  1
  Ta  Ta123  1  0.40039495  0.39399646  0.60575138  1
  Ta  Ta124  1  0.90877549  0.10330500  0.09808041  1
  Ta  Ta125  1  0.70409252  0.88917079  0.89042204  1
  Ta  Ta126  1  0.49253797  0.49675879  0.50482292  1
  Ta  Ta127  1  0.39278880  0.79880184  0.20380826  1
  Ta  Ta128  1  0.20165304  0.79008906  0.20329838  1
  Ta  Ta129  1  0.39291479  0.20980252  -0.00479134  1
  Ta  Ta130  1  0.39526173  0.59169673  0.39741906  1
  Ta  Ta131  1  0.20038869  0.20172908  -0.01167757  1
  Ta  Ta132  1  0.39919403  -0.00291762  0.20884448  1
  Ta  Ta133  1  0.19080428  0.39216539  0.40072222  1
  Ta  Ta134  1  0.09597197  0.69352569  0.70232765  1
  Ta  Ta135  1  0.19053692  0.20959150  0.20766424  1
  Ta  Ta136  1  -0.00069750  0.00441416  0.80377588  1
  Ta  Ta137  1  0.40189584  0.79497151  0.80717077  1
  Ta  Ta138  1  0.90842140  0.10810436  0.90292080  1
  Ta  Ta139  1  0.21301831  0.78829953  0.79841309  1
  Ta  Ta140  1  0.71191394  0.89789556  0.70387537  1
  Ta  Ta141  1  0.19139794  0.20457456  0.40116445  1
  Ta  Ta142  1  0.71114833  0.91276444  0.50035658  1
  Ta  Ta143  1  0.49856716  0.49651404  0.70725089  1
  Ta  Ta144  1  0.79779312  0.19830091  0.60215396  1
  Ta  Ta145  1  0.19658152  0.59715616  0.40274344  1
  Ta  Ta146  1  0.60317812  -0.00179940  0.80211391  1
  Ta  Ta147  1  0.00362248  0.60068089  0.60154096  1
  Ta  Ta148  1  0.60630766  0.20003591  0.60803221  1
  Ta  Ta149  1  0.70207855  0.49883496  0.28705114  1
  Ti  Ti150  1  0.50847977  0.89506138  0.71153148  1
  Ti  Ti151  1  0.89584711  0.29925988  0.69831091  1
  Ti  Ti152  1  0.49749018  0.69589064  0.30094246  1
  Ti  Ti153  1  0.50245774  0.90497785  0.30269847  1
  Ti  Ti154  1  0.29957998  0.29603473  0.09772787  1
  Ti  Ti155  1  0.70996224  0.30659967  0.70356158  1
  Ti  Ti156  1  0.79676318  0.39728971  0.19722893  1
  Ti  Ti157  1  0.39104830  0.39872096  0.40295746  1
  Ti  Ti158  1  0.30989017  0.50751143  0.69056176  1
  Ti  Ti159  1  0.50902966  0.90852905  0.49250642  1
  Ti  Ti160  1  0.50314148  0.10473773  0.89585574  1
  Ti  Ti161  1  0.09464731  0.49013182  0.31216769  1
  Ti  Ti162  1  0.60808961  0.39682981  0.80340943  1
  Ti  Ti163  1  0.29443076  0.29828980  0.30519828  1
  Ti  Ti164  1  0.61721326  0.21310056  0.20495599  1
  Ti  Ti165  1  0.29253283  0.90199296  0.29973735  1
  Ti  Ti166  1  0.48810422  0.48774898  0.09521652  1
  Ti  Ti167  1  0.09781392  0.51322511  0.70069391  1
  Ti  Ti168  1  0.70217787  0.31481545  0.09950252  1
  Ti  Ti169  1  0.39129561  0.40116744  0.79522596  1
  Ti  Ti170  1  0.79614445  0.59603708  0.39578120  1
  Ti  Ti171  1  0.70076462  0.09675710  0.89299450  1
  Ti  Ti172  1  0.10059668  0.49925457  0.50231875  1
  Ti  Ti173  1  0.80218022  0.20771632  0.39924215  1
  Ti  Ti174  1  0.90718679  0.30431605  0.09379342  1
  Ti  Ti175  1  0.19559195  0.00829687  -0.01132867  1
  Ti  Ti176  1  0.00779429  0.21730821  0.39570440  1
  Ti  Ti177  1  0.89444460  0.50413056  0.69946284  1
  Ti  Ti178  1  0.08948982  0.27730270  0.69954775  1
  Ti  Ti179  1  0.71406568  0.69396054  0.08746889  1
  Ti  Ti180  1  0.89169868  0.70081385  0.90603104  1
  Ti  Ti181  1  0.30213858  0.68217864  0.50954578  1
  Ti  Ti182  1  0.00672374  -0.00283869  0.39475287  1
  Ti  Ti183  1  0.80405083  0.00031642  0.80134122  1
  Ti  Ti184  1  0.00567666  0.40267686  0.19666604  1
  Ti  Ti185  1  0.89111049  0.89379739  0.70100662  1
  Ti  Ti186  1  0.50850781  0.10145644  0.70441620  1
  Ti  Ti187  1  0.29591558  0.29134079  0.69927555  1
  Ti  Ti188  1  0.49790169  0.30244414  0.50092892  1
  Ti  Ti189  1  0.90598299  0.29719495  0.50288125  1
  Ti  Ti190  1  0.19007345  0.00778210  0.21357890  1
  Ti  Ti191  1  0.80280779  0.00101229  0.19638016  1
  Ti  Ti192  1  0.49804332  0.50033461  0.88999556  1
  Ti  Ti193  1  0.00351933  0.00541122  -0.00762042  1
  Ti  Ti194  1  0.70272813  0.89638794  0.09578558  1
  Ti  Ti195  1  0.50207931  0.30316145  0.70654806  1
  Ti  Ti196  1  -0.00558548  0.79518380  0.79861893  1
  Ti  Ti197  1  0.10405371  0.90088783  0.30508873  1
  Ti  Ti198  1  0.00389977  0.20101125  0.20554769  1
  Ti  Ti199  1  0.29823417  0.90077599  0.89557922  1
  Mo  Mo200  1  0.70433628  0.10495048  0.50838524  1
  Mo  Mo201  1  0.20171043  0.59407276  -0.00623380  1
  Mo  Mo202  1  -0.00700983  0.59963997  0.79737323  1
  Mo  Mo203  1  0.60075423  -0.00057063  0.40229225  1
  Mo  Mo204  1  0.30432593  0.69356457  0.89188337  1
  Mo  Mo205  1  -0.00181299  0.40025662  -0.00036826  1
  Mo  Mo206  1  0.09730652  0.29965802  0.49634928  1
  Mo  Mo207  1  -0.00650041  0.19923297  0.79856432  1
  Mo  Mo208  1  0.28465821  0.10483335  0.50018994  1
  Mo  Mo209  1  0.80097669  -0.00188914  0.40417451  1
  Mo  Mo210  1  0.29917458  0.30181778  0.89594592  1
  Mo  Mo211  1  0.61315233  0.40086969  0.19411147  1
  Mo  Mo212  1  0.80785334  0.40011744  0.80148083  1
  Mo  Mo213  1  0.79967401  0.80641012  0.60284422  1
  Mo  Mo214  1  0.70209160  0.70141482  0.89564465  1
  Mo  Mo215  1  0.60412293  0.80216676  0.79829034  1
  Mo  Mo216  1  0.80312477  0.39789824  0.00079692  1
  Mo  Mo217  1  0.09697090  0.69519251  0.50575285  1
  Mo  Mo218  1  0.80186855  0.60214829  -0.00392858  1
  Mo  Mo219  1  0.40144213  0.59144039  0.60303854  1
  Mo  Mo220  1  0.79876966  0.00192345  0.60833496  1
  Mo  Mo221  1  0.79440965  0.59771274  0.19542818  1
  Mo  Mo222  1  0.10827285  0.69432196  0.09923250  1
  Mo  Mo223  1  0.10363094  0.70076440  0.30680563  1
  Mo  Mo224  1  -0.00621330  0.20103500  -0.00069111  1
  Mo  Mo225  1  0.69930262  0.30897886  0.89430026  1
  Mo  Mo226  1  0.50678763  0.89784677  0.88854090  1
  Mo  Mo227  1  -0.00742753  0.20546198  0.60056494  1
  Mo  Mo228  1  0.71085850  0.50225791  0.10180021  1
  Mo  Mo229  1  0.09225228  0.10215247  0.89795394  1
  Mo  Mo230  1  0.80890052  0.39294689  0.60809514  1
  Mo  Mo231  1  0.71233735  0.30463508  0.29206020  1
  Mo  Mo232  1  0.09502031  0.10843856  0.70231158  1
  Mo  Mo233  1  0.28937274  0.49870145  0.31494988  1
  Mo  Mo234  1  0.19517668  0.59551019  0.60132729  1
  Mo  Mo235  1  0.59895745  0.59795390  0.80323832  1
  Mo  Mo236  1  0.30006993  0.69894679  0.11013858  1
  Mo  Mo237  1  0.19194994  0.20072805  0.79190858  1
  Mo  Mo238  1  0.09904315  0.10394185  0.30226704  1
  Mo  Mo239  1  0.80118528  0.59877826  0.61182602  1
  Mo  Mo240  1  0.39595148  0.40069341  -0.00649278  1
  Mo  Mo241  1  0.49221697  0.71063093  0.10850639  1
  Mo  Mo242  1  0.38022416  0.20297071  0.19498047  1
  Mo  Mo243  1  0.30624732  0.69454011  0.69817363  1
  Mo  Mo244  1  0.00048894  0.40033730  0.40190316  1
  Mo  Mo245  1  0.09361157  0.30162129  0.29824286  1
  Mo  Mo246  1  0.09901558  0.49157161  0.08944165  1
  Mo  Mo247  1  0.80099455  0.79876141  0.80206483  1
  Mo  Mo248  1  0.79357930  0.79759930  -0.00083720  1
  Mo  Mo249  1  0.50560594  0.69819008  0.88486279  1
