# generated using pymatgen
data_HfZrTaTiMo
_symmetry_space_group_name_H-M   'P 1'
_cell_length_a   16.88381078
_cell_length_b   16.88494537
_cell_length_c   16.89151757
_cell_angle_alpha   89.94232800
_cell_angle_beta   89.94808009
_cell_angle_gamma   90.00233903
_symmetry_Int_Tables_number   1
_chemical_formula_structural   HfZrTaTiMo
_chemical_formula_sum   'Hf50 Zr50 Ta50 Ti50 Mo50'
_cell_volume   4815.46695050
_cell_formula_units_Z   50
loop_
 _symmetry_equiv_pos_site_id
 _symmetry_equiv_pos_as_xyz
  1  'x, y, z'
loop_
 _atom_site_type_symbol
 _atom_site_label
 _atom_site_symmetry_multiplicity
 _atom_site_fract_x
 _atom_site_fract_y
 _atom_site_fract_z
 _atom_site_occupancy
  Hf  Hf0  1  0.39505454  0.20142874  0.80280580  1
  Hf  Hf1  1  0.30111509  0.70209678  0.50149169  1
  Hf  Hf2  1  0.59529313  0.40415331  0.39984071  1
  Hf  Hf3  1  0.19800453  0.20632346  0.80411892  1
  Hf  Hf4  1  0.39931728  0.60906256  0.19350949  1
  Hf  Hf5  1  0.49538975  0.50627631  0.90197287  1
  Hf  Hf6  1  0.09977144  0.90874587  0.29650177  1
  Hf  Hf7  1  0.60162298  0.21072252  0.59296381  1
  Hf  Hf8  1  0.59450370  0.60955371  0.39735331  1
  Hf  Hf9  1  0.90685785  0.09944620  0.29379485  1
  Hf  Hf10  1  0.80337793  0.19615961  -0.00145941  1
  Hf  Hf11  1  0.31631961  0.90000800  0.89856426  1
  Hf  Hf12  1  0.10293544  0.49053984  0.50131612  1
  Hf  Hf13  1  0.00690741  0.80822717  0.80838906  1
  Hf  Hf14  1  0.69782154  0.50526954  0.69900747  1
  Hf  Hf15  1  0.49853477  0.30546677  0.70455116  1
  Hf  Hf16  1  0.79821772  0.00815872  0.00121078  1
  Hf  Hf17  1  0.69762619  0.30693506  0.09885076  1
  Hf  Hf18  1  0.69774600  0.89521584  0.29840807  1
  Hf  Hf19  1  0.10379129  0.68938275  0.89861212  1
  Hf  Hf20  1  0.58323816  0.19627117  0.01315253  1
  Hf  Hf21  1  0.50126665  0.89553455  0.29924013  1
  Hf  Hf22  1  0.89049183  0.90648726  0.29185834  1
  Hf  Hf23  1  0.90337550  0.69297227  0.09830452  1
  Hf  Hf24  1  -0.00813733  0.00275736  0.41318027  1
  Hf  Hf25  1  -0.00303342  0.80546977  0.59440921  1
  Hf  Hf26  1  0.50501430  0.50563407  0.69343122  1
  Hf  Hf27  1  0.39526329  0.21023449  0.39391653  1
  Hf  Hf28  1  0.69453116  0.89406088  0.49374507  1
  Hf  Hf29  1  0.39794340  -0.00196782  0.39715100  1
  Hf  Hf30  1  0.89501489  0.50089012  0.70543113  1
  Hf  Hf31  1  0.40486359  0.21524578  0.18993610  1
  Hf  Hf32  1  0.20160398  -0.00024786  0.59716706  1
  Hf  Hf33  1  0.89872020  0.50360102  0.49945490  1
  Hf  Hf34  1  0.69848120  0.51658073  0.50776997  1
  Hf  Hf35  1  0.91443154  0.09634594  0.10940306  1
  Hf  Hf36  1  0.59169278  0.20659850  0.20287908  1
  Hf  Hf37  1  0.30555811  0.89956419  0.50066594  1
  Hf  Hf38  1  0.39913344  0.60085402  0.79102018  1
  Hf  Hf39  1  0.90196476  0.69236925  0.89957597  1
  Hf  Hf40  1  0.49937124  0.69909422  0.89998017  1
  Hf  Hf41  1  0.10678795  0.49397101  0.29855276  1
  Hf  Hf42  1  0.30278414  0.10374187  0.09613002  1
  Hf  Hf43  1  0.59662026  -0.00383954  0.80074012  1
  Hf  Hf44  1  0.20166196  0.80225530  0.00390169  1
  Hf  Hf45  1  0.80067925  0.19669511  0.59630191  1
  Hf  Hf46  1  0.49595710  0.09007377  0.69464965  1
  Hf  Hf47  1  0.00758944  0.60294174  0.59862746  1
  Hf  Hf48  1  0.09944148  0.10620602  0.50196665  1
  Hf  Hf49  1  0.09428809  0.10042718  0.70254050  1
  Zr  Zr50  1  0.80750605  0.40060763  0.20201052  1
  Zr  Zr51  1  0.69705325  0.50949161  0.29173927  1
  Zr  Zr52  1  0.29764386  0.48926701  0.49422150  1
  Zr  Zr53  1  0.09371013  0.69269712  0.29420086  1
  Zr  Zr54  1  0.19690590  0.80006373  0.39831010  1
  Zr  Zr55  1  0.81796337  -0.00531514  0.58947605  1
  Zr  Zr56  1  0.21561947  0.59302438  0.00826836  1
  Zr  Zr57  1  0.80144388  0.20281543  0.40440320  1
  Zr  Zr58  1  0.69900634  0.50409147  0.90331271  1
  Zr  Zr59  1  0.00544771  0.20797094  -0.00749378  1
  Zr  Zr60  1  0.30419324  0.08844009  0.70161605  1
  Zr  Zr61  1  0.10223898  0.90570975  0.70168770  1
  Zr  Zr62  1  0.60106094  0.40119050  0.80241392  1
  Zr  Zr63  1  0.49748683  0.08981019  0.50296597  1
  Zr  Zr64  1  0.90134214  0.90294352  0.90375519  1
  Zr  Zr65  1  0.79441566  0.39189379  0.59830773  1
  Zr  Zr66  1  0.49146559  0.30290360  0.90577272  1
  Zr  Zr67  1  0.89413568  0.50453825  0.89272823  1
  Zr  Zr68  1  0.10021438  0.10010340  0.89958783  1
  Zr  Zr69  1  0.89889769  0.90631343  0.10494171  1
  Zr  Zr70  1  0.10091526  0.90659720  0.10527235  1
  Zr  Zr71  1  0.79357589  0.80556178  0.78978406  1
  Zr  Zr72  1  0.60490404  0.79669308  0.78576218  1
  Zr  Zr73  1  0.60092319  0.21204547  0.39557987  1
  Zr  Zr74  1  0.39550802  0.40112508  0.59325087  1
  Zr  Zr75  1  0.01051828  0.39722366  0.80729327  1
  Zr  Zr76  1  0.89955968  0.69607919  0.70302373  1
  Zr  Zr77  1  -0.00185840  0.79510126  0.19871634  1
  Zr  Zr78  1  0.69856124  0.89978972  0.10766314  1
  Zr  Zr79  1  0.69557700  0.09485755  0.69268777  1
  Zr  Zr80  1  0.79954928  0.21083136  0.20799875  1
  Zr  Zr81  1  -0.00641211  0.79793030  0.40636873  1
  Zr  Zr82  1  0.91286338  0.30174580  0.50431859  1
  Zr  Zr83  1  0.30644726  0.70003010  0.89478985  1
  Zr  Zr84  1  0.19484549  0.40107993  0.00228024  1
  Zr  Zr85  1  0.39236589  0.40190877  0.02035399  1
  Zr  Zr86  1  0.49523266  0.89133142  0.90554331  1
  Zr  Zr87  1  0.19934014  0.60568754  0.39939274  1
  Zr  Zr88  1  0.70249806  0.30205365  0.90363607  1
  Zr  Zr89  1  0.10671359  0.29322897  0.10875755  1
  Zr  Zr90  1  0.39252230  0.20849440  0.59485594  1
  Zr  Zr91  1  0.79632662  0.00257852  0.80015566  1
  Zr  Zr92  1  0.48493100  0.08621866  0.91247496  1
  Zr  Zr93  1  0.69013195  0.89861688  0.91520272  1
  Zr  Zr94  1  0.79520026  0.39116929  0.39314806  1
  Zr  Zr95  1  0.10840859  0.69623635  0.70882666  1
  Zr  Zr96  1  0.69499560  0.69516438  0.90750787  1
  Zr  Zr97  1  0.69849664  0.09017028  0.29919020  1
  Zr  Zr98  1  0.40469736  0.60101283  0.39588576  1
  Zr  Zr99  1  -0.00023702  0.39495932  0.20181670  1
  Ta  Ta100  1  0.20131131  0.59971865  0.59990596  1
  Ta  Ta101  1  0.88897451  0.69680479  0.50438535  1
  Ta  Ta102  1  0.80019108  0.79111692  0.00852526  1
  Ta  Ta103  1  0.58951757  0.78686886  0.19877942  1
  Ta  Ta104  1  0.21041949  0.60261092  0.19959003  1
  Ta  Ta105  1  0.30110642  0.70272474  0.69607840  1
  Ta  Ta106  1  0.00585385  0.58757597  0.00432839  1
  Ta  Ta107  1  0.39796367  0.79598613  0.20104228  1
  Ta  Ta108  1  0.90231828  0.29442935  0.70929661  1
  Ta  Ta109  1  0.21178709  0.79219807  0.19744089  1
  Ta  Ta110  1  0.40486045  0.79746654  0.59484798  1
  Ta  Ta111  1  0.69378488  0.08989354  0.49949549  1
  Ta  Ta112  1  0.89880511  0.30220772  0.89583193  1
  Ta  Ta113  1  0.69814869  0.50201781  0.10239605  1
  Ta  Ta114  1  0.10593977  0.10032486  0.10665805  1
  Ta  Ta115  1  -0.00011155  0.40519017  0.00236225  1
  Ta  Ta116  1  0.30458750  0.49531955  0.89044024  1
  Ta  Ta117  1  0.00886323  0.20745090  0.39207979  1
  Ta  Ta118  1  0.20170583  0.00702400  0.39579571  1
  Ta  Ta119  1  0.59975624  0.19500306  0.80251416  1
  Ta  Ta120  1  0.70305424  0.29839564  0.70692247  1
  Ta  Ta121  1  0.79954751  0.19598908  0.80260818  1
  Ta  Ta122  1  0.10207252  0.69215523  0.09912356  1
  Ta  Ta123  1  0.09904346  0.29898222  0.69583951  1
  Ta  Ta124  1  0.20372177  -0.00172587  -0.00125241  1
  Ta  Ta125  1  0.81225764  0.40308987  0.00691725  1
  Ta  Ta126  1  0.30043667  0.90118784  0.29488170  1
  Ta  Ta127  1  0.90540579  0.50860060  0.30586243  1
  Ta  Ta128  1  0.00511835  0.79617911  -0.00026003  1
  Ta  Ta129  1  0.91155256  0.10111366  0.70266876  1
  Ta  Ta130  1  0.30713625  0.89372700  0.70133893  1
  Ta  Ta131  1  0.10560990  0.30238239  0.50361516  1
  Ta  Ta132  1  0.58972623  0.39828426  0.20169840  1
  Ta  Ta133  1  0.29785284  0.10168073  0.49618971  1
  Ta  Ta134  1  0.20485069  0.20827794  0.59786235  1
  Ta  Ta135  1  0.49199076  0.90195324  0.69105139  1
  Ta  Ta136  1  0.59157956  0.60084685  0.01701459  1
  Ta  Ta137  1  0.30064686  0.30516515  0.90254594  1
  Ta  Ta138  1  0.20163731  -0.00651217  0.81006801  1
  Ta  Ta139  1  0.58984213  0.00231640  0.19565094  1
  Ta  Ta140  1  0.20258946  0.20312707  0.39624586  1
  Ta  Ta141  1  0.80381171  0.00047213  0.40606039  1
  Ta  Ta142  1  0.29293206  0.49977220  0.69997704  1
  Ta  Ta143  1  0.49363187  0.09839378  0.29664151  1
  Ta  Ta144  1  0.49748134  0.90047575  0.09628292  1
  Ta  Ta145  1  0.79768046  0.60944559  0.39842777  1
  Ta  Ta146  1  0.30204911  0.49310765  0.29479214  1
  Ta  Ta147  1  0.29998795  0.10046290  0.29562989  1
  Ta  Ta148  1  0.00349717  0.39474252  0.39402511  1
  Ta  Ta149  1  0.50077973  0.69991473  0.69260503  1
  Ti  Ti150  1  0.50473857  0.70504780  0.49990809  1
  Ti  Ti151  1  0.68791575  0.10035811  0.90668460  1
  Ti  Ti152  1  0.40234581  0.00063621  0.19688440  1
  Ti  Ti153  1  0.91219079  0.10120730  0.88747123  1
  Ti  Ti154  1  0.89790061  0.69315152  0.30152158  1
  Ti  Ti155  1  0.79955640  0.79979393  0.59720961  1
  Ti  Ti156  1  0.69418062  0.70222864  0.29695028  1
  Ti  Ti157  1  0.59854559  0.78921643  0.01522174  1
  Ti  Ti158  1  0.30248403  0.31266851  0.29252523  1
  Ti  Ti159  1  0.29415545  0.31264648  0.70254182  1
  Ti  Ti160  1  0.79708232  0.78838789  0.19845175  1
  Ti  Ti161  1  0.49273353  0.49801049  0.29488416  1
  Ti  Ti162  1  0.91274567  0.91299192  0.70201829  1
  Ti  Ti163  1  0.00038943  0.60413460  0.40705511  1
  Ti  Ti164  1  0.00951184  -0.00324535  -0.00522280  1
  Ti  Ti165  1  0.10015405  0.90452819  0.50149941  1
  Ti  Ti166  1  0.49888386  0.50404818  0.10835696  1
  Ti  Ti167  1  0.80494658  0.59808690  0.20040996  1
  Ti  Ti168  1  0.80034503  0.59428104  0.01049602  1
  Ti  Ti169  1  0.78487755  0.61125736  0.79319706  1
  Ti  Ti170  1  0.20377995  0.80617777  0.80395097  1
  Ti  Ti171  1  0.30481220  0.09589175  0.90567467  1
  Ti  Ti172  1  0.69515514  0.09584622  0.10436673  1
  Ti  Ti173  1  0.40246232  0.59945111  0.59249717  1
  Ti  Ti174  1  0.40537633  0.79363018  0.39354615  1
  Ti  Ti175  1  0.39740835  0.78473160  0.02014320  1
  Ti  Ti176  1  0.10690169  0.50702092  0.89230646  1
  Ti  Ti177  1  0.69070021  0.90593984  0.68204959  1
  Ti  Ti178  1  0.90675512  0.29404584  0.10078202  1
  Ti  Ti179  1  0.60046966  0.39801942  0.59099655  1
  Ti  Ti180  1  0.49235795  0.31137124  0.49286641  1
  Ti  Ti181  1  0.20672880  0.20464255  -0.00365367  1
  Ti  Ti182  1  0.00384592  0.40072906  0.60726624  1
  Ti  Ti183  1  0.79726834  0.79258599  0.40048966  1
  Ti  Ti184  1  0.69647614  0.68889931  0.10979024  1
  Ti  Ti185  1  0.19588390  0.79622880  0.59690400  1
  Ti  Ti186  1  0.30604155  0.90267910  0.10232831  1
  Ti  Ti187  1  0.59415001  0.80056432  0.58918455  1
  Ti  Ti188  1  0.59431642  0.40612459  0.00915150  1
  Ti  Ti189  1  0.10790388  0.49952402  0.70366110  1
  Ti  Ti190  1  0.10191493  0.10321252  0.29224253  1
  Ti  Ti191  1  -0.00254206  0.59050362  0.19489172  1
  Ti  Ti192  1  0.10602867  0.49957417  0.10884328  1
  Ti  Ti193  1  0.20682885  0.00223759  0.20069352  1
  Ti  Ti194  1  0.59333134  -0.00501291  0.40067267  1
  Ti  Ti195  1  0.20632020  0.20678103  0.20884892  1
  Ti  Ti196  1  0.19888819  0.39771535  0.80209060  1
  Ti  Ti197  1  0.69200976  0.68894947  0.67200167  1
  Ti  Ti198  1  0.20122865  0.38551849  0.39548202  1
  Ti  Ti199  1  -0.00119185  0.19847446  0.59874886  1
  Mo  Mo200  1  0.39598507  -0.00490835  0.79748434  1
  Mo  Mo201  1  0.59778890  0.79335062  0.39435874  1
  Mo  Mo202  1  0.29976671  0.49864207  0.11119364  1
  Mo  Mo203  1  0.29130269  0.29843574  0.49327296  1
  Mo  Mo204  1  0.50117925  0.31193200  0.10108996  1
  Mo  Mo205  1  0.10796603  0.90148853  0.90602851  1
  Mo  Mo206  1  0.59502617  0.00356022  0.01168184  1
  Mo  Mo207  1  0.29662943  0.29782021  0.10057140  1
  Mo  Mo208  1  0.40429441  0.59519493  0.00207054  1
  Mo  Mo209  1  0.00024881  0.00095852  0.59878698  1
  Mo  Mo210  1  0.50041791  0.88897130  0.49601062  1
  Mo  Mo211  1  0.01101737  0.19969968  0.20430362  1
  Mo  Mo212  1  0.80169459  0.38928394  0.80114953  1
  Mo  Mo213  1  0.68719481  0.30696990  0.29874466  1
  Mo  Mo214  1  0.69335359  0.30272056  0.50457650  1
  Mo  Mo215  1  0.40102524  0.40009797  0.39381096  1
  Mo  Mo216  1  0.09918184  0.69817255  0.50691692  1
  Mo  Mo217  1  0.59855820  0.60662097  0.78923958  1
  Mo  Mo218  1  0.49888675  0.70153420  0.09889909  1
  Mo  Mo219  1  0.20582379  0.59166724  0.79474048  1
  Mo  Mo220  1  0.59159643  0.60727502  0.59072374  1
  Mo  Mo221  1  0.39334618  -0.00612131  0.01162515  1
  Mo  Mo222  1  0.01045572  0.59313973  0.80350981  1
  Mo  Mo223  1  0.20883829  0.40271459  0.19944585  1
  Mo  Mo224  1  0.30394291  0.70580103  0.29799486  1
  Mo  Mo225  1  0.78751054  0.00700345  0.20062460  1
  Mo  Mo226  1  0.40197120  0.79708601  0.78276859  1
  Mo  Mo227  1  0.91560292  0.29850577  0.30057959  1
  Mo  Mo228  1  -0.00268105  0.20345661  0.79675290  1
  Mo  Mo229  1  0.90113625  0.50311854  0.10017778  1
  Mo  Mo230  1  0.10370256  0.30396134  0.89919684  1
  Mo  Mo231  1  0.79978605  0.60502649  0.59729305  1
  Mo  Mo232  1  0.40144570  0.40512598  0.20342976  1
  Mo  Mo233  1  0.90566022  0.10605882  0.49915230  1
  Mo  Mo234  1  0.59588496  0.59889754  0.19943752  1
  Mo  Mo235  1  0.39004117  0.40245921  0.79657697  1
  Mo  Mo236  1  0.39716332  -0.01097170  0.59411147  1
  Mo  Mo237  1  0.19505592  0.39794804  0.60758246  1
  Mo  Mo238  1  0.00227614  0.00232627  0.80265280  1
  Mo  Mo239  1  0.38844809  0.20432289  0.00190382  1
  Mo  Mo240  1  0.01509367  0.00583020  0.20577009  1
  Mo  Mo241  1  0.59488508  -0.01204537  0.59246228  1
  Mo  Mo242  1  0.49971168  0.70404839  0.29705893  1
  Mo  Mo243  1  0.49169894  0.31167573  0.29965292  1
  Mo  Mo244  1  0.89150711  0.88855835  0.49506811  1
  Mo  Mo245  1  0.11034185  0.29755707  0.30355548  1
  Mo  Mo246  1  0.49294248  0.09014732  0.10516878  1
  Mo  Mo247  1  0.70076935  0.70764840  0.49792437  1
  Mo  Mo248  1  0.30022229  0.69997319  0.10023065  1
  Mo  Mo249  1  0.50204174  0.50375136  0.50227630  1
