# generated using pymatgen
data_HfZrTaTiMo
_symmetry_space_group_name_H-M   'P 1'
_cell_length_a   16.89250976
_cell_length_b   16.88934200
_cell_length_c   16.89308407
_cell_angle_alpha   89.97037858
_cell_angle_beta   90.01938581
_cell_angle_gamma   90.06790329
_symmetry_Int_Tables_number   1
_chemical_formula_structural   HfZrTaTiMo
_chemical_formula_sum   'Hf50 Zr50 Ta50 Ti50 Mo50'
_cell_volume   4819.64958906
_cell_formula_units_Z   50
loop_
 _symmetry_equiv_pos_site_id
 _symmetry_equiv_pos_as_xyz
  1  'x, y, z'
loop_
 _atom_site_type_symbol
 _atom_site_label
 _atom_site_symmetry_multiplicity
 _atom_site_fract_x
 _atom_site_fract_y
 _atom_site_fract_z
 _atom_site_occupancy
  Hf  Hf0  1  0.79324768  0.20406837  0.79852298  1
  Hf  Hf1  1  0.09652792  0.29453674  0.09683824  1
  Hf  Hf2  1  0.69944681  0.30160901  0.30794170  1
  Hf  Hf3  1  0.60354961  0.40675181  0.20366098  1
  Hf  Hf4  1  0.69049330  0.29653271  0.50198171  1
  Hf  Hf5  1  0.10070211  0.90355798  0.50497028  1
  Hf  Hf6  1  0.79130610  0.80483468  0.79047267  1
  Hf  Hf7  1  0.09430238  0.30575120  0.91132189  1
  Hf  Hf8  1  0.79944952  0.59649085  0.20226220  1
  Hf  Hf9  1  0.60619332  0.19828974  0.00447775  1
  Hf  Hf10  1  0.90834151  0.10346467  0.29287405  1
  Hf  Hf11  1  0.79472791  0.40547087  0.19695523  1
  Hf  Hf12  1  0.10038170  0.48867759  0.07072312  1
  Hf  Hf13  1  0.90578311  0.48933658  0.89956113  1
  Hf  Hf14  1  0.49783402  0.30077857  0.30489487  1
  Hf  Hf15  1  0.30127346  0.29356729  0.29875517  1
  Hf  Hf16  1  0.90327175  0.70468678  0.10571475  1
  Hf  Hf17  1  0.51830109  0.10391934  0.51316506  1
  Hf  Hf18  1  0.19765192  0.19436145  0.80616731  1
  Hf  Hf19  1  0.78804241  0.40401611  0.79767160  1
  Hf  Hf20  1  0.00848332  0.60316374  0.79962918  1
  Hf  Hf21  1  0.59840790  0.21159280  0.78697860  1
  Hf  Hf22  1  0.80644868  0.59958457  0.59271383  1
  Hf  Hf23  1  0.09630519  0.28815057  0.29909662  1
  Hf  Hf24  1  0.60220852  0.79839386  0.40161574  1
  Hf  Hf25  1  0.40211980  0.18906015  0.40172811  1
  Hf  Hf26  1  0.30394030  0.90127390  0.89692851  1
  Hf  Hf27  1  0.68847137  0.10265183  0.67977274  1
  Hf  Hf28  1  0.40431730  0.40361897  0.59968288  1
  Hf  Hf29  1  0.79685835  0.59992499  -0.00688023  1
  Hf  Hf30  1  0.30536159  0.10205509  0.10442893  1
  Hf  Hf31  1  0.49633579  0.70465605  0.10816991  1
  Hf  Hf32  1  0.59322101  -0.00239169  0.39421892  1
  Hf  Hf33  1  0.09895499  0.71009015  0.09465739  1
  Hf  Hf34  1  0.19445612  0.40296396  0.20659693  1
  Hf  Hf35  1  0.19773064  0.79035810  0.79975366  1
  Hf  Hf36  1  0.30552822  0.89408384  0.10034829  1
  Hf  Hf37  1  0.80764832  0.40336027  0.41195727  1
  Hf  Hf38  1  -0.00007208  0.40649395  0.19971770  1
  Hf  Hf39  1  0.31228318  0.69794981  0.48363617  1
  Hf  Hf40  1  -0.01377808  0.59563813  0.40730842  1
  Hf  Hf41  1  0.29545541  0.49340326  0.89614107  1
  Hf  Hf42  1  0.60457927  0.59017644  0.79904854  1
  Hf  Hf43  1  0.79426412  0.19452632  0.18725220  1
  Hf  Hf44  1  0.60622768  0.78935297  0.60071023  1
  Hf  Hf45  1  0.09530262  0.28067481  0.69513440  1
  Hf  Hf46  1  0.09470924  0.89670827  0.90699633  1
  Hf  Hf47  1  0.29346176  0.49673667  0.09064977  1
  Hf  Hf48  1  0.20441142  0.39439974  0.59258598  1
  Hf  Hf49  1  0.50159707  0.51016151  0.09826418  1
  Zr  Zr50  1  0.20118673  0.80464377  0.19550600  1
  Zr  Zr51  1  0.19462029  0.59481994  0.19849991  1
  Zr  Zr52  1  0.60398106  0.60365456  0.21246324  1
  Zr  Zr53  1  0.29130148  0.09274418  0.69603109  1
  Zr  Zr54  1  0.60228487  0.41288645  -0.01043384  1
  Zr  Zr55  1  0.80380745  0.20942055  0.59478345  1
  Zr  Zr56  1  0.09998194  0.70141633  0.49886052  1
  Zr  Zr57  1  0.10738104  0.49838996  0.69561832  1
  Zr  Zr58  1  0.90054637  0.29212756  0.29631233  1
  Zr  Zr59  1  0.20056841  0.78863759  0.60302730  1
  Zr  Zr60  1  0.40623725  0.20511668  0.60635026  1
  Zr  Zr61  1  0.59166783  0.60318043  0.41708375  1
  Zr  Zr62  1  0.69431610  0.70577085  0.90150793  1
  Zr  Zr63  1  0.70037159  0.09440853  0.90679635  1
  Zr  Zr64  1  0.50003906  0.09028789  0.89699016  1
  Zr  Zr65  1  0.19531345  -0.00337183  0.00629423  1
  Zr  Zr66  1  0.30538096  0.90280745  0.70458898  1
  Zr  Zr67  1  0.80494420  0.80314597  0.20616499  1
  Zr  Zr68  1  0.41402896  -0.00675503  0.60126665  1
  Zr  Zr69  1  0.71322374  0.90325480  0.49749351  1
  Zr  Zr70  1  0.09259036  0.69996432  0.29693859  1
  Zr  Zr71  1  0.29918161  0.90185682  0.50441236  1
  Zr  Zr72  1  0.08672082  0.10128957  0.90336437  1
  Zr  Zr73  1  0.90694153  0.30316142  0.70299570  1
  Zr  Zr74  1  0.00425043  0.39904410  0.40297952  1
  Zr  Zr75  1  0.30308964  0.49953959  0.70070289  1
  Zr  Zr76  1  0.30719149  0.68920683  0.69873443  1
  Zr  Zr77  1  0.20229247  0.00349784  0.39271727  1
  Zr  Zr78  1  0.91628297  0.11288466  0.70311741  1
  Zr  Zr79  1  -0.00364447  0.60227127  -0.00478178  1
  Zr  Zr80  1  0.48800520  0.29505175  0.10001027  1
  Zr  Zr81  1  0.60336363  0.19158943  0.20450198  1
  Zr  Zr82  1  0.40481982  -0.01047495  0.22076336  1
  Zr  Zr83  1  0.69670553  0.90126679  0.90461216  1
  Zr  Zr84  1  0.39750098  0.60240479  -0.00452742  1
  Zr  Zr85  1  0.49144721  0.30186658  0.89883427  1
  Zr  Zr86  1  0.70734294  0.90444729  0.10112179  1
  Zr  Zr87  1  0.00100252  0.00774847  0.40476290  1
  Zr  Zr88  1  0.80169443  0.60242541  0.79221009  1
  Zr  Zr89  1  0.50799432  0.70134908  0.90341225  1
  Zr  Zr90  1  0.09496150  0.89609072  0.70205558  1
  Zr  Zr91  1  0.91513085  0.71681818  0.69513050  1
  Zr  Zr92  1  0.49060136  0.10131326  0.10437849  1
  Zr  Zr93  1  -0.00893921  0.80378973  0.39719424  1
  Zr  Zr94  1  0.48483232  0.70299984  0.30912002  1
  Zr  Zr95  1  0.79686498  0.00116679  0.78992334  1
  Zr  Zr96  1  0.50150054  0.89700187  0.89984329  1
  Zr  Zr97  1  -0.00068062  0.59996070  0.59701815  1
  Zr  Zr98  1  0.39759527  0.19249995  0.80011346  1
  Zr  Zr99  1  0.39462620  0.40728457  0.20393479  1
  Ta  Ta100  1  0.70313813  0.09831279  0.49718139  1
  Ta  Ta101  1  0.90529949  0.90217027  0.69759873  1
  Ta  Ta102  1  0.40422663  0.00279260  0.40113603  1
  Ta  Ta103  1  0.90264572  0.89992265  0.51225534  1
  Ta  Ta104  1  0.89570527  0.10012168  0.90814648  1
  Ta  Ta105  1  0.29969841  0.70402546  0.29785408  1
  Ta  Ta106  1  0.59858472  0.80821840  0.20884961  1
  Ta  Ta107  1  0.60248809  -0.00004736  0.20653860  1
  Ta  Ta108  1  0.89958912  0.90643001  0.90312894  1
  Ta  Ta109  1  0.40868190  0.79381074  0.79512002  1
  Ta  Ta110  1  -0.00253424  0.00163370  0.80134283  1
  Ta  Ta111  1  0.10588446  0.49896048  0.49745143  1
  Ta  Ta112  1  0.89682778  0.50269899  0.30266077  1
  Ta  Ta113  1  0.69699345  0.70250449  0.10042333  1
  Ta  Ta114  1  0.29347670  0.09898582  0.50688763  1
  Ta  Ta115  1  0.41238094  0.59209990  0.79930929  1
  Ta  Ta116  1  0.08688461  0.09617167  0.10419675  1
  Ta  Ta117  1  0.41657472  0.59539834  0.58754407  1
  Ta  Ta118  1  0.59352773  0.40508642  0.79273422  1
  Ta  Ta119  1  0.79552618  0.40139598  -0.00115454  1
  Ta  Ta120  1  0.70148619  0.30165456  0.90122135  1
  Ta  Ta121  1  0.39409912  0.40552932  0.41255277  1
  Ta  Ta122  1  0.38775584  0.60310037  0.20184656  1
  Ta  Ta123  1  0.80039918  0.00617279  0.19895639  1
  Ta  Ta124  1  0.59990605  0.80356923  0.01632690  1
  Ta  Ta125  1  0.09743340  0.70833885  0.90283339  1
  Ta  Ta126  1  0.29861665  0.30208327  0.70685547  1
  Ta  Ta127  1  0.89790035  0.29605040  0.90378713  1
  Ta  Ta128  1  0.00830270  0.40048269  0.80104054  1
  Ta  Ta129  1  0.70741801  0.90425213  0.30174840  1
  Ta  Ta130  1  0.20034152  0.80718934  0.38895367  1
  Ta  Ta131  1  0.50452250  0.30204617  0.49934061  1
  Ta  Ta132  1  0.30091438  0.29865261  0.90394396  1
  Ta  Ta133  1  0.20395662  0.19312302  0.00065806  1
  Ta  Ta134  1  0.59925413  0.59922415  0.60065253  1
  Ta  Ta135  1  0.19761173  0.19561592  0.40190255  1
  Ta  Ta136  1  0.19816463  0.19386662  0.19737252  1
  Ta  Ta137  1  0.89850220  0.29947223  0.09152410  1
  Ta  Ta138  1  0.19587466  0.39388652  0.80345388  1
  Ta  Ta139  1  0.30043679  0.29431372  0.09538566  1
  Ta  Ta140  1  0.20362850  0.40019075  0.40231712  1
  Ta  Ta141  1  -0.00198029  0.39600872  0.59037997  1
  Ta  Ta142  1  0.00151944  0.58971553  0.20140524  1
  Ta  Ta143  1  0.09418022  0.10266559  0.28882668  1
  Ta  Ta144  1  0.80560545  0.80361313  0.00192190  1
  Ta  Ta145  1  0.09062134  0.90669292  0.28527956  1
  Ta  Ta146  1  0.49118469  0.50313938  0.30923878  1
  Ta  Ta147  1  0.00295984  0.00760152  0.60337666  1
  Ta  Ta148  1  0.59990238  -0.01669591  0.78174931  1
  Ta  Ta149  1  0.59585997  0.40347041  0.60571079  1
  Ti  Ti150  1  0.80245368  0.39916600  0.59800477  1
  Ti  Ti151  1  0.89827155  0.69482442  0.29996282  1
  Ti  Ti152  1  -0.00914923  0.19743757  0.00280735  1
  Ti  Ti153  1  0.40090891  0.40296436  -0.00520153  1
  Ti  Ti154  1  0.69986907  0.49999460  0.69027264  1
  Ti  Ti155  1  0.89999134  0.49695854  0.09572293  1
  Ti  Ti156  1  0.59369042  0.40930717  0.40691219  1
  Ti  Ti157  1  0.29841672  0.10252022  0.29668700  1
  Ti  Ti158  1  0.80349721  0.19754821  0.40469124  1
  Ti  Ti159  1  0.39418325  0.82414482  0.38197260  1
  Ti  Ti160  1  0.39683978  0.79481876  0.00250979  1
  Ti  Ti161  1  0.60298843  -0.02139023  0.60088157  1
  Ti  Ti162  1  0.89930216  0.10057096  0.50423799  1
  Ti  Ti163  1  0.80534924  0.00131535  0.60195292  1
  Ti  Ti164  1  0.79926759  0.79749992  0.60088789  1
  Ti  Ti165  1  0.49802822  0.88974608  0.49753939  1
  Ti  Ti166  1  0.39771041  0.00252218  -0.00367480  1
  Ti  Ti167  1  0.70634269  0.09643056  0.30598849  1
  Ti  Ti168  1  0.90378593  0.90846787  0.29319555  1
  Ti  Ti169  1  0.20029181  0.61103404  -0.00851401  1
  Ti  Ti170  1  -0.00457141  0.80945546  0.00474972  1
  Ti  Ti171  1  0.59951262  0.19218059  0.39720279  1
  Ti  Ti172  1  0.40953641  0.79212360  0.60184958  1
  Ti  Ti173  1  0.29978534  0.50609230  0.30943251  1
  Ti  Ti174  1  0.50657415  0.69606350  0.70145789  1
  Ti  Ti175  1  0.70287879  0.30283413  0.09318467  1
  Ti  Ti176  1  0.10370810  0.29184597  0.50195142  1
  Ti  Ti177  1  0.19546737  -0.00072099  0.19782482  1
  Ti  Ti178  1  0.19420381  0.00486364  0.80378578  1
  Ti  Ti179  1  0.90468960  0.49326571  0.69715818  1
  Ti  Ti180  1  0.80895262  0.79983016  0.39990878  1
  Ti  Ti181  1  0.19495173  0.60081489  0.80520971  1
  Ti  Ti182  1  0.29840634  0.28877844  0.50047477  1
  Ti  Ti183  1  0.90538067  0.71547862  0.89616134  1
  Ti  Ti184  1  0.80842699  0.00217645  0.39936662  1
  Ti  Ti185  1  0.19851632  0.59453851  0.39723695  1
  Ti  Ti186  1  0.71483581  0.69654227  0.49383240  1
  Ti  Ti187  1  0.70325815  0.50608089  0.31702452  1
  Ti  Ti188  1  0.30165810  0.70203479  0.89903091  1
  Ti  Ti189  1  0.69437671  0.51139520  0.09199414  1
  Ti  Ti190  1  0.11018182  0.10610891  0.51719812  1
  Ti  Ti191  1  0.59817495  -0.00010534  0.01531305  1
  Ti  Ti192  1  0.49585547  0.89640113  0.10676324  1
  Ti  Ti193  1  0.70090203  0.50003104  0.50287768  1
  Ti  Ti194  1  0.90889614  0.91020062  0.10052624  1
  Ti  Ti195  1  0.20571744  0.59893560  0.59232220  1
  Ti  Ti196  1  0.50407847  0.09116528  0.70146862  1
  Ti  Ti197  1  0.70738203  0.70144485  0.30629225  1
  Ti  Ti198  1  0.00188861  0.19609962  0.41278691  1
  Ti  Ti199  1  0.89786864  0.09651393  0.09184627  1
  Mo  Mo200  1  0.48896183  0.70747685  0.50153484  1
  Mo  Mo201  1  -0.00121556  0.80765353  0.59824017  1
  Mo  Mo202  1  0.80004612  0.20259835  0.00083392  1
  Mo  Mo203  1  0.59845335  0.21373921  0.60034508  1
  Mo  Mo204  1  0.79830027  0.60088545  0.40161285  1
  Mo  Mo205  1  0.20885935  0.38718562  -0.00357862  1
  Mo  Mo206  1  0.50129084  0.09982768  0.30726184  1
  Mo  Mo207  1  0.20310418  0.20248507  0.59617426  1
  Mo  Mo208  1  -0.00238716  0.80753123  0.19835862  1
  Mo  Mo209  1  0.30030548  0.09641748  0.90519413  1
  Mo  Mo210  1  0.39089773  0.19954837  0.20742436  1
  Mo  Mo211  1  0.09935306  0.09581301  0.70031000  1
  Mo  Mo212  1  0.89144343  0.71420705  0.49805623  1
  Mo  Mo213  1  0.39800683  0.79791369  0.20197396  1
  Mo  Mo214  1  0.59966043  0.79724931  0.78368857  1
  Mo  Mo215  1  0.60429042  0.60714338  0.00125605  1
  Mo  Mo216  1  0.20758855  0.79280448  -0.00347463  1
  Mo  Mo217  1  -0.00800198  -0.00129793  0.00222226  1
  Mo  Mo218  1  -0.00538366  0.00122108  0.19444763  1
  Mo  Mo219  1  0.89902977  0.49123182  0.50498762  1
  Mo  Mo220  1  0.09784351  0.50035776  0.31202026  1
  Mo  Mo221  1  0.50309694  0.49566271  0.50017433  1
  Mo  Mo222  1  0.70139797  0.09206858  0.10161848  1
  Mo  Mo223  1  0.10464057  0.69565902  0.70674448  1
  Mo  Mo224  1  0.00394397  0.19982255  0.58149292  1
  Mo  Mo225  1  -0.01197456  0.39721771  -0.00207896  1
  Mo  Mo226  1  -0.00326137  0.20161226  0.81571915  1
  Mo  Mo227  1  0.29016441  0.90307806  0.29867666  1
  Mo  Mo228  1  -0.00261975  0.19699310  0.18698580  1
  Mo  Mo229  1  0.70516292  0.89877406  0.69035189  1
  Mo  Mo230  1  0.69930356  0.69573745  0.69136944  1
  Mo  Mo231  1  0.38954897  0.19442603  -0.00495841  1
  Mo  Mo232  1  0.39809127  0.39997591  0.79777539  1
  Mo  Mo233  1  0.50812974  0.89825227  0.30215107  1
  Mo  Mo234  1  0.19141346  0.00640767  0.60450820  1
  Mo  Mo235  1  0.49634132  0.49856695  0.89427783  1
  Mo  Mo236  1  0.39296678  0.58986335  0.39921949  1
  Mo  Mo237  1  0.10650757  0.50097881  0.89510842  1
  Mo  Mo238  1  -0.00277275  0.80565595  0.80874989  1
  Mo  Mo239  1  0.29728879  0.50558089  0.49651260  1
  Mo  Mo240  1  0.50407400  0.88684303  0.70041082  1
  Mo  Mo241  1  0.69406383  0.30961515  0.69646768  1
  Mo  Mo242  1  0.40964763  -0.00682380  0.79929968  1
  Mo  Mo243  1  0.90405923  0.29510610  0.49971776  1
  Mo  Mo244  1  0.49567963  0.31201032  0.69982350  1
  Mo  Mo245  1  0.09112789  0.90243012  0.10119653  1
  Mo  Mo246  1  0.29885101  0.70109806  0.09666916  1
  Mo  Mo247  1  0.70051677  0.49749075  0.89820863  1
  Mo  Mo248  1  0.80724183  0.00109163  0.00618229  1
  Mo  Mo249  1  0.50289462  0.50332404  0.69732511  1
