# generated using pymatgen
data_HfZrTaTiMo
_symmetry_space_group_name_H-M   'P 1'
_cell_length_a   16.88578696
_cell_length_b   16.88823711
_cell_length_c   16.89321130
_cell_angle_alpha   89.92314440
_cell_angle_beta   90.00499075
_cell_angle_gamma   90.06680153
_symmetry_Int_Tables_number   1
_chemical_formula_structural   HfZrTaTiMo
_chemical_formula_sum   'Hf50 Zr50 Ta50 Ti50 Mo50'
_cell_volume   4817.44927195
_cell_formula_units_Z   50
loop_
 _symmetry_equiv_pos_site_id
 _symmetry_equiv_pos_as_xyz
  1  'x, y, z'
loop_
 _atom_site_type_symbol
 _atom_site_label
 _atom_site_symmetry_multiplicity
 _atom_site_fract_x
 _atom_site_fract_y
 _atom_site_fract_z
 _atom_site_occupancy
  Hf  Hf0  1  0.90123376  0.49193212  0.49536085  1
  Hf  Hf1  1  0.00798615  0.59255905  0.59783566  1
  Hf  Hf2  1  0.89502030  0.69191250  0.70536315  1
  Hf  Hf3  1  0.69340573  0.71104699  0.30126664  1
  Hf  Hf4  1  0.30514181  0.30333695  0.49069327  1
  Hf  Hf5  1  0.79255518  0.18921131  -0.00190983  1
  Hf  Hf6  1  0.39121566  0.00498516  -0.00196063  1
  Hf  Hf7  1  0.30864136  0.70041566  0.89699667  1
  Hf  Hf8  1  0.70457852  0.09818901  0.49923710  1
  Hf  Hf9  1  0.20375192  0.39236815  0.80551467  1
  Hf  Hf10  1  0.00882811  0.59965245  0.80648181  1
  Hf  Hf11  1  0.30267948  0.49573245  0.09253411  1
  Hf  Hf12  1  0.00412318  0.18940714  -0.00597947  1
  Hf  Hf13  1  0.49692867  0.09609078  0.71282094  1
  Hf  Hf14  1  0.70161762  0.49689882  0.90269088  1
  Hf  Hf15  1  0.89706286  0.69518046  0.90060826  1
  Hf  Hf16  1  0.00848570  -0.00438425  0.19674075  1
  Hf  Hf17  1  0.89882485  0.70294226  0.49727544  1
  Hf  Hf18  1  0.10198851  0.70317851  0.49432198  1
  Hf  Hf19  1  0.00136774  -0.00545486  0.38929836  1
  Hf  Hf20  1  0.51178089  0.90688396  0.09571141  1
  Hf  Hf21  1  0.90532569  0.49597258  0.10016172  1
  Hf  Hf22  1  0.41013038  0.00908127  0.39814487  1
  Hf  Hf23  1  0.29738864  0.89458783  0.29982867  1
  Hf  Hf24  1  0.01018770  0.39292208  0.21578674  1
  Hf  Hf25  1  0.69900173  0.30654473  0.48777691  1
  Hf  Hf26  1  0.80096278  0.60710272  0.39466903  1
  Hf  Hf27  1  0.90476174  0.10457457  0.28344706  1
  Hf  Hf28  1  0.19969544  0.20190212  0.19716338  1
  Hf  Hf29  1  0.10566753  0.30214348  0.09073643  1
  Hf  Hf30  1  0.18834688  0.40661698  0.39041948  1
  Hf  Hf31  1  0.19651978  0.00110341  0.38861846  1
  Hf  Hf32  1  0.49957730  0.30311316  0.49022972  1
  Hf  Hf33  1  -0.00640256  0.00156262  0.79792940  1
  Hf  Hf34  1  0.09279727  0.70546932  0.10515024  1
  Hf  Hf35  1  0.50990208  0.89255403  0.29605555  1
  Hf  Hf36  1  0.20088419  0.20171442  0.60391405  1
  Hf  Hf37  1  -0.00493912  0.80506989  0.61172806  1
  Hf  Hf38  1  0.39620339  0.81099286  0.00529124  1
  Hf  Hf39  1  0.30527373  0.71013555  0.70650939  1
  Hf  Hf40  1  0.19282731  0.60199655  -0.00885853  1
  Hf  Hf41  1  0.11319116  0.90916808  0.70415395  1
  Hf  Hf42  1  0.90538630  0.90233015  0.09589317  1
  Hf  Hf43  1  0.80139033  0.39312069  0.60239032  1
  Hf  Hf44  1  0.39049288  0.59892575  0.60237454  1
  Hf  Hf45  1  0.69348055  0.49445661  0.29999141  1
  Hf  Hf46  1  0.10602480  0.89932368  0.49704289  1
  Hf  Hf47  1  -0.00261788  0.00584527  0.60572903  1
  Hf  Hf48  1  0.29735637  0.69965487  0.30040271  1
  Hf  Hf49  1  0.49657922  0.30621118  0.30099291  1
  Zr  Zr50  1  0.70397854  0.10697557  0.71295790  1
  Zr  Zr51  1  0.49202407  0.70467347  0.70522465  1
  Zr  Zr52  1  0.09496759  0.49207962  0.09303158  1
  Zr  Zr53  1  0.80224894  0.37714369  0.20898825  1
  Zr  Zr54  1  0.18950107  0.58305055  0.20923349  1
  Zr  Zr55  1  0.40284781  0.19736685  0.60181209  1
  Zr  Zr56  1  0.79528990  0.80227367  0.00988661  1
  Zr  Zr57  1  0.20028902  0.59463275  0.79984981  1
  Zr  Zr58  1  0.90063276  0.49289632  0.90110852  1
  Zr  Zr59  1  0.80091708  0.38992347  0.00777167  1
  Zr  Zr60  1  0.00221073  0.20776180  0.59463650  1
  Zr  Zr61  1  0.20395557  0.79663868  0.60197675  1
  Zr  Zr62  1  0.69356957  0.49036373  0.10913713  1
  Zr  Zr63  1  0.80780096  0.00182455  0.60972326  1
  Zr  Zr64  1  0.89462479  0.49259057  0.30506764  1
  Zr  Zr65  1  0.60159709  0.80530560  0.80700263  1
  Zr  Zr66  1  0.79110002  0.59048357  0.59807986  1
  Zr  Zr67  1  0.49355584  0.70115668  0.90656945  1
  Zr  Zr68  1  0.59598786  0.59447516  0.80332020  1
  Zr  Zr69  1  0.79817060  0.21055953  0.38115492  1
  Zr  Zr70  1  0.69608915  0.29868376  0.89763180  1
  Zr  Zr71  1  0.59147006  0.18222738  0.39396951  1
  Zr  Zr72  1  0.50047203  0.70616739  0.50843928  1
  Zr  Zr73  1  0.60391925  0.80521827  0.60504601  1
  Zr  Zr74  1  0.18811720  0.20909900  0.39810567  1
  Zr  Zr75  1  0.39757568  0.00253784  0.19605306  1
  Zr  Zr76  1  0.89383736  0.89679507  0.49697839  1
  Zr  Zr77  1  0.81111311  0.81797391  0.80031458  1
  Zr  Zr78  1  0.30864808  0.68729206  0.10497517  1
  Zr  Zr79  1  0.90279315  0.10914332  0.48762170  1
  Zr  Zr80  1  0.39448341  0.39919323  0.19835056  1
  Zr  Zr81  1  0.39437606  0.40209397  0.60475463  1
  Zr  Zr82  1  0.50087466  0.49944314  0.49811062  1
  Zr  Zr83  1  0.61053493  0.40538116  0.60988296  1
  Zr  Zr84  1  0.19123933  0.40000034  0.59543721  1
  Zr  Zr85  1  0.79524072  -0.00406644  0.38338751  1
  Zr  Zr86  1  0.91161184  0.28376815  0.10552393  1
  Zr  Zr87  1  0.29618707  0.09975018  0.49510700  1
  Zr  Zr88  1  0.50419496  0.10596514  0.09213498  1
  Zr  Zr89  1  0.69599357  0.91097908  0.70638106  1
  Zr  Zr90  1  0.39596150  0.00641798  0.60237627  1
  Zr  Zr91  1  0.20093608  0.80452782  -0.00036944  1
  Zr  Zr92  1  0.60283601  0.20156271  0.60372873  1
  Zr  Zr93  1  0.50473115  0.30648269  0.71630158  1
  Zr  Zr94  1  0.70613421  0.69562934  0.89835972  1
  Zr  Zr95  1  0.40277168  0.79516838  0.40280305  1
  Zr  Zr96  1  0.59972766  0.19395878  0.20337248  1
  Zr  Zr97  1  0.10396782  0.70774779  0.29981955  1
  Zr  Zr98  1  0.90569032  0.29674163  0.71062638  1
  Zr  Zr99  1  0.59723034  0.60887538  0.40224646  1
  Ta  Ta100  1  0.10232196  0.69962293  0.70437139  1
  Ta  Ta101  1  0.49496395  0.50356905  0.09932626  1
  Ta  Ta102  1  -0.00810718  0.80238068  0.38412506  1
  Ta  Ta103  1  0.30226307  0.10706554  0.29716294  1
  Ta  Ta104  1  0.39656505  0.20082399  0.80986634  1
  Ta  Ta105  1  0.10751801  0.10352148  0.70682953  1
  Ta  Ta106  1  0.00377742  0.38204027  0.40547720  1
  Ta  Ta107  1  0.09855839  0.48375818  0.90642792  1
  Ta  Ta108  1  0.78902370  0.19110355  0.19669502  1
  Ta  Ta109  1  0.10119039  0.90862238  0.90139924  1
  Ta  Ta110  1  0.10591035  0.09684035  0.89432427  1
  Ta  Ta111  1  0.69732358  0.08945984  0.09626876  1
  Ta  Ta112  1  0.60824319  0.79765646  0.18338920  1
  Ta  Ta113  1  0.70785109  0.69411374  0.70354770  1
  Ta  Ta114  1  0.20068870  0.00279777  0.19278635  1
  Ta  Ta115  1  0.80328849  0.20707341  0.60636434  1
  Ta  Ta116  1  0.70247474  0.91411414  0.90983707  1
  Ta  Ta117  1  0.49845094  0.49709445  0.71030992  1
  Ta  Ta118  1  0.58752071  0.39610840  -0.00019401  1
  Ta  Ta119  1  0.80294589  0.80157374  0.20071029  1
  Ta  Ta120  1  0.29717963  0.90833297  0.88941243  1
  Ta  Ta121  1  0.29939984  0.30240539  0.08931736  1
  Ta  Ta122  1  0.48914313  0.90380630  0.70639957  1
  Ta  Ta123  1  -0.00822293  0.60352544  0.20887187  1
  Ta  Ta124  1  0.50261307  0.50343331  0.29090453  1
  Ta  Ta125  1  0.90519909  0.29233991  0.89669878  1
  Ta  Ta126  1  0.39845500  0.20074544  0.19767400  1
  Ta  Ta127  1  0.59801750  -0.00114090  0.39723367  1
  Ta  Ta128  1  0.90356141  0.49446723  0.70610144  1
  Ta  Ta129  1  0.79956865  0.61230522  0.19727278  1
  Ta  Ta130  1  0.59954757  0.59892674  0.00698758  1
  Ta  Ta131  1  0.30568760  0.49124829  0.90931223  1
  Ta  Ta132  1  0.70422503  0.71442722  0.50102455  1
  Ta  Ta133  1  0.00261163  0.80073227  -0.00851051  1
  Ta  Ta134  1  0.49789886  0.90907459  0.89725282  1
  Ta  Ta135  1  0.29387237  0.10182352  0.89391733  1
  Ta  Ta136  1  0.20135094  0.00277370  0.00204488  1
  Ta  Ta137  1  0.79824070  0.60204674  0.01346275  1
  Ta  Ta138  1  0.59873768  0.60723547  0.19418011  1
  Ta  Ta139  1  0.30191509  0.90813989  0.70653219  1
  Ta  Ta140  1  0.59301396  0.00455930  0.59340993  1
  Ta  Ta141  1  0.00437455  0.80442410  0.80467661  1
  Ta  Ta142  1  0.29527820  0.50708174  0.49313518  1
  Ta  Ta143  1  0.59829463  0.20003925  0.81465409  1
  Ta  Ta144  1  0.09633827  0.49312279  0.70323395  1
  Ta  Ta145  1  0.10036647  0.09746632  0.50132736  1
  Ta  Ta146  1  0.49938536  0.89981876  0.50383851  1
  Ta  Ta147  1  0.29921937  0.89875249  0.50404879  1
  Ta  Ta148  1  0.79445791  -0.00739638  0.19270404  1
  Ta  Ta149  1  0.29992564  0.29431057  0.71095775  1
  Ti  Ti150  1  0.49491760  0.49357849  0.90692059  1
  Ti  Ti151  1  0.29411000  0.70004159  0.49557709  1
  Ti  Ti152  1  0.49692154  0.69454455  0.09796730  1
  Ti  Ti153  1  0.68200750  0.31374903  0.30165872  1
  Ti  Ti154  1  0.49947108  0.70110678  0.29003285  1
  Ti  Ti155  1  0.39947566  0.21001861  -0.00744244  1
  Ti  Ti156  1  0.30741445  0.50910598  0.30041217  1
  Ti  Ti157  1  0.20702435  0.81012472  0.18632197  1
  Ti  Ti158  1  0.90594448  0.70288884  0.10424646  1
  Ti  Ti159  1  0.19197200  0.59166061  0.40240550  1
  Ti  Ti160  1  0.09529433  0.10951076  0.29530658  1
  Ti  Ti161  1  0.80031606  0.80610911  0.60843071  1
  Ti  Ti162  1  0.60584561  0.00643855  -0.00564904  1
  Ti  Ti163  1  0.00505357  0.39572352  0.59350736  1
  Ti  Ti164  1  0.19971944  0.39618096  0.20980148  1
  Ti  Ti165  1  0.29820965  0.10917199  0.09570409  1
  Ti  Ti166  1  0.00539887  0.39530333  0.80292235  1
  Ti  Ti167  1  0.10015407  0.29344999  0.89755372  1
  Ti  Ti168  1  0.60490600  0.59866121  0.60439826  1
  Ti  Ti169  1  0.68461193  0.29334757  0.09868307  1
  Ti  Ti170  1  0.39958233  0.39214320  0.81483866  1
  Ti  Ti171  1  0.49868984  0.10405550  0.90374400  1
  Ti  Ti172  1  0.39808619  0.58625924  0.80404307  1
  Ti  Ti173  1  0.80377901  0.80544926  0.38727881  1
  Ti  Ti174  1  0.90325594  0.91224099  0.91132916  1
  Ti  Ti175  1  0.30439636  0.29557261  0.30107466  1
  Ti  Ti176  1  0.10128671  0.09839118  0.09366247  1
  Ti  Ti177  1  0.00173445  0.60468757  -0.00169993  1
  Ti  Ti178  1  0.39595422  0.41134946  0.39498767  1
  Ti  Ti179  1  0.40234567  0.80133278  0.19212840  1
  Ti  Ti180  1  0.59965829  0.00630482  0.81084804  1
  Ti  Ti181  1  0.79612846  0.39206904  0.79588840  1
  Ti  Ti182  1  0.29916058  0.49363820  0.70494722  1
  Ti  Ti183  1  0.80553734  0.00837449  0.80782470  1
  Ti  Ti184  1  0.69614492  0.89644354  0.49433685  1
  Ti  Ti185  1  0.00447699  0.59619297  0.39365869  1
  Ti  Ti186  1  0.19433261  0.79909492  0.80717378  1
  Ti  Ti187  1  0.10432012  0.88836820  0.29139758  1
  Ti  Ti188  1  0.09992841  0.29470679  0.70928035  1
  Ti  Ti189  1  0.90022060  0.09118619  0.09491996  1
  Ti  Ti190  1  0.60483648  0.79891003  0.00180288  1
  Ti  Ti191  1  0.19745798  0.59416735  0.60062766  1
  Ti  Ti192  1  0.70164331  0.49862299  0.71474424  1
  Ti  Ti193  1  0.40166158  0.60237227  0.39781767  1
  Ti  Ti194  1  0.09774978  0.90095848  0.09338806  1
  Ti  Ti195  1  0.69979054  0.49358641  0.48695761  1
  Ti  Ti196  1  0.49754312  0.30211419  0.09553896  1
  Ti  Ti197  1  0.69279654  0.89862834  0.29173913  1
  Ti  Ti198  1  0.20521093  0.20091001  -0.00959394  1
  Ti  Ti199  1  0.89928650  0.10139155  0.89764857  1
  Mo  Mo200  1  0.59152669  0.39979434  0.19350171  1
  Mo  Mo201  1  0.69730635  0.09691518  0.90317558  1
  Mo  Mo202  1  0.09582535  0.70978092  0.89864383  1
  Mo  Mo203  1  0.90053075  0.10738317  0.71118163  1
  Mo  Mo204  1  0.09742758  0.50094645  0.50008127  1
  Mo  Mo205  1  0.29520837  0.10263797  0.71156523  1
  Mo  Mo206  1  0.89926531  0.70289390  0.29656434  1
  Mo  Mo207  1  0.19965892  0.00639518  0.60320341  1
  Mo  Mo208  1  0.60767903  -0.00478729  0.20009155  1
  Mo  Mo209  1  0.80394626  0.00463472  -0.00063152  1
  Mo  Mo210  1  0.40320355  0.39582120  -0.00049272  1
  Mo  Mo211  1  0.91168252  0.28736447  0.30147235  1
  Mo  Mo212  1  0.89859219  0.30310540  0.49646446  1
  Mo  Mo213  1  0.00160090  0.38615876  -0.01040971  1
  Mo  Mo214  1  0.80282267  0.58615407  0.79829298  1
  Mo  Mo215  1  0.69876085  0.69777091  0.10167788  1
  Mo  Mo216  1  0.50423059  0.09492532  0.49822382  1
  Mo  Mo217  1  0.80281975  0.19666027  0.80395538  1
  Mo  Mo218  1  0.39841726  0.00901953  0.80581662  1
  Mo  Mo219  1  0.69902135  0.90211250  0.09642719  1
  Mo  Mo220  1  0.49651600  0.09575152  0.29369595  1
  Mo  Mo221  1  0.69853880  0.08497542  0.28922374  1
  Mo  Mo222  1  0.20122864  0.80394340  0.40256758  1
  Mo  Mo223  1  0.09728115  0.29894295  0.50009238  1
  Mo  Mo224  1  0.20369688  0.39241195  -0.00858117  1
  Mo  Mo225  1  0.49746029  0.29823436  0.90790394  1
  Mo  Mo226  1  0.59619802  0.40133550  0.80783071  1
  Mo  Mo227  1  0.20092984  0.20073208  0.80080739  1
  Mo  Mo228  1  0.60501904  0.80926233  0.40453150  1
  Mo  Mo229  1  0.39850503  0.19897737  0.38787528  1
  Mo  Mo230  1  0.10120691  0.29353172  0.29505166  1
  Mo  Mo231  1  0.00179195  0.20211243  0.39336686  1
  Mo  Mo232  1  0.40644593  0.59315367  -0.00234954  1
  Mo  Mo233  1  0.00470517  0.19493987  0.80339979  1
  Mo  Mo234  1  0.00835217  0.19053319  0.19263039  1
  Mo  Mo235  1  -0.00048953  0.80154414  0.19438216  1
  Mo  Mo236  1  0.89998450  0.89630677  0.28741935  1
  Mo  Mo237  1  0.59732435  0.20029195  0.00132405  1
  Mo  Mo238  1  0.20149917  0.00522308  0.80077954  1
  Mo  Mo239  1  0.40946996  0.60228657  0.20377854  1
  Mo  Mo240  1  0.09021436  0.50087890  0.30712809  1
  Mo  Mo241  1  0.00569385  0.00093813  -0.00459974  1
  Mo  Mo242  1  0.70464599  0.29919705  0.71107457  1
  Mo  Mo243  1  0.39456689  0.81058491  0.60278764  1
  Mo  Mo244  1  0.90274635  0.90392070  0.70785096  1
  Mo  Mo245  1  0.29593810  0.90749635  0.10110236  1
  Mo  Mo246  1  0.59543351  0.40832900  0.39465678  1
  Mo  Mo247  1  0.80036542  0.39513647  0.40076010  1
  Mo  Mo248  1  0.39766681  0.81628202  0.80390124  1
  Mo  Mo249  1  0.30270368  0.29543700  0.90403095  1
