# generated using pymatgen
data_HfZrTaTiMo
_symmetry_space_group_name_H-M   'P 1'
_cell_length_a   16.88557897
_cell_length_b   16.88087423
_cell_length_c   16.87386164
_cell_angle_alpha   89.98047772
_cell_angle_beta   89.98014842
_cell_angle_gamma   89.96372474
_symmetry_Int_Tables_number   1
_chemical_formula_structural   HfZrTaTiMo
_chemical_formula_sum   'Hf50 Zr50 Ta50 Ti50 Mo50'
_cell_volume   4809.78026210
_cell_formula_units_Z   50
loop_
 _symmetry_equiv_pos_site_id
 _symmetry_equiv_pos_as_xyz
  1  'x, y, z'
loop_
 _atom_site_type_symbol
 _atom_site_label
 _atom_site_symmetry_multiplicity
 _atom_site_fract_x
 _atom_site_fract_y
 _atom_site_fract_z
 _atom_site_occupancy
  Hf  Hf0  1  0.60830192  0.59531179  0.60288024  1
  Hf  Hf1  1  0.60164960  0.00604025  0.40207434  1
  Hf  Hf2  1  0.38412096  0.39191033  0.19123764  1
  Hf  Hf3  1  0.69226580  0.50722869  0.10441339  1
  Hf  Hf4  1  0.00412893  0.19838171  0.60699395  1
  Hf  Hf5  1  0.89244337  0.70963504  0.90051806  1
  Hf  Hf6  1  0.89044584  0.50395897  0.30679197  1
  Hf  Hf7  1  0.71101666  0.49230639  0.50208460  1
  Hf  Hf8  1  0.29912595  0.30091407  0.70132376  1
  Hf  Hf9  1  0.89544530  0.50238284  0.69777858  1
  Hf  Hf10  1  0.40124804  0.78956013  0.19536745  1
  Hf  Hf11  1  0.09797723  0.49882582  0.29229978  1
  Hf  Hf12  1  0.19151486  0.19565953  0.79687674  1
  Hf  Hf13  1  0.60711945  0.00430154  -0.00964604  1
  Hf  Hf14  1  0.50056181  0.69882378  0.49833709  1
  Hf  Hf15  1  0.90186942  0.89804975  0.09513692  1
  Hf  Hf16  1  0.41278461  0.39816880  0.60270109  1
  Hf  Hf17  1  0.39089221  0.00020216  0.79475928  1
  Hf  Hf18  1  0.20357748  0.59066928  0.00271953  1
  Hf  Hf19  1  0.70628274  0.10090790  0.10027417  1
  Hf  Hf20  1  0.09891149  0.29986002  0.29320565  1
  Hf  Hf21  1  0.19937105  0.00778848  0.61082327  1
  Hf  Hf22  1  0.30357795  0.91096870  0.09814624  1
  Hf  Hf23  1  0.30409134  0.50011796  0.49983435  1
  Hf  Hf24  1  0.90276635  0.09736737  0.09895949  1
  Hf  Hf25  1  0.21132561  0.00037192  0.40736351  1
  Hf  Hf26  1  0.60393291  0.59823998  0.79568583  1
  Hf  Hf27  1  0.69800816  0.30162024  0.89735796  1
  Hf  Hf28  1  0.60470393  0.59285227  0.39896678  1
  Hf  Hf29  1  -0.00650102  0.59398084  -0.00145244  1
  Hf  Hf30  1  0.79373090  0.19131741  0.59987138  1
  Hf  Hf31  1  0.80611945  0.39938850  0.00056636  1
  Hf  Hf32  1  0.09785288  0.70315815  0.89902101  1
  Hf  Hf33  1  0.59951973  0.19195868  0.39970885  1
  Hf  Hf34  1  0.19826724  0.81005193  0.79503364  1
  Hf  Hf35  1  0.81459997  -0.00548580  0.40208007  1
  Hf  Hf36  1  0.60596021  0.40177333  0.39729113  1
  Hf  Hf37  1  0.09750048  0.30020019  0.90320085  1
  Hf  Hf38  1  0.60189083  0.79816899  0.00227808  1
  Hf  Hf39  1  0.50756499  0.30091742  0.50151742  1
  Hf  Hf40  1  0.40428247  0.19790655  0.19900539  1
  Hf  Hf41  1  0.60009228  0.80076239  0.60956498  1
  Hf  Hf42  1  0.49541467  0.30120226  0.89897521  1
  Hf  Hf43  1  0.80167351  0.00335349  -0.01220217  1
  Hf  Hf44  1  0.19940786  0.80289543  0.00478876  1
  Hf  Hf45  1  0.19944623  0.59579624  0.80427579  1
  Hf  Hf46  1  0.30556805  0.70038846  0.68998351  1
  Hf  Hf47  1  0.30365740  0.90906699  0.29535541  1
  Hf  Hf48  1  -0.00711725  0.59768243  0.80395650  1
  Hf  Hf49  1  0.89204382  0.90007474  0.70270843  1
  Zr  Zr50  1  0.09683408  0.69908039  0.10448859  1
  Zr  Zr51  1  0.39525770  -0.01730663  0.61046192  1
  Zr  Zr52  1  0.79462439  0.39616657  0.20597696  1
  Zr  Zr53  1  0.20502242  0.81053741  0.59258207  1
  Zr  Zr54  1  0.59746517  0.60141136  -0.00612255  1
  Zr  Zr55  1  0.49450261  0.91467494  0.09391158  1
  Zr  Zr56  1  0.88721769  0.30258181  0.50000108  1
  Zr  Zr57  1  0.60007784  0.39202914  0.19807579  1
  Zr  Zr58  1  0.09912829  0.90144803  0.30148231  1
  Zr  Zr59  1  0.49441272  0.89855322  0.50117224  1
  Zr  Zr60  1  0.30101142  0.69871737  0.49406619  1
  Zr  Zr61  1  0.30740649  0.70068611  0.89893633  1
  Zr  Zr62  1  0.30042862  0.49919107  0.69721253  1
  Zr  Zr63  1  0.09933502  0.30516671  0.10405420  1
  Zr  Zr64  1  0.39091693  0.79579508  0.39216290  1
  Zr  Zr65  1  0.50001331  0.49768881  0.29293447  1
  Zr  Zr66  1  0.21430385  0.19627213  0.38878729  1
  Zr  Zr67  1  0.09929964  0.09926777  0.29776475  1
  Zr  Zr68  1  0.50788285  0.09442171  0.70715834  1
  Zr  Zr69  1  0.41027126  0.80872721  0.77902701  1
  Zr  Zr70  1  0.09943024  0.70067010  0.31126027  1
  Zr  Zr71  1  -0.02212394  0.80706339  0.40543524  1
  Zr  Zr72  1  0.70706783  0.70843599  0.89800715  1
  Zr  Zr73  1  0.60743819  0.79213000  0.19257849  1
  Zr  Zr74  1  -0.00633687  0.20904479  0.00602456  1
  Zr  Zr75  1  0.41313793  0.59557938  0.79815297  1
  Zr  Zr76  1  0.89650117  0.09984326  0.70554696  1
  Zr  Zr77  1  0.60949047  0.80060883  0.39591811  1
  Zr  Zr78  1  0.80144292  0.80162512  0.59438937  1
  Zr  Zr79  1  0.59555379  0.20208003  0.01064970  1
  Zr  Zr80  1  0.09428014  0.50351624  0.70018687  1
  Zr  Zr81  1  -0.00917737  0.40415556  0.40326008  1
  Zr  Zr82  1  0.18731186  0.60084661  0.59083650  1
  Zr  Zr83  1  0.30618813  0.30018348  0.50103822  1
  Zr  Zr84  1  0.20741504  0.40338932  0.39030863  1
  Zr  Zr85  1  0.49827371  0.90488458  0.29445404  1
  Zr  Zr86  1  0.39096765  0.59348538  0.19890078  1
  Zr  Zr87  1  0.19341807  0.19619840  0.60737215  1
  Zr  Zr88  1  0.08675769  0.90603902  0.69730408  1
  Zr  Zr89  1  0.60130150  0.01112989  0.20198730  1
  Zr  Zr90  1  0.09629120  0.29581762  0.49176960  1
  Zr  Zr91  1  0.20535243  0.79475302  0.20341870  1
  Zr  Zr92  1  0.49234743  0.10028922  0.90346281  1
  Zr  Zr93  1  0.30321691  0.90754450  0.90895911  1
  Zr  Zr94  1  -0.00360021  0.00511254  0.80902071  1
  Zr  Zr95  1  -0.00691928  0.60200322  0.20043326  1
  Zr  Zr96  1  0.69302982  0.30703153  0.69872931  1
  Zr  Zr97  1  0.89672271  0.29905042  0.71045043  1
  Zr  Zr98  1  0.31397938  0.10032956  0.50655760  1
  Zr  Zr99  1  0.09147563  0.90558296  0.49496720  1
  Ta  Ta100  1  -0.01180734  0.60584563  0.58575557  1
  Ta  Ta101  1  -0.00006145  0.40393032  0.60015823  1
  Ta  Ta102  1  -0.00702656  -0.00001517  0.20676259  1
  Ta  Ta103  1  0.10008608  0.09831941  0.91230607  1
  Ta  Ta104  1  0.40376305  0.39674178  0.79801169  1
  Ta  Ta105  1  0.41828065  0.59636186  0.60008257  1
  Ta  Ta106  1  0.70579499  0.69000624  0.29774081  1
  Ta  Ta107  1  0.30454344  0.09571091  0.09331139  1
  Ta  Ta108  1  0.89174569  0.69871568  0.30192660  1
  Ta  Ta109  1  0.80503206  -0.00352558  0.20668846  1
  Ta  Ta110  1  0.71201882  0.70292747  0.70583682  1
  Ta  Ta111  1  0.09620668  0.90792409  0.91012739  1
  Ta  Ta112  1  0.21564676  0.20508795  0.19539470  1
  Ta  Ta113  1  0.89073621  0.70491510  0.09704731  1
  Ta  Ta114  1  0.80051599  0.59758939  0.00102901  1
  Ta  Ta115  1  -0.00975953  0.79185124  0.59619265  1
  Ta  Ta116  1  0.30341057  0.29824722  0.90165837  1
  Ta  Ta117  1  0.09918998  0.48858283  0.10161358  1
  Ta  Ta118  1  0.40801458  0.19444623  0.39419798  1
  Ta  Ta119  1  0.49370571  0.49352501  0.09110393  1
  Ta  Ta120  1  0.09039476  0.70264145  0.69643054  1
  Ta  Ta121  1  0.20421170  0.20139248  0.00546234  1
  Ta  Ta122  1  -0.00143822  0.39988985  0.80369412  1
  Ta  Ta123  1  0.10155435  0.09806844  0.10113690  1
  Ta  Ta124  1  -0.01149430  0.19970888  0.20499773  1
  Ta  Ta125  1  0.60754349  -0.00176779  0.60262672  1
  Ta  Ta126  1  0.71028186  0.89871722  0.09601252  1
  Ta  Ta127  1  0.19847504  0.00864750  0.79979356  1
  Ta  Ta128  1  0.79976926  0.79927328  0.20219765  1
  Ta  Ta129  1  0.49825872  0.29888646  0.30100089  1
  Ta  Ta130  1  0.50389257  0.90251743  0.89545169  1
  Ta  Ta131  1  0.19857899  0.39744563  0.80369584  1
  Ta  Ta132  1  0.50537867  0.69104626  0.29586817  1
  Ta  Ta133  1  0.09664395  0.48812493  0.90860376  1
  Ta  Ta134  1  -0.01553446  0.18722421  0.39757372  1
  Ta  Ta135  1  0.41273344  0.19674621  0.60820262  1
  Ta  Ta136  1  0.18576375  0.39706028  0.60124879  1
  Ta  Ta137  1  0.80127618  0.20527263  -0.00031448  1
  Ta  Ta138  1  0.78990433  0.00038189  0.80676863  1
  Ta  Ta139  1  -0.00262312  0.80196581  0.79937193  1
  Ta  Ta140  1  0.59929019  0.19409446  0.59928222  1
  Ta  Ta141  1  0.51326645  0.48876821  0.69622178  1
  Ta  Ta142  1  0.21150200  0.39732845  0.00429370  1
  Ta  Ta143  1  0.40931614  0.79429686  0.00235555  1
  Ta  Ta144  1  0.30322426  0.69396315  0.09454504  1
  Ta  Ta145  1  0.80269740  0.20034692  0.20238436  1
  Ta  Ta146  1  0.59770414  0.20139247  0.20344385  1
  Ta  Ta147  1  0.89969173  0.49747759  0.09981340  1
  Ta  Ta148  1  0.29806269  0.10465868  0.90767770  1
  Ta  Ta149  1  0.70605852  0.69839150  0.49825290  1
  Ti  Ti150  1  0.70141343  0.30107243  0.50095358  1
  Ti  Ti151  1  0.40045400  0.59520346  -0.00131325  1
  Ti  Ti152  1  0.40039046  0.59260223  0.39424663  1
  Ti  Ti153  1  0.09249323  0.50669773  0.49060120  1
  Ti  Ti154  1  0.70572303  0.89880390  0.29554541  1
  Ti  Ti155  1  0.69830077  0.49567065  0.90302169  1
  Ti  Ti156  1  0.39638039  0.19998892  0.79293489  1
  Ti  Ti157  1  0.59544301  0.39566842  0.00472297  1
  Ti  Ti158  1  0.80000778  0.41023900  0.80461457  1
  Ti  Ti159  1  0.40044181  0.39974375  0.39335340  1
  Ti  Ti160  1  0.80297205  0.19080211  0.40118810  1
  Ti  Ti161  1  0.90158734  0.30246194  0.89667911  1
  Ti  Ti162  1  0.39853596  0.20846307  0.01276097  1
  Ti  Ti163  1  0.80173914  0.60351377  0.59993788  1
  Ti  Ti164  1  0.00196543  0.80300584  0.00075379  1
  Ti  Ti165  1  0.70242002  0.90050100  0.50063212  1
  Ti  Ti166  1  0.20891914  0.58957170  0.19910699  1
  Ti  Ti167  1  0.09560153  0.91474385  0.09628167  1
  Ti  Ti168  1  0.20782017  0.59999576  0.38854773  1
  Ti  Ti169  1  0.79456450  0.19350956  0.80822494  1
  Ti  Ti170  1  -0.01487388  0.39360756  0.19627075  1
  Ti  Ti171  1  -0.01402615  0.00618981  0.58811304  1
  Ti  Ti172  1  0.60279937  0.80523234  0.79129944  1
  Ti  Ti173  1  0.60242447  0.19685865  0.80029973  1
  Ti  Ti174  1  0.20299125  0.01089810  0.19801459  1
  Ti  Ti175  1  0.60003045  0.40375629  0.79736423  1
  Ti  Ti176  1  0.30722211  0.48867127  0.90305691  1
  Ti  Ti177  1  0.79524752  -0.00019952  0.59973417  1
  Ti  Ti178  1  0.70254741  0.89293493  0.89405469  1
  Ti  Ti179  1  0.50103436  0.70800800  0.89399387  1
  Ti  Ti180  1  0.69685712  0.09320003  0.70741517  1
  Ti  Ti181  1  0.70305903  0.29729350  0.10063438  1
  Ti  Ti182  1  0.09087154  0.09742384  0.49215253  1
  Ti  Ti183  1  0.49788804  0.49005043  0.90272201  1
  Ti  Ti184  1  0.80051488  0.80266982  0.39841485  1
  Ti  Ti185  1  0.89981659  0.89495732  0.90232946  1
  Ti  Ti186  1  -0.00777433  0.80381881  0.20400131  1
  Ti  Ti187  1  0.50348779  0.68468973  0.10196635  1
  Ti  Ti188  1  0.90379178  0.10917069  0.90115484  1
  Ti  Ti189  1  0.89609225  0.70117646  0.70434513  1
  Ti  Ti190  1  0.80449719  0.60099350  0.40819945  1
  Ti  Ti191  1  0.70253060  0.09640220  0.50153350  1
  Ti  Ti192  1  0.89285745  0.29740385  0.30529629  1
  Ti  Ti193  1  0.70543855  0.29404272  0.30885951  1
  Ti  Ti194  1  0.40660571  0.01248397  0.39596448  1
  Ti  Ti195  1  0.09604366  0.70292426  0.49044606  1
  Ti  Ti196  1  0.70902678  0.10208285  0.29912237  1
  Ti  Ti197  1  0.79571433  0.60383173  0.19475022  1
  Ti  Ti198  1  0.79990514  0.40308169  0.60460257  1
  Ti  Ti199  1  0.79716249  0.59125034  0.80479493  1
  Mo  Mo200  1  0.50462974  0.29586776  0.70551333  1
  Mo  Mo201  1  0.09226787  0.10179636  0.71133160  1
  Mo  Mo202  1  0.30606196  0.29752112  0.29696521  1
  Mo  Mo203  1  0.70697298  0.51020740  0.30155446  1
  Mo  Mo204  1  -0.00542307  0.40333772  -0.00028257  1
  Mo  Mo205  1  0.29947670  0.89939728  0.49304894  1
  Mo  Mo206  1  0.89643360  0.09964492  0.50235075  1
  Mo  Mo207  1  0.30221062  0.10472777  0.70828765  1
  Mo  Mo208  1  0.60148897  0.59986472  0.19882272  1
  Mo  Mo209  1  0.49944289  0.30249375  0.09932836  1
  Mo  Mo210  1  0.89609901  0.50212428  0.50564209  1
  Mo  Mo211  1  0.50953649  0.69804433  0.69758733  1
  Mo  Mo212  1  0.49751987  0.10549770  0.10157381  1
  Mo  Mo213  1  0.89153942  0.69583330  0.49562060  1
  Mo  Mo214  1  0.40295133  0.00504471  -0.00424043  1
  Mo  Mo215  1  0.79888731  0.80413189  0.00302984  1
  Mo  Mo216  1  0.28668233  0.90138618  0.70040923  1
  Mo  Mo217  1  0.50504603  0.09994270  0.50604423  1
  Mo  Mo218  1  0.60517013  0.39683186  0.59948231  1
  Mo  Mo219  1  0.70759461  0.69973927  0.10226686  1
  Mo  Mo220  1  0.40441899  0.79357791  0.59951367  1
  Mo  Mo221  1  0.70642840  0.50119926  0.70295587  1
  Mo  Mo222  1  0.49936629  0.49724213  0.49945264  1
  Mo  Mo223  1  0.40023027  0.01505586  0.19754092  1
  Mo  Mo224  1  -0.00000026  0.20264247  0.80721180  1
  Mo  Mo225  1  0.39998354  0.40134739  -0.00534689  1
  Mo  Mo226  1  0.09538518  0.30799021  0.70593566  1
  Mo  Mo227  1  -0.00565184  0.00665549  0.40077953  1
  Mo  Mo228  1  -0.00712172  0.60392297  0.40634557  1
  Mo  Mo229  1  0.29741172  0.49769304  0.30037636  1
  Mo  Mo230  1  0.70269916  0.10970885  0.89512316  1
  Mo  Mo231  1  0.29843472  0.69034651  0.29748328  1
  Mo  Mo232  1  0.50211523  0.10522997  0.30202097  1
  Mo  Mo233  1  0.89639863  0.49699555  0.90072519  1
  Mo  Mo234  1  0.00114452  -0.00035454  0.00293296  1
  Mo  Mo235  1  0.20357603  0.40111021  0.19448827  1
  Mo  Mo236  1  0.80290866  0.80797793  0.79769230  1
  Mo  Mo237  1  0.20480277  0.80390887  0.40102180  1
  Mo  Mo238  1  0.89711615  0.10000155  0.29707265  1
  Mo  Mo239  1  0.89517229  0.90445347  0.50806234  1
  Mo  Mo240  1  0.51643471  0.90253249  0.70452757  1
  Mo  Mo241  1  0.19652098  0.00787310  0.00263704  1
  Mo  Mo242  1  0.60797260  -0.00698129  0.80123590  1
  Mo  Mo243  1  0.29673057  0.49830085  0.09321293  1
  Mo  Mo244  1  0.79326145  0.39529552  0.39851597  1
  Mo  Mo245  1  0.30698187  0.09755225  0.29169798  1
  Mo  Mo246  1  0.89525697  0.30059724  0.10742354  1
  Mo  Mo247  1  0.29983034  0.29600580  0.09323984  1
  Mo  Mo248  1  0.70231014  0.90465746  0.70534878  1
  Mo  Mo249  1  0.89783315  0.89519475  0.29138704  1
