# generated using pymatgen
data_HfZrTaTiMo
_symmetry_space_group_name_H-M   'P 1'
_cell_length_a   16.89446644
_cell_length_b   16.86283177
_cell_length_c   16.87818299
_cell_angle_alpha   89.94745023
_cell_angle_beta   89.96201174
_cell_angle_gamma   89.97826857
_symmetry_Int_Tables_number   1
_chemical_formula_structural   HfZrTaTiMo
_chemical_formula_sum   'Hf50 Zr50 Ta50 Ti50 Mo50'
_cell_volume   4808.39757724
_cell_formula_units_Z   50
loop_
 _symmetry_equiv_pos_site_id
 _symmetry_equiv_pos_as_xyz
  1  'x, y, z'
loop_
 _atom_site_type_symbol
 _atom_site_label
 _atom_site_symmetry_multiplicity
 _atom_site_fract_x
 _atom_site_fract_y
 _atom_site_fract_z
 _atom_site_occupancy
  Hf  Hf0  1  0.69884439  0.69511986  0.89315019  1
  Hf  Hf1  1  0.30022754  0.49845491  0.49489456  1
  Hf  Hf2  1  0.19572104  0.39567705  0.21485588  1
  Hf  Hf3  1  0.00078536  0.58792547  0.39153788  1
  Hf  Hf4  1  0.09763831  0.50714161  0.09429370  1
  Hf  Hf5  1  0.80017718  0.19849541  0.80343262  1
  Hf  Hf6  1  0.70765079  0.89414672  0.49325767  1
  Hf  Hf7  1  0.71344791  0.89834214  0.30124529  1
  Hf  Hf8  1  0.89886925  0.30665272  0.30576862  1
  Hf  Hf9  1  -0.00733342  0.80385960  0.60893095  1
  Hf  Hf10  1  0.29990592  0.09730695  0.70950653  1
  Hf  Hf11  1  0.20947701  0.19999931  0.20840940  1
  Hf  Hf12  1  0.70766733  0.09330457  0.29542638  1
  Hf  Hf13  1  0.48856193  0.09899363  0.90523593  1
  Hf  Hf14  1  0.40020769  0.00022236  0.59997458  1
  Hf  Hf15  1  0.00250554  -0.00855679  0.00659357  1
  Hf  Hf16  1  0.10862307  0.89854621  0.70383645  1
  Hf  Hf17  1  0.60276360  0.19634013  0.00495775  1
  Hf  Hf18  1  0.00996576  0.58836277  0.60364707  1
  Hf  Hf19  1  0.89445482  0.09658754  0.49408625  1
  Hf  Hf20  1  0.90228930  0.10537863  0.10021177  1
  Hf  Hf21  1  0.70813523  0.70034669  0.50222407  1
  Hf  Hf22  1  0.59448878  0.40019577  0.19459947  1
  Hf  Hf23  1  0.60082069  0.41406630  0.79557291  1
  Hf  Hf24  1  0.80910439  0.79592290  0.00856139  1
  Hf  Hf25  1  0.79848721  -0.00072396  0.80650822  1
  Hf  Hf26  1  0.79334594  0.20441620  0.39951755  1
  Hf  Hf27  1  0.48797251  0.50247494  0.90238351  1
  Hf  Hf28  1  0.60009798  0.59368908  0.41024073  1
  Hf  Hf29  1  0.10200325  0.90181557  0.49589250  1
  Hf  Hf30  1  0.70670993  0.90429993  0.10537408  1
  Hf  Hf31  1  0.69817753  0.09840372  0.69675288  1
  Hf  Hf32  1  0.49487283  0.89682158  0.48802174  1
  Hf  Hf33  1  0.49811552  0.69601293  0.29789018  1
  Hf  Hf34  1  0.70830320  0.31252982  0.89915141  1
  Hf  Hf35  1  0.20550894  0.60419720  0.60326700  1
  Hf  Hf36  1  0.70397681  0.69373074  0.69951952  1
  Hf  Hf37  1  0.18764169  0.40338946  0.59494384  1
  Hf  Hf38  1  0.48937377  0.49991821  0.29751467  1
  Hf  Hf39  1  0.30021416  0.50149952  0.70473049  1
  Hf  Hf40  1  0.59152717  -0.00807074  0.80498910  1
  Hf  Hf41  1  0.30884061  0.48976793  0.09972942  1
  Hf  Hf42  1  0.80800123  0.80137146  0.79823461  1
  Hf  Hf43  1  0.39358174  0.19546368  0.39958150  1
  Hf  Hf44  1  0.89470904  0.70071280  0.50118254  1
  Hf  Hf45  1  0.70362099  0.09900113  0.10626332  1
  Hf  Hf46  1  0.59525718  -0.00511901  0.59983515  1
  Hf  Hf47  1  0.29811540  0.29823867  0.70149351  1
  Hf  Hf48  1  0.29473602  0.10427546  0.90622186  1
  Hf  Hf49  1  0.59025304  0.59266383  0.60002568  1
  Zr  Zr50  1  -0.00606344  -0.00391461  0.60469639  1
  Zr  Zr51  1  0.60091887  0.80200326  0.20610118  1
  Zr  Zr52  1  0.10612193  0.09884886  0.49518932  1
  Zr  Zr53  1  0.89669564  0.30637027  0.50394144  1
  Zr  Zr54  1  0.10427405  0.11013968  0.08608115  1
  Zr  Zr55  1  0.49551943  0.10303973  0.70201679  1
  Zr  Zr56  1  0.30247053  0.50341941  0.30088286  1
  Zr  Zr57  1  0.10488775  0.26999971  0.90623539  1
  Zr  Zr58  1  -0.00065567  0.19798091  0.21182740  1
  Zr  Zr59  1  0.39240399  0.60901601  -0.00022469  1
  Zr  Zr60  1  0.59007781  0.79734376  0.60489972  1
  Zr  Zr61  1  0.59791807  0.39772459  0.40782579  1
  Zr  Zr62  1  0.00227509  0.21006156  0.60313816  1
  Zr  Zr63  1  0.89241985  0.49663722  0.50977115  1
  Zr  Zr64  1  0.20074697  0.20419575  0.59416088  1
  Zr  Zr65  1  0.69505954  0.50535120  0.29290078  1
  Zr  Zr66  1  0.80058959  0.59772172  0.00157863  1
  Zr  Zr67  1  0.50305361  0.89012965  0.07875185  1
  Zr  Zr68  1  0.20894429  0.79278695  0.60329049  1
  Zr  Zr69  1  -0.00315893  0.00478317  0.38116740  1
  Zr  Zr70  1  0.60606547  0.41141508  0.00213376  1
  Zr  Zr71  1  0.08478908  0.69661257  0.90776295  1
  Zr  Zr72  1  0.49203360  0.30489865  0.90284244  1
  Zr  Zr73  1  0.39825808  0.78946134  0.60795777  1
  Zr  Zr74  1  0.40283142  0.19110654  0.19990038  1
  Zr  Zr75  1  0.59431616  -0.00361838  0.39104559  1
  Zr  Zr76  1  0.18875280  0.39586372  0.79958747  1
  Zr  Zr77  1  0.10890937  0.10483381  0.71316479  1
  Zr  Zr78  1  -0.00155939  0.60083635  0.20209779  1
  Zr  Zr79  1  0.09502167  0.29734401  0.09762843  1
  Zr  Zr80  1  0.50009128  0.72404718  0.90993824  1
  Zr  Zr81  1  0.89462666  0.50199058  0.88868522  1
  Zr  Zr82  1  0.48746437  0.30790574  0.09551241  1
  Zr  Zr83  1  0.80974190  0.60268073  0.19759564  1
  Zr  Zr84  1  0.60223762  0.20046628  0.80474877  1
  Zr  Zr85  1  -0.00294165  -0.00227375  0.80482366  1
  Zr  Zr86  1  0.19232965  0.79963478  0.00892410  1
  Zr  Zr87  1  0.68837598  0.88883629  0.90925499  1
  Zr  Zr88  1  0.31387504  0.89710127  0.90867431  1
  Zr  Zr89  1  0.00170102  0.80346472  0.38710564  1
  Zr  Zr90  1  0.19670701  0.40071050  -0.00702150  1
  Zr  Zr91  1  0.02508082  0.40373133  0.40521446  1
  Zr  Zr92  1  0.00170082  0.40927931  0.21358923  1
  Zr  Zr93  1  0.30171723  0.90493170  0.49479068  1
  Zr  Zr94  1  -0.00725155  0.20437096  0.79860524  1
  Zr  Zr95  1  0.60169345  0.59702408  0.00426624  1
  Zr  Zr96  1  0.09988803  0.70208753  0.49736143  1
  Zr  Zr97  1  0.10776315  0.70244761  0.29036063  1
  Zr  Zr98  1  0.69905943  0.30958490  0.69287691  1
  Zr  Zr99  1  0.59688229  0.20273960  0.39478906  1
  Ta  Ta100  1  0.58681232  0.00064971  0.19685915  1
  Ta  Ta101  1  0.79811514  0.59352193  0.40032854  1
  Ta  Ta102  1  0.70994563  0.29867633  0.10427426  1
  Ta  Ta103  1  0.21008711  0.80051928  0.39292871  1
  Ta  Ta104  1  0.29702596  0.30151637  0.49235408  1
  Ta  Ta105  1  0.19840789  -0.00607473  0.81550837  1
  Ta  Ta106  1  0.79291931  0.20117978  0.59588052  1
  Ta  Ta107  1  0.39746008  0.20549124  0.80011540  1
  Ta  Ta108  1  0.71360883  0.50383330  0.69817870  1
  Ta  Ta109  1  0.00273842  0.39881535  0.79319187  1
  Ta  Ta110  1  0.29941294  0.50252073  0.89755081  1
  Ta  Ta111  1  0.79826027  0.19823855  -0.00400029  1
  Ta  Ta112  1  0.20083280  0.00187795  0.19771695  1
  Ta  Ta113  1  0.39601210  0.61414505  0.79680932  1
  Ta  Ta114  1  0.40107847  0.40219979  0.59621397  1
  Ta  Ta115  1  0.79956895  -0.00469882  0.60120462  1
  Ta  Ta116  1  0.30380136  0.90272220  0.29400485  1
  Ta  Ta117  1  0.00193065  0.81027505  0.18587800  1
  Ta  Ta118  1  0.30118094  0.69911225  0.29430424  1
  Ta  Ta119  1  0.30340760  0.29969837  0.09629352  1
  Ta  Ta120  1  0.20123005  0.60462368  0.80486731  1
  Ta  Ta121  1  0.90410303  0.89239714  0.90756285  1
  Ta  Ta122  1  0.88946478  0.89778900  0.48935900  1
  Ta  Ta123  1  0.30234842  0.90389325  0.71199144  1
  Ta  Ta124  1  0.78330905  0.40284242  0.40391201  1
  Ta  Ta125  1  0.39696599  0.79747473  0.39107906  1
  Ta  Ta126  1  0.89948903  0.68578189  0.70387108  1
  Ta  Ta127  1  0.00831082  0.20451374  0.39946505  1
  Ta  Ta128  1  0.30107084  0.90500439  0.10350175  1
  Ta  Ta129  1  0.49907793  0.70330526  0.10088565  1
  Ta  Ta130  1  0.89147884  0.10069440  0.69527719  1
  Ta  Ta131  1  0.39792766  0.80132738  0.19860883  1
  Ta  Ta132  1  0.80325680  0.00203018  -0.00302832  1
  Ta  Ta133  1  -0.00167291  0.39808704  -0.01097834  1
  Ta  Ta134  1  0.49378487  0.30209968  0.50190756  1
  Ta  Ta135  1  0.39990223  0.60462895  0.60093425  1
  Ta  Ta136  1  0.59765642  0.20335760  0.58854398  1
  Ta  Ta137  1  0.69939973  0.89734824  0.69968830  1
  Ta  Ta138  1  0.20384066  0.79429368  0.80598465  1
  Ta  Ta139  1  0.81727259  0.79539222  0.19552418  1
  Ta  Ta140  1  0.49680903  0.30354297  0.69330309  1
  Ta  Ta141  1  0.70110810  0.09539155  0.49890806  1
  Ta  Ta142  1  0.39861077  0.20132816  0.59357112  1
  Ta  Ta143  1  -0.00426079  0.80020828  0.79813713  1
  Ta  Ta144  1  0.89823473  0.30385173  0.09340255  1
  Ta  Ta145  1  0.20140707  0.60524393  -0.00167833  1
  Ta  Ta146  1  0.20625349  0.00196342  0.39225185  1
  Ta  Ta147  1  0.01127853  0.40080283  0.61034840  1
  Ta  Ta148  1  0.09637604  0.69697669  0.71083751  1
  Ta  Ta149  1  0.80483962  0.40233044  0.20008319  1
  Ti  Ti150  1  0.49631691  0.09862605  0.49411682  1
  Ti  Ti151  1  0.59407448  0.59756219  0.19073733  1
  Ti  Ti152  1  0.40514701  -0.00477305  0.19654486  1
  Ti  Ti153  1  0.80722238  0.80623141  0.61045042  1
  Ti  Ti154  1  0.60236735  0.00638425  -0.00140216  1
  Ti  Ti155  1  0.59756314  0.79674591  0.39359117  1
  Ti  Ti156  1  0.70721613  0.70204219  0.30191170  1
  Ti  Ti157  1  0.89689415  0.70246713  0.30362153  1
  Ti  Ti158  1  0.09208574  0.50924516  0.89627053  1
  Ti  Ti159  1  0.90633064  0.69273817  0.89676659  1
  Ti  Ti160  1  0.48985225  0.50045550  0.69925982  1
  Ti  Ti161  1  0.49645918  0.70139636  0.49651071  1
  Ti  Ti162  1  0.10936191  0.90250002  0.29282351  1
  Ti  Ti163  1  0.40143846  0.60333257  0.19084854  1
  Ti  Ti164  1  0.19830840  0.60012179  0.40162655  1
  Ti  Ti165  1  0.09621419  0.89346068  0.90304495  1
  Ti  Ti166  1  0.39820297  0.39471636  0.40053511  1
  Ti  Ti167  1  0.58764995  0.80353939  0.78982764  1
  Ti  Ti168  1  0.49075068  0.30298107  0.29670818  1
  Ti  Ti169  1  0.89709433  0.30603803  0.90142593  1
  Ti  Ti170  1  0.39856923  0.60644427  0.40928801  1
  Ti  Ti171  1  0.70676814  0.49819967  0.10535887  1
  Ti  Ti172  1  0.30498125  0.09889853  0.09390984  1
  Ti  Ti173  1  0.40495806  0.00148201  0.00620913  1
  Ti  Ti174  1  0.10803720  0.10182204  0.30152266  1
  Ti  Ti175  1  0.00449638  -0.00333292  0.19855721  1
  Ti  Ti176  1  0.88873515  0.31128405  0.69796662  1
  Ti  Ti177  1  0.59076382  0.60040723  0.79543481  1
  Ti  Ti178  1  0.89415147  0.49917231  0.70103059  1
  Ti  Ti179  1  0.20210684  0.60358021  0.19110352  1
  Ti  Ti180  1  0.92565065  0.69798655  0.08425323  1
  Ti  Ti181  1  0.69662992  0.70340414  0.10423949  1
  Ti  Ti182  1  0.82063180  -0.00090766  0.20116861  1
  Ti  Ti183  1  0.19469838  -0.00352467  0.00252258  1
  Ti  Ti184  1  0.90525664  0.10126667  0.90625784  1
  Ti  Ti185  1  0.49463276  0.09121092  0.29847407  1
  Ti  Ti186  1  0.89520876  0.89817728  0.30002043  1
  Ti  Ti187  1  0.40145575  0.80049750  0.79681274  1
  Ti  Ti188  1  0.59663726  0.40727119  0.59261132  1
  Ti  Ti189  1  0.20057604  0.80598736  0.19597681  1
  Ti  Ti190  1  0.69762761  0.30028743  0.28949355  1
  Ti  Ti191  1  0.29976571  0.70751372  0.10287987  1
  Ti  Ti192  1  0.90696359  0.49473799  0.09200366  1
  Ti  Ti193  1  0.39668851  0.39897643  0.79946833  1
  Ti  Ti194  1  0.30398895  0.29553754  0.90786094  1
  Ti  Ti195  1  0.80066301  0.40450022  0.00131953  1
  Ti  Ti196  1  0.59322001  0.19625061  0.19787117  1
  Ti  Ti197  1  0.30407714  0.09022012  0.30311119  1
  Ti  Ti198  1  0.20675626  0.00265365  0.59859716  1
  Ti  Ti199  1  0.80502730  0.20493996  0.20221010  1
  Mo  Mo200  1  0.90199255  0.90436789  0.10245375  1
  Mo  Mo201  1  0.80138109  0.59746768  0.60078577  1
  Mo  Mo202  1  0.49660026  0.90224002  0.89954353  1
  Mo  Mo203  1  0.70403752  0.09762744  0.90849046  1
  Mo  Mo204  1  0.80599790  0.40173466  0.79453875  1
  Mo  Mo205  1  0.89273217  0.90072563  0.70422097  1
  Mo  Mo206  1  0.49818622  0.69426610  0.70611097  1
  Mo  Mo207  1  0.10999310  0.28686113  0.31075212  1
  Mo  Mo208  1  0.12088591  0.51250043  0.30008492  1
  Mo  Mo209  1  0.70144864  0.50499677  0.88348199  1
  Mo  Mo210  1  0.21669727  0.19784981  0.00913579  1
  Mo  Mo211  1  0.88455907  0.49543745  0.30999677  1
  Mo  Mo212  1  0.10799755  0.50222602  0.49804587  1
  Mo  Mo213  1  0.10616746  0.30001128  0.49790210  1
  Mo  Mo214  1  0.00103150  0.59244260  -0.00228901  1
  Mo  Mo215  1  0.38808389  0.79899783  0.01193878  1
  Mo  Mo216  1  0.30448377  0.69684384  0.48617942  1
  Mo  Mo217  1  0.10372554  0.09042082  0.90559620  1
  Mo  Mo218  1  0.48910826  0.49734392  0.50227101  1
  Mo  Mo219  1  0.49373802  0.50704729  0.10542819  1
  Mo  Mo220  1  0.30138301  0.10088204  0.49537145  1
  Mo  Mo221  1  0.39687897  0.39382861  0.20615048  1
  Mo  Mo222  1  0.69215884  0.29957550  0.50424393  1
  Mo  Mo223  1  0.09945996  0.50465388  0.70966377  1
  Mo  Mo224  1  0.39163461  0.40344197  -0.00486276  1
  Mo  Mo225  1  0.29571227  0.70135998  0.89932460  1
  Mo  Mo226  1  0.39742601  0.00138345  0.39183769  1
  Mo  Mo227  1  0.10407385  0.90358260  0.10897104  1
  Mo  Mo228  1  0.50202726  0.09293104  0.10060576  1
  Mo  Mo229  1  0.80297417  0.00111009  0.40037226  1
  Mo  Mo230  1  0.39784303  0.19890422  0.00179860  1
  Mo  Mo231  1  0.49333626  0.89686644  0.70744448  1
  Mo  Mo232  1  0.79647014  0.40097109  0.60013666  1
  Mo  Mo233  1  0.61355762  0.79245392  0.00917333  1
  Mo  Mo234  1  -0.00001221  0.59606869  0.79556464  1
  Mo  Mo235  1  0.29816637  0.70156692  0.71090348  1
  Mo  Mo236  1  0.80155085  0.79124880  0.38892871  1
  Mo  Mo237  1  0.39817710  -0.00490807  0.80342145  1
  Mo  Mo238  1  -0.00116439  0.80147471  -0.00076682  1
  Mo  Mo239  1  0.20437072  0.19591262  0.39579931  1
  Mo  Mo240  1  0.49047129  0.89759315  0.29486554  1
  Mo  Mo241  1  0.09907290  0.30226098  0.70422328  1
  Mo  Mo242  1  0.10351667  0.70172615  0.10138261  1
  Mo  Mo243  1  0.20585468  0.19661895  0.80663958  1
  Mo  Mo244  1  0.70028966  0.49822180  0.50998688  1
  Mo  Mo245  1  0.90068266  0.10276223  0.29738297  1
  Mo  Mo246  1  0.20443708  0.39126659  0.40030012  1
  Mo  Mo247  1  0.30496856  0.30169788  0.30409921  1
  Mo  Mo248  1  0.80163301  0.60004356  0.79751653  1
  Mo  Mo249  1  -0.02065554  0.20282505  -0.00354311  1
