# generated using pymatgen
data_HfZrTaTiMo
_symmetry_space_group_name_H-M   'P 1'
_cell_length_a   16.88989976
_cell_length_b   16.88710543
_cell_length_c   16.87127905
_cell_angle_alpha   89.96001130
_cell_angle_beta   89.94640049
_cell_angle_gamma   89.98259448
_symmetry_Int_Tables_number   1
_chemical_formula_structural   HfZrTaTiMo
_chemical_formula_sum   'Hf50 Zr50 Ta50 Ti50 Mo50'
_cell_volume   4812.04832276
_cell_formula_units_Z   50
loop_
 _symmetry_equiv_pos_site_id
 _symmetry_equiv_pos_as_xyz
  1  'x, y, z'
loop_
 _atom_site_type_symbol
 _atom_site_label
 _atom_site_symmetry_multiplicity
 _atom_site_fract_x
 _atom_site_fract_y
 _atom_site_fract_z
 _atom_site_occupancy
  Hf  Hf0  1  0.60060226  0.20204720  0.60357178  1
  Hf  Hf1  1  0.30863025  0.10101621  0.89669637  1
  Hf  Hf2  1  0.89656147  0.89444965  0.70690747  1
  Hf  Hf3  1  0.60411748  0.38526407  -0.00494742  1
  Hf  Hf4  1  0.60057616  0.39180439  0.20042270  1
  Hf  Hf5  1  0.09715710  0.70671796  0.11101939  1
  Hf  Hf6  1  0.58839614  0.60249033  0.20267242  1
  Hf  Hf7  1  0.39101864  0.79740142  0.59694645  1
  Hf  Hf8  1  0.30533307  0.69774720  0.29572291  1
  Hf  Hf9  1  0.19562819  0.20166893  0.20019638  1
  Hf  Hf10  1  0.21319624  0.40264728  0.59084635  1
  Hf  Hf11  1  0.49663760  0.49530474  0.49757979  1
  Hf  Hf12  1  0.50370003  0.70150300  0.49520411  1
  Hf  Hf13  1  0.48650947  0.11339400  0.72133925  1
  Hf  Hf14  1  0.70837278  0.28667859  0.30342396  1
  Hf  Hf15  1  0.49935929  0.90066268  0.29900771  1
  Hf  Hf16  1  0.80173862  0.79908515  -0.00134156  1
  Hf  Hf17  1  0.90956054  0.89496990  0.11121454  1
  Hf  Hf18  1  0.49709641  0.90424489  0.89778182  1
  Hf  Hf19  1  0.00018303  0.60119710  -0.00627934  1
  Hf  Hf20  1  0.50205753  0.69838745  0.70090604  1
  Hf  Hf21  1  0.61641867  0.39700901  0.80129091  1
  Hf  Hf22  1  0.38927074  0.00250154  0.61321942  1
  Hf  Hf23  1  0.70872567  0.10586250  0.70626776  1
  Hf  Hf24  1  0.88885216  0.29598455  0.69750103  1
  Hf  Hf25  1  0.00626336  0.00614985  0.00707180  1
  Hf  Hf26  1  0.90446224  0.70558948  0.49707072  1
  Hf  Hf27  1  0.10651613  0.30143934  0.69843588  1
  Hf  Hf28  1  0.59791621  -0.00072598  0.01965583  1
  Hf  Hf29  1  0.49525775  0.10330608  0.50281443  1
  Hf  Hf30  1  0.49940944  0.49361066  0.69638116  1
  Hf  Hf31  1  0.91040193  0.70138736  0.30053054  1
  Hf  Hf32  1  0.10163340  0.50708271  0.48869106  1
  Hf  Hf33  1  0.19724633  0.59356477  0.79990773  1
  Hf  Hf34  1  0.59722298  0.81553032  0.18801477  1
  Hf  Hf35  1  0.00442770  0.19386923  0.38978944  1
  Hf  Hf36  1  0.11666520  0.09897596  0.90579458  1
  Hf  Hf37  1  0.69806880  0.70192717  0.09655545  1
  Hf  Hf38  1  0.00271596  0.01374451  0.20999904  1
  Hf  Hf39  1  0.90157409  0.49532036  0.09613034  1
  Hf  Hf40  1  0.69437818  0.50184218  0.30267135  1
  Hf  Hf41  1  0.29719614  0.90249599  0.49005635  1
  Hf  Hf42  1  0.49249915  0.29718323  0.10286314  1
  Hf  Hf43  1  0.20381384  0.80679730  -0.00531714  1
  Hf  Hf44  1  -0.00280263  0.39790985  0.80154559  1
  Hf  Hf45  1  0.79015204  0.41113438  0.59901637  1
  Hf  Hf46  1  0.00472568  0.79905213  -0.00734730  1
  Hf  Hf47  1  0.29827607  0.90849231  0.10381287  1
  Hf  Hf48  1  0.69994818  0.89535528  0.50082488  1
  Hf  Hf49  1  0.80016837  0.60306519  0.20157526  1
  Zr  Zr50  1  0.88775878  0.28901440  0.49281602  1
  Zr  Zr51  1  0.89158788  0.49814546  0.89308036  1
  Zr  Zr52  1  0.49498536  0.30417598  0.50057335  1
  Zr  Zr53  1  0.59960851  0.00749254  0.80374067  1
  Zr  Zr54  1  0.79969599  0.40741816  0.40147009  1
  Zr  Zr55  1  0.59950605  0.19337619  0.00314452  1
  Zr  Zr56  1  0.30400529  0.70210447  0.90316619  1
  Zr  Zr57  1  0.68920769  0.70903463  0.30767249  1
  Zr  Zr58  1  0.79378585  -0.00319410  0.20973292  1
  Zr  Zr59  1  0.78801357  0.38899097  -0.00555462  1
  Zr  Zr60  1  0.19471168  0.79369459  0.40015611  1
  Zr  Zr61  1  0.19193976  0.40334120  0.20357922  1
  Zr  Zr62  1  0.89951885  0.09622492  0.50815741  1
  Zr  Zr63  1  -0.00350065  0.39902260  0.59104607  1
  Zr  Zr64  1  0.69349715  0.50904066  0.08956915  1
  Zr  Zr65  1  0.19999307  0.80875327  0.79610868  1
  Zr  Zr66  1  0.60228362  0.80778849  -0.00531754  1
  Zr  Zr67  1  0.79359112  -0.00243856  0.01145008  1
  Zr  Zr68  1  0.00335116  0.39587512  0.38352562  1
  Zr  Zr69  1  0.00896802  0.20055768  0.00730959  1
  Zr  Zr70  1  -0.00354796  0.60400982  0.59910618  1
  Zr  Zr71  1  0.00072857  0.19823850  0.80086715  1
  Zr  Zr72  1  0.19494686  0.59960794  0.00882142  1
  Zr  Zr73  1  0.71504762  0.90446369  0.87702108  1
  Zr  Zr74  1  0.40673784  0.59606734  0.80338931  1
  Zr  Zr75  1  0.39980607  0.00616876  0.39198183  1
  Zr  Zr76  1  0.39415890  0.19659951  0.20676852  1
  Zr  Zr77  1  0.49589874  0.30482797  0.70142994  1
  Zr  Zr78  1  0.50390406  0.89657417  0.49512572  1
  Zr  Zr79  1  0.89132730  0.10194334  0.90352068  1
  Zr  Zr80  1  0.30073828  0.69656186  0.70219204  1
  Zr  Zr81  1  0.79918339  0.39745039  0.19645025  1
  Zr  Zr82  1  0.50263461  0.49343490  0.90385149  1
  Zr  Zr83  1  0.80280774  -0.00056534  0.39976662  1
  Zr  Zr84  1  0.90524774  0.90025054  0.89087338  1
  Zr  Zr85  1  0.80495803  0.80721242  0.40022160  1
  Zr  Zr86  1  0.12229676  0.29532455  0.47896912  1
  Zr  Zr87  1  0.00950617  0.58641711  0.19790240  1
  Zr  Zr88  1  0.19709929  0.39788680  0.00377395  1
  Zr  Zr89  1  0.19877841  -0.00965941  0.60563297  1
  Zr  Zr90  1  0.19365947  0.79528988  0.59528059  1
  Zr  Zr91  1  0.30785065  0.49234850  0.91171271  1
  Zr  Zr92  1  0.10130379  0.09374402  0.69937743  1
  Zr  Zr93  1  0.00494581  0.19621073  0.59885626  1
  Zr  Zr94  1  0.10146500  0.49901867  0.69718082  1
  Zr  Zr95  1  0.49211232  0.49543496  0.09785704  1
  Zr  Zr96  1  0.60363642  0.00214717  0.60355889  1
  Zr  Zr97  1  0.39261304  0.20384448  0.39468882  1
  Zr  Zr98  1  0.10837382  0.90816158  0.10893696  1
  Zr  Zr99  1  0.50015466  0.89533773  0.70657561  1
  Ta  Ta100  1  0.00455806  0.20421310  0.20300017  1
  Ta  Ta101  1  0.19147462  -0.00522095  0.39461085  1
  Ta  Ta102  1  0.21175098  0.20370578  0.79794798  1
  Ta  Ta103  1  0.21565910  -0.00448657  0.79586337  1
  Ta  Ta104  1  0.79822189  0.59936996  0.40614663  1
  Ta  Ta105  1  0.69954831  0.69886131  0.50059286  1
  Ta  Ta106  1  0.89400192  0.29775541  0.90427804  1
  Ta  Ta107  1  0.40382807  0.60957285  0.00599564  1
  Ta  Ta108  1  0.60080592  0.39771721  0.40207740  1
  Ta  Ta109  1  0.39236309  0.59549827  0.59097519  1
  Ta  Ta110  1  0.89606720  0.11021201  0.10838764  1
  Ta  Ta111  1  0.40533354  0.00543802  0.00265681  1
  Ta  Ta112  1  0.59866156  0.59641934  0.40483112  1
  Ta  Ta113  1  0.38910307  0.39366080  0.21065545  1
  Ta  Ta114  1  0.69886688  0.29420181  0.49917926  1
  Ta  Ta115  1  0.60053049  0.19349188  0.20147703  1
  Ta  Ta116  1  0.40078440  0.80653813  0.00330273  1
  Ta  Ta117  1  0.60964574  0.79455273  0.60512941  1
  Ta  Ta118  1  0.20708978  0.60385857  0.58902658  1
  Ta  Ta119  1  0.20791547  0.39479048  0.80276805  1
  Ta  Ta120  1  0.90352939  0.70411422  0.10500589  1
  Ta  Ta121  1  0.79924717  0.80400239  0.20201619  1
  Ta  Ta122  1  0.40138875  0.19515036  0.00015706  1
  Ta  Ta123  1  0.09196858  0.70227242  0.69917728  1
  Ta  Ta124  1  0.49569219  0.70464120  0.09767752  1
  Ta  Ta125  1  0.30106608  0.29876726  0.09372399  1
  Ta  Ta126  1  0.30700877  0.49725825  0.10487686  1
  Ta  Ta127  1  0.60653399  0.00924278  0.39661420  1
  Ta  Ta128  1  0.10791107  0.29815490  0.90035895  1
  Ta  Ta129  1  0.20239046  0.59531137  0.20225406  1
  Ta  Ta130  1  0.70157274  0.10694904  0.89989922  1
  Ta  Ta131  1  0.60071091  0.19588342  0.39756131  1
  Ta  Ta132  1  -0.00470921  0.60380393  0.79607279  1
  Ta  Ta133  1  0.00345270  0.39650555  0.00197082  1
  Ta  Ta134  1  0.10242180  0.91044510  0.89296768  1
  Ta  Ta135  1  0.08440388  0.89868280  0.49871885  1
  Ta  Ta136  1  0.89756960  0.29438151  0.10137928  1
  Ta  Ta137  1  0.09674875  0.49479167  0.89871485  1
  Ta  Ta138  1  0.20999896  0.19866908  0.59924031  1
  Ta  Ta139  1  0.80220073  -0.00440811  0.60681771  1
  Ta  Ta140  1  -0.00244358  -0.00235106  0.39933410  1
  Ta  Ta141  1  0.60957765  0.60052284  0.79539771  1
  Ta  Ta142  1  0.29597499  0.90272979  0.29031390  1
  Ta  Ta143  1  0.60819524  0.59658888  0.60179464  1
  Ta  Ta144  1  0.10224678  0.09085870  0.49824366  1
  Ta  Ta145  1  0.49116569  0.49485459  0.30643187  1
  Ta  Ta146  1  0.28817493  0.09762070  0.09425317  1
  Ta  Ta147  1  0.89018346  0.50272102  0.70268831  1
  Ta  Ta148  1  0.80438114  0.61058169  -0.00696143  1
  Ta  Ta149  1  0.28979377  0.10155823  0.49551830  1
  Ti  Ti150  1  0.70492342  0.10544645  0.11290235  1
  Ti  Ti151  1  0.88466554  0.11440557  0.29948898  1
  Ti  Ti152  1  0.38930409  0.81182216  0.80429182  1
  Ti  Ti153  1  0.08658517  0.89813290  0.70395645  1
  Ti  Ti154  1  0.90274630  0.50850408  0.49394862  1
  Ti  Ti155  1  0.10884037  0.09961115  0.30241934  1
  Ti  Ti156  1  0.89832318  0.29556577  0.29084010  1
  Ti  Ti157  1  0.49713623  0.70282163  0.30245159  1
  Ti  Ti158  1  0.91626440  0.89018952  0.30279069  1
  Ti  Ti159  1  0.30587569  0.29861088  0.70236167  1
  Ti  Ti160  1  0.50902074  0.09616758  0.29375448  1
  Ti  Ti161  1  0.30278614  0.69962891  0.10492656  1
  Ti  Ti162  1  0.28986698  0.08851536  0.29491307  1
  Ti  Ti163  1  0.68784901  0.90234571  0.30249096  1
  Ti  Ti164  1  0.09304127  0.69531028  0.30834158  1
  Ti  Ti165  1  0.79951686  0.20440340  0.80512460  1
  Ti  Ti166  1  0.49606411  0.28695651  0.89387032  1
  Ti  Ti167  1  0.40762275  0.00518763  0.19158701  1
  Ti  Ti168  1  -0.00341905  0.00716615  0.79532070  1
  Ti  Ti169  1  0.09680099  0.30318172  0.10343108  1
  Ti  Ti170  1  0.09789179  0.89603269  0.29911766  1
  Ti  Ti171  1  0.90462477  0.50407597  0.30217904  1
  Ti  Ti172  1  0.70432325  0.69791958  0.89243952  1
  Ti  Ti173  1  0.20001983  0.79649097  0.20652924  1
  Ti  Ti174  1  0.50014837  0.30312191  0.30473014  1
  Ti  Ti175  1  0.40301209  0.80220822  0.19414960  1
  Ti  Ti176  1  0.38705478  0.20117876  0.60109888  1
  Ti  Ti177  1  0.39983271  0.59712069  0.19919886  1
  Ti  Ti178  1  0.70641771  0.50807943  0.89383866  1
  Ti  Ti179  1  0.61225984  0.40634988  0.59727244  1
  Ti  Ti180  1  0.50163735  0.70787963  0.89600757  1
  Ti  Ti181  1  0.61770049  0.79351598  0.78901980  1
  Ti  Ti182  1  0.39273263  0.38900099  0.80950397  1
  Ti  Ti183  1  0.39616364  0.59981229  0.40406277  1
  Ti  Ti184  1  0.89978384  0.70504511  0.88482693  1
  Ti  Ti185  1  0.09721005  0.70328486  0.88788110  1
  Ti  Ti186  1  0.10413444  0.50248410  0.30460701  1
  Ti  Ti187  1  0.79352175  0.60015025  0.59943613  1
  Ti  Ti188  1  0.20484104  0.60557547  0.40276753  1
  Ti  Ti189  1  0.59638939  0.60783116  -0.01105855  1
  Ti  Ti190  1  0.70496024  0.29646609  0.70119406  1
  Ti  Ti191  1  0.79651480  0.79560957  0.60955108  1
  Ti  Ti192  1  0.70885555  0.10872075  0.49906110  1
  Ti  Ti193  1  0.30268255  0.50054925  0.30577020  1
  Ti  Ti194  1  0.39598575  0.79754150  0.39634620  1
  Ti  Ti195  1  0.27823643  0.30583599  0.32102763  1
  Ti  Ti196  1  0.79626799  0.60750620  0.78733696  1
  Ti  Ti197  1  -0.00280748  0.79985447  0.60052850  1
  Ti  Ti198  1  0.30517276  0.49699960  0.70069320  1
  Ti  Ti199  1  0.38662930  0.39991543  0.58869824  1
  Mo  Mo200  1  0.60349459  0.20656450  0.80692713  1
  Mo  Mo201  1  0.59951929  0.00628128  0.20332186  1
  Mo  Mo202  1  0.70376550  0.28593380  0.89307857  1
  Mo  Mo203  1  0.79808244  0.39678017  0.79726020  1
  Mo  Mo204  1  0.70306440  0.69704682  0.69475910  1
  Mo  Mo205  1  0.20443567  0.00241337  -0.00310070  1
  Mo  Mo206  1  0.29962696  0.10647235  0.70044214  1
  Mo  Mo207  1  0.40000090  0.38766767  0.00406311  1
  Mo  Mo208  1  0.10199552  0.10544070  0.10552940  1
  Mo  Mo209  1  0.48808479  0.90234193  0.10182789  1
  Mo  Mo210  1  0.30555261  0.89989690  0.70572256  1
  Mo  Mo211  1  0.49906026  0.10221177  0.90780871  1
  Mo  Mo212  1  0.39569948  0.20853143  0.80711256  1
  Mo  Mo213  1  0.59726131  0.79893877  0.40176364  1
  Mo  Mo214  1  0.70170387  0.50483440  0.70011041  1
  Mo  Mo215  1  0.09878920  0.70069894  0.50068099  1
  Mo  Mo216  1  0.89714928  0.69833654  0.69608665  1
  Mo  Mo217  1  0.20107872  0.18283266  0.39600393  1
  Mo  Mo218  1  0.79641626  0.19960798  0.00653880  1
  Mo  Mo219  1  0.30155106  0.29801067  0.49719211  1
  Mo  Mo220  1  0.30359403  0.90849851  0.90379998  1
  Mo  Mo221  1  0.70110190  0.28347213  0.10435443  1
  Mo  Mo222  1  0.79786021  0.19634895  0.39911887  1
  Mo  Mo223  1  0.20661526  0.41771268  0.39538116  1
  Mo  Mo224  1  0.70727938  0.89570817  0.69514530  1
  Mo  Mo225  1  0.90517685  0.89945109  0.51065954  1
  Mo  Mo226  1  0.80547403  0.01424652  0.79446062  1
  Mo  Mo227  1  0.00442107  0.80340605  0.40169762  1
  Mo  Mo228  1  0.39641686  -0.00047840  0.80677541  1
  Mo  Mo229  1  -0.00090105  0.39262278  0.19666619  1
  Mo  Mo230  1  0.49165648  0.10017211  0.10693607  1
  Mo  Mo231  1  0.30299543  0.69447532  0.49159840  1
  Mo  Mo232  1  0.00407974  0.79472636  0.79640345  1
  Mo  Mo233  1  -0.00046347  0.60071267  0.39704111  1
  Mo  Mo234  1  0.80162846  0.78040133  0.79217317  1
  Mo  Mo235  1  0.00441658  0.79865898  0.20723381  1
  Mo  Mo236  1  0.69407193  0.50395464  0.49935760  1
  Mo  Mo237  1  0.19774156  0.00343956  0.20603413  1
  Mo  Mo238  1  0.39680198  0.40079768  0.39253105  1
  Mo  Mo239  1  0.30134051  0.29480845  0.90317982  1
  Mo  Mo240  1  0.09884736  0.49865558  0.09706016  1
  Mo  Mo241  1  0.89441685  0.09659664  0.70211803  1
  Mo  Mo242  1  0.69405128  0.10048607  0.30209897  1
  Mo  Mo243  1  0.80143874  0.19858042  0.19904062  1
  Mo  Mo244  1  0.30272410  0.50273322  0.48976661  1
  Mo  Mo245  1  0.10042592  0.29913816  0.29536580  1
  Mo  Mo246  1  0.20461275  0.20291281  0.00408884  1
  Mo  Mo247  1  0.79205913  0.19871115  0.59943801  1
  Mo  Mo248  1  0.70887231  0.89996376  0.10924376  1
  Mo  Mo249  1  -0.00438574  -0.00925152  0.59912210  1
