# generated using pymatgen
data_HfZrTaTiMo
_symmetry_space_group_name_H-M   'P 1'
_cell_length_a   16.88198255
_cell_length_b   16.87949113
_cell_length_c   16.88153072
_cell_angle_alpha   89.97243297
_cell_angle_beta   89.96532696
_cell_angle_gamma   89.97808115
_symmetry_Int_Tables_number   1
_chemical_formula_structural   HfZrTaTiMo
_chemical_formula_sum   'Hf50 Zr50 Ta50 Ti50 Mo50'
_cell_volume   4810.54696361
_cell_formula_units_Z   50
loop_
 _symmetry_equiv_pos_site_id
 _symmetry_equiv_pos_as_xyz
  1  'x, y, z'
loop_
 _atom_site_type_symbol
 _atom_site_label
 _atom_site_symmetry_multiplicity
 _atom_site_fract_x
 _atom_site_fract_y
 _atom_site_fract_z
 _atom_site_occupancy
  Hf  Hf0  1  0.30790031  0.49883032  0.69693780  1
  Hf  Hf1  1  0.20152193  0.19850566  -0.00038300  1
  Hf  Hf2  1  0.30582639  0.69510660  0.09476312  1
  Hf  Hf3  1  0.50825397  0.30508845  0.89599496  1
  Hf  Hf4  1  0.68195910  0.49918931  0.10664100  1
  Hf  Hf5  1  0.90042378  0.50384004  0.30773992  1
  Hf  Hf6  1  0.11125739  0.89835539  0.89948419  1
  Hf  Hf7  1  0.69375837  0.08742340  0.10242361  1
  Hf  Hf8  1  -0.00288150  0.59490758  0.60694175  1
  Hf  Hf9  1  0.30463102  0.29647457  0.10994293  1
  Hf  Hf10  1  0.09311118  0.50406650  0.90703726  1
  Hf  Hf11  1  0.69383406  0.90361563  0.29551204  1
  Hf  Hf12  1  0.29606122  0.09038355  0.88969778  1
  Hf  Hf13  1  0.91563585  0.69433968  0.49557562  1
  Hf  Hf14  1  0.19942017  0.60499041  0.40755823  1
  Hf  Hf15  1  0.50680019  0.28519925  0.50409097  1
  Hf  Hf16  1  0.40082934  0.39014797  0.40017004  1
  Hf  Hf17  1  0.20387617  0.39658939  0.39855095  1
  Hf  Hf18  1  0.50004632  0.50147590  0.09761146  1
  Hf  Hf19  1  0.91047591  0.89639359  0.29390335  1
  Hf  Hf20  1  0.69264032  0.89319588  0.70205381  1
  Hf  Hf21  1  0.50150085  0.89574318  0.89064550  1
  Hf  Hf22  1  0.50888096  0.90278994  0.09401896  1
  Hf  Hf23  1  0.90208201  0.10393552  0.30141932  1
  Hf  Hf24  1  0.59645763  0.61608248  -0.01073865  1
  Hf  Hf25  1  0.40136445  -0.00555903  0.20055399  1
  Hf  Hf26  1  0.89543585  0.09784796  0.89966130  1
  Hf  Hf27  1  0.20280196  0.40455648  0.00393238  1
  Hf  Hf28  1  0.80517436  0.79793922  0.39697478  1
  Hf  Hf29  1  0.59115372  0.60551687  0.40671355  1
  Hf  Hf30  1  0.09973879  0.30190641  0.89499032  1
  Hf  Hf31  1  0.59704412  0.20326715  0.20585632  1
  Hf  Hf32  1  0.49905765  0.09565724  0.09982699  1
  Hf  Hf33  1  0.41449802  0.38503063  0.21148253  1
  Hf  Hf34  1  -0.00831040  0.61160966  0.19544446  1
  Hf  Hf35  1  0.89227679  0.10048107  0.70745235  1
  Hf  Hf36  1  0.30794022  0.69622271  0.29670724  1
  Hf  Hf37  1  0.09691312  0.89274798  0.50923993  1
  Hf  Hf38  1  0.59143058  0.39188022  0.38178328  1
  Hf  Hf39  1  0.79279356  0.61559484  0.00403095  1
  Hf  Hf40  1  0.40637564  -0.00693401  0.60450652  1
  Hf  Hf41  1  0.40798172  0.60885152  0.60134486  1
  Hf  Hf42  1  0.39822455  0.39764279  0.79719653  1
  Hf  Hf43  1  0.30933470  0.50205956  0.10428096  1
  Hf  Hf44  1  0.80401634  -0.00160824  0.40775692  1
  Hf  Hf45  1  0.59782841  0.60312130  0.60066898  1
  Hf  Hf46  1  0.00793236  0.19566311  -0.00037390  1
  Hf  Hf47  1  0.81312357  0.80438896  0.59123509  1
  Hf  Hf48  1  0.70400360  0.49109915  0.49614330  1
  Hf  Hf49  1  0.08601489  0.70497740  0.30748242  1
  Zr  Zr50  1  -0.00084321  0.80369420  0.80214389  1
  Zr  Zr51  1  0.60159930  0.19280627  -0.00972750  1
  Zr  Zr52  1  0.68956930  0.49923947  0.88997361  1
  Zr  Zr53  1  -0.00217543  -0.00309842  0.60692352  1
  Zr  Zr54  1  0.40759193  0.80135877  0.40755779  1
  Zr  Zr55  1  0.69387823  0.89826044  0.50411618  1
  Zr  Zr56  1  0.09589145  0.70171057  0.08568265  1
  Zr  Zr57  1  0.50661364  0.29558063  0.69595810  1
  Zr  Zr58  1  0.10129298  0.10181656  0.50587257  1
  Zr  Zr59  1  0.20003158  0.80158444  0.20074241  1
  Zr  Zr60  1  0.20634181  0.79756458  0.60691479  1
  Zr  Zr61  1  0.91097852  0.50370561  0.08828588  1
  Zr  Zr62  1  0.79977317  0.39430275  0.20889033  1
  Zr  Zr63  1  0.49774493  0.48165143  0.51476291  1
  Zr  Zr64  1  0.90373536  0.69660815  0.90011395  1
  Zr  Zr65  1  0.00284375  -0.00042505  0.80121303  1
  Zr  Zr66  1  0.00884206  0.00036515  0.19767181  1
  Zr  Zr67  1  -0.01568581  0.39138309  0.39783368  1
  Zr  Zr68  1  0.39903407  0.19723875  -0.00757256  1
  Zr  Zr69  1  0.80819902  0.79389055  0.19200847  1
  Zr  Zr70  1  0.79784195  0.60810300  0.19982184  1
  Zr  Zr71  1  0.79185626  0.39882023  -0.00393911  1
  Zr  Zr72  1  0.80366735  0.20950215  0.39531641  1
  Zr  Zr73  1  0.19706197  -0.00035866  0.39836616  1
  Zr  Zr74  1  0.79190602  0.20349043  -0.00389864  1
  Zr  Zr75  1  0.58659228  0.00383728  0.40950566  1
  Zr  Zr76  1  0.90446043  0.49753960  0.89998835  1
  Zr  Zr77  1  0.09196771  0.50197640  0.49439680  1
  Zr  Zr78  1  0.69950980  0.70451675  0.69602922  1
  Zr  Zr79  1  0.89321887  0.09271381  0.09416602  1
  Zr  Zr80  1  0.90454242  0.10967579  0.50286453  1
  Zr  Zr81  1  -0.00720703  0.39792772  0.60834769  1
  Zr  Zr82  1  0.30349260  0.50048698  0.29735871  1
  Zr  Zr83  1  0.19962609  0.60853345  0.79913361  1
  Zr  Zr84  1  0.80566826  0.59884885  0.78908477  1
  Zr  Zr85  1  0.69686002  0.29710204  0.50045075  1
  Zr  Zr86  1  0.79874276  0.60227628  0.40029441  1
  Zr  Zr87  1  0.50078690  0.50360867  0.89793115  1
  Zr  Zr88  1  0.19403968  0.19513136  0.19945328  1
  Zr  Zr89  1  -0.00983694  0.80383110  0.00080814  1
  Zr  Zr90  1  0.30112242  0.90282141  0.50453712  1
  Zr  Zr91  1  0.30211343  0.09679969  0.29549217  1
  Zr  Zr92  1  0.49357381  0.70110024  0.09628105  1
  Zr  Zr93  1  0.09616882  0.29345623  0.49908738  1
  Zr  Zr94  1  0.00017694  0.20400209  0.19911640  1
  Zr  Zr95  1  0.18764497  0.59119309  0.19634336  1
  Zr  Zr96  1  0.29742473  0.09442166  0.70680921  1
  Zr  Zr97  1  0.90520421  0.30570276  0.09279940  1
  Zr  Zr98  1  0.19944257  0.60397158  0.60013341  1
  Zr  Zr99  1  0.50323327  0.51742220  0.28445972  1
  Ta  Ta100  1  0.20123398  0.20157311  0.60597018  1
  Ta  Ta101  1  0.59135731  0.79839560  0.40410132  1
  Ta  Ta102  1  0.80240938  0.39319095  0.78810672  1
  Ta  Ta103  1  0.00859301  0.40546202  0.19966440  1
  Ta  Ta104  1  0.29961311  0.89971114  0.30112613  1
  Ta  Ta105  1  0.00070822  0.20608193  0.61768060  1
  Ta  Ta106  1  -0.00251586  0.39816430  0.79225837  1
  Ta  Ta107  1  0.60019731  -0.00057429  0.79611306  1
  Ta  Ta108  1  0.09383693  0.70789726  0.69954258  1
  Ta  Ta109  1  0.39688451  0.19007551  0.59843968  1
  Ta  Ta110  1  0.79401030  0.20193541  0.20030232  1
  Ta  Ta111  1  0.40006959  0.19001721  0.40622662  1
  Ta  Ta112  1  0.30830631  0.70040049  0.90111748  1
  Ta  Ta113  1  0.50589264  0.71605226  0.70636990  1
  Ta  Ta114  1  0.40043635  0.19877724  0.79681074  1
  Ta  Ta115  1  0.59353300  0.80486008  0.20412424  1
  Ta  Ta116  1  0.00667871  -0.00154827  -0.00245204  1
  Ta  Ta117  1  0.40413509  0.60302630  0.41215872  1
  Ta  Ta118  1  0.79375715  0.20759277  0.79900221  1
  Ta  Ta119  1  0.30098898  0.09115267  0.10041352  1
  Ta  Ta120  1  0.59456824  0.00146468  0.60312703  1
  Ta  Ta121  1  0.39496426  -0.00739546  -0.00696007  1
  Ta  Ta122  1  0.68839391  0.70366185  0.30078712  1
  Ta  Ta123  1  0.50194786  0.10023251  0.70262998  1
  Ta  Ta124  1  0.79701999  0.20680919  0.61086581  1
  Ta  Ta125  1  0.69883264  0.49839465  0.69907058  1
  Ta  Ta126  1  0.79760307  -0.00099013  0.20015463  1
  Ta  Ta127  1  0.79573815  0.00361130  0.60033527  1
  Ta  Ta128  1  0.30252214  0.29740809  0.50836069  1
  Ta  Ta129  1  0.50398036  0.30143440  0.09781072  1
  Ta  Ta130  1  0.20774795  0.19887473  0.40594645  1
  Ta  Ta131  1  0.39863991  0.39749743  -0.00277511  1
  Ta  Ta132  1  0.30529383  0.49225281  0.50709348  1
  Ta  Ta133  1  0.10026790  0.29960803  0.30169535  1
  Ta  Ta134  1  0.69050123  0.30811753  0.88745559  1
  Ta  Ta135  1  0.80604998  0.39976342  0.60509598  1
  Ta  Ta136  1  0.40173843  0.80656563  0.20006171  1
  Ta  Ta137  1  0.19949672  0.39428193  0.60637754  1
  Ta  Ta138  1  0.11017317  0.09836989  0.89207380  1
  Ta  Ta139  1  0.40809044  0.61017301  0.79994571  1
  Ta  Ta140  1  0.69718152  0.90276587  0.09655061  1
  Ta  Ta141  1  0.30450302  0.50563432  0.90093068  1
  Ta  Ta142  1  0.10513160  0.90010829  0.09845048  1
  Ta  Ta143  1  0.69636457  0.09813285  0.30045531  1
  Ta  Ta144  1  0.19959915  0.40144547  0.79649246  1
  Ta  Ta145  1  0.19811279  0.79579686  0.40414529  1
  Ta  Ta146  1  0.20568361  -0.00585496  -0.00124227  1
  Ta  Ta147  1  0.89236244  0.90084893  0.70098942  1
  Ta  Ta148  1  0.69508026  0.70526132  0.50259072  1
  Ta  Ta149  1  0.00077548  -0.00399181  0.40289280  1
  Ti  Ti150  1  0.10300408  0.31298336  0.10297313  1
  Ti  Ti151  1  0.30702390  0.70342461  0.50390328  1
  Ti  Ti152  1  0.69852167  0.29764640  0.30238180  1
  Ti  Ti153  1  0.79026705  0.80378814  -0.00385129  1
  Ti  Ti154  1  0.80694905  0.59326696  0.59741946  1
  Ti  Ti155  1  0.68651928  0.30711726  0.09793461  1
  Ti  Ti156  1  0.68907529  0.70883661  0.88059202  1
  Ti  Ti157  1  0.10164693  0.89727702  0.29688204  1
  Ti  Ti158  1  -0.00047016  0.20610762  0.79587761  1
  Ti  Ti159  1  0.90326923  0.30260487  0.89745796  1
  Ti  Ti160  1  0.49539548  0.09206578  0.88839277  1
  Ti  Ti161  1  0.20249561  -0.00012725  0.60879812  1
  Ti  Ti162  1  0.70471681  0.09304849  0.89491921  1
  Ti  Ti163  1  0.40192408  0.00516926  0.41050540  1
  Ti  Ti164  1  0.50774212  0.49831865  0.70623731  1
  Ti  Ti165  1  0.61177716  0.39325960  0.61182622  1
  Ti  Ti166  1  0.89686246  0.90345211  0.09627131  1
  Ti  Ti167  1  0.49790076  0.70125764  0.29435378  1
  Ti  Ti168  1  0.69724020  0.10133928  0.69699837  1
  Ti  Ti169  1  0.29810169  0.29647141  0.70034439  1
  Ti  Ti170  1  0.09688998  0.10504570  0.30867285  1
  Ti  Ti171  1  0.09552434  0.49776630  0.30206906  1
  Ti  Ti172  1  0.50047011  0.10164303  0.30117259  1
  Ti  Ti173  1  0.90478829  0.70699852  0.69772317  1
  Ti  Ti174  1  0.60534519  0.80203079  -0.01158997  1
  Ti  Ti175  1  0.00310936  0.60165405  0.79597729  1
  Ti  Ti176  1  0.80054952  0.80521188  0.80443643  1
  Ti  Ti177  1  0.78929071  -0.00398036  0.80046260  1
  Ti  Ti178  1  0.60621870  -0.00448758  -0.01665583  1
  Ti  Ti179  1  0.39607166  0.80527044  -0.00682142  1
  Ti  Ti180  1  0.19893814  0.60118624  -0.00452053  1
  Ti  Ti181  1  0.29681105  0.30010700  0.89322743  1
  Ti  Ti182  1  0.68781471  0.71046782  0.10580793  1
  Ti  Ti183  1  0.69270998  0.10898478  0.50252648  1
  Ti  Ti184  1  0.39637652  0.80893616  0.79512811  1
  Ti  Ti185  1  0.89633751  0.29789849  0.50310549  1
  Ti  Ti186  1  0.49902799  0.90308853  0.30166993  1
  Ti  Ti187  1  0.10541766  0.89711001  0.70325600  1
  Ti  Ti188  1  0.29708845  0.90051807  0.09977822  1
  Ti  Ti189  1  0.29884002  0.28947464  0.29873666  1
  Ti  Ti190  1  -0.00018822  0.80564913  0.40752611  1
  Ti  Ti191  1  0.69271992  0.50219631  0.29484659  1
  Ti  Ti192  1  0.60594165  0.19447657  0.79494144  1
  Ti  Ti193  1  0.20910960  0.80005066  0.80144742  1
  Ti  Ti194  1  0.11056444  0.10659201  0.71336313  1
  Ti  Ti195  1  0.20858645  0.79934155  -0.00798831  1
  Ti  Ti196  1  0.31015416  0.70719173  0.70290253  1
  Ti  Ti197  1  0.10153011  0.49798210  0.70434233  1
  Ti  Ti198  1  0.11054094  0.08748383  0.09609066  1
  Ti  Ti199  1  0.88727798  0.90935101  0.90427837  1
  Mo  Mo200  1  0.59407275  0.60544537  0.79177360  1
  Mo  Mo201  1  0.40680015  -0.00217154  0.79959996  1
  Mo  Mo202  1  0.30368607  0.89391635  0.90097553  1
  Mo  Mo203  1  0.00159515  0.59852535  0.40127949  1
  Mo  Mo204  1  0.58889954  0.80475712  0.59661883  1
  Mo  Mo205  1  0.49791633  0.09999142  0.50666521  1
  Mo  Mo206  1  0.59565916  0.39542132  0.00057254  1
  Mo  Mo207  1  0.89085411  0.49873045  0.50436834  1
  Mo  Mo208  1  0.60183218  0.61820462  0.19967441  1
  Mo  Mo209  1  0.79520727  0.39938060  0.40164382  1
  Mo  Mo210  1  0.40222662  0.80088961  0.61011704  1
  Mo  Mo211  1  0.10395836  0.29896802  0.70440239  1
  Mo  Mo212  1  0.00015628  0.80535455  0.19472852  1
  Mo  Mo213  1  0.60102967  0.38722936  0.20083810  1
  Mo  Mo214  1  0.49433076  0.70945497  0.89366543  1
  Mo  Mo215  1  0.49613753  0.27756502  0.30465674  1
  Mo  Mo216  1  0.20099708  -0.01260319  0.79748038  1
  Mo  Mo217  1  0.89556333  0.70666506  0.09202311  1
  Mo  Mo218  1  0.10186363  0.49874279  0.09785640  1
  Mo  Mo219  1  0.40180571  0.60949333  0.19846941  1
  Mo  Mo220  1  0.29942402  0.10298864  0.50592438  1
  Mo  Mo221  1  0.30129407  0.90035406  0.71058707  1
  Mo  Mo222  1  0.60467189  0.18624828  0.60328376  1
  Mo  Mo223  1  0.49946702  0.90169184  0.70237881  1
  Mo  Mo224  1  0.60012621  0.19310139  0.39713841  1
  Mo  Mo225  1  0.90498873  0.90342050  0.50296957  1
  Mo  Mo226  1  0.39295972  0.38840562  0.60364826  1
  Mo  Mo227  1  0.20209911  -0.00646464  0.19437933  1
  Mo  Mo228  1  0.40398027  0.19368328  0.20426284  1
  Mo  Mo229  1  0.09852941  0.70543493  0.50140606  1
  Mo  Mo230  1  0.50118738  0.70764849  0.50962670  1
  Mo  Mo231  1  0.89886006  0.29571273  0.70573025  1
  Mo  Mo232  1  0.20366351  0.20952668  0.79902145  1
  Mo  Mo233  1  0.00544947  0.19951665  0.39729479  1
  Mo  Mo234  1  0.70109671  0.29861998  0.70032283  1
  Mo  Mo235  1  0.00460866  0.60355906  -0.00205448  1
  Mo  Mo236  1  0.79643408  -0.00909369  -0.00069718  1
  Mo  Mo237  1  0.59888243  -0.00214753  0.20737532  1
  Mo  Mo238  1  0.00689341  0.39608246  -0.00072671  1
  Mo  Mo239  1  0.90647488  0.70487031  0.30485034  1
  Mo  Mo240  1  0.90092541  0.30104959  0.29258433  1
  Mo  Mo241  1  0.39754136  0.59864751  -0.00832765  1
  Mo  Mo242  1  0.59884992  0.80306482  0.79960755  1
  Mo  Mo243  1  0.00013447  0.79889755  0.60829158  1
  Mo  Mo244  1  0.60227050  0.40445648  0.78969544  1
  Mo  Mo245  1  0.19083856  0.39529040  0.20475506  1
  Mo  Mo246  1  0.69975297  0.89905664  0.89957300  1
  Mo  Mo247  1  0.49930833  0.90001108  0.50646033  1
  Mo  Mo248  1  0.89723799  0.49859997  0.70203681  1
  Mo  Mo249  1  0.11053681  0.70040956  0.89418826  1
