# generated using pymatgen
data_HfZrTaTiMo
_symmetry_space_group_name_H-M   'P 1'
_cell_length_a   16.90190522
_cell_length_b   16.88185882
_cell_length_c   16.89329637
_cell_angle_alpha   90.06573876
_cell_angle_beta   89.98002065
_cell_angle_gamma   90.01439817
_symmetry_Int_Tables_number   1
_chemical_formula_structural   HfZrTaTiMo
_chemical_formula_sum   'Hf50 Zr50 Ta50 Ti50 Mo50'
_cell_volume   4820.25486133
_cell_formula_units_Z   50
loop_
 _symmetry_equiv_pos_site_id
 _symmetry_equiv_pos_as_xyz
  1  'x, y, z'
loop_
 _atom_site_type_symbol
 _atom_site_label
 _atom_site_symmetry_multiplicity
 _atom_site_fract_x
 _atom_site_fract_y
 _atom_site_fract_z
 _atom_site_occupancy
  Hf  Hf0  1  -0.02418903  -0.00609288  0.82285064  1
  Hf  Hf1  1  0.30050423  0.89555490  0.50670338  1
  Hf  Hf2  1  0.19468173  0.79630587  0.19695869  1
  Hf  Hf3  1  0.49882035  0.09602540  0.29614661  1
  Hf  Hf4  1  0.00213423  0.60088555  0.60146605  1
  Hf  Hf5  1  0.60734031  0.20406631  -0.00000130  1
  Hf  Hf6  1  0.18957622  0.80137945  0.60069475  1
  Hf  Hf7  1  0.70132116  0.89033518  0.50458885  1
  Hf  Hf8  1  0.09167451  0.29211281  0.30597463  1
  Hf  Hf9  1  0.69355815  0.50687110  0.69711794  1
  Hf  Hf10  1  0.29329910  0.70725326  0.70249135  1
  Hf  Hf11  1  0.30961246  0.29859884  0.09410655  1
  Hf  Hf12  1  0.82030482  0.00330794  -0.02152071  1
  Hf  Hf13  1  0.39846963  0.79964810  -0.00814607  1
  Hf  Hf14  1  0.30407553  0.09129314  0.29990562  1
  Hf  Hf15  1  0.59810259  0.40027657  0.40483150  1
  Hf  Hf16  1  0.69805114  0.09473788  0.70371094  1
  Hf  Hf17  1  0.80802144  0.80575865  0.79010306  1
  Hf  Hf18  1  0.10269577  0.69419012  0.89316197  1
  Hf  Hf19  1  0.09145105  0.10288531  0.29480067  1
  Hf  Hf20  1  0.49981235  0.10006306  0.50874551  1
  Hf  Hf21  1  0.90034099  0.30311239  0.89386455  1
  Hf  Hf22  1  0.29327081  0.50193509  0.89409356  1
  Hf  Hf23  1  0.49403284  0.89438142  0.69656499  1
  Hf  Hf24  1  0.49149710  0.30516351  0.10053428  1
  Hf  Hf25  1  0.60270689  0.19924013  0.40102019  1
  Hf  Hf26  1  0.89978054  0.10138172  0.70781453  1
  Hf  Hf27  1  0.09640296  0.09314741  0.10286201  1
  Hf  Hf28  1  0.49488189  0.70269448  0.69133667  1
  Hf  Hf29  1  0.38995164  0.60940005  0.58243097  1
  Hf  Hf30  1  0.09345026  0.69451662  0.29930481  1
  Hf  Hf31  1  0.90339831  0.29916585  0.70045049  1
  Hf  Hf32  1  0.70151774  0.09312794  0.29258282  1
  Hf  Hf33  1  0.60095963  -0.00544970  0.40539773  1
  Hf  Hf34  1  0.40051397  0.00082233  0.79895235  1
  Hf  Hf35  1  0.69989288  0.90078413  0.90111875  1
  Hf  Hf36  1  0.39760819  0.40784122  0.41255198  1
  Hf  Hf37  1  0.10123436  0.50699000  0.30374734  1
  Hf  Hf38  1  0.60806063  0.60916934  0.20115505  1
  Hf  Hf39  1  0.20080206  0.19540585  0.00108199  1
  Hf  Hf40  1  0.70161841  0.50136292  0.09929994  1
  Hf  Hf41  1  0.89304404  0.70237000  0.49789657  1
  Hf  Hf42  1  0.90085465  0.70059224  0.90177828  1
  Hf  Hf43  1  0.80349544  -0.00620234  0.39933488  1
  Hf  Hf44  1  0.89815531  0.10698827  0.50168607  1
  Hf  Hf45  1  0.90336437  0.29781129  0.49859024  1
  Hf  Hf46  1  0.50507280  0.09379027  0.09399454  1
  Hf  Hf47  1  0.20251225  0.20647695  0.60866447  1
  Hf  Hf48  1  0.49939432  0.28881064  0.51356787  1
  Hf  Hf49  1  -0.00943010  0.40216324  0.20208529  1
  Zr  Zr50  1  0.30315385  0.49674511  0.10340522  1
  Zr  Zr51  1  0.39902801  0.60131943  0.79647622  1
  Zr  Zr52  1  0.20281322  0.39536065  0.20559595  1
  Zr  Zr53  1  0.30240835  0.29896847  0.89777088  1
  Zr  Zr54  1  0.31836752  0.30306077  0.29398729  1
  Zr  Zr55  1  0.81231609  0.59382581  0.00457680  1
  Zr  Zr56  1  0.60599826  0.20721598  0.19410439  1
  Zr  Zr57  1  -0.00122199  0.40505996  0.00170495  1
  Zr  Zr58  1  0.59616621  0.79682562  0.80159256  1
  Zr  Zr59  1  0.80876996  0.59902421  0.60033546  1
  Zr  Zr60  1  0.21028546  0.20204596  0.39912402  1
  Zr  Zr61  1  0.00116475  0.60448555  0.01367491  1
  Zr  Zr62  1  0.79921094  0.20458589  0.19422128  1
  Zr  Zr63  1  0.70897533  0.30787029  0.30500892  1
  Zr  Zr64  1  0.40257234  0.79973906  0.19424429  1
  Zr  Zr65  1  0.90245468  0.09774714  0.10046266  1
  Zr  Zr66  1  -0.00691317  -0.00470864  0.39819175  1
  Zr  Zr67  1  0.19696551  0.80140168  -0.00013810  1
  Zr  Zr68  1  0.70837918  0.29999097  0.50607047  1
  Zr  Zr69  1  0.29999111  0.10334832  0.89741500  1
  Zr  Zr70  1  0.00671712  0.40702711  0.59895963  1
  Zr  Zr71  1  -0.00360125  -0.00483025  0.59987169  1
  Zr  Zr72  1  0.50868758  0.70098142  0.31285233  1
  Zr  Zr73  1  0.10650318  0.51164552  0.11179201  1
  Zr  Zr74  1  0.49986335  0.89643812  0.30656128  1
  Zr  Zr75  1  0.70968205  0.50821162  0.30289408  1
  Zr  Zr76  1  -0.01126365  0.80469518  0.60828400  1
  Zr  Zr77  1  0.09451948  0.28943423  0.10829536  1
  Zr  Zr78  1  0.20490730  0.40414759  0.60208685  1
  Zr  Zr79  1  0.39789378  0.61079766  0.20583043  1
  Zr  Zr80  1  0.39099321  0.77397592  0.41716825  1
  Zr  Zr81  1  0.79537030  0.40250676  0.79452232  1
  Zr  Zr82  1  0.29903759  0.89471109  0.30310216  1
  Zr  Zr83  1  0.69723767  0.50412060  0.89974862  1
  Zr  Zr84  1  0.59513664  0.40197816  0.60420255  1
  Zr  Zr85  1  0.40275216  0.20432922  0.78794367  1
  Zr  Zr86  1  0.40219526  0.60709906  -0.00737749  1
  Zr  Zr87  1  0.19618179  0.00503647  0.59902277  1
  Zr  Zr88  1  0.39516544  -0.00253974  0.00357788  1
  Zr  Zr89  1  0.49782514  0.49758697  0.30009514  1
  Zr  Zr90  1  0.70380909  0.89928400  0.09009335  1
  Zr  Zr91  1  0.90296843  0.88200773  0.29262749  1
  Zr  Zr92  1  0.69842241  0.70248059  0.68929587  1
  Zr  Zr93  1  0.50276575  0.50001120  0.09759724  1
  Zr  Zr94  1  0.09595639  0.11070002  0.49274124  1
  Zr  Zr95  1  0.39574210  0.40926185  0.60727100  1
  Zr  Zr96  1  0.70538590  0.70404408  0.09131044  1
  Zr  Zr97  1  0.19783170  -0.01131990  -0.00786843  1
  Zr  Zr98  1  0.10134419  0.91355701  0.71776523  1
  Zr  Zr99  1  -0.00287173  0.19401340  -0.01167471  1
  Ta  Ta100  1  -0.00141319  0.40649764  0.40277631  1
  Ta  Ta101  1  0.79478228  0.19723903  0.80567183  1
  Ta  Ta102  1  0.20210400  0.40243047  0.40732201  1
  Ta  Ta103  1  0.69999623  0.70217524  0.90551997  1
  Ta  Ta104  1  0.50328700  0.90143475  0.90173283  1
  Ta  Ta105  1  0.80641117  0.40197663  0.19404466  1
  Ta  Ta106  1  0.09692977  0.89598644  0.29850215  1
  Ta  Ta107  1  0.59026595  0.39507111  0.79680631  1
  Ta  Ta108  1  0.80573229  0.60639078  0.79630047  1
  Ta  Ta109  1  0.79586170  0.79416741  0.39474405  1
  Ta  Ta110  1  0.70221968  0.08707107  0.09094929  1
  Ta  Ta111  1  -0.00643758  -0.00583816  0.20105735  1
  Ta  Ta112  1  0.89782373  0.50845325  0.30016088  1
  Ta  Ta113  1  0.60463293  0.80012950  0.20036602  1
  Ta  Ta114  1  0.49544543  0.89099914  0.50562628  1
  Ta  Ta115  1  0.69902131  0.69986411  0.49585094  1
  Ta  Ta116  1  0.70476305  0.50833037  0.49871328  1
  Ta  Ta117  1  0.69744269  0.30234378  0.89677072  1
  Ta  Ta118  1  0.59851064  -0.00468115  0.60106429  1
  Ta  Ta119  1  0.39901696  -0.00151595  0.41011133  1
  Ta  Ta120  1  0.89878541  0.89343300  0.09493829  1
  Ta  Ta121  1  0.30546593  0.10003243  0.50341373  1
  Ta  Ta122  1  0.40217739  0.40181154  0.78904575  1
  Ta  Ta123  1  0.29669984  0.51066412  0.30877258  1
  Ta  Ta124  1  0.60096497  0.39749282  -0.00389892  1
  Ta  Ta125  1  -0.00727617  0.59623987  0.40634405  1
  Ta  Ta126  1  0.10395775  0.50336631  0.89448870  1
  Ta  Ta127  1  0.80390526  -0.00885369  0.60274244  1
  Ta  Ta128  1  0.79693025  0.19783180  0.60753299  1
  Ta  Ta129  1  0.29178259  0.69523031  0.10112959  1
  Ta  Ta130  1  0.79376549  0.20273354  -0.00414151  1
  Ta  Ta131  1  0.39896527  0.00268278  0.60498320  1
  Ta  Ta132  1  0.49895754  0.29929901  0.90078611  1
  Ta  Ta133  1  -0.00271660  0.80151930  0.80119326  1
  Ta  Ta134  1  0.20388489  0.39823162  0.79255075  1
  Ta  Ta135  1  0.80480410  -0.00670703  0.20131559  1
  Ta  Ta136  1  0.10562133  0.51092618  0.71051192  1
  Ta  Ta137  1  0.90880871  0.50361868  0.70796456  1
  Ta  Ta138  1  0.19291130  0.39840441  -0.00587227  1
  Ta  Ta139  1  0.00241414  0.80272405  -0.00018035  1
  Ta  Ta140  1  0.09653084  0.30089259  0.49563514  1
  Ta  Ta141  1  0.19900045  -0.00426909  0.40022926  1
  Ta  Ta142  1  0.50496026  0.49953800  0.89639505  1
  Ta  Ta143  1  0.09950231  0.09474708  0.88820487  1
  Ta  Ta144  1  0.09778054  0.69750716  0.49661872  1
  Ta  Ta145  1  0.10017617  0.69707102  0.70882891  1
  Ta  Ta146  1  0.51222089  0.70495066  0.08808367  1
  Ta  Ta147  1  0.30229727  0.89723896  0.70432925  1
  Ta  Ta148  1  0.50656333  0.10217930  0.90133496  1
  Ta  Ta149  1  0.01021018  0.40275369  0.79986558  1
  Ti  Ti150  1  0.29781865  0.89874143  0.10301937  1
  Ti  Ti151  1  0.00108779  0.78819215  0.18645494  1
  Ti  Ti152  1  0.59932796  0.20628662  0.79826771  1
  Ti  Ti153  1  0.51308157  0.89689606  0.08904981  1
  Ti  Ti154  1  0.30385944  0.29602199  0.50376846  1
  Ti  Ti155  1  0.80422653  0.40541219  0.60089165  1
  Ti  Ti156  1  0.59624456  -0.00102881  0.79921979  1
  Ti  Ti157  1  0.69683344  0.09666824  0.89558802  1
  Ti  Ti158  1  0.90041326  0.29679277  0.09795904  1
  Ti  Ti159  1  0.08948168  0.90349323  0.10134602  1
  Ti  Ti160  1  0.59581297  0.79695530  0.59289217  1
  Ti  Ti161  1  0.60976321  0.60656448  0.40246467  1
  Ti  Ti162  1  0.10015793  0.29638669  0.70881622  1
  Ti  Ti163  1  0.21054849  0.19258278  0.19625693  1
  Ti  Ti164  1  0.39971613  -0.00546826  0.19373199  1
  Ti  Ti165  1  0.50614235  0.51862459  0.49770256  1
  Ti  Ti166  1  0.81175090  0.41089024  0.40400599  1
  Ti  Ti167  1  0.10318377  0.29539840  0.89023889  1
  Ti  Ti168  1  0.51073399  0.10469185  0.69540592  1
  Ti  Ti169  1  0.19872553  0.81408060  0.81060701  1
  Ti  Ti170  1  0.80259832  0.39803067  0.00494773  1
  Ti  Ti171  1  0.10642105  0.50609825  0.49536029  1
  Ti  Ti172  1  0.19689890  0.79349902  0.39928397  1
  Ti  Ti173  1  0.28847340  0.09718999  0.70555528  1
  Ti  Ti174  1  0.80130130  0.19182057  0.39703115  1
  Ti  Ti175  1  0.19887630  -0.00495707  0.20027263  1
  Ti  Ti176  1  0.50343666  0.51124041  0.69811215  1
  Ti  Ti177  1  0.29492893  0.70284866  0.89261787  1
  Ti  Ti178  1  0.40295221  0.40370670  -0.01270804  1
  Ti  Ti179  1  0.69929270  0.89049364  0.29822136  1
  Ti  Ti180  1  0.39733602  0.18680264  0.18896392  1
  Ti  Ti181  1  0.19921341  0.60219972  0.00252327  1
  Ti  Ti182  1  0.39355230  0.19944370  0.61210693  1
  Ti  Ti183  1  0.49612514  0.30152921  0.29360065  1
  Ti  Ti184  1  0.60424528  -0.00987157  0.19666395  1
  Ti  Ti185  1  0.70062042  0.90262694  0.69652880  1
  Ti  Ti186  1  0.09792351  0.10615577  0.71684329  1
  Ti  Ti187  1  0.70061369  0.09972366  0.50957438  1
  Ti  Ti188  1  0.90209969  0.29455189  0.30585196  1
  Ti  Ti189  1  0.20096510  0.59974595  0.59936353  1
  Ti  Ti190  1  0.60702955  0.39540234  0.19630006  1
  Ti  Ti191  1  0.59709624  0.60569884  0.80547087  1
  Ti  Ti192  1  0.00551939  0.20127095  0.60473572  1
  Ti  Ti193  1  0.40321737  0.19702986  0.40087983  1
  Ti  Ti194  1  0.69495769  0.29507140  0.69839953  1
  Ti  Ti195  1  0.90802932  0.50164211  0.89120719  1
  Ti  Ti196  1  0.09659676  0.89504191  0.48976772  1
  Ti  Ti197  1  0.89487933  0.68993886  0.29476779  1
  Ti  Ti198  1  -0.00489997  0.79696578  0.40259277  1
  Ti  Ti199  1  0.79839972  0.79152760  0.19891080  1
  Mo  Mo200  1  0.20298327  0.60679301  0.20572658  1
  Mo  Mo201  1  0.59807036  0.60154964  0.59117390  1
  Mo  Mo202  1  0.29893503  0.09613144  0.10819015  1
  Mo  Mo203  1  -0.00065651  0.60000927  0.79978941  1
  Mo  Mo204  1  0.19421634  0.20173940  0.79709087  1
  Mo  Mo205  1  0.59854054  0.60176010  -0.00792058  1
  Mo  Mo206  1  0.38847925  0.59728942  0.40656049  1
  Mo  Mo207  1  0.90122099  0.70583032  0.10777264  1
  Mo  Mo208  1  0.51661651  0.69878316  0.50205069  1
  Mo  Mo209  1  0.60001626  0.00286843  -0.00853977  1
  Mo  Mo210  1  0.80147908  0.60347079  0.39849893  1
  Mo  Mo211  1  0.79828522  0.80371070  0.59778742  1
  Mo  Mo212  1  0.89720662  0.10191057  0.29683167  1
  Mo  Mo213  1  0.60628009  0.79880822  0.40198499  1
  Mo  Mo214  1  0.29027437  0.50717259  0.49578684  1
  Mo  Mo215  1  0.70538433  0.70583925  0.30086599  1
  Mo  Mo216  1  0.09306726  0.89956948  0.90425926  1
  Mo  Mo217  1  0.00421155  0.20376517  0.79781191  1
  Mo  Mo218  1  0.39597748  0.80279891  0.80588887  1
  Mo  Mo219  1  0.27309958  0.69815045  0.50134388  1
  Mo  Mo220  1  0.28658510  0.69254093  0.30260501  1
  Mo  Mo221  1  0.30587040  0.89472229  0.88839032  1
  Mo  Mo222  1  0.90648127  0.69845357  0.70414472  1
  Mo  Mo223  1  0.70734752  0.31170965  0.08901903  1
  Mo  Mo224  1  0.50788124  0.69981541  0.90024273  1
  Mo  Mo225  1  -0.00725292  0.60463844  0.20620167  1
  Mo  Mo226  1  0.89791007  0.88360085  0.90453037  1
  Mo  Mo227  1  0.00356825  -0.00795320  0.00238539  1
  Mo  Mo228  1  0.80556183  0.79964701  -0.00236686  1
  Mo  Mo229  1  0.89697226  0.50151559  0.11255677  1
  Mo  Mo230  1  0.89367129  0.90346774  0.70204361  1
  Mo  Mo231  1  0.29996591  0.30283160  0.70079444  1
  Mo  Mo232  1  0.89167048  0.89147983  0.49961592  1
  Mo  Mo233  1  0.89889305  0.49802311  0.49627805  1
  Mo  Mo234  1  0.59666231  0.80187626  -0.00363506  1
  Mo  Mo235  1  0.09955561  0.70182562  0.10011579  1
  Mo  Mo236  1  0.40895909  0.19806429  -0.00191352  1
  Mo  Mo237  1  0.29546354  0.50319149  0.69930416  1
  Mo  Mo238  1  0.50186537  0.29555912  0.70344426  1
  Mo  Mo239  1  0.19549444  0.60125360  0.40476676  1
  Mo  Mo240  1  0.20120101  0.59964177  0.79818031  1
  Mo  Mo241  1  -0.00934114  0.20755107  0.39882811  1
  Mo  Mo242  1  0.60740359  0.19279227  0.60714248  1
  Mo  Mo243  1  -0.01292174  0.19584490  0.20685604  1
  Mo  Mo244  1  0.40281617  0.40671358  0.20887984  1
  Mo  Mo245  1  0.20381274  0.00263506  0.80024258  1
  Mo  Mo246  1  0.79257957  0.00032299  0.79646864  1
  Mo  Mo247  1  0.80669304  0.60253511  0.20037322  1
  Mo  Mo248  1  0.39413274  0.80151387  0.60150876  1
  Mo  Mo249  1  0.89700579  0.11601428  0.89650002  1
