# generated using pymatgen
data_HfZrTaTiMo
_symmetry_space_group_name_H-M   'P 1'
_cell_length_a   16.88764598
_cell_length_b   16.87799954
_cell_length_c   16.89158010
_cell_angle_alpha   89.97887556
_cell_angle_beta   90.07955115
_cell_angle_gamma   89.96174237
_symmetry_Int_Tables_number   1
_chemical_formula_structural   HfZrTaTiMo
_chemical_formula_sum   'Hf50 Zr50 Ta50 Ti50 Mo50'
_cell_volume   4814.59564799
_cell_formula_units_Z   50
loop_
 _symmetry_equiv_pos_site_id
 _symmetry_equiv_pos_as_xyz
  1  'x, y, z'
loop_
 _atom_site_type_symbol
 _atom_site_label
 _atom_site_symmetry_multiplicity
 _atom_site_fract_x
 _atom_site_fract_y
 _atom_site_fract_z
 _atom_site_occupancy
  Hf  Hf0  1  0.49669312  0.29197622  0.09480404  1
  Hf  Hf1  1  0.19708602  0.19617162  0.19823995  1
  Hf  Hf2  1  0.69595441  0.10070045  0.89695144  1
  Hf  Hf3  1  0.69199679  0.29552961  0.09718230  1
  Hf  Hf4  1  0.89685406  0.50574355  0.29890918  1
  Hf  Hf5  1  0.69771718  0.90540407  0.08662699  1
  Hf  Hf6  1  0.90007038  0.69547696  0.30224477  1
  Hf  Hf7  1  0.49552377  0.10267652  0.09240413  1
  Hf  Hf8  1  0.00805455  0.79669823  0.19924334  1
  Hf  Hf9  1  0.50895485  0.69981310  0.49841398  1
  Hf  Hf10  1  0.69008997  0.10026870  0.08629321  1
  Hf  Hf11  1  0.10429710  0.50678241  0.29100671  1
  Hf  Hf12  1  0.30787841  0.90445920  0.09655413  1
  Hf  Hf13  1  0.00427749  0.59161209  0.79882809  1
  Hf  Hf14  1  -0.00315679  0.39443493  0.20443840  1
  Hf  Hf15  1  0.39597160  0.80133003  0.39224313  1
  Hf  Hf16  1  0.71522980  0.70897256  0.90988661  1
  Hf  Hf17  1  0.29809372  0.50036510  0.50108255  1
  Hf  Hf18  1  -0.00722289  -0.00799212  0.60119192  1
  Hf  Hf19  1  0.40547871  0.59693549  0.39206711  1
  Hf  Hf20  1  0.49929637  0.91035400  0.09206198  1
  Hf  Hf21  1  0.60991677  0.80173286  0.60063155  1
  Hf  Hf22  1  0.00038848  0.40239002  0.39940792  1
  Hf  Hf23  1  0.70093595  0.49853379  0.49827035  1
  Hf  Hf24  1  0.10632023  0.09589510  0.89411026  1
  Hf  Hf25  1  0.29329103  0.08736536  0.71144964  1
  Hf  Hf26  1  0.40570002  0.40050552  0.20905236  1
  Hf  Hf27  1  0.00642022  0.79435903  0.40732038  1
  Hf  Hf28  1  -0.00442045  0.21126625  0.39721098  1
  Hf  Hf29  1  0.60228419  0.79868077  0.20014183  1
  Hf  Hf30  1  0.20514361  0.59986115  -0.00914236  1
  Hf  Hf31  1  0.78816304  0.59856609  0.19000808  1
  Hf  Hf32  1  0.39070825  0.60563925  -0.00337263  1
  Hf  Hf33  1  0.09477183  0.30470032  0.69950570  1
  Hf  Hf34  1  0.30710419  0.30272985  0.49611641  1
  Hf  Hf35  1  0.30611858  0.28944189  0.09052254  1
  Hf  Hf36  1  -0.01031639  0.20592602  0.80219538  1
  Hf  Hf37  1  0.00206781  0.80074768  -0.00577472  1
  Hf  Hf38  1  -0.00449965  0.40942424  0.58800503  1
  Hf  Hf39  1  0.39518736  0.79846053  0.20543078  1
  Hf  Hf40  1  0.81042629  0.81650132  0.60051217  1
  Hf  Hf41  1  0.69301821  0.49795086  0.30555264  1
  Hf  Hf42  1  0.80473016  -0.00427302  0.79106183  1
  Hf  Hf43  1  0.41661777  0.60264594  0.60802600  1
  Hf  Hf44  1  0.89350468  0.69474699  0.08491790  1
  Hf  Hf45  1  0.19974530  0.79676369  0.20334394  1
  Hf  Hf46  1  0.60335580  0.60633315  0.00960175  1
  Hf  Hf47  1  0.60463496  0.39874973  0.60723639  1
  Hf  Hf48  1  -0.00670041  -0.00179945  0.41129947  1
  Hf  Hf49  1  0.79166601  0.79434031  0.19613035  1
  Zr  Zr50  1  0.59875050  0.61023499  0.79717730  1
  Zr  Zr51  1  -0.00847877  0.19526647  0.59010129  1
  Zr  Zr52  1  0.29218512  0.90014885  0.49970873  1
  Zr  Zr53  1  0.89305587  0.10344502  0.69857098  1
  Zr  Zr54  1  0.40203199  0.61198667  0.80416465  1
  Zr  Zr55  1  0.80461376  0.39921000  0.00054135  1
  Zr  Zr56  1  0.10123740  0.09977879  0.30325030  1
  Zr  Zr57  1  0.90104967  0.89819152  0.30055464  1
  Zr  Zr58  1  0.50686427  0.49853084  0.49557401  1
  Zr  Zr59  1  0.18556359  0.60428684  0.40481756  1
  Zr  Zr60  1  0.49611678  0.90277503  0.50869707  1
  Zr  Zr61  1  0.79507461  0.80145370  0.41358341  1
  Zr  Zr62  1  0.79856704  0.21022469  0.20665935  1
  Zr  Zr63  1  0.90272533  0.10364597  0.29684310  1
  Zr  Zr64  1  0.10220279  0.30049171  0.09994861  1
  Zr  Zr65  1  0.70231406  0.90344067  0.89863354  1
  Zr  Zr66  1  0.49525842  0.70256533  0.10241436  1
  Zr  Zr67  1  0.20156116  0.19061936  0.60096747  1
  Zr  Zr68  1  0.39741224  0.79560958  -0.01948252  1
  Zr  Zr69  1  0.69002408  0.11071265  0.31285961  1
  Zr  Zr70  1  0.09829497  0.70408364  0.89261225  1
  Zr  Zr71  1  0.89363102  0.09813265  0.09583772  1
  Zr  Zr72  1  0.19638953  0.40987157  0.80423434  1
  Zr  Zr73  1  0.29817620  0.30296046  0.69787548  1
  Zr  Zr74  1  0.80910873  0.59369515  0.80460545  1
  Zr  Zr75  1  0.50272116  0.49599498  0.90203742  1
  Zr  Zr76  1  0.89384576  0.90233028  0.08785438  1
  Zr  Zr77  1  0.30099767  0.50187845  0.69417032  1
  Zr  Zr78  1  0.10321286  0.29631105  0.90510307  1
  Zr  Zr79  1  0.29592283  0.49847314  0.11021599  1
  Zr  Zr80  1  0.59944908  -0.00623751  0.40114540  1
  Zr  Zr81  1  0.71450602  0.71552091  0.71343015  1
  Zr  Zr82  1  0.79524881  0.60387388  0.59838878  1
  Zr  Zr83  1  0.21298892  0.79331361  -0.00417578  1
  Zr  Zr84  1  0.49970834  0.10006176  0.49870607  1
  Zr  Zr85  1  0.20894725  -0.00196486  0.20022374  1
  Zr  Zr86  1  0.78753084  0.00065619  0.20734245  1
  Zr  Zr87  1  0.40133556  0.19355555  0.60092983  1
  Zr  Zr88  1  0.29094728  0.70381037  0.69470425  1
  Zr  Zr89  1  0.50807839  0.29508355  0.71230408  1
  Zr  Zr90  1  0.89622482  0.49960932  0.68778665  1
  Zr  Zr91  1  0.80219082  0.39375800  0.80048558  1
  Zr  Zr92  1  0.69214226  0.30088494  0.49246329  1
  Zr  Zr93  1  0.69775871  0.49721329  0.90011561  1
  Zr  Zr94  1  0.01410383  -0.00029415  0.19006857  1
  Zr  Zr95  1  0.10828665  0.30035236  0.50076705  1
  Zr  Zr96  1  0.20886304  0.40701222  -0.01014842  1
  Zr  Zr97  1  0.29490559  0.70199220  0.50521388  1
  Zr  Zr98  1  0.40041431  0.19491700  0.81054200  1
  Zr  Zr99  1  0.00352686  0.19228800  0.00477924  1
  Ta  Ta100  1  0.79975281  0.39820748  0.20244342  1
  Ta  Ta101  1  0.90363765  0.29810472  0.10221715  1
  Ta  Ta102  1  0.39427070  -0.00379857  0.39168623  1
  Ta  Ta103  1  0.80156314  -0.00050603  0.41529719  1
  Ta  Ta104  1  0.59608381  0.39658120  0.00118988  1
  Ta  Ta105  1  0.50282869  0.90937916  0.89555259  1
  Ta  Ta106  1  0.79555536  0.20585293  0.59752416  1
  Ta  Ta107  1  0.60708688  0.60317387  0.61019416  1
  Ta  Ta108  1  0.39668646  0.39761365  0.80905062  1
  Ta  Ta109  1  0.68834595  0.29293123  0.89727398  1
  Ta  Ta110  1  0.00006716  -0.00415268  0.80010666  1
  Ta  Ta111  1  0.81002464  0.39568583  0.40009197  1
  Ta  Ta112  1  0.80051785  0.60220416  0.40796171  1
  Ta  Ta113  1  0.10507749  0.90314145  0.89529227  1
  Ta  Ta114  1  0.10496296  0.90138851  0.70268635  1
  Ta  Ta115  1  0.09777208  0.50200068  0.09866622  1
  Ta  Ta116  1  0.60653596  0.80015209  0.40368164  1
  Ta  Ta117  1  0.41015415  0.39902707  0.60194567  1
  Ta  Ta118  1  0.19839930  0.39892851  0.39312998  1
  Ta  Ta119  1  0.30340934  0.10064862  0.30631824  1
  Ta  Ta120  1  0.28815202  0.69324399  0.30022874  1
  Ta  Ta121  1  0.20307226  0.20174541  0.39636566  1
  Ta  Ta122  1  -0.00162655  0.80866934  0.79504195  1
  Ta  Ta123  1  0.80724455  0.20438355  0.40767178  1
  Ta  Ta124  1  0.69434111  0.69270154  0.30657420  1
  Ta  Ta125  1  0.50952449  0.09031596  0.70573454  1
  Ta  Ta126  1  0.10351358  0.69150699  0.09875885  1
  Ta  Ta127  1  0.19500158  0.59427350  0.80049733  1
  Ta  Ta128  1  0.59710231  0.79872065  -0.00451532  1
  Ta  Ta129  1  0.50697619  0.49179542  0.70906122  1
  Ta  Ta130  1  -0.00652963  0.40481821  0.80978315  1
  Ta  Ta131  1  0.89447896  0.09445593  0.90159947  1
  Ta  Ta132  1  0.60333823  0.19689467  0.60276783  1
  Ta  Ta133  1  0.10798618  0.09193310  0.49687548  1
  Ta  Ta134  1  0.11402199  0.89713157  0.31572460  1
  Ta  Ta135  1  0.50024760  0.28961883  0.30737970  1
  Ta  Ta136  1  0.59315090  0.00236424  0.20442629  1
  Ta  Ta137  1  0.39529113  0.00692918  -0.01644887  1
  Ta  Ta138  1  0.59402672  0.59487180  0.20216515  1
  Ta  Ta139  1  0.70081949  0.10298138  0.50537241  1
  Ta  Ta140  1  0.00212137  0.60247624  0.19417319  1
  Ta  Ta141  1  0.10696352  0.89803382  0.08828527  1
  Ta  Ta142  1  0.90984923  0.69758997  0.51093026  1
  Ta  Ta143  1  0.10520500  0.89766731  0.50331323  1
  Ta  Ta144  1  0.49991787  0.90727763  0.70408899  1
  Ta  Ta145  1  0.91176383  0.70699696  0.69702675  1
  Ta  Ta146  1  0.20337193  0.00243069  -0.00112703  1
  Ta  Ta147  1  0.29626142  0.50085229  0.30050549  1
  Ta  Ta148  1  0.39959171  0.59973819  0.20559258  1
  Ta  Ta149  1  0.58871830  0.80141089  0.80223319  1
  Ti  Ti150  1  0.80074603  -0.00065975  0.59481235  1
  Ti  Ti151  1  0.49493573  0.10632417  0.30674539  1
  Ti  Ti152  1  0.69980898  0.29866677  0.70518367  1
  Ti  Ti153  1  0.80188429  0.20606683  0.80188734  1
  Ti  Ti154  1  0.59463096  0.40039579  0.20098592  1
  Ti  Ti155  1  -0.00080910  0.59074796  -0.00716626  1
  Ti  Ti156  1  0.50169772  0.90008099  0.29840677  1
  Ti  Ti157  1  0.29278324  0.10367430  0.90235015  1
  Ti  Ti158  1  0.69318018  0.30243000  0.30386183  1
  Ti  Ti159  1  0.19529541  0.80549767  0.60522645  1
  Ti  Ti160  1  0.30468773  0.29553616  0.30503402  1
  Ti  Ti161  1  0.89701321  0.89995086  0.90009302  1
  Ti  Ti162  1  0.39780854  0.19554087  0.20666320  1
  Ti  Ti163  1  0.30601111  0.10232718  0.09380533  1
  Ti  Ti164  1  0.40011388  -0.00301519  0.80117212  1
  Ti  Ti165  1  0.19080337  0.41346618  0.59689658  1
  Ti  Ti166  1  0.20236234  0.20482836  0.80319424  1
  Ti  Ti167  1  0.40365879  0.80247159  0.61212037  1
  Ti  Ti168  1  -0.00021841  0.59724973  0.41030649  1
  Ti  Ti169  1  0.49851144  0.29338570  0.49310044  1
  Ti  Ti170  1  0.59413139  0.19803667  0.20511057  1
  Ti  Ti171  1  0.09815055  0.70022822  0.51587516  1
  Ti  Ti172  1  0.19926680  -0.00409187  0.60450234  1
  Ti  Ti173  1  0.29754590  0.09462085  0.49230420  1
  Ti  Ti174  1  0.39717212  0.39755190  -0.00970896  1
  Ti  Ti175  1  0.40242183  0.40108617  0.39565009  1
  Ti  Ti176  1  0.40131965  0.00244754  0.20857629  1
  Ti  Ti177  1  0.90139507  0.50036165  0.09686168  1
  Ti  Ti178  1  0.20258741  0.80392576  0.79510670  1
  Ti  Ti179  1  0.89689346  0.70267486  0.89850051  1
  Ti  Ti180  1  0.61105423  -0.00080608  0.60321593  1
  Ti  Ti181  1  0.80404286  0.20638453  -0.00833639  1
  Ti  Ti182  1  0.20094681  0.39148373  0.20763217  1
  Ti  Ti183  1  0.69526265  0.10574411  0.70362363  1
  Ti  Ti184  1  0.10189947  0.09551047  0.70387522  1
  Ti  Ti185  1  0.09616232  0.70036980  0.69392969  1
  Ti  Ti186  1  0.58896290  0.39850347  0.39182706  1
  Ti  Ti187  1  0.49722484  0.49663027  0.09968036  1
  Ti  Ti188  1  0.00578577  -0.00097170  -0.00483393  1
  Ti  Ti189  1  0.69790981  0.89852907  0.30510959  1
  Ti  Ti190  1  0.51264673  0.09764545  0.89872363  1
  Ti  Ti191  1  0.50857347  0.69530722  0.30388379  1
  Ti  Ti192  1  0.50578029  0.29343520  0.90318845  1
  Ti  Ti193  1  0.69605068  0.49394247  0.09909116  1
  Ti  Ti194  1  -0.00440162  0.40347973  -0.00721827  1
  Ti  Ti195  1  0.89474633  0.30544483  0.69043667  1
  Ti  Ti196  1  0.29516289  0.90748977  0.88617281  1
  Ti  Ti197  1  0.40175517  0.80252466  0.79535581  1
  Ti  Ti198  1  0.69768105  0.90319165  0.70751716  1
  Ti  Ti199  1  0.39255351  -0.00311522  0.60613513  1
  Mo  Mo200  1  0.79780949  0.39338749  0.59680345  1
  Mo  Mo201  1  0.30609384  0.29480513  0.90203168  1
  Mo  Mo202  1  0.50052997  0.71068102  0.89875418  1
  Mo  Mo203  1  0.29514917  0.70137396  0.87838348  1
  Mo  Mo204  1  0.69390415  0.49264512  0.69773308  1
  Mo  Mo205  1  0.19818575  -0.00472184  0.80232844  1
  Mo  Mo206  1  0.09227132  0.50133818  0.90375172  1
  Mo  Mo207  1  0.80368340  0.80276668  -0.00298724  1
  Mo  Mo208  1  0.20286145  0.00260726  0.40529456  1
  Mo  Mo209  1  0.70103006  0.69913454  0.49949661  1
  Mo  Mo210  1  0.30456530  0.50151420  0.89477556  1
  Mo  Mo211  1  0.90680165  0.90056411  0.70142824  1
  Mo  Mo212  1  0.89090938  0.10262737  0.50241549  1
  Mo  Mo213  1  0.30223208  0.90060191  0.70045989  1
  Mo  Mo214  1  0.50056046  0.49403772  0.29563724  1
  Mo  Mo215  1  0.89064329  0.30415913  0.50182125  1
  Mo  Mo216  1  0.10677293  0.09279089  0.09323155  1
  Mo  Mo217  1  0.89743679  0.29624736  0.90559842  1
  Mo  Mo218  1  0.89834219  0.50572765  0.49269134  1
  Mo  Mo219  1  0.00934945  0.79982708  0.60398511  1
  Mo  Mo220  1  0.18230163  0.59308848  0.60543636  1
  Mo  Mo221  1  0.60013423  0.39291686  0.80377537  1
  Mo  Mo222  1  0.90340716  0.49928312  0.90893004  1
  Mo  Mo223  1  0.81883530  0.80671389  0.80031786  1
  Mo  Mo224  1  0.59646649  0.20277791  0.40460969  1
  Mo  Mo225  1  0.59056792  0.00086672  -0.00578258  1
  Mo  Mo226  1  0.09555885  0.50149431  0.69671645  1
  Mo  Mo227  1  0.20686979  0.18695372  0.00198180  1
  Mo  Mo228  1  0.69672004  0.70070677  0.10141273  1
  Mo  Mo229  1  0.69995407  0.91004620  0.50656869  1
  Mo  Mo230  1  0.80266238  0.59482779  0.00383682  1
  Mo  Mo231  1  0.09451682  0.69926588  0.29563131  1
  Mo  Mo232  1  0.29721765  0.69361873  0.11657575  1
  Mo  Mo233  1  0.39961344  0.19247143  -0.01058345  1
  Mo  Mo234  1  0.00277507  0.60368005  0.59838570  1
  Mo  Mo235  1  0.19738168  0.60221091  0.19775557  1
  Mo  Mo236  1  0.19532670  0.79648703  0.40193617  1
  Mo  Mo237  1  0.60424972  0.60423021  0.39810892  1
  Mo  Mo238  1  0.00261073  0.20719073  0.19945755  1
  Mo  Mo239  1  0.10746520  0.30083067  0.29911212  1
  Mo  Mo240  1  0.39641753  0.19638602  0.39731116  1
  Mo  Mo241  1  0.60460756  0.19535662  0.79680424  1
  Mo  Mo242  1  0.80109765  0.00390476  -0.01113941  1
  Mo  Mo243  1  0.50229712  0.71411589  0.69749572  1
  Mo  Mo244  1  0.60121728  -0.00197628  0.79321846  1
  Mo  Mo245  1  0.89637497  0.30336750  0.29742094  1
  Mo  Mo246  1  0.10080562  0.50325338  0.49842779  1
  Mo  Mo247  1  0.90448611  0.89899202  0.50460117  1
  Mo  Mo248  1  0.30010800  0.90211042  0.30191926  1
  Mo  Mo249  1  0.59359117  0.20213406  -0.00738963  1
