# generated using pymatgen
data_HfZrTaTiMo
_symmetry_space_group_name_H-M   'P 1'
_cell_length_a   16.88199054
_cell_length_b   16.88418255
_cell_length_c   16.89473409
_cell_angle_alpha   89.99883792
_cell_angle_beta   90.02438484
_cell_angle_gamma   89.99216149
_symmetry_Int_Tables_number   1
_chemical_formula_structural   HfZrTaTiMo
_chemical_formula_sum   'Hf50 Zr50 Ta50 Ti50 Mo50'
_cell_volume   4815.65104077
_cell_formula_units_Z   50
loop_
 _symmetry_equiv_pos_site_id
 _symmetry_equiv_pos_as_xyz
  1  'x, y, z'
loop_
 _atom_site_type_symbol
 _atom_site_label
 _atom_site_symmetry_multiplicity
 _atom_site_fract_x
 _atom_site_fract_y
 _atom_site_fract_z
 _atom_site_occupancy
  Hf  Hf0  1  0.39872803  0.40827354  0.79747771  1
  Hf  Hf1  1  0.59531997  0.41265132  0.80692486  1
  Hf  Hf2  1  0.89999739  0.09389517  0.29995199  1
  Hf  Hf3  1  0.59511471  0.19733308  0.60630746  1
  Hf  Hf4  1  0.80301642  0.79900750  -0.00547200  1
  Hf  Hf5  1  0.19658350  0.80641738  0.38396911  1
  Hf  Hf6  1  0.00980531  0.60094260  0.79399574  1
  Hf  Hf7  1  0.20827466  0.19350437  0.00760195  1
  Hf  Hf8  1  0.20773930  0.19250476  0.39886313  1
  Hf  Hf9  1  0.67862954  0.89529305  0.09168201  1
  Hf  Hf10  1  0.11259816  0.72808889  0.69272720  1
  Hf  Hf11  1  0.29821391  0.29953220  0.89476692  1
  Hf  Hf12  1  0.00389362  -0.00998657  0.19384613  1
  Hf  Hf13  1  0.79727765  0.20608254  0.00003454  1
  Hf  Hf14  1  0.00253090  0.40510015  0.60499511  1
  Hf  Hf15  1  -0.00183454  0.19884250  -0.00295019  1
  Hf  Hf16  1  0.60326914  0.60152987  0.40389704  1
  Hf  Hf17  1  0.00162460  0.40192204  0.80385011  1
  Hf  Hf18  1  0.09629851  0.69783412  0.10055499  1
  Hf  Hf19  1  0.59305084  0.79555817  0.60502309  1
  Hf  Hf20  1  0.88372382  0.09876670  0.88497830  1
  Hf  Hf21  1  0.20656130  0.39370861  0.00816956  1
  Hf  Hf22  1  0.70904620  0.10479611  0.72068080  1
  Hf  Hf23  1  0.30500797  0.09329159  0.70754993  1
  Hf  Hf24  1  0.00308686  0.39872898  0.19582296  1
  Hf  Hf25  1  0.60407885  -0.00875587  0.81091481  1
  Hf  Hf26  1  0.30261120  0.50436326  0.29987060  1
  Hf  Hf27  1  0.09597450  0.50210050  0.30218398  1
  Hf  Hf28  1  0.48841262  0.10008482  0.49263550  1
  Hf  Hf29  1  0.39990948  0.19222141  0.19518550  1
  Hf  Hf30  1  -0.00216957  0.20311543  0.79524542  1
  Hf  Hf31  1  0.69265830  0.30130658  0.48937843  1
  Hf  Hf32  1  0.89481510  0.50396842  0.70338383  1
  Hf  Hf33  1  0.49509709  0.90231287  0.50103294  1
  Hf  Hf34  1  0.40251615  0.39864977  0.59928832  1
  Hf  Hf35  1  0.20631375  -0.00961180  0.19753358  1
  Hf  Hf36  1  0.38679348  0.79770643  0.80665607  1
  Hf  Hf37  1  0.09858655  0.90325361  0.49580630  1
  Hf  Hf38  1  0.20606977  0.60658948  0.79747746  1
  Hf  Hf39  1  0.80908136  0.20145152  0.60039905  1
  Hf  Hf40  1  0.30418462  0.69570400  0.30102933  1
  Hf  Hf41  1  0.00098354  0.19652172  0.19317954  1
  Hf  Hf42  1  0.39563783  0.78865588  0.60827336  1
  Hf  Hf43  1  0.90285501  0.89232655  0.69615612  1
  Hf  Hf44  1  0.90215117  0.90215184  0.30950160  1
  Hf  Hf45  1  0.10010832  0.08644896  0.30730707  1
  Hf  Hf46  1  0.80081634  0.20435141  0.19323193  1
  Hf  Hf47  1  0.30715899  0.50367754  0.10354213  1
  Hf  Hf48  1  0.20497394  0.19388720  0.60091303  1
  Hf  Hf49  1  0.10780613  0.49376784  0.90640036  1
  Zr  Zr50  1  0.70542107  0.90107776  0.30598686  1
  Zr  Zr51  1  0.40450590  0.39784693  -0.00137107  1
  Zr  Zr52  1  0.70504972  0.69710245  0.29750452  1
  Zr  Zr53  1  0.80556902  0.41807135  0.40717955  1
  Zr  Zr54  1  0.10510262  0.09411054  0.90115412  1
  Zr  Zr55  1  0.90376889  0.30645549  0.30244094  1
  Zr  Zr56  1  -0.01421992  0.59880626  0.40871379  1
  Zr  Zr57  1  0.59052038  0.20227696  0.00640561  1
  Zr  Zr58  1  0.31258757  0.28859104  0.49713048  1
  Zr  Zr59  1  0.20885321  0.40789365  0.60872261  1
  Zr  Zr60  1  0.90754455  0.49556043  0.08977601  1
  Zr  Zr61  1  0.90154806  0.69045677  0.29137391  1
  Zr  Zr62  1  0.60394216  0.60679064  0.59868667  1
  Zr  Zr63  1  0.70197687  0.09605344  0.30411440  1
  Zr  Zr64  1  0.70117874  0.50303108  0.29599250  1
  Zr  Zr65  1  0.59078488  0.19540374  0.20370168  1
  Zr  Zr66  1  0.69982881  0.30041883  0.71639035  1
  Zr  Zr67  1  0.68770965  0.30632483  0.30261040  1
  Zr  Zr68  1  0.68984158  0.69773418  0.09908988  1
  Zr  Zr69  1  0.00079828  0.00043319  0.79301790  1
  Zr  Zr70  1  0.41061044  0.39615068  0.39523297  1
  Zr  Zr71  1  0.90802977  0.69857144  0.09815805  1
  Zr  Zr72  1  0.80324089  0.80596454  0.19462552  1
  Zr  Zr73  1  0.69054992  0.10245751  0.49469617  1
  Zr  Zr74  1  0.69467449  0.09091567  0.09746853  1
  Zr  Zr75  1  0.09786289  0.29887375  0.49914852  1
  Zr  Zr76  1  0.20285609  0.19635852  0.19387439  1
  Zr  Zr77  1  0.20045222  0.80439833  0.19807283  1
  Zr  Zr78  1  0.28516679  0.89426201  0.70003134  1
  Zr  Zr79  1  0.49708810  0.09292273  0.90047709  1
  Zr  Zr80  1  0.70136038  0.89890472  0.70129647  1
  Zr  Zr81  1  0.79638277  0.79986330  0.80264757  1
  Zr  Zr82  1  0.59829969  0.40384203  0.59737822  1
  Zr  Zr83  1  0.38285928  -0.00585434  0.00851394  1
  Zr  Zr84  1  0.10716902  0.50451207  0.49357710  1
  Zr  Zr85  1  0.80721840  0.00950208  0.60260904  1
  Zr  Zr86  1  0.00369874  0.60455076  0.60367965  1
  Zr  Zr87  1  0.78769236  -0.01080644  -0.01578952  1
  Zr  Zr88  1  0.20868609  0.39858259  0.39877263  1
  Zr  Zr89  1  0.68634401  0.70520786  0.90456779  1
  Zr  Zr90  1  0.39490410  0.19935794  0.00995029  1
  Zr  Zr91  1  0.00117466  0.59926592  -0.01350665  1
  Zr  Zr92  1  0.69004581  0.49748690  0.09350588  1
  Zr  Zr93  1  0.21117141  0.60341785  0.61013071  1
  Zr  Zr94  1  0.59556702  0.60466598  0.79663404  1
  Zr  Zr95  1  0.30719015  0.69504629  0.10227884  1
  Zr  Zr96  1  0.70172269  0.89962589  0.50119088  1
  Zr  Zr97  1  0.79752126  0.40709839  0.59845233  1
  Zr  Zr98  1  0.30188274  0.90577140  0.49188168  1
  Zr  Zr99  1  -0.00375954  0.01346649  0.59847999  1
  Ta  Ta100  1  0.20112576  0.19865605  0.79933753  1
  Ta  Ta101  1  0.40051187  0.19831532  0.80267112  1
  Ta  Ta102  1  0.20584709  0.80392944  -0.00594735  1
  Ta  Ta103  1  0.38900485  0.79965254  0.00083577  1
  Ta  Ta104  1  0.49922414  0.09778336  0.71026044  1
  Ta  Ta105  1  0.30328842  0.51036546  0.90364092  1
  Ta  Ta106  1  0.00287544  0.80591771  -0.01210393  1
  Ta  Ta107  1  0.49917435  0.29548519  0.70926396  1
  Ta  Ta108  1  0.80044437  0.59586874  -0.01630726  1
  Ta  Ta109  1  0.30882303  0.08814214  0.30769257  1
  Ta  Ta110  1  0.00055954  0.79449874  0.39975783  1
  Ta  Ta111  1  0.10703374  0.29919961  0.70372675  1
  Ta  Ta112  1  0.10148982  0.09572829  0.49368136  1
  Ta  Ta113  1  0.40820047  0.79769482  0.39538149  1
  Ta  Ta114  1  0.80791151  0.20095573  0.40514359  1
  Ta  Ta115  1  0.49823198  0.70059607  0.09787461  1
  Ta  Ta116  1  -0.00090676  0.19659280  0.40194534  1
  Ta  Ta117  1  0.31229831  0.51702937  0.49636293  1
  Ta  Ta118  1  0.20138269  0.00597146  0.59361069  1
  Ta  Ta119  1  0.50071801  0.50241540  0.10176422  1
  Ta  Ta120  1  0.59008153  -0.00609346  0.39572757  1
  Ta  Ta121  1  0.19197862  0.60070565  0.20511351  1
  Ta  Ta122  1  0.30921480  0.29672665  0.29251789  1
  Ta  Ta123  1  0.10749603  0.70617793  0.49610314  1
  Ta  Ta124  1  0.49642111  0.89520266  0.90988649  1
  Ta  Ta125  1  0.48873157  0.89079141  0.10762580  1
  Ta  Ta126  1  0.20341190  0.39635827  0.19837216  1
  Ta  Ta127  1  0.10333325  0.50191693  0.10034481  1
  Ta  Ta128  1  0.40377148  0.19681154  0.60640329  1
  Ta  Ta129  1  0.80659273  0.78555683  0.41157060  1
  Ta  Ta130  1  0.39293935  0.60883334  0.79324819  1
  Ta  Ta131  1  0.29899596  0.70032876  0.49384878  1
  Ta  Ta132  1  0.30386745  0.29533761  0.70438833  1
  Ta  Ta133  1  0.90815231  0.30547182  0.49780151  1
  Ta  Ta134  1  0.69107469  0.31292407  0.09750639  1
  Ta  Ta135  1  0.10036788  0.30074553  0.30241434  1
  Ta  Ta136  1  0.48934367  0.69949736  0.90734425  1
  Ta  Ta137  1  0.59750822  0.79460029  0.40401793  1
  Ta  Ta138  1  0.58721058  -0.00824190  0.20719424  1
  Ta  Ta139  1  0.79955456  0.40029637  0.19251262  1
  Ta  Ta140  1  0.80009310  0.60467952  0.58999537  1
  Ta  Ta141  1  0.89857266  0.09038185  0.09226376  1
  Ta  Ta142  1  0.79896465  0.60136358  0.80202866  1
  Ta  Ta143  1  0.49149606  0.51095498  0.69255625  1
  Ta  Ta144  1  0.90532210  0.70117634  0.89081584  1
  Ta  Ta145  1  0.69345274  0.30750309  0.90625301  1
  Ta  Ta146  1  0.50169942  0.31874222  0.11538191  1
  Ta  Ta147  1  0.50035177  0.50385292  0.49790974  1
  Ta  Ta148  1  0.59219851  0.00253532  0.60734520  1
  Ta  Ta149  1  -0.00256162  -0.00644528  -0.00469326  1
  Ti  Ti150  1  0.50779532  0.48648155  0.29386257  1
  Ti  Ti151  1  0.79990219  -0.00528481  0.19054685  1
  Ti  Ti152  1  0.90116717  0.90118241  0.89052559  1
  Ti  Ti153  1  0.20347689  -0.00858578  0.00404622  1
  Ti  Ti154  1  0.80386066  0.59242060  0.18436402  1
  Ti  Ti155  1  0.01159129  0.80209768  0.21008209  1
  Ti  Ti156  1  0.10241722  0.89925002  0.68993667  1
  Ti  Ti157  1  0.90307074  0.70594216  0.69800536  1
  Ti  Ti158  1  0.70158705  0.50551843  0.70183824  1
  Ti  Ti159  1  0.19916296  -0.00495526  0.80026165  1
  Ti  Ti160  1  0.79679981  0.41207340  0.81388387  1
  Ti  Ti161  1  0.49286196  0.51057273  0.90504549  1
  Ti  Ti162  1  0.20495125  0.60652393  -0.00145224  1
  Ti  Ti163  1  0.10583202  0.70854767  0.89865975  1
  Ti  Ti164  1  0.69479701  0.11100179  0.89680031  1
  Ti  Ti165  1  0.09828335  0.89407224  0.08969143  1
  Ti  Ti166  1  0.41209123  0.59836498  0.20286478  1
  Ti  Ti167  1  0.29936191  0.09178645  0.89405081  1
  Ti  Ti168  1  0.79668423  0.40795197  -0.00729251  1
  Ti  Ti169  1  0.81256168  0.00557874  0.41678414  1
  Ti  Ti170  1  0.39805871  0.00343014  0.60341901  1
  Ti  Ti171  1  0.89569020  0.30258477  0.70606325  1
  Ti  Ti172  1  0.00562160  0.80226527  0.80172112  1
  Ti  Ti173  1  0.80225048  0.78992920  0.59265576  1
  Ti  Ti174  1  0.49173313  0.09197843  0.30602306  1
  Ti  Ti175  1  -0.00214026  0.20028022  0.60317141  1
  Ti  Ti176  1  0.90787557  0.89263282  0.50252752  1
  Ti  Ti177  1  0.89653567  0.30920901  0.90272678  1
  Ti  Ti178  1  0.89978480  0.30701105  0.09041441  1
  Ti  Ti179  1  0.50535684  0.29761340  0.89760109  1
  Ti  Ti180  1  0.49841353  0.07941751  0.10138440  1
  Ti  Ti181  1  0.59458867  0.59544786  -0.00430298  1
  Ti  Ti182  1  0.10570705  0.89921453  0.89723358  1
  Ti  Ti183  1  0.41117338  0.60171481  0.39615707  1
  Ti  Ti184  1  0.49885641  0.70488010  0.29556890  1
  Ti  Ti185  1  0.59308183  0.59970885  0.20143559  1
  Ti  Ti186  1  0.48977552  0.90726904  0.70892607  1
  Ti  Ti187  1  0.90422677  0.89918151  0.09373349  1
  Ti  Ti188  1  0.50743171  0.28976058  0.48460645  1
  Ti  Ti189  1  0.10403547  0.10204124  0.69919466  1
  Ti  Ti190  1  0.20451173  0.40555301  0.79469727  1
  Ti  Ti191  1  0.10437179  0.30050750  0.90016882  1
  Ti  Ti192  1  0.09876550  0.09038423  0.09394567  1
  Ti  Ti193  1  0.70411490  0.70194050  0.69933899  1
  Ti  Ti194  1  0.49157997  0.69525402  0.50183319  1
  Ti  Ti195  1  0.59103446  0.80242651  0.20898622  1
  Ti  Ti196  1  0.32301996  0.90307675  0.29515595  1
  Ti  Ti197  1  0.58650383  0.79823373  0.79812415  1
  Ti  Ti198  1  0.90151956  0.50242689  0.29346426  1
  Ti  Ti199  1  0.09751403  0.30320367  0.09576083  1
  Mo  Mo200  1  0.29653017  0.69942928  0.90445294  1
  Mo  Mo201  1  0.90868957  0.11157465  0.49737245  1
  Mo  Mo202  1  0.68311837  0.89112977  0.90203870  1
  Mo  Mo203  1  0.69672598  0.50758795  0.49842011  1
  Mo  Mo204  1  0.00060626  0.80137363  0.59319395  1
  Mo  Mo205  1  0.40257202  0.19555368  0.39069833  1
  Mo  Mo206  1  0.30311875  0.09427300  0.50179531  1
  Mo  Mo207  1  0.20443471  0.60814276  0.39839673  1
  Mo  Mo208  1  0.08931137  0.89795014  0.30457629  1
  Mo  Mo209  1  0.40377758  0.60074844  -0.00287939  1
  Mo  Mo210  1  0.49854705  0.29506332  0.30194822  1
  Mo  Mo211  1  0.80065574  0.22114281  0.80973625  1
  Mo  Mo212  1  0.59479444  0.40563593  0.40009799  1
  Mo  Mo213  1  0.58777042  -0.00790915  0.00430642  1
  Mo  Mo214  1  0.30592222  0.30567684  0.10856445  1
  Mo  Mo215  1  0.89545948  0.50151963  0.89453519  1
  Mo  Mo216  1  0.79755755  0.60207338  0.41780391  1
  Mo  Mo217  1  0.70275136  0.70391379  0.50042466  1
  Mo  Mo218  1  0.29883417  0.89270067  0.10083932  1
  Mo  Mo219  1  0.40079577  0.40155862  0.20231724  1
  Mo  Mo220  1  0.59781315  0.40413612  0.20172061  1
  Mo  Mo221  1  0.09748740  0.69727795  0.30117354  1
  Mo  Mo222  1  0.00670522  0.59369209  0.20010374  1
  Mo  Mo223  1  0.59311046  0.40348219  -0.00327270  1
  Mo  Mo224  1  0.89988130  0.50238095  0.50800288  1
  Mo  Mo225  1  0.90354012  0.70534802  0.50861477  1
  Mo  Mo226  1  0.20122928  0.80475649  0.58201657  1
  Mo  Mo227  1  0.69994545  0.50167659  0.89982480  1
  Mo  Mo228  1  -0.00236463  0.39747334  0.39706906  1
  Mo  Mo229  1  0.19562940  0.80541149  0.81404477  1
  Mo  Mo230  1  0.20500565  -0.00121433  0.39653861  1
  Mo  Mo231  1  -0.00258214  -0.00238733  0.40345470  1
  Mo  Mo232  1  0.40134214  -0.00453118  0.80318050  1
  Mo  Mo233  1  0.59480864  0.20276024  0.80801698  1
  Mo  Mo234  1  0.50246644  0.89284179  0.30219662  1
  Mo  Mo235  1  0.29496597  0.08852991  0.10933782  1
  Mo  Mo236  1  0.40214763  0.60277133  0.59812206  1
  Mo  Mo237  1  0.10690678  0.48970307  0.70897905  1
  Mo  Mo238  1  0.79568842  -0.00688281  0.80124249  1
  Mo  Mo239  1  0.58096201  0.79731168  0.00130842  1
  Mo  Mo240  1  0.29899373  0.70259873  0.69822264  1
  Mo  Mo241  1  0.59220790  0.19432694  0.39532766  1
  Mo  Mo242  1  0.30722024  0.50005135  0.70448107  1
  Mo  Mo243  1  0.00719173  0.39172290  -0.00258644  1
  Mo  Mo244  1  0.40213407  -0.00483346  0.39510194  1
  Mo  Mo245  1  0.29256968  0.90278151  0.90035585  1
  Mo  Mo246  1  0.40468975  0.79619192  0.20205484  1
  Mo  Mo247  1  0.49539651  0.70163937  0.70834446  1
  Mo  Mo248  1  0.89914382  0.11532317  0.70178613  1
  Mo  Mo249  1  0.40270941  -0.00477812  0.20153338  1
