# generated using pymatgen
data_HfZrTaTiMo
_symmetry_space_group_name_H-M   'P 1'
_cell_length_a   16.88298899
_cell_length_b   16.88677026
_cell_length_c   16.89331131
_cell_angle_alpha   89.99412811
_cell_angle_beta   90.02258857
_cell_angle_gamma   89.95342672
_symmetry_Int_Tables_number   1
_chemical_formula_structural   HfZrTaTiMo
_chemical_formula_sum   'Hf50 Zr50 Ta50 Ti50 Mo50'
_cell_volume   4816.26681017
_cell_formula_units_Z   50
loop_
 _symmetry_equiv_pos_site_id
 _symmetry_equiv_pos_as_xyz
  1  'x, y, z'
loop_
 _atom_site_type_symbol
 _atom_site_label
 _atom_site_symmetry_multiplicity
 _atom_site_fract_x
 _atom_site_fract_y
 _atom_site_fract_z
 _atom_site_occupancy
  Hf  Hf0  1  0.29835138  0.70770928  0.10103750  1
  Hf  Hf1  1  0.40828720  0.39845687  0.38929006  1
  Hf  Hf2  1  0.90147026  0.89684038  0.09118694  1
  Hf  Hf3  1  0.59292428  0.40545118  0.20776454  1
  Hf  Hf4  1  0.60120596  -0.00111874  0.40222968  1
  Hf  Hf5  1  0.70747002  0.49703434  0.90565337  1
  Hf  Hf6  1  0.90208601  0.50847764  0.30664017  1
  Hf  Hf7  1  0.29935350  0.10834813  0.30932544  1
  Hf  Hf8  1  0.49787523  0.30234000  0.50391907  1
  Hf  Hf9  1  0.01134318  0.19518122  0.80348698  1
  Hf  Hf10  1  0.60588219  0.79916780  -0.00096524  1
  Hf  Hf11  1  0.50250585  0.70032311  0.10303742  1
  Hf  Hf12  1  0.80704647  0.80149864  0.59460805  1
  Hf  Hf13  1  0.38643296  -0.00131240  -0.00153287  1
  Hf  Hf14  1  0.09833170  0.88605739  0.50043237  1
  Hf  Hf15  1  0.49756695  0.29957688  0.91179447  1
  Hf  Hf16  1  0.00673659  0.59357013  0.80160884  1
  Hf  Hf17  1  0.29456376  0.89583334  0.30422169  1
  Hf  Hf18  1  0.30040889  0.49680351  0.09411913  1
  Hf  Hf19  1  -0.00263445  0.60965830  -0.00943269  1
  Hf  Hf20  1  0.40079678  0.59794982  0.39669149  1
  Hf  Hf21  1  -0.00653560  0.61126398  0.20368792  1
  Hf  Hf22  1  0.00546710  0.19003986  0.59998508  1
  Hf  Hf23  1  0.21202493  0.82012817  -0.01668195  1
  Hf  Hf24  1  0.39610993  0.20864155  0.20427222  1
  Hf  Hf25  1  0.90744863  0.31080907  0.70052190  1
  Hf  Hf26  1  0.50745905  0.70090431  0.49751953  1
  Hf  Hf27  1  0.81200166  0.60158905  0.80283451  1
  Hf  Hf28  1  0.60833429  0.79907516  0.60092714  1
  Hf  Hf29  1  0.70262148  0.29923578  0.29662039  1
  Hf  Hf30  1  0.70510098  0.90448624  0.89258533  1
  Hf  Hf31  1  0.10191295  0.30310713  0.69681708  1
  Hf  Hf32  1  -0.00311498  0.80770645  0.79595614  1
  Hf  Hf33  1  0.49938238  0.10317842  0.10002277  1
  Hf  Hf34  1  0.19906475  0.00629596  -0.00815461  1
  Hf  Hf35  1  0.79943550  0.19743350  0.59990528  1
  Hf  Hf36  1  0.09824796  0.90126455  0.09649752  1
  Hf  Hf37  1  0.40100420  0.20979825  0.79299582  1
  Hf  Hf38  1  0.41696053  0.00209807  0.77662620  1
  Hf  Hf39  1  0.80226598  -0.00173090  0.20124457  1
  Hf  Hf40  1  0.09138358  0.49237101  0.09239248  1
  Hf  Hf41  1  0.89169771  0.09146990  0.70903425  1
  Hf  Hf42  1  0.69998387  0.30664809  0.50209539  1
  Hf  Hf43  1  0.90017422  0.10302888  0.30400017  1
  Hf  Hf44  1  0.19697848  0.00767955  0.20196135  1
  Hf  Hf45  1  0.19267761  0.60175726  0.20331071  1
  Hf  Hf46  1  0.49763436  0.89471685  0.30085069  1
  Hf  Hf47  1  0.29863628  0.30605737  0.09001887  1
  Hf  Hf48  1  0.30006112  0.29363442  0.50089870  1
  Hf  Hf49  1  -0.00330390  0.79863620  0.21359415  1
  Zr  Zr50  1  0.39553302  0.79735585  0.60591342  1
  Zr  Zr51  1  0.79385584  0.20891838  0.80739021  1
  Zr  Zr52  1  0.39964989  0.59658843  0.60156400  1
  Zr  Zr53  1  0.10323308  0.71335067  0.09813458  1
  Zr  Zr54  1  0.70600734  0.50057002  0.70134556  1
  Zr  Zr55  1  0.29743398  0.90304675  0.50212582  1
  Zr  Zr56  1  0.10639703  0.71007832  0.88846080  1
  Zr  Zr57  1  0.19783555  0.60009140  0.59760384  1
  Zr  Zr58  1  0.38876449  0.19387070  -0.00198273  1
  Zr  Zr59  1  0.49804029  0.50026847  0.89516618  1
  Zr  Zr60  1  0.69525505  0.30273675  0.09713131  1
  Zr  Zr61  1  0.29865153  0.49095637  0.50038209  1
  Zr  Zr62  1  0.00319177  0.19750389  -0.00437119  1
  Zr  Zr63  1  0.69942553  0.30304774  0.69263495  1
  Zr  Zr64  1  0.59283185  0.20874433  0.39620949  1
  Zr  Zr65  1  0.79718239  0.20153631  -0.00094956  1
  Zr  Zr66  1  0.50133398  0.90202389  0.89477027  1
  Zr  Zr67  1  0.70961277  0.88201784  0.10157881  1
  Zr  Zr68  1  0.70427955  0.51493675  0.29354701  1
  Zr  Zr69  1  -0.00390990  -0.01210590  0.60319821  1
  Zr  Zr70  1  0.60895356  0.00001938  0.19900887  1
  Zr  Zr71  1  0.69442925  0.87493457  0.29898740  1
  Zr  Zr72  1  0.18642916  0.01014266  0.40511105  1
  Zr  Zr73  1  0.49595547  0.10245742  0.29659053  1
  Zr  Zr74  1  0.29571918  0.10188080  0.69210001  1
  Zr  Zr75  1  0.40162866  0.40238504  0.20791671  1
  Zr  Zr76  1  0.90644883  0.48276266  0.90669034  1
  Zr  Zr77  1  0.79105875  -0.01324006  0.60284370  1
  Zr  Zr78  1  0.19853764  0.19785930  -0.01247808  1
  Zr  Zr79  1  0.90399512  0.70172153  0.69852210  1
  Zr  Zr80  1  0.50201861  0.70207845  0.88977316  1
  Zr  Zr81  1  0.60676335  0.60394556  -0.00462344  1
  Zr  Zr82  1  0.49311252  0.89810220  0.10751932  1
  Zr  Zr83  1  0.52085118  0.69996227  0.29905560  1
  Zr  Zr84  1  0.89296293  0.50395319  0.09678113  1
  Zr  Zr85  1  0.89773250  0.09483071  0.49549925  1
  Zr  Zr86  1  0.40067629  0.59580743  0.20746676  1
  Zr  Zr87  1  0.30744835  0.70153969  0.88869934  1
  Zr  Zr88  1  0.81199056  0.19990842  0.19344354  1
  Zr  Zr89  1  0.00543603  0.20818150  0.40062138  1
  Zr  Zr90  1  0.01496110  -0.00366088  0.80296275  1
  Zr  Zr91  1  0.59779641  0.39269549  0.79861805  1
  Zr  Zr92  1  0.89681624  0.08730852  0.90342843  1
  Zr  Zr93  1  0.80025705  -0.01336104  0.39892715  1
  Zr  Zr94  1  0.58880774  -0.00797235  0.61527676  1
  Zr  Zr95  1  0.48981307  0.09975437  0.50559083  1
  Zr  Zr96  1  0.50573699  0.69212396  0.71056924  1
  Zr  Zr97  1  0.19386972  0.39369400  0.20885538  1
  Zr  Zr98  1  0.19919070  0.59667375  -0.01137456  1
  Zr  Zr99  1  0.00053545  -0.00381009  0.21335322  1
  Ta  Ta100  1  0.39430841  0.79416585  0.20910804  1
  Ta  Ta101  1  0.79213702  0.00370720  0.00518047  1
  Ta  Ta102  1  0.10125942  0.69981616  0.69587206  1
  Ta  Ta103  1  -0.00047034  0.39599129  0.20735957  1
  Ta  Ta104  1  0.18753872  0.00611159  0.60117868  1
  Ta  Ta105  1  0.09772653  0.30160713  0.09739239  1
  Ta  Ta106  1  -0.00760608  0.79780010  0.40335566  1
  Ta  Ta107  1  0.70551325  0.69974265  0.70285848  1
  Ta  Ta108  1  0.40018522  0.59785628  -0.00228319  1
  Ta  Ta109  1  0.40057931  0.20428431  0.60866271  1
  Ta  Ta110  1  0.39757799  -0.00087243  0.40109771  1
  Ta  Ta111  1  0.29789575  0.49032781  0.70181965  1
  Ta  Ta112  1  0.80275877  0.40517812  0.40113123  1
  Ta  Ta113  1  0.70607903  0.50491110  0.10076124  1
  Ta  Ta114  1  -0.00122189  0.59445016  0.59755685  1
  Ta  Ta115  1  0.60976114  0.59848131  0.59893529  1
  Ta  Ta116  1  0.70569769  0.70954521  0.88438836  1
  Ta  Ta117  1  0.90231211  0.30993330  0.50196611  1
  Ta  Ta118  1  0.10212066  0.69720943  0.31984039  1
  Ta  Ta119  1  0.89126110  0.90013389  0.90080440  1
  Ta  Ta120  1  0.50336614  0.30001586  0.09833930  1
  Ta  Ta121  1  0.19977600  0.58578785  0.79635507  1
  Ta  Ta122  1  0.09365028  0.50452590  0.31067898  1
  Ta  Ta123  1  0.70324360  0.49989578  0.49940089  1
  Ta  Ta124  1  0.00430557  0.20785501  0.19830332  1
  Ta  Ta125  1  0.39747424  0.79427440  0.40007080  1
  Ta  Ta126  1  0.49431029  0.89588724  0.49797230  1
  Ta  Ta127  1  0.59832670  0.40927007  0.39715329  1
  Ta  Ta128  1  0.50344550  0.49938574  0.09474618  1
  Ta  Ta129  1  0.50612704  0.09977569  0.89714345  1
  Ta  Ta130  1  0.09779755  0.49132973  0.69748178  1
  Ta  Ta131  1  0.29810193  0.89899660  0.11585370  1
  Ta  Ta132  1  0.70738137  0.69585771  0.11429407  1
  Ta  Ta133  1  0.69386753  0.09345457  0.71108439  1
  Ta  Ta134  1  0.09608665  0.10180905  0.09861403  1
  Ta  Ta135  1  0.18712571  0.39476436  0.40144484  1
  Ta  Ta136  1  0.19908713  0.79415942  0.60182087  1
  Ta  Ta137  1  0.60356293  0.00241929  0.00127556  1
  Ta  Ta138  1  0.30703983  0.48786654  0.89821270  1
  Ta  Ta139  1  0.20339360  0.39462789  0.80135000  1
  Ta  Ta140  1  0.80512096  0.59985354  0.59224676  1
  Ta  Ta141  1  0.90653245  0.31366064  0.09313749  1
  Ta  Ta142  1  0.70103932  0.11054756  0.30063422  1
  Ta  Ta143  1  0.28435654  0.50257468  0.31036438  1
  Ta  Ta144  1  0.09286315  0.49880631  0.49768077  1
  Ta  Ta145  1  0.80460504  0.60670386  0.40908056  1
  Ta  Ta146  1  0.80599800  0.40303521  0.20094727  1
  Ta  Ta147  1  0.30252810  0.09583220  0.88075681  1
  Ta  Ta148  1  0.69483387  0.10259870  0.50171897  1
  Ta  Ta149  1  0.69000080  0.10000622  0.89878744  1
  Ti  Ti150  1  0.09610463  0.11099237  0.29968838  1
  Ti  Ti151  1  0.50252987  0.50177076  0.70307637  1
  Ti  Ti152  1  0.79838123  0.39259206  0.80796123  1
  Ti  Ti153  1  0.40332977  0.39358482  0.61416586  1
  Ti  Ti154  1  0.39310857  0.81286765  0.79283803  1
  Ti  Ti155  1  0.29777512  0.90847334  0.69059120  1
  Ti  Ti156  1  0.80191369  0.61563364  -0.00569661  1
  Ti  Ti157  1  0.29319385  0.69602248  0.70566332  1
  Ti  Ti158  1  0.90949346  0.49106585  0.69848523  1
  Ti  Ti159  1  0.18688227  0.20384962  0.40827215  1
  Ti  Ti160  1  0.10345145  0.89217879  0.69357019  1
  Ti  Ti161  1  0.19219671  0.19424017  0.59528299  1
  Ti  Ti162  1  0.91252067  0.09152577  0.09621832  1
  Ti  Ti163  1  0.91175627  0.69660673  0.50146395  1
  Ti  Ti164  1  0.60937527  0.59847725  0.40815591  1
  Ti  Ti165  1  0.70164317  0.69713227  0.29946069  1
  Ti  Ti166  1  0.80595615  0.79090277  0.40662695  1
  Ti  Ti167  1  0.89971875  0.30402334  0.30216758  1
  Ti  Ti168  1  0.81771315  0.78710686  0.21641802  1
  Ti  Ti169  1  0.59412691  0.20245057  0.79792840  1
  Ti  Ti170  1  0.81075912  0.41133321  0.59121386  1
  Ti  Ti171  1  0.20469073  0.81358531  0.79358269  1
  Ti  Ti172  1  0.60367542  0.81442867  0.78597392  1
  Ti  Ti173  1  0.69369935  0.89066696  0.49311359  1
  Ti  Ti174  1  0.39161115  0.58915246  0.79593981  1
  Ti  Ti175  1  0.20147790  0.20468557  0.80110462  1
  Ti  Ti176  1  0.79984695  0.20548992  0.40526254  1
  Ti  Ti177  1  0.09425236  0.30826895  0.50666690  1
  Ti  Ti178  1  -0.00163410  0.40065166  0.40111339  1
  Ti  Ti179  1  0.28805688  0.69952459  0.48914501  1
  Ti  Ti180  1  -0.00148725  -0.01073628  0.40026009  1
  Ti  Ti181  1  0.59500394  0.40698440  0.60022037  1
  Ti  Ti182  1  0.59483041  0.19753424  0.60853637  1
  Ti  Ti183  1  0.09441135  0.31256535  0.89797393  1
  Ti  Ti184  1  0.39480986  0.38945509  0.79295455  1
  Ti  Ti185  1  0.90475631  0.30827708  0.90543972  1
  Ti  Ti186  1  0.20127936  0.39730857  0.60089424  1
  Ti  Ti187  1  0.39520602  0.80697306  -0.00349448  1
  Ti  Ti188  1  0.19854490  0.39877515  -0.01359259  1
  Ti  Ti189  1  0.10949454  0.88454934  0.30659319  1
  Ti  Ti190  1  0.69022040  0.11064704  0.10168645  1
  Ti  Ti191  1  0.19566026  0.20206969  0.19716253  1
  Ti  Ti192  1  0.19681284  -0.00343542  0.79873381  1
  Ti  Ti193  1  0.29193693  0.29558257  0.31149811  1
  Ti  Ti194  1  0.50481295  0.50088917  0.50150716  1
  Ti  Ti195  1  0.30104410  0.10338483  0.50080828  1
  Ti  Ti196  1  0.89246148  0.71029323  0.09043680  1
  Ti  Ti197  1  -0.00093791  0.80550386  -0.01508628  1
  Ti  Ti198  1  0.60296036  0.40054222  0.00049728  1
  Ti  Ti199  1  0.28533864  0.70194792  0.30691390  1
  Mo  Mo200  1  0.29328082  0.30267548  0.69350563  1
  Mo  Mo201  1  0.10713300  0.49173711  0.89386330  1
  Mo  Mo202  1  0.61437498  0.59939307  0.79327138  1
  Mo  Mo203  1  0.59662415  0.19497517  -0.00176717  1
  Mo  Mo204  1  0.50981433  0.50630707  0.30529501  1
  Mo  Mo205  1  0.50049776  0.30396803  0.69408791  1
  Mo  Mo206  1  0.79381362  -0.00102107  0.80261401  1
  Mo  Mo207  1  0.38711063  0.00087374  0.20258259  1
  Mo  Mo208  1  0.00427070  0.79250495  0.60003307  1
  Mo  Mo209  1  0.90037122  0.50025329  0.49930022  1
  Mo  Mo210  1  0.50250185  0.30201039  0.29915570  1
  Mo  Mo211  1  0.60045238  0.79822856  0.40768711  1
  Mo  Mo212  1  0.50632634  0.11367053  0.70128622  1
  Mo  Mo213  1  0.10953979  0.10240111  0.69956507  1
  Mo  Mo214  1  0.09381450  0.69610425  0.50553115  1
  Mo  Mo215  1  0.69220874  0.29789947  0.90318888  1
  Mo  Mo216  1  0.89616251  0.71066462  0.90091152  1
  Mo  Mo217  1  0.00692002  0.39654237  0.00085491  1
  Mo  Mo218  1  0.70429688  0.69416895  0.50112995  1
  Mo  Mo219  1  0.89958818  0.69842914  0.31425748  1
  Mo  Mo220  1  0.90385093  0.88959477  0.49821103  1
  Mo  Mo221  1  0.39569014  0.00238249  0.59368535  1
  Mo  Mo222  1  0.79519786  0.39375498  0.00409971  1
  Mo  Mo223  1  0.89507983  0.89799883  0.70560383  1
  Mo  Mo224  1  0.19564145  0.59514370  0.40336352  1
  Mo  Mo225  1  0.00214352  0.40425001  0.59701043  1
  Mo  Mo226  1  0.39220743  0.20282717  0.40507233  1
  Mo  Mo227  1  0.19784359  0.79871820  0.21019028  1
  Mo  Mo228  1  0.59682822  0.79152053  0.19724608  1
  Mo  Mo229  1  0.09749463  0.09816818  0.50039805  1
  Mo  Mo230  1  0.49867473  0.88919682  0.69491267  1
  Mo  Mo231  1  0.60028014  0.00426821  0.80158069  1
  Mo  Mo232  1  0.80217279  0.80651942  0.79264215  1
  Mo  Mo233  1  0.10178084  0.90303443  0.89602488  1
  Mo  Mo234  1  0.59528414  0.20526193  0.19761285  1
  Mo  Mo235  1  0.80190391  0.79476458  -0.00899766  1
  Mo  Mo236  1  0.19877701  0.79056748  0.40620013  1
  Mo  Mo237  1  0.29927674  0.30334545  0.89300126  1
  Mo  Mo238  1  0.29509321  0.09686229  0.11423784  1
  Mo  Mo239  1  0.40362321  0.40273878  0.00175470  1
  Mo  Mo240  1  0.00147266  -0.00214496  -0.00130953  1
  Mo  Mo241  1  0.60631203  0.59632618  0.19246627  1
  Mo  Mo242  1  0.70284896  0.89769354  0.70593370  1
  Mo  Mo243  1  0.00018187  0.60360802  0.40950880  1
  Mo  Mo244  1  0.09894995  0.30158044  0.29891433  1
  Mo  Mo245  1  0.89693012  0.89354479  0.30775212  1
  Mo  Mo246  1  0.11093281  0.09918604  0.89597060  1
  Mo  Mo247  1  0.80468623  0.60829659  0.20026029  1
  Mo  Mo248  1  0.30296736  0.90968460  0.87742525  1
  Mo  Mo249  1  0.00758623  0.39778028  0.80049492  1
