# generated using pymatgen
data_HfZrTaTiMo
_symmetry_space_group_name_H-M   'P 1'
_cell_length_a   16.88324744
_cell_length_b   16.88286307
_cell_length_c   16.87705891
_cell_angle_alpha   90.07235243
_cell_angle_beta   90.01789449
_cell_angle_gamma   89.96691588
_symmetry_Int_Tables_number   1
_chemical_formula_structural   HfZrTaTiMo
_chemical_formula_sum   'Hf50 Zr50 Ta50 Ti50 Mo50'
_cell_volume   4810.59073128
_cell_formula_units_Z   50
loop_
 _symmetry_equiv_pos_site_id
 _symmetry_equiv_pos_as_xyz
  1  'x, y, z'
loop_
 _atom_site_type_symbol
 _atom_site_label
 _atom_site_symmetry_multiplicity
 _atom_site_fract_x
 _atom_site_fract_y
 _atom_site_fract_z
 _atom_site_occupancy
  Hf  Hf0  1  0.90475056  0.89502207  0.30344672  1
  Hf  Hf1  1  0.49391096  0.10832725  0.90597384  1
  Hf  Hf2  1  0.90482454  0.49706409  0.90396597  1
  Hf  Hf3  1  0.80809343  0.59655785  0.00784058  1
  Hf  Hf4  1  0.09833030  0.69731453  0.29066757  1
  Hf  Hf5  1  0.50508703  0.10789632  0.30500693  1
  Hf  Hf6  1  0.09242713  0.70478757  0.49511566  1
  Hf  Hf7  1  0.70085387  0.70021431  0.49277733  1
  Hf  Hf8  1  0.69745880  0.10727089  0.09887960  1
  Hf  Hf9  1  0.00677023  0.79812929  0.80118105  1
  Hf  Hf10  1  0.59108877  0.79956907  0.80931478  1
  Hf  Hf11  1  0.30024510  0.29731898  0.29315042  1
  Hf  Hf12  1  0.69732643  0.70731823  0.10234897  1
  Hf  Hf13  1  0.09636924  0.89893280  0.09896916  1
  Hf  Hf14  1  0.69920353  0.90169765  0.90631247  1
  Hf  Hf15  1  0.81192683  0.00391106  0.01280673  1
  Hf  Hf16  1  0.70297895  0.70760574  0.90525493  1
  Hf  Hf17  1  0.00279272  0.40300334  0.60027894  1
  Hf  Hf18  1  0.80564414  -0.00365487  0.59654085  1
  Hf  Hf19  1  0.49673015  0.70309118  0.70191164  1
  Hf  Hf20  1  0.59781869  0.59899575  0.80526681  1
  Hf  Hf21  1  0.20512197  -0.00674830  0.20642674  1
  Hf  Hf22  1  0.19786960  0.59412140  0.39275576  1
  Hf  Hf23  1  0.39212344  0.20811548  0.79429952  1
  Hf  Hf24  1  0.10643722  0.29777979  0.10107815  1
  Hf  Hf25  1  0.89178510  0.69413600  0.49700485  1
  Hf  Hf26  1  0.39209176  0.20145559  0.40974251  1
  Hf  Hf27  1  0.10648205  0.29565954  0.90448994  1
  Hf  Hf28  1  0.30258745  0.29355163  0.09258902  1
  Hf  Hf29  1  0.40029202  0.80052939  0.39800355  1
  Hf  Hf30  1  0.39623382  0.39401093  0.40750939  1
  Hf  Hf31  1  0.60167493  0.40069260  0.40656910  1
  Hf  Hf32  1  0.50758058  0.10121454  0.49849631  1
  Hf  Hf33  1  0.49722038  0.09706823  0.69927236  1
  Hf  Hf34  1  0.01152999  -0.00729148  0.40291807  1
  Hf  Hf35  1  0.20127439  0.40516053  0.79819248  1
  Hf  Hf36  1  0.60566298  0.40436237  0.59376213  1
  Hf  Hf37  1  0.21085908  0.00204252  0.00320945  1
  Hf  Hf38  1  0.10500089  0.28670393  0.69931473  1
  Hf  Hf39  1  0.69399917  0.10025546  0.69784454  1
  Hf  Hf40  1  -0.00085958  0.39715318  0.39687912  1
  Hf  Hf41  1  0.50070956  0.29739812  0.29754572  1
  Hf  Hf42  1  -0.00397516  0.58696788  0.39688585  1
  Hf  Hf43  1  0.00953468  0.59821487  0.79685005  1
  Hf  Hf44  1  0.59193801  0.00378392  0.00572176  1
  Hf  Hf45  1  0.89757722  0.30561006  0.89877245  1
  Hf  Hf46  1  0.10609736  0.90986944  0.90133474  1
  Hf  Hf47  1  0.71016204  0.31191715  0.70602363  1
  Hf  Hf48  1  0.40336047  0.60948279  0.59711931  1
  Hf  Hf49  1  0.89480667  0.69996425  0.30235461  1
  Zr  Zr50  1  0.89016247  0.49743437  0.70084751  1
  Zr  Zr51  1  0.30276277  0.50558744  0.49413928  1
  Zr  Zr52  1  0.49007669  0.50766027  0.30392125  1
  Zr  Zr53  1  0.30776405  0.51006267  0.70767835  1
  Zr  Zr54  1  0.69744939  0.89829592  0.70274396  1
  Zr  Zr55  1  0.21053224  0.18128055  0.20191848  1
  Zr  Zr56  1  0.70483903  0.89847412  0.30344720  1
  Zr  Zr57  1  0.29553432  0.70707744  0.49918255  1
  Zr  Zr58  1  0.19099303  0.59416978  0.60745159  1
  Zr  Zr59  1  0.90930025  0.90266203  0.90123765  1
  Zr  Zr60  1  0.59907981  0.39927516  0.19222021  1
  Zr  Zr61  1  0.59791929  0.40346916  0.00395750  1
  Zr  Zr62  1  0.70426861  0.69911373  0.30219143  1
  Zr  Zr63  1  -0.00546435  0.39992150  0.20259984  1
  Zr  Zr64  1  0.59174691  -0.00418047  0.20364838  1
  Zr  Zr65  1  0.39721128  0.00821157  0.19485275  1
  Zr  Zr66  1  0.58999468  0.80044561  0.59515188  1
  Zr  Zr67  1  0.20695870  0.39060609  0.59951326  1
  Zr  Zr68  1  0.70075738  0.10630350  0.90609352  1
  Zr  Zr69  1  0.81298599  0.80620625  0.00586315  1
  Zr  Zr70  1  0.90781469  0.69563254  0.10539384  1
  Zr  Zr71  1  0.58898768  0.60120327  0.18899232  1
  Zr  Zr72  1  0.09407410  0.09433370  0.09464182  1
  Zr  Zr73  1  0.59091451  0.60024446  -0.00521569  1
  Zr  Zr74  1  0.10192216  0.70665578  0.69559239  1
  Zr  Zr75  1  0.00256585  0.00165148  0.59208805  1
  Zr  Zr76  1  0.19539308  0.18894224  0.39980575  1
  Zr  Zr77  1  0.79939258  0.60379691  0.80090109  1
  Zr  Zr78  1  0.90436254  0.10508137  0.90364727  1
  Zr  Zr79  1  0.29631235  0.10270648  0.89638852  1
  Zr  Zr80  1  0.49630597  0.88897240  0.09133184  1
  Zr  Zr81  1  0.89822900  0.09472857  0.30636030  1
  Zr  Zr82  1  0.69710651  0.10214058  0.30882925  1
  Zr  Zr83  1  0.69252481  0.09668034  0.49005212  1
  Zr  Zr84  1  0.30473113  0.50367997  0.91285253  1
  Zr  Zr85  1  0.70367169  0.50700228  0.30112158  1
  Zr  Zr86  1  0.90475473  0.29809560  0.69999717  1
  Zr  Zr87  1  0.39147811  0.80739584  0.80800958  1
  Zr  Zr88  1  0.20696201  0.79278061  -0.00576255  1
  Zr  Zr89  1  0.79863681  0.20043480  0.59619832  1
  Zr  Zr90  1  0.00787339  0.00848599  0.79394886  1
  Zr  Zr91  1  0.80279827  0.19998287  0.19663254  1
  Zr  Zr92  1  0.39186378  -0.00169082  0.39434128  1
  Zr  Zr93  1  0.50317375  0.30200408  0.69877660  1
  Zr  Zr94  1  0.19460250  0.81053860  0.38479517  1
  Zr  Zr95  1  0.59669424  0.40840595  0.81017161  1
  Zr  Zr96  1  0.39119368  -0.00137620  0.60043088  1
  Zr  Zr97  1  0.40071837  0.39269954  0.59825544  1
  Zr  Zr98  1  -0.00310119  0.19930581  0.20499155  1
  Zr  Zr99  1  0.60173529  0.20849110  0.80733217  1
  Ta  Ta100  1  0.19725354  0.39401121  0.39979774  1
  Ta  Ta101  1  0.80466507  0.40225371  0.40370443  1
  Ta  Ta102  1  0.89706732  0.29915177  0.09166318  1
  Ta  Ta103  1  0.80141399  0.19897253  0.80119181  1
  Ta  Ta104  1  0.69942207  0.89611013  0.49204014  1
  Ta  Ta105  1  0.90292181  0.10458085  0.69799647  1
  Ta  Ta106  1  0.10677415  0.90350757  0.69884013  1
  Ta  Ta107  1  -0.00226436  0.20071387  0.00192114  1
  Ta  Ta108  1  0.89721169  0.70323462  0.69494078  1
  Ta  Ta109  1  -0.00321115  0.80396665  0.59860495  1
  Ta  Ta110  1  0.40044799  0.40076046  0.80628620  1
  Ta  Ta111  1  0.50004504  0.50405547  0.70017827  1
  Ta  Ta112  1  0.48727744  0.30228887  0.91496256  1
  Ta  Ta113  1  0.30253655  0.68991463  0.29116570  1
  Ta  Ta114  1  0.69643655  0.89597255  0.10205084  1
  Ta  Ta115  1  0.29914549  0.70488092  0.70621678  1
  Ta  Ta116  1  0.80159426  0.80234082  0.59905868  1
  Ta  Ta117  1  0.70261165  0.29694281  0.30429195  1
  Ta  Ta118  1  0.70754834  0.51505414  0.49692003  1
  Ta  Ta119  1  0.30541235  0.89123463  0.09579886  1
  Ta  Ta120  1  0.09860648  0.49410801  0.49916344  1
  Ta  Ta121  1  0.71198246  0.49257055  0.90194931  1
  Ta  Ta122  1  0.00066691  0.58776432  0.19353792  1
  Ta  Ta123  1  0.50548120  0.51131360  0.49800829  1
  Ta  Ta124  1  0.39971313  0.79039506  0.19627292  1
  Ta  Ta125  1  0.91178330  0.69644417  0.90178428  1
  Ta  Ta126  1  0.28860919  0.09893824  0.70330577  1
  Ta  Ta127  1  0.47772853  0.49796292  0.09243032  1
  Ta  Ta128  1  0.20557662  0.80701192  0.80397636  1
  Ta  Ta129  1  0.90228604  0.89859609  0.69961795  1
  Ta  Ta130  1  0.19590720  0.60860617  0.80887242  1
  Ta  Ta131  1  0.29470181  0.29796327  0.90552180  1
  Ta  Ta132  1  0.19995386  0.40918567  0.00913420  1
  Ta  Ta133  1  0.38603599  0.20542956  0.59669944  1
  Ta  Ta134  1  0.29138387  0.90204155  0.50245206  1
  Ta  Ta135  1  0.01208838  0.40550340  0.80153934  1
  Ta  Ta136  1  0.49166864  0.90778577  0.70577686  1
  Ta  Ta137  1  0.10163901  0.68907107  0.09535330  1
  Ta  Ta138  1  0.39368490  0.40168792  0.19388157  1
  Ta  Ta139  1  0.58856141  0.79752945  0.20103410  1
  Ta  Ta140  1  0.10304785  0.50800808  0.91157637  1
  Ta  Ta141  1  0.70475289  0.69999480  0.69402611  1
  Ta  Ta142  1  0.49352272  0.69418459  0.29986618  1
  Ta  Ta143  1  0.09722193  0.28853611  0.50380746  1
  Ta  Ta144  1  0.00549739  0.80167537  0.20043730  1
  Ta  Ta145  1  0.80105201  0.40544608  0.58658828  1
  Ta  Ta146  1  0.80327135  0.00327310  0.79522929  1
  Ta  Ta147  1  0.90366216  0.29515566  0.49632665  1
  Ta  Ta148  1  0.00545054  0.40538223  0.00750872  1
  Ta  Ta149  1  -0.00508129  0.59383767  0.59854592  1
  Ti  Ti150  1  0.80291903  0.40199655  0.00842458  1
  Ti  Ti151  1  0.40941818  0.60306083  0.81215664  1
  Ti  Ti152  1  0.59000265  0.80482738  0.39151220  1
  Ti  Ti153  1  0.39440433  0.80789892  0.60226422  1
  Ti  Ti154  1  0.70656054  0.29613090  0.49005984  1
  Ti  Ti155  1  0.39662928  0.00597230  0.00412120  1
  Ti  Ti156  1  0.30314577  0.50230448  0.29434756  1
  Ti  Ti157  1  0.70328241  0.29599322  0.09394613  1
  Ti  Ti158  1  0.80586866  -0.00326413  0.40927146  1
  Ti  Ti159  1  0.70413965  0.50350309  0.69815192  1
  Ti  Ti160  1  0.88975744  0.29476447  0.30947224  1
  Ti  Ti161  1  0.80193673  0.39716244  0.19839469  1
  Ti  Ti162  1  0.59724780  0.20446882  0.19300097  1
  Ti  Ti163  1  0.28697308  0.09732667  0.50633415  1
  Ti  Ti164  1  0.20308014  0.40729210  0.19650402  1
  Ti  Ti165  1  0.70784566  0.30060763  0.91041937  1
  Ti  Ti166  1  0.30497691  0.89195296  0.29121162  1
  Ti  Ti167  1  0.40126826  0.60732466  0.00360890  1
  Ti  Ti168  1  0.59756603  0.21249464  0.59098771  1
  Ti  Ti169  1  0.59541684  -0.00100961  0.80473004  1
  Ti  Ti170  1  0.00622660  0.19652023  0.40092129  1
  Ti  Ti171  1  0.00505157  0.79494356  0.00117965  1
  Ti  Ti172  1  0.00321112  0.19871882  0.80093411  1
  Ti  Ti173  1  0.30024873  0.69069226  0.10249455  1
  Ti  Ti174  1  0.09309043  0.08777598  0.29559048  1
  Ti  Ti175  1  0.10827654  0.10558488  0.89873623  1
  Ti  Ti176  1  0.19967603  -0.00080811  0.39410574  1
  Ti  Ti177  1  0.19999538  0.58755166  0.18840579  1
  Ti  Ti178  1  0.20504423  0.80803730  0.60701390  1
  Ti  Ti179  1  0.10452078  0.49363169  0.29491593  1
  Ti  Ti180  1  0.59800443  -0.00856825  0.59735640  1
  Ti  Ti181  1  0.80581438  0.80193339  0.79801344  1
  Ti  Ti182  1  0.49841237  0.90265069  0.49674282  1
  Ti  Ti183  1  0.89999311  0.88492086  0.49280133  1
  Ti  Ti184  1  0.10710611  0.10511504  0.69293846  1
  Ti  Ti185  1  0.80612361  0.80846048  0.19413607  1
  Ti  Ti186  1  0.88676583  0.50484206  0.29453796  1
  Ti  Ti187  1  0.19655942  -0.00106624  0.59941958  1
  Ti  Ti188  1  0.10472170  0.89434486  0.50156894  1
  Ti  Ti189  1  0.90564484  0.11132022  0.49789866  1
  Ti  Ti190  1  0.10575891  0.29891604  0.29930981  1
  Ti  Ti191  1  0.50402092  0.69164349  0.48685026  1
  Ti  Ti192  1  0.49012432  0.29211545  0.09635771  1
  Ti  Ti193  1  0.40123168  0.78901527  -0.00533669  1
  Ti  Ti194  1  0.20218354  0.79670644  0.19431412  1
  Ti  Ti195  1  0.49014980  0.90641090  0.90210361  1
  Ti  Ti196  1  0.70987943  0.50288388  0.10541331  1
  Ti  Ti197  1  0.80984499  -0.00319878  0.19239982  1
  Ti  Ti198  1  0.29907755  0.69351931  0.90044777  1
  Ti  Ti199  1  0.60192577  0.60046580  0.60178257  1
  Mo  Mo200  1  0.89903886  0.49589215  0.49902190  1
  Mo  Mo201  1  0.39064126  0.59957693  0.19591210  1
  Mo  Mo202  1  0.39843896  0.60376440  0.39694130  1
  Mo  Mo203  1  0.39542440  0.39652294  0.00217776  1
  Mo  Mo204  1  0.09811858  0.50144758  0.70264986  1
  Mo  Mo205  1  0.49097665  0.69782002  0.09934549  1
  Mo  Mo206  1  0.20030399  0.19040252  0.59786048  1
  Mo  Mo207  1  0.40566186  0.20051554  0.19662760  1
  Mo  Mo208  1  0.80130473  0.80300915  0.40478730  1
  Mo  Mo209  1  0.80062005  0.20843542  0.00042702  1
  Mo  Mo210  1  0.20165713  -0.00017174  0.79328717  1
  Mo  Mo211  1  0.30453057  0.09666918  0.30207045  1
  Mo  Mo212  1  0.59934578  0.21518916  0.40372760  1
  Mo  Mo213  1  0.10257353  0.09577038  0.49953028  1
  Mo  Mo214  1  0.28895560  0.29443924  0.50112713  1
  Mo  Mo215  1  0.00455932  0.00724099  0.00108857  1
  Mo  Mo216  1  0.20131508  0.60287353  0.00313293  1
  Mo  Mo217  1  0.50420662  0.29771706  0.50110487  1
  Mo  Mo218  1  0.19795615  0.19991709  -0.00397415  1
  Mo  Mo219  1  0.80214802  0.20708762  0.40157749  1
  Mo  Mo220  1  0.59375996  0.80286194  0.00078431  1
  Mo  Mo221  1  0.59742129  0.20996991  0.00708887  1
  Mo  Mo222  1  0.49532065  0.88748224  0.29820206  1
  Mo  Mo223  1  0.79766026  0.39899862  0.80367186  1
  Mo  Mo224  1  0.49057787  0.49995544  0.90135694  1
  Mo  Mo225  1  0.49387473  0.70039514  0.90554773  1
  Mo  Mo226  1  0.90020163  0.49085500  0.10300014  1
  Mo  Mo227  1  0.30681831  0.90570757  0.90211301  1
  Mo  Mo228  1  0.10181332  0.49979336  0.10223413  1
  Mo  Mo229  1  0.00618564  0.59746960  0.00165874  1
  Mo  Mo230  1  0.80553013  0.59296342  0.19666820  1
  Mo  Mo231  1  0.91237600  0.90394466  0.10749465  1
  Mo  Mo232  1  0.19835901  0.19836482  0.79695632  1
  Mo  Mo233  1  0.90275978  0.10206170  0.10036910  1
  Mo  Mo234  1  0.39641619  -0.00073204  0.80074256  1
  Mo  Mo235  1  0.10249711  0.69963954  0.90464066  1
  Mo  Mo236  1  0.59656924  0.60374648  0.40222015  1
  Mo  Mo237  1  0.00187275  0.80082747  0.40136742  1
  Mo  Mo238  1  0.30706006  0.09967010  0.09576596  1
  Mo  Mo239  1  0.39624393  0.19848350  0.00170721  1
  Mo  Mo240  1  0.10006634  0.89742490  0.29314952  1
  Mo  Mo241  1  0.79677553  0.60172699  0.60097453  1
  Mo  Mo242  1  0.80150119  0.59467404  0.39831111  1
  Mo  Mo243  1  0.29819961  0.50069336  0.10335937  1
  Mo  Mo244  1  -0.00199980  -0.00655767  0.19994141  1
  Mo  Mo245  1  0.49716423  0.11779727  0.09855716  1
  Mo  Mo246  1  0.29276155  0.90315677  0.70037913  1
  Mo  Mo247  1  0.00314493  0.19514022  0.59248139  1
  Mo  Mo248  1  0.29604505  0.29331917  0.70448753  1
  Mo  Mo249  1  0.59098222  -0.01982849  0.40267989  1
