# generated using pymatgen
data_HfZrTaTiMo
_symmetry_space_group_name_H-M   'P 1'
_cell_length_a   16.89408509
_cell_length_b   16.89126348
_cell_length_c   16.88630212
_cell_angle_alpha   90.03288511
_cell_angle_beta   90.00966330
_cell_angle_gamma   90.01977288
_symmetry_Int_Tables_number   1
_chemical_formula_structural   HfZrTaTiMo
_chemical_formula_sum   'Hf50 Zr50 Ta50 Ti50 Mo50'
_cell_volume   4818.71526591
_cell_formula_units_Z   50
loop_
 _symmetry_equiv_pos_site_id
 _symmetry_equiv_pos_as_xyz
  1  'x, y, z'
loop_
 _atom_site_type_symbol
 _atom_site_label
 _atom_site_symmetry_multiplicity
 _atom_site_fract_x
 _atom_site_fract_y
 _atom_site_fract_z
 _atom_site_occupancy
  Hf  Hf0  1  0.69935158  0.50032399  0.10989147  1
  Hf  Hf1  1  0.30244784  0.50202596  0.50267616  1
  Hf  Hf2  1  0.39419592  0.40142283  0.80086609  1
  Hf  Hf3  1  0.40484038  -0.00507741  0.80246425  1
  Hf  Hf4  1  0.41048921  0.00349608  0.19803716  1
  Hf  Hf5  1  0.39679553  0.20596175  0.60092262  1
  Hf  Hf6  1  0.30575725  0.69190137  0.30385746  1
  Hf  Hf7  1  0.29478283  0.09789244  0.89793983  1
  Hf  Hf8  1  0.89178413  0.49669776  0.69799773  1
  Hf  Hf9  1  0.51033625  0.50999242  0.69755020  1
  Hf  Hf10  1  0.70172946  0.09307876  0.50384675  1
  Hf  Hf11  1  0.91048480  0.90098790  0.49441245  1
  Hf  Hf12  1  0.69887185  0.30029930  0.10012371  1
  Hf  Hf13  1  -0.00806560  0.20018404  0.19797824  1
  Hf  Hf14  1  0.70856502  0.69921049  0.10732259  1
  Hf  Hf15  1  0.80882540  0.59385720  0.40262492  1
  Hf  Hf16  1  0.50260947  0.10084961  0.50168010  1
  Hf  Hf17  1  0.19465503  0.80384273  0.20032019  1
  Hf  Hf18  1  0.19776101  0.58870606  0.19874563  1
  Hf  Hf19  1  0.89910915  0.30787154  0.09157820  1
  Hf  Hf20  1  0.10454757  0.69571017  0.90966665  1
  Hf  Hf21  1  0.50020404  0.50390717  0.50122273  1
  Hf  Hf22  1  0.40199683  0.79624239  0.19697288  1
  Hf  Hf23  1  0.38413604  0.60584124  0.80075522  1
  Hf  Hf24  1  0.20727454  0.00364060  0.40356480  1
  Hf  Hf25  1  0.50525539  0.69875997  0.89631147  1
  Hf  Hf26  1  0.09896042  0.69743515  0.49879042  1
  Hf  Hf27  1  0.39666459  0.20025685  0.19123941  1
  Hf  Hf28  1  0.49643572  0.30809823  0.49683316  1
  Hf  Hf29  1  0.60813773  0.40291729  -0.00912503  1
  Hf  Hf30  1  0.80166852  -0.00489761  0.39307107  1
  Hf  Hf31  1  0.18273146  -0.01454707  -0.00373345  1
  Hf  Hf32  1  0.81047730  0.79673323  0.60011141  1
  Hf  Hf33  1  0.20425632  0.39990934  0.20019003  1
  Hf  Hf34  1  0.60548292  0.00156502  0.18823585  1
  Hf  Hf35  1  0.80125585  0.19792332  0.20026602  1
  Hf  Hf36  1  0.20262729  0.40065480  0.00754143  1
  Hf  Hf37  1  0.18367569  -0.00958562  0.20698631  1
  Hf  Hf38  1  0.90295192  0.49817899  0.90246047  1
  Hf  Hf39  1  0.39899225  0.21337116  0.79736093  1
  Hf  Hf40  1  -0.00620873  0.19506369  -0.00014046  1
  Hf  Hf41  1  -0.01226809  0.20296093  0.60190815  1
  Hf  Hf42  1  0.09059277  0.69182454  0.30226120  1
  Hf  Hf43  1  0.10301085  0.69549461  0.70089692  1
  Hf  Hf44  1  0.61153997  0.59852976  -0.00397772  1
  Hf  Hf45  1  0.39482791  0.40305828  0.38685723  1
  Hf  Hf46  1  0.59888335  0.21416059  0.60776814  1
  Hf  Hf47  1  0.51123660  0.11219311  0.90632153  1
  Hf  Hf48  1  0.50912625  0.30183353  0.09734577  1
  Hf  Hf49  1  -0.00051274  0.59157513  0.59444857  1
  Zr  Zr50  1  0.19269282  -0.00557705  0.79820994  1
  Zr  Zr51  1  0.29163144  0.10536092  0.69537351  1
  Zr  Zr52  1  0.91520655  0.90597129  0.88726295  1
  Zr  Zr53  1  0.28141522  0.31014345  0.68798088  1
  Zr  Zr54  1  -0.01367659  0.19636622  0.79307645  1
  Zr  Zr55  1  0.19652154  0.40570322  0.80909508  1
  Zr  Zr56  1  0.48646324  0.69088193  0.49290470  1
  Zr  Zr57  1  0.08716768  0.30310844  0.90373692  1
  Zr  Zr58  1  0.09531438  0.29804795  0.50174328  1
  Zr  Zr59  1  0.60762681  0.39890229  0.79738113  1
  Zr  Zr60  1  0.29941714  0.89270106  0.69883891  1
  Zr  Zr61  1  -0.01133260  0.00122816  0.19791201  1
  Zr  Zr62  1  0.09744204  0.10379586  0.50554532  1
  Zr  Zr63  1  0.09472422  0.90280835  0.51011052  1
  Zr  Zr64  1  0.09046165  0.29723203  0.30258409  1
  Zr  Zr65  1  0.80781908  0.81656592  0.19759747  1
  Zr  Zr66  1  0.90813808  0.69666989  0.29879610  1
  Zr  Zr67  1  0.60923669  0.80846726  0.00075740  1
  Zr  Zr68  1  0.19585892  0.80566785  0.39244740  1
  Zr  Zr69  1  0.61589379  0.21020059  0.40558311  1
  Zr  Zr70  1  0.69651695  0.09201682  0.69490448  1
  Zr  Zr71  1  0.61506809  0.60531190  0.41040525  1
  Zr  Zr72  1  0.50172213  0.89848066  0.49677916  1
  Zr  Zr73  1  0.50708311  0.69599759  0.70353083  1
  Zr  Zr74  1  0.20089523  0.39996685  0.39452374  1
  Zr  Zr75  1  0.29104363  0.09031228  0.10072415  1
  Zr  Zr76  1  0.49964983  0.50646650  0.89690381  1
  Zr  Zr77  1  0.70114536  0.49960849  0.29544462  1
  Zr  Zr78  1  0.50574350  0.89833823  0.69213658  1
  Zr  Zr79  1  0.50416447  0.10649835  0.30249482  1
  Zr  Zr80  1  0.90900991  0.69804715  0.09713940  1
  Zr  Zr81  1  0.69751672  0.90430725  0.50544652  1
  Zr  Zr82  1  0.50300366  0.68974887  0.10482151  1
  Zr  Zr83  1  0.41576795  -0.00523196  -0.00254150  1
  Zr  Zr84  1  0.70568666  0.69135006  0.70860599  1
  Zr  Zr85  1  0.10153181  0.69348310  0.09754193  1
  Zr  Zr86  1  0.30353817  0.89687445  0.50452722  1
  Zr  Zr87  1  0.39232681  0.20861179  0.00122595  1
  Zr  Zr88  1  0.51217810  0.30390172  0.29195562  1
  Zr  Zr89  1  0.69254740  0.89677367  0.29762791  1
  Zr  Zr90  1  0.60081249  -0.00311960  0.81414986  1
  Zr  Zr91  1  0.79966329  0.20619834  0.59853228  1
  Zr  Zr92  1  0.29820621  0.89362814  0.09711226  1
  Zr  Zr93  1  0.00524807  0.59403224  0.80192856  1
  Zr  Zr94  1  0.60894903  0.77736886  0.58581970  1
  Zr  Zr95  1  0.00244236  0.81870117  0.19759722  1
  Zr  Zr96  1  0.09292658  0.10596262  0.31102604  1
  Zr  Zr97  1  0.29313862  0.69622939  0.50299174  1
  Zr  Zr98  1  0.19758547  0.20460069  0.00214139  1
  Zr  Zr99  1  0.70438013  0.90157895  0.69665226  1
  Ta  Ta100  1  0.50481252  0.30117126  0.90085088  1
  Ta  Ta101  1  -0.01101968  0.00408224  0.61607598  1
  Ta  Ta102  1  0.80151743  0.60241368  0.59314258  1
  Ta  Ta103  1  0.50807692  0.89626593  0.09856709  1
  Ta  Ta104  1  0.28612370  0.50524792  0.69244790  1
  Ta  Ta105  1  0.40166592  0.79437955  -0.00465908  1
  Ta  Ta106  1  0.89453392  0.10198364  0.30778842  1
  Ta  Ta107  1  0.79547189  0.39905980  0.80611314  1
  Ta  Ta108  1  0.39723528  0.00464137  0.39897601  1
  Ta  Ta109  1  0.50121344  0.89378210  0.30085960  1
  Ta  Ta110  1  0.29867097  0.88887880  0.90272057  1
  Ta  Ta111  1  0.29555939  0.69342332  0.08939292  1
  Ta  Ta112  1  0.08437974  0.89603180  0.71237552  1
  Ta  Ta113  1  0.79640246  0.00388544  0.19035900  1
  Ta  Ta114  1  0.08560833  0.49583338  0.29596680  1
  Ta  Ta115  1  0.39171844  0.60021606  0.60825500  1
  Ta  Ta116  1  0.09336816  0.30473951  0.69421462  1
  Ta  Ta117  1  0.19636715  0.58477953  0.39694813  1
  Ta  Ta118  1  0.79552343  0.40686798  -0.00395670  1
  Ta  Ta119  1  0.71713053  0.90523158  0.90196841  1
  Ta  Ta120  1  0.39750772  0.40255243  0.19569890  1
  Ta  Ta121  1  0.31038620  0.90312080  0.29918901  1
  Ta  Ta122  1  0.09027169  0.30818117  0.10413885  1
  Ta  Ta123  1  0.39709168  0.00912701  0.59713543  1
  Ta  Ta124  1  0.08866703  0.09304665  0.89541128  1
  Ta  Ta125  1  0.50213542  0.10383799  0.70237267  1
  Ta  Ta126  1  0.89268066  0.30293511  0.90155229  1
  Ta  Ta127  1  0.19798235  0.20341893  0.19458370  1
  Ta  Ta128  1  0.50428033  0.69384643  0.30041794  1
  Ta  Ta129  1  0.80842801  0.80289556  -0.00340392  1
  Ta  Ta130  1  0.39566348  0.39926056  0.00116966  1
  Ta  Ta131  1  0.60722228  0.80452180  0.81157196  1
  Ta  Ta132  1  -0.00281992  0.39896453  0.79807272  1
  Ta  Ta133  1  0.50551706  0.50545131  0.29624728  1
  Ta  Ta134  1  0.80737135  0.39640686  0.20364746  1
  Ta  Ta135  1  -0.01014412  0.39980759  0.40224939  1
  Ta  Ta136  1  -0.00552075  0.79744520  0.61030998  1
  Ta  Ta137  1  0.80430032  0.59882581  -0.00168421  1
  Ta  Ta138  1  0.70416452  0.10299843  0.29976837  1
  Ta  Ta139  1  0.71531018  0.70115398  0.89606134  1
  Ta  Ta140  1  0.60965661  0.40318386  0.40293702  1
  Ta  Ta141  1  0.19767196  0.79598797  0.80807389  1
  Ta  Ta142  1  0.60971911  0.20868703  0.80270901  1
  Ta  Ta143  1  0.80130902  0.79506953  0.39841872  1
  Ta  Ta144  1  0.80861221  0.00718233  0.79591689  1
  Ta  Ta145  1  0.30644129  0.50524002  0.09755025  1
  Ta  Ta146  1  0.60736560  0.40013081  0.59923437  1
  Ta  Ta147  1  0.79531915  0.20089975  0.80254126  1
  Ta  Ta148  1  0.19268444  0.20669515  0.80268044  1
  Ta  Ta149  1  0.00954328  0.81174636  -0.00406612  1
  Ti  Ti150  1  0.29464701  0.30216095  0.50481693  1
  Ti  Ti151  1  0.81017074  0.80306158  0.80040832  1
  Ti  Ti152  1  0.39768593  0.60088956  -0.00074830  1
  Ti  Ti153  1  0.90108473  0.69551447  0.71089633  1
  Ti  Ti154  1  0.09774700  0.50002282  0.91435680  1
  Ti  Ti155  1  0.40025776  0.59224771  0.20263818  1
  Ti  Ti156  1  0.06922598  0.90689707  0.32963573  1
  Ti  Ti157  1  0.70346821  0.69569309  0.29248882  1
  Ti  Ti158  1  0.81708358  0.59139343  0.19567289  1
  Ti  Ti159  1  0.19795283  0.00347002  0.60210228  1
  Ti  Ti160  1  0.29788585  0.09999595  0.29635951  1
  Ti  Ti161  1  0.28807106  0.69763803  0.69747511  1
  Ti  Ti162  1  0.70877524  0.30990442  0.69722621  1
  Ti  Ti163  1  0.60081147  0.79884354  0.19802566  1
  Ti  Ti164  1  0.89012295  0.09519424  0.08777633  1
  Ti  Ti165  1  0.38868933  0.19599758  0.40382293  1
  Ti  Ti166  1  0.90465406  0.48973255  0.29537561  1
  Ti  Ti167  1  0.09881060  0.10543733  0.70077654  1
  Ti  Ti168  1  -0.00123768  0.58559499  0.40476537  1
  Ti  Ti169  1  0.60690867  0.18737341  0.18744064  1
  Ti  Ti170  1  0.19172268  0.80265440  0.60753906  1
  Ti  Ti171  1  -0.00067573  0.58592136  0.01298174  1
  Ti  Ti172  1  0.89615610  0.09480321  0.90180708  1
  Ti  Ti173  1  0.89256098  0.09645808  0.50101430  1
  Ti  Ti174  1  0.88200821  0.31334222  0.49669282  1
  Ti  Ti175  1  0.09912024  0.49447763  0.69341754  1
  Ti  Ti176  1  0.18330539  0.41110909  0.58781155  1
  Ti  Ti177  1  0.21365093  0.19663519  0.40709528  1
  Ti  Ti178  1  0.61521666  0.00666955  0.00480387  1
  Ti  Ti179  1  0.40124927  0.80156612  0.39461254  1
  Ti  Ti180  1  0.30013400  0.29169334  0.29535267  1
  Ti  Ti181  1  0.70462325  0.50824319  0.70126204  1
  Ti  Ti182  1  0.71153326  0.49012620  0.50716932  1
  Ti  Ti183  1  0.39808589  0.79836960  0.80634470  1
  Ti  Ti184  1  0.59773342  0.00080788  0.39525398  1
  Ti  Ti185  1  0.78638815  0.19423369  -0.00927338  1
  Ti  Ti186  1  0.89522151  0.31274156  0.69969509  1
  Ti  Ti187  1  0.09394050  0.09634049  0.09696162  1
  Ti  Ti188  1  0.20084241  0.59786787  0.80592856  1
  Ti  Ti189  1  0.60807333  0.78997654  0.39802376  1
  Ti  Ti190  1  -0.02386237  0.20636285  0.40505368  1
  Ti  Ti191  1  0.90755821  0.70124027  0.49538637  1
  Ti  Ti192  1  0.90597310  0.70003580  0.89945387  1
  Ti  Ti193  1  0.40519054  0.40173511  0.60959902  1
  Ti  Ti194  1  0.89662927  0.48581883  0.50670393  1
  Ti  Ti195  1  0.39899595  0.79119821  0.60477268  1
  Ti  Ti196  1  0.29529731  0.50757972  0.90926643  1
  Ti  Ti197  1  0.89899732  0.91398014  0.07878374  1
  Ti  Ti198  1  0.50435228  0.49712058  0.10756792  1
  Ti  Ti199  1  0.70952406  0.30410081  0.30304962  1
  Mo  Mo200  1  0.79576045  0.40356328  0.60497968  1
  Mo  Mo201  1  0.89176856  0.09905661  0.69992551  1
  Mo  Mo202  1  0.59644633  0.60215905  0.20189948  1
  Mo  Mo203  1  0.00072875  0.78866867  0.80149029  1
  Mo  Mo204  1  0.30076004  0.10480695  0.49917185  1
  Mo  Mo205  1  0.71954996  0.69706671  0.49530492  1
  Mo  Mo206  1  -0.00550590  0.39864480  0.20145186  1
  Mo  Mo207  1  0.20278396  0.79505074  -0.00378727  1
  Mo  Mo208  1  0.09924644  0.89316341  0.89476088  1
  Mo  Mo209  1  0.70614935  0.09994776  0.89806332  1
  Mo  Mo210  1  0.30218639  0.30415615  0.90239411  1
  Mo  Mo211  1  -0.00597550  0.79214029  0.40553331  1
  Mo  Mo212  1  0.70504514  0.29653197  0.90092597  1
  Mo  Mo213  1  0.19291473  0.20431257  0.60274192  1
  Mo  Mo214  1  -0.00128058  0.58296682  0.19653134  1
  Mo  Mo215  1  0.71071300  0.50914872  0.89352877  1
  Mo  Mo216  1  -0.00064935  0.00919117  0.79629311  1
  Mo  Mo217  1  0.80042882  0.00245718  -0.00614230  1
  Mo  Mo218  1  0.30741936  0.50328733  0.29464898  1
  Mo  Mo219  1  0.60095990  0.40180251  0.20467644  1
  Mo  Mo220  1  0.90215369  0.89888920  0.70045848  1
  Mo  Mo221  1  0.49883141  0.89097425  0.90498036  1
  Mo  Mo222  1  0.70609759  0.10060930  0.09431630  1
  Mo  Mo223  1  0.89635820  0.49664107  0.10048047  1
  Mo  Mo224  1  0.70586727  0.90193897  0.09215708  1
  Mo  Mo225  1  0.09436220  0.89851911  0.09171946  1
  Mo  Mo226  1  0.58413667  0.00873277  0.60051599  1
  Mo  Mo227  1  -0.00856238  0.01540342  0.40846974  1
  Mo  Mo228  1  0.61388214  0.60331277  0.80411308  1
  Mo  Mo229  1  0.80269901  0.20145921  0.39891377  1
  Mo  Mo230  1  0.09240109  0.49761600  0.49218232  1
  Mo  Mo231  1  0.39791141  0.59435839  0.39195734  1
  Mo  Mo232  1  0.89398657  0.29954134  0.30546029  1
  Mo  Mo233  1  0.89741885  0.90552470  0.30695778  1
  Mo  Mo234  1  -0.00569916  0.39803804  0.60039328  1
  Mo  Mo235  1  0.09051449  0.49318766  0.10304553  1
  Mo  Mo236  1  0.20317615  0.59086747  0.00241442  1
  Mo  Mo237  1  0.29807836  0.70016717  0.90339378  1
  Mo  Mo238  1  -0.00294109  0.40301135  0.00108561  1
  Mo  Mo239  1  0.70417217  0.31339392  0.49984474  1
  Mo  Mo240  1  0.29767485  0.30904639  0.10492105  1
  Mo  Mo241  1  0.51400976  0.10235914  0.09393850  1
  Mo  Mo242  1  0.60725538  0.20097839  -0.00386701  1
  Mo  Mo243  1  0.19569561  0.59432610  0.59831381  1
  Mo  Mo244  1  0.61582175  0.58797488  0.59971511  1
  Mo  Mo245  1  0.50738975  0.30526017  0.70177208  1
  Mo  Mo246  1  0.81528463  -0.00192591  0.60207105  1
  Mo  Mo247  1  -0.00204629  0.00389565  -0.00315234  1
  Mo  Mo248  1  0.80628500  0.59983974  0.80499725  1
  Mo  Mo249  1  0.80199462  0.39950476  0.39734928  1
