# generated using pymatgen
data_HfZrTaTiMo
_symmetry_space_group_name_H-M   'P 1'
_cell_length_a   16.89084261
_cell_length_b   16.89431026
_cell_length_c   16.89218599
_cell_angle_alpha   90.04124432
_cell_angle_beta   90.01746804
_cell_angle_gamma   90.02212128
_symmetry_Int_Tables_number   1
_chemical_formula_structural   HfZrTaTiMo
_chemical_formula_sum   'Hf50 Zr50 Ta50 Ti50 Mo50'
_cell_volume   4820.33775858
_cell_formula_units_Z   50
loop_
 _symmetry_equiv_pos_site_id
 _symmetry_equiv_pos_as_xyz
  1  'x, y, z'
loop_
 _atom_site_type_symbol
 _atom_site_label
 _atom_site_symmetry_multiplicity
 _atom_site_fract_x
 _atom_site_fract_y
 _atom_site_fract_z
 _atom_site_occupancy
  Hf  Hf0  1  0.10189489  0.09164693  0.29885243  1
  Hf  Hf1  1  0.80377407  0.20272668  0.00147777  1
  Hf  Hf2  1  0.30150900  0.30571097  0.30239236  1
  Hf  Hf3  1  0.30705507  0.90613861  0.90665070  1
  Hf  Hf4  1  0.30182046  0.70322788  0.70451922  1
  Hf  Hf5  1  0.89861251  0.90489261  0.09709722  1
  Hf  Hf6  1  0.30362964  0.89735000  0.50303471  1
  Hf  Hf7  1  0.49182596  0.89951472  0.09863367  1
  Hf  Hf8  1  0.69893214  0.09684921  0.09493371  1
  Hf  Hf9  1  0.40581168  0.01130826  0.40201487  1
  Hf  Hf10  1  0.70488192  0.30291136  0.49802572  1
  Hf  Hf11  1  0.60023984  0.00209376  0.59219442  1
  Hf  Hf12  1  0.19838273  0.79314949  0.19854161  1
  Hf  Hf13  1  0.49953174  0.89905181  0.29137019  1
  Hf  Hf14  1  0.49798627  0.09613735  0.89904318  1
  Hf  Hf15  1  0.10176203  0.90041793  0.70132683  1
  Hf  Hf16  1  0.60281600  0.80180036  0.40158655  1
  Hf  Hf17  1  0.60598650  0.00881306  0.40191449  1
  Hf  Hf18  1  0.09717422  0.50142125  0.50230275  1
  Hf  Hf19  1  0.89726519  0.49695578  0.09630997  1
  Hf  Hf20  1  0.59234646  0.39977661  0.60546422  1
  Hf  Hf21  1  0.90406865  0.70423673  0.50117447  1
  Hf  Hf22  1  0.80749180  0.19196171  0.60580982  1
  Hf  Hf23  1  0.19295628  0.80289685  0.80398360  1
  Hf  Hf24  1  0.79785649  0.00567955  0.20856156  1
  Hf  Hf25  1  0.41005183  0.59758859  0.79633207  1
  Hf  Hf26  1  0.58814775  -0.02835741  0.80373176  1
  Hf  Hf27  1  0.89654677  0.89429238  0.90560464  1
  Hf  Hf28  1  0.19618190  0.00146412  0.59845879  1
  Hf  Hf29  1  0.42182528  0.81087161  0.80449956  1
  Hf  Hf30  1  0.59689784  0.19859531  0.59392083  1
  Hf  Hf31  1  0.50252473  0.30513600  0.29802113  1
  Hf  Hf32  1  0.39330020  0.59882355  0.39889084  1
  Hf  Hf33  1  0.79959271  0.19624109  0.20299167  1
  Hf  Hf34  1  0.39790300  0.20396750  0.00417616  1
  Hf  Hf35  1  0.79937724  0.59454451  0.79462030  1
  Hf  Hf36  1  0.70059056  0.09453083  0.89815815  1
  Hf  Hf37  1  0.90230373  0.30352192  0.09828408  1
  Hf  Hf38  1  0.49911044  0.51212175  0.10521282  1
  Hf  Hf39  1  -0.00092940  0.40117349  0.39656972  1
  Hf  Hf40  1  0.60236406  0.59412118  0.39829566  1
  Hf  Hf41  1  0.59821833  0.79784083  -0.00358838  1
  Hf  Hf42  1  0.19569350  0.40571938  -0.00032634  1
  Hf  Hf43  1  0.69332777  0.88405583  0.69324657  1
  Hf  Hf44  1  0.09266440  0.70162332  0.49851943  1
  Hf  Hf45  1  0.00724153  -0.00466553  -0.00563801  1
  Hf  Hf46  1  -0.00267063  0.59726883  -0.00403205  1
  Hf  Hf47  1  0.79421967  0.18702887  0.40172881  1
  Hf  Hf48  1  0.10424725  0.50569503  0.29974841  1
  Hf  Hf49  1  -0.00205661  -0.00224920  0.79709687  1
  Zr  Zr50  1  0.39582891  0.78404953  0.19317051  1
  Zr  Zr51  1  0.59921923  0.40823374  0.79316672  1
  Zr  Zr52  1  0.29989699  0.91133497  0.29263264  1
  Zr  Zr53  1  0.80853477  0.59139003  0.39114480  1
  Zr  Zr54  1  0.60055155  0.40022613  0.00512108  1
  Zr  Zr55  1  0.70678694  0.30022195  0.89165536  1
  Zr  Zr56  1  0.10039480  0.09452831  0.10969437  1
  Zr  Zr57  1  0.50283681  0.50649582  0.90543641  1
  Zr  Zr58  1  0.09781747  0.29045776  0.89452384  1
  Zr  Zr59  1  -0.00481388  0.19652779  0.78198946  1
  Zr  Zr60  1  0.29943925  0.30275890  0.10749014  1
  Zr  Zr61  1  0.79539459  0.78592604  0.00014228  1
  Zr  Zr62  1  0.30032586  0.49892312  0.70366510  1
  Zr  Zr63  1  0.30483805  0.90932635  0.09709649  1
  Zr  Zr64  1  0.70167863  0.89815895  0.10031945  1
  Zr  Zr65  1  0.91403472  0.09235825  0.30123474  1
  Zr  Zr66  1  0.51612502  0.69170656  0.27987413  1
  Zr  Zr67  1  0.69461808  0.10002237  0.70763232  1
  Zr  Zr68  1  0.29874707  0.30048173  0.89306363  1
  Zr  Zr69  1  0.69436280  0.30624522  0.30256593  1
  Zr  Zr70  1  0.18412309  0.80544176  -0.00014018  1
  Zr  Zr71  1  0.11144876  0.09844296  0.88865101  1
  Zr  Zr72  1  0.39391326  0.78387074  0.39541538  1
  Zr  Zr73  1  -0.01292272  0.60016829  0.20004770  1
  Zr  Zr74  1  0.50917237  0.69810387  0.50989725  1
  Zr  Zr75  1  0.80243097  0.40309963  0.60996055  1
  Zr  Zr76  1  0.40012221  0.21122020  0.60055429  1
  Zr  Zr77  1  0.49535969  0.09452406  0.10203900  1
  Zr  Zr78  1  0.20355167  0.79634190  0.40046535  1
  Zr  Zr79  1  0.19853533  0.20697874  0.39976122  1
  Zr  Zr80  1  0.40477174  0.20136455  0.40266993  1
  Zr  Zr81  1  0.69762741  0.69027349  0.68769626  1
  Zr  Zr82  1  0.19964393  0.19856108  0.01161118  1
  Zr  Zr83  1  0.30280418  0.69699250  0.90349685  1
  Zr  Zr84  1  0.30393624  0.90416791  0.69897673  1
  Zr  Zr85  1  0.09087850  0.70022078  0.30584869  1
  Zr  Zr86  1  0.90890770  0.89659970  0.30717571  1
  Zr  Zr87  1  -0.01017024  0.00455112  0.60787244  1
  Zr  Zr88  1  0.38126548  0.59249604  0.20224636  1
  Zr  Zr89  1  0.80361440  -0.00848553  0.79209448  1
  Zr  Zr90  1  0.70707181  0.70275298  0.50856188  1
  Zr  Zr91  1  0.70396682  0.51222631  0.51731297  1
  Zr  Zr92  1  0.40073118  0.20641289  0.79111534  1
  Zr  Zr93  1  0.89458777  0.30445298  0.30358010  1
  Zr  Zr94  1  0.59672834  0.20858897  0.00139657  1
  Zr  Zr95  1  0.29447963  0.10534368  0.50644775  1
  Zr  Zr96  1  0.20013429  0.60313095  0.60112561  1
  Zr  Zr97  1  0.19254689  0.39945143  0.79403439  1
  Zr  Zr98  1  -0.00228132  0.79410382  0.18526405  1
  Zr  Zr99  1  0.70409705  0.89313333  0.29932269  1
  Ta  Ta100  1  0.08954679  0.69799486  0.89638693  1
  Ta  Ta101  1  0.89937420  0.49580986  0.89521822  1
  Ta  Ta102  1  0.79891895  0.79598237  0.79927728  1
  Ta  Ta103  1  0.50122573  0.49541069  0.29754462  1
  Ta  Ta104  1  0.80428606  0.78540028  0.19456272  1
  Ta  Ta105  1  0.19998805  0.39472326  0.59893421  1
  Ta  Ta106  1  -0.00260158  0.80014463  0.79947928  1
  Ta  Ta107  1  0.70339195  0.30085198  0.70383208  1
  Ta  Ta108  1  0.39764920  0.40718217  0.40465403  1
  Ta  Ta109  1  0.40197384  0.59963487  0.60067376  1
  Ta  Ta110  1  0.49921717  0.09533756  0.70046681  1
  Ta  Ta111  1  0.00278694  0.60358306  0.61060283  1
  Ta  Ta112  1  0.70226285  0.70061878  0.29254451  1
  Ta  Ta113  1  0.60037095  -0.01103316  -0.00682242  1
  Ta  Ta114  1  0.19364461  -0.00105847  0.40408270  1
  Ta  Ta115  1  0.50487460  0.69550154  0.90276744  1
  Ta  Ta116  1  0.90505089  0.50100315  0.70422224  1
  Ta  Ta117  1  0.80003316  0.40294172  -0.00376958  1
  Ta  Ta118  1  0.10235383  0.50325424  0.10137612  1
  Ta  Ta119  1  0.09326011  0.89673724  0.49894535  1
  Ta  Ta120  1  0.39811657  0.19776295  0.20400801  1
  Ta  Ta121  1  0.09672681  0.29953648  0.50455991  1
  Ta  Ta122  1  0.39606881  0.40720792  0.00639433  1
  Ta  Ta123  1  0.29812363  0.09609950  0.89373879  1
  Ta  Ta124  1  0.90304863  0.69966830  0.70220949  1
  Ta  Ta125  1  0.51344499  0.70197315  0.70190149  1
  Ta  Ta126  1  0.70370177  0.30848855  0.10821492  1
  Ta  Ta127  1  0.40374629  -0.00142920  0.79779673  1
  Ta  Ta128  1  0.21342236  0.60131793  0.39858075  1
  Ta  Ta129  1  0.70395913  0.50489195  0.89977948  1
  Ta  Ta130  1  0.00846561  0.21098591  0.20248027  1
  Ta  Ta131  1  0.79896405  0.60434633  0.19408211  1
  Ta  Ta132  1  0.90621821  0.29794487  0.50387576  1
  Ta  Ta133  1  0.90064906  0.69559044  0.89514867  1
  Ta  Ta134  1  0.19884727  0.40689205  0.20220195  1
  Ta  Ta135  1  0.00424153  0.20509056  0.39999909  1
  Ta  Ta136  1  0.29380867  0.68738481  0.08850057  1
  Ta  Ta137  1  0.19649813  0.79477724  0.59998919  1
  Ta  Ta138  1  0.49666809  0.89788179  0.50227311  1
  Ta  Ta139  1  0.60081575  0.00187906  0.20301055  1
  Ta  Ta140  1  0.00884343  0.39770348  0.19912112  1
  Ta  Ta141  1  0.90662551  0.10243871  0.50051723  1
  Ta  Ta142  1  0.00574548  0.40136951  -0.00375967  1
  Ta  Ta143  1  0.00197575  0.40242144  0.80002811  1
  Ta  Ta144  1  0.69242552  0.69439248  0.88923576  1
  Ta  Ta145  1  0.90214235  0.30374777  0.89726104  1
  Ta  Ta146  1  0.20315690  0.40298302  0.40459579  1
  Ta  Ta147  1  0.59750594  0.40861111  0.40453765  1
  Ta  Ta148  1  0.09467659  0.10763108  0.50489800  1
  Ta  Ta149  1  0.89754373  0.10151061  0.90391853  1
  Ti  Ti150  1  0.40684684  0.00605938  0.60110270  1
  Ti  Ti151  1  0.60783657  0.60681429  0.00784567  1
  Ti  Ti152  1  0.79622918  0.60127791  0.00028498  1
  Ti  Ti153  1  0.19227781  0.21102286  0.20482057  1
  Ti  Ti154  1  0.39306078  0.40788638  0.20035504  1
  Ti  Ti155  1  0.89928515  0.70561416  0.30616666  1
  Ti  Ti156  1  0.58897899  0.21132557  0.79143078  1
  Ti  Ti157  1  0.90526755  0.50006736  0.51336409  1
  Ti  Ti158  1  0.50024105  0.30663635  0.49345992  1
  Ti  Ti159  1  0.39817824  0.39719485  0.60136919  1
  Ti  Ti160  1  -0.00944206  0.59233994  0.39890133  1
  Ti  Ti161  1  0.49601774  0.50009753  0.50340229  1
  Ti  Ti162  1  0.30381173  0.50370288  0.90176233  1
  Ti  Ti163  1  0.00620215  0.39571029  0.60796124  1
  Ti  Ti164  1  0.40332474  0.79477305  0.60128592  1
  Ti  Ti165  1  0.49844250  0.30516327  0.11068993  1
  Ti  Ti166  1  0.09845165  0.90750598  0.10868915  1
  Ti  Ti167  1  0.19475774  0.59212924  -0.00584557  1
  Ti  Ti168  1  0.60060229  0.19072775  0.40644822  1
  Ti  Ti169  1  0.40657111  0.39816213  0.78980000  1
  Ti  Ti170  1  0.00171498  -0.00281091  0.41255736  1
  Ti  Ti171  1  0.10913532  0.10782714  0.69722474  1
  Ti  Ti172  1  0.18552670  0.60011515  0.80368657  1
  Ti  Ti173  1  0.80234968  0.40924367  0.20346767  1
  Ti  Ti174  1  0.29571964  0.09974686  0.70601489  1
  Ti  Ti175  1  0.00200441  0.20165645  0.00472543  1
  Ti  Ti176  1  0.80847638  0.19901128  0.79550048  1
  Ti  Ti177  1  0.19716988  -0.00158249  -0.00322587  1
  Ti  Ti178  1  0.50297503  0.10376151  0.29442244  1
  Ti  Ti179  1  0.49564975  0.30717141  0.89971511  1
  Ti  Ti180  1  0.81564922  0.80980688  0.60244490  1
  Ti  Ti181  1  0.09316168  0.50324557  0.70442265  1
  Ti  Ti182  1  0.30110051  0.49767636  0.50417903  1
  Ti  Ti183  1  0.60335707  0.19816661  0.20143801  1
  Ti  Ti184  1  0.29403758  0.09761662  0.29072407  1
  Ti  Ti185  1  0.60232828  0.40738013  0.20040955  1
  Ti  Ti186  1  0.29818085  0.09037866  0.11043509  1
  Ti  Ti187  1  0.69884769  0.50169761  0.29418858  1
  Ti  Ti188  1  0.79741708  0.00225933  0.41178807  1
  Ti  Ti189  1  0.70499070  0.89651185  0.50432277  1
  Ti  Ti190  1  0.80379702  0.41018773  0.40256609  1
  Ti  Ti191  1  -0.00192507  0.80394435  0.60631306  1
  Ti  Ti192  1  0.70203094  0.50169312  0.10057395  1
  Ti  Ti193  1  0.09990909  0.69115398  0.09341244  1
  Ti  Ti194  1  0.20018483  0.21475635  0.60744066  1
  Ti  Ti195  1  0.90158096  0.30555280  0.70138669  1
  Ti  Ti196  1  0.09350046  0.90377580  0.29970278  1
  Ti  Ti197  1  0.80538561  -0.00183839  0.59672892  1
  Ti  Ti198  1  0.80468694  0.80387697  0.40370927  1
  Ti  Ti199  1  0.90561299  0.09537246  0.09761503  1
  Mo  Mo200  1  0.70211585  0.49910426  0.70656293  1
  Mo  Mo201  1  0.29918428  0.30583993  0.69415797  1
  Mo  Mo202  1  0.89329713  0.69406326  0.08801701  1
  Mo  Mo203  1  0.39530883  0.59588720  -0.00029676  1
  Mo  Mo204  1  0.49193449  0.89807020  0.91719721  1
  Mo  Mo205  1  0.09491179  0.70291543  0.70331605  1
  Mo  Mo206  1  0.28438027  0.68961929  0.28814152  1
  Mo  Mo207  1  0.40633949  0.78274034  0.00119346  1
  Mo  Mo208  1  0.09478022  0.50492560  0.89840135  1
  Mo  Mo209  1  0.59442460  0.80767667  0.59665703  1
  Mo  Mo210  1  0.10360199  0.30482502  0.30176261  1
  Mo  Mo211  1  0.49829890  0.69349819  0.08986405  1
  Mo  Mo212  1  0.69506139  0.69282623  0.10316039  1
  Mo  Mo213  1  0.49707509  0.89704385  0.68086955  1
  Mo  Mo214  1  0.60198517  0.79500628  0.80271723  1
  Mo  Mo215  1  0.00031210  0.20429631  0.59658165  1
  Mo  Mo216  1  0.82255211  0.59791760  0.60380514  1
  Mo  Mo217  1  0.60693050  0.79502224  0.19144300  1
  Mo  Mo218  1  0.80033124  0.00695904  -0.00517720  1
  Mo  Mo219  1  0.20588539  0.00287238  0.79587206  1
  Mo  Mo220  1  0.58527239  0.58666401  0.60889361  1
  Mo  Mo221  1  0.29572933  0.31237579  0.50257973  1
  Mo  Mo222  1  0.89491779  0.09777704  0.69966138  1
  Mo  Mo223  1  0.60306756  0.59907882  0.79843698  1
  Mo  Mo224  1  0.49473328  0.50151858  0.69501745  1
  Mo  Mo225  1  -0.00058144  0.59923413  0.79958296  1
  Mo  Mo226  1  0.40110780  0.01397659  0.20417717  1
  Mo  Mo227  1  0.70017379  0.88923118  0.89608938  1
  Mo  Mo228  1  0.50153717  0.09796265  0.50355663  1
  Mo  Mo229  1  0.09689209  0.30666521  0.10472109  1
  Mo  Mo230  1  0.29677885  0.49487099  0.30322385  1
  Mo  Mo231  1  0.19506672  0.59887286  0.19369501  1
  Mo  Mo232  1  0.89761196  0.90209790  0.50278482  1
  Mo  Mo233  1  0.09762023  0.30227382  0.69226265  1
  Mo  Mo234  1  0.68899556  0.10157049  0.29843637  1
  Mo  Mo235  1  0.39608780  0.01336878  -0.00388445  1
  Mo  Mo236  1  -0.00313312  0.80822823  0.40563040  1
  Mo  Mo237  1  0.09768241  0.89766112  0.89865895  1
  Mo  Mo238  1  0.30071705  0.69788462  0.51136249  1
  Mo  Mo239  1  0.00115290  0.79337943  -0.00596508  1
  Mo  Mo240  1  0.50127601  0.30220320  0.69688272  1
  Mo  Mo241  1  0.00186160  -0.00280870  0.19458684  1
  Mo  Mo242  1  0.89708082  0.49707758  0.29252014  1
  Mo  Mo243  1  0.29359008  0.49970227  0.09393814  1
  Mo  Mo244  1  0.20557285  0.19871642  0.78027811  1
  Mo  Mo245  1  0.89787378  0.89120463  0.70072725  1
  Mo  Mo246  1  0.61375807  0.59280255  0.19680662  1
  Mo  Mo247  1  0.19862644  -0.00588694  0.20673147  1
  Mo  Mo248  1  0.80603160  0.40050518  0.80215646  1
  Mo  Mo249  1  0.70892544  0.09646789  0.49908140  1
