# generated using pymatgen
data_HfZrTaTiMo
_symmetry_space_group_name_H-M   'P 1'
_cell_length_a   16.88415432
_cell_length_b   16.87969981
_cell_length_c   16.88394085
_cell_angle_alpha   89.99171082
_cell_angle_beta   90.00651113
_cell_angle_gamma   90.02064209
_symmetry_Int_Tables_number   1
_chemical_formula_structural   HfZrTaTiMo
_chemical_formula_sum   'Hf50 Zr50 Ta50 Ti50 Mo50'
_cell_volume   4811.91357176
_cell_formula_units_Z   50
loop_
 _symmetry_equiv_pos_site_id
 _symmetry_equiv_pos_as_xyz
  1  'x, y, z'
loop_
 _atom_site_type_symbol
 _atom_site_label
 _atom_site_symmetry_multiplicity
 _atom_site_fract_x
 _atom_site_fract_y
 _atom_site_fract_z
 _atom_site_occupancy
  Hf  Hf0  1  0.59577694  0.39667902  0.00257808  1
  Hf  Hf1  1  -0.00414436  0.20948652  0.00189076  1
  Hf  Hf2  1  0.89664264  0.10049595  0.69433882  1
  Hf  Hf3  1  0.49458384  0.29452464  0.90161495  1
  Hf  Hf4  1  0.80840591  0.40040643  0.20552283  1
  Hf  Hf5  1  0.79562118  0.60240058  0.79616453  1
  Hf  Hf6  1  0.29820500  0.70402458  0.89818459  1
  Hf  Hf7  1  0.59969085  0.17530106  0.20958079  1
  Hf  Hf8  1  0.59682759  0.59839577  0.39392198  1
  Hf  Hf9  1  -0.01217743  0.40143855  0.20188093  1
  Hf  Hf10  1  0.00399871  -0.00186102  0.58849815  1
  Hf  Hf11  1  0.19880642  0.21225110  0.80196088  1
  Hf  Hf12  1  0.29071997  0.29546692  0.29544437  1
  Hf  Hf13  1  0.59764554  0.59549680  0.20929897  1
  Hf  Hf14  1  0.29224482  0.09632064  0.70769154  1
  Hf  Hf15  1  0.18264204  -0.00728915  0.60840980  1
  Hf  Hf16  1  0.49578500  0.10729553  0.49976942  1
  Hf  Hf17  1  0.30015147  0.10749532  0.09714595  1
  Hf  Hf18  1  0.29739588  0.09999180  0.49938483  1
  Hf  Hf19  1  0.50296714  0.70761342  0.69464038  1
  Hf  Hf20  1  0.70513237  0.70323226  0.10362012  1
  Hf  Hf21  1  0.79367248  0.80425312  0.80040665  1
  Hf  Hf22  1  0.29479885  0.50902715  0.50161052  1
  Hf  Hf23  1  0.30511241  0.88517465  0.30682650  1
  Hf  Hf24  1  0.48554813  0.71177241  0.30521661  1
  Hf  Hf25  1  0.90365577  0.70576720  0.89305004  1
  Hf  Hf26  1  0.70323379  0.49774858  0.90314476  1
  Hf  Hf27  1  0.60652663  0.80695932  0.20305855  1
  Hf  Hf28  1  0.90571026  0.09703066  0.30891330  1
  Hf  Hf29  1  0.49263780  0.49402285  0.89700211  1
  Hf  Hf30  1  0.60347420  0.79947656  0.39676017  1
  Hf  Hf31  1  0.00235145  0.39637832  0.80142995  1
  Hf  Hf32  1  0.02500386  0.00590537  0.77560951  1
  Hf  Hf33  1  0.39954290  0.60382735  0.79665180  1
  Hf  Hf34  1  0.19005716  0.40783478  0.60082467  1
  Hf  Hf35  1  0.50406592  0.89528295  0.69681115  1
  Hf  Hf36  1  0.49849567  0.48814841  0.69189551  1
  Hf  Hf37  1  0.60010133  0.00705114  0.59770454  1
  Hf  Hf38  1  0.40814817  0.00412208  0.20193490  1
  Hf  Hf39  1  0.80261565  0.20026100  0.80506997  1
  Hf  Hf40  1  0.49826214  0.70758971  0.09767926  1
  Hf  Hf41  1  0.79448049  0.00026309  0.19905236  1
  Hf  Hf42  1  0.61736289  0.19587645  0.41193567  1
  Hf  Hf43  1  0.00943434  0.59599964  0.79703007  1
  Hf  Hf44  1  0.70124238  0.89766867  0.50181146  1
  Hf  Hf45  1  0.10444717  0.10224077  0.89907801  1
  Hf  Hf46  1  0.09777246  0.29760853  0.29832178  1
  Hf  Hf47  1  0.68631323  0.09291204  0.08191994  1
  Hf  Hf48  1  0.80032389  0.19977811  0.39541337  1
  Hf  Hf49  1  0.39530753  0.59881834  0.20689487  1
  Zr  Zr50  1  0.10392872  0.29854182  0.49296957  1
  Zr  Zr51  1  0.00510344  0.19092942  0.59738014  1
  Zr  Zr52  1  0.20530096  0.00359137  0.21213808  1
  Zr  Zr53  1  0.49167175  0.49459463  0.09791287  1
  Zr  Zr54  1  0.89811423  0.89778794  0.69672840  1
  Zr  Zr55  1  0.00824401  0.80077131  0.58709449  1
  Zr  Zr56  1  0.79974787  0.39279358  0.79782872  1
  Zr  Zr57  1  0.29785338  0.49310542  0.90422042  1
  Zr  Zr58  1  0.00010084  0.60436594  0.00946919  1
  Zr  Zr59  1  0.50668333  0.10316931  0.91235274  1
  Zr  Zr60  1  0.50986315  0.30763290  0.51236289  1
  Zr  Zr61  1  0.50094243  0.29298307  0.30773124  1
  Zr  Zr62  1  0.88322527  0.90260378  0.49195513  1
  Zr  Zr63  1  0.00201845  0.79996789  0.01464794  1
  Zr  Zr64  1  0.10549174  0.49824047  0.11058415  1
  Zr  Zr65  1  0.30171871  0.49978384  0.69568527  1
  Zr  Zr66  1  0.70414666  0.49550350  0.10392626  1
  Zr  Zr67  1  0.91179798  0.90574148  0.89266006  1
  Zr  Zr68  1  0.10243417  0.90280334  0.89660836  1
  Zr  Zr69  1  0.60031657  0.60119321  -0.00139732  1
  Zr  Zr70  1  0.89984817  0.49905699  0.69495141  1
  Zr  Zr71  1  0.39809625  0.40304943  0.39930407  1
  Zr  Zr72  1  0.28172203  0.50862599  0.29993505  1
  Zr  Zr73  1  0.39737500  0.39900855  0.20174038  1
  Zr  Zr74  1  0.69723906  0.29266527  0.90814339  1
  Zr  Zr75  1  0.19143502  0.60658487  -0.00076212  1
  Zr  Zr76  1  0.00886959  0.60003000  0.59211514  1
  Zr  Zr77  1  0.10460677  0.10637988  0.10403316  1
  Zr  Zr78  1  0.69537897  0.29538266  0.10370398  1
  Zr  Zr79  1  -0.00325089  -0.01012374  0.20118061  1
  Zr  Zr80  1  0.90937164  0.29666852  0.49278567  1
  Zr  Zr81  1  0.49771286  0.28169859  0.09965268  1
  Zr  Zr82  1  0.90198949  0.49591762  0.90864089  1
  Zr  Zr83  1  0.30032164  0.09944954  0.90367541  1
  Zr  Zr84  1  0.49587968  0.50060245  0.50625007  1
  Zr  Zr85  1  0.80255491  0.81134637  0.00575854  1
  Zr  Zr86  1  0.80355755  0.40117421  0.39115194  1
  Zr  Zr87  1  0.29570604  0.89941594  0.10304140  1
  Zr  Zr88  1  0.39956025  -0.00241451  0.60509281  1
  Zr  Zr89  1  0.29661298  0.69975027  0.10699393  1
  Zr  Zr90  1  0.00217352  0.79540021  0.39402208  1
  Zr  Zr91  1  0.30266696  0.88889406  0.50291477  1
  Zr  Zr92  1  0.39353352  0.20700586  0.60539182  1
  Zr  Zr93  1  0.70323558  0.70241461  0.49888821  1
  Zr  Zr94  1  0.20089189  0.80521392  0.79647962  1
  Zr  Zr95  1  0.50236456  0.70622836  0.89816882  1
  Zr  Zr96  1  0.79126981  0.19994911  0.58684157  1
  Zr  Zr97  1  0.80205670  0.19782289  0.19921112  1
  Zr  Zr98  1  0.70124107  0.50021346  0.49834009  1
  Zr  Zr99  1  0.79057501  0.00678469  0.80556925  1
  Ta  Ta100  1  0.89324607  0.69207789  0.48488575  1
  Ta  Ta101  1  0.60269751  0.60175445  0.60326388  1
  Ta  Ta102  1  0.60474562  0.19648915  0.79893630  1
  Ta  Ta103  1  0.00774406  -0.00414059  0.40259453  1
  Ta  Ta104  1  0.40037351  -0.00436609  0.80479929  1
  Ta  Ta105  1  0.20338209  0.19238960  0.39570463  1
  Ta  Ta106  1  0.90262807  0.70183207  0.69538276  1
  Ta  Ta107  1  0.60104748  0.39693786  0.79643230  1
  Ta  Ta108  1  0.39844082  -0.00039770  0.39841780  1
  Ta  Ta109  1  0.60407550  0.59651833  0.79388798  1
  Ta  Ta110  1  0.60119324  0.00209896  0.39516822  1
  Ta  Ta111  1  0.90391873  0.29694094  0.69690024  1
  Ta  Ta112  1  0.19720607  -0.00244048  0.40051746  1
  Ta  Ta113  1  0.69657699  0.70481120  0.69722853  1
  Ta  Ta114  1  0.49399972  0.70794450  0.50551282  1
  Ta  Ta115  1  0.69887677  0.70202370  0.89997664  1
  Ta  Ta116  1  0.72031239  0.69727951  0.30010808  1
  Ta  Ta117  1  -0.00146844  -0.00013279  0.00916128  1
  Ta  Ta118  1  0.69169449  0.30547562  0.29691263  1
  Ta  Ta119  1  0.39766290  0.20352574  0.80126480  1
  Ta  Ta120  1  0.49915343  0.89294074  0.49746037  1
  Ta  Ta121  1  0.20585430  0.21837238  0.00018633  1
  Ta  Ta122  1  0.29809715  0.70286867  0.68933952  1
  Ta  Ta123  1  0.69326214  0.29830161  0.69074387  1
  Ta  Ta124  1  -0.00164972  0.79693463  0.20332553  1
  Ta  Ta125  1  0.90127528  0.50584040  0.49498927  1
  Ta  Ta126  1  0.39732161  0.81162195  -0.00423539  1
  Ta  Ta127  1  0.50063226  0.90262494  0.30444358  1
  Ta  Ta128  1  0.69607570  0.89913639  0.69225677  1
  Ta  Ta129  1  0.09441858  0.30157056  0.69986452  1
  Ta  Ta130  1  0.50234959  0.90183665  0.89906125  1
  Ta  Ta131  1  0.39477482  0.19024776  0.20537079  1
  Ta  Ta132  1  0.80603163  0.60386967  0.00578735  1
  Ta  Ta133  1  0.10301852  0.68805622  0.30072629  1
  Ta  Ta134  1  0.19462987  0.59598856  0.79340941  1
  Ta  Ta135  1  0.39554130  0.80881837  0.79964408  1
  Ta  Ta136  1  0.80911153  0.19388456  -0.00464505  1
  Ta  Ta137  1  0.50184527  0.10608155  0.70637048  1
  Ta  Ta138  1  -0.00177107  0.40799387  0.39528245  1
  Ta  Ta139  1  0.10560627  0.69756959  0.69378455  1
  Ta  Ta140  1  0.00297512  0.40604683  0.59567538  1
  Ta  Ta141  1  0.60075338  0.00306129  0.80165285  1
  Ta  Ta142  1  0.40451752  -0.00404709  0.00233765  1
  Ta  Ta143  1  0.79989587  0.60130977  0.59965378  1
  Ta  Ta144  1  0.09961462  0.10588974  0.30065421  1
  Ta  Ta145  1  0.80115269  0.39651607  0.59494530  1
  Ta  Ta146  1  0.10298081  0.89780375  0.10454691  1
  Ta  Ta147  1  0.09824677  0.50681448  0.30215655  1
  Ta  Ta148  1  0.19669479  0.80080408  0.00208866  1
  Ta  Ta149  1  0.50569768  0.29862071  0.69948464  1
  Ti  Ti150  1  -0.00631312  0.39355601  0.01097807  1
  Ti  Ti151  1  0.69141232  0.90924075  0.90591431  1
  Ti  Ti152  1  -0.00205239  0.60653037  0.19970648  1
  Ti  Ti153  1  0.80115360  0.79312256  0.60166880  1
  Ti  Ti154  1  0.70499895  0.90442705  0.30571052  1
  Ti  Ti155  1  0.09664234  0.70783111  0.89156615  1
  Ti  Ti156  1  0.39483767  0.60623464  0.39830634  1
  Ti  Ti157  1  0.60488989  0.80367236  0.80233521  1
  Ti  Ti158  1  0.81596433  0.38999299  0.01010759  1
  Ti  Ti159  1  0.19643220  0.20148201  0.60128723  1
  Ti  Ti160  1  0.29983687  0.30012222  0.49672691  1
  Ti  Ti161  1  0.10168244  0.10181562  0.48990250  1
  Ti  Ti162  1  0.69612801  0.90760514  0.09737340  1
  Ti  Ti163  1  0.29721555  0.30727280  0.69759514  1
  Ti  Ti164  1  0.10853478  0.30129422  0.11133954  1
  Ti  Ti165  1  0.10225212  0.49295006  0.90607129  1
  Ti  Ti166  1  0.89315642  0.89682834  0.30466393  1
  Ti  Ti167  1  0.80732284  0.80852965  0.20145521  1
  Ti  Ti168  1  0.09691121  0.30490567  0.90218686  1
  Ti  Ti169  1  0.10284396  0.51370980  0.48625322  1
  Ti  Ti170  1  0.69666383  0.10267450  0.69535465  1
  Ti  Ti171  1  0.39589836  0.38907810  0.79703913  1
  Ti  Ti172  1  0.60115909  0.80711670  -0.00132301  1
  Ti  Ti173  1  0.19481182  0.79572717  0.59313582  1
  Ti  Ti174  1  0.89625290  0.70116328  0.11094061  1
  Ti  Ti175  1  0.39510186  0.60221830  0.00155114  1
  Ti  Ti176  1  0.10450924  0.89561825  0.30147783  1
  Ti  Ti177  1  0.38256594  0.38063605  0.00496851  1
  Ti  Ti178  1  0.69713138  0.49618787  0.69454869  1
  Ti  Ti179  1  0.51001825  0.90889334  0.09877977  1
  Ti  Ti180  1  0.29043633  0.49507392  0.10408809  1
  Ti  Ti181  1  0.90038737  0.09832137  0.09821114  1
  Ti  Ti182  1  0.80694253  0.59316971  0.20147061  1
  Ti  Ti183  1  0.29975965  0.70046532  0.49829745  1
  Ti  Ti184  1  0.60189869  0.40816051  0.39016255  1
  Ti  Ti185  1  0.20234294  0.39084795  0.00401585  1
  Ti  Ti186  1  0.49557304  0.09840748  0.31217723  1
  Ti  Ti187  1  0.91388718  0.09975242  0.89475729  1
  Ti  Ti188  1  0.90459071  0.52224478  0.30929058  1
  Ti  Ti189  1  0.19568371  0.79076821  0.40199753  1
  Ti  Ti190  1  0.19524276  0.40140910  0.80006069  1
  Ti  Ti191  1  0.40194063  0.80630623  0.19530808  1
  Ti  Ti192  1  0.19558660  0.40201235  0.40013966  1
  Ti  Ti193  1  0.80769879  0.00229647  -0.00330632  1
  Ti  Ti194  1  0.20175540  -0.00708941  -0.00190381  1
  Ti  Ti195  1  0.19245776  0.78988307  0.20415477  1
  Ti  Ti196  1  0.39909227  0.60737920  0.59844830  1
  Ti  Ti197  1  0.29810888  0.89793840  0.70010953  1
  Ti  Ti198  1  0.71695620  0.08012577  0.49593571  1
  Ti  Ti199  1  -0.00922746  0.20676789  0.19891026  1
  Mo  Mo200  1  0.40083874  0.80050659  0.40555670  1
  Mo  Mo201  1  0.10312003  0.88260273  0.69298141  1
  Mo  Mo202  1  0.19814084  0.61042907  0.40262500  1
  Mo  Mo203  1  0.30016033  0.30341476  0.89783669  1
  Mo  Mo204  1  0.61054626  0.40072295  0.60484671  1
  Mo  Mo205  1  0.19361180  0.40003761  0.19884951  1
  Mo  Mo206  1  0.90440566  0.29631238  0.90264743  1
  Mo  Mo207  1  0.10320570  0.49722069  0.70139436  1
  Mo  Mo208  1  0.79848233  -0.00176287  0.39344547  1
  Mo  Mo209  1  0.00506070  0.79366275  0.78568986  1
  Mo  Mo210  1  0.10603652  0.11877206  0.69856106  1
  Mo  Mo211  1  0.29472438  0.70440204  0.30549486  1
  Mo  Mo212  1  0.00212775  0.60098010  0.39735364  1
  Mo  Mo213  1  0.10827219  0.89709914  0.48933374  1
  Mo  Mo214  1  0.30152395  0.10059858  0.30571322  1
  Mo  Mo215  1  0.30485967  0.90270349  0.90218495  1
  Mo  Mo216  1  0.39518639  0.79695508  0.60198925  1
  Mo  Mo217  1  0.59929923  -0.00728417  0.20578015  1
  Mo  Mo218  1  0.69769211  0.31320931  0.49729287  1
  Mo  Mo219  1  0.70061926  0.09713305  0.90062751  1
  Mo  Mo220  1  0.59957448  0.40715271  0.21481844  1
  Mo  Mo221  1  0.59884766  0.19567321  -0.00060860  1
  Mo  Mo222  1  0.19672397  0.60371404  0.20299390  1
  Mo  Mo223  1  0.89951598  0.90448724  0.10534292  1
  Mo  Mo224  1  0.80252417  0.60042727  0.39569228  1
  Mo  Mo225  1  0.60423666  0.19790912  0.60453502  1
  Mo  Mo226  1  0.90071552  0.69888922  0.29127364  1
  Mo  Mo227  1  0.80139136  0.79880047  0.38753215  1
  Mo  Mo228  1  0.89927447  0.29706045  0.09851295  1
  Mo  Mo229  1  0.49525457  0.09255787  0.10142988  1
  Mo  Mo230  1  0.69981819  0.50119680  0.29686846  1
  Mo  Mo231  1  0.00053867  0.20500833  0.80320002  1
  Mo  Mo232  1  0.19976123  0.60655298  0.59680028  1
  Mo  Mo233  1  0.49813352  0.50366585  0.30567646  1
  Mo  Mo234  1  0.19895035  0.20163912  0.19923228  1
  Mo  Mo235  1  0.59701558  -0.00903342  -0.00215641  1
  Mo  Mo236  1  0.60012999  0.79992890  0.59765480  1
  Mo  Mo237  1  0.20660799  -0.00143025  0.79677324  1
  Mo  Mo238  1  0.90747272  0.29232263  0.29971866  1
  Mo  Mo239  1  0.29538251  0.29754062  0.10333027  1
  Mo  Mo240  1  0.00583096  0.19103996  0.39781000  1
  Mo  Mo241  1  0.38684699  0.39270025  0.60230794  1
  Mo  Mo242  1  0.79453607  0.00150483  0.60331602  1
  Mo  Mo243  1  0.90095197  0.50489618  0.10316314  1
  Mo  Mo244  1  0.39560682  0.19877526  0.00373588  1
  Mo  Mo245  1  0.90121085  0.09096002  0.49416032  1
  Mo  Mo246  1  0.10024659  0.70646204  0.11398330  1
  Mo  Mo247  1  0.39029951  0.19543142  0.39851038  1
  Mo  Mo248  1  0.10835955  0.69822400  0.49500288  1
  Mo  Mo249  1  0.70086957  0.09128302  0.30514518  1
