# generated using pymatgen
data_HfZrTaTiMo
_symmetry_space_group_name_H-M   'P 1'
_cell_length_a   16.88963304
_cell_length_b   16.89388386
_cell_length_c   16.89536456
_cell_angle_alpha   89.98325143
_cell_angle_beta   89.93778895
_cell_angle_gamma   90.00797912
_symmetry_Int_Tables_number   1
_chemical_formula_structural   HfZrTaTiMo
_chemical_formula_sum   'Hf50 Zr50 Ta50 Ti50 Mo50'
_cell_volume   4820.77660386
_cell_formula_units_Z   50
loop_
 _symmetry_equiv_pos_site_id
 _symmetry_equiv_pos_as_xyz
  1  'x, y, z'
loop_
 _atom_site_type_symbol
 _atom_site_label
 _atom_site_symmetry_multiplicity
 _atom_site_fract_x
 _atom_site_fract_y
 _atom_site_fract_z
 _atom_site_occupancy
  Hf  Hf0  1  0.90590921  0.09896159  0.50332792  1
  Hf  Hf1  1  0.39499945  0.59983565  0.00711982  1
  Hf  Hf2  1  0.79155019  0.40426741  0.79904799  1
  Hf  Hf3  1  0.50241952  0.49224212  0.90804549  1
  Hf  Hf4  1  0.79989594  0.80505326  0.39733949  1
  Hf  Hf5  1  0.79567089  0.59540957  0.59916825  1
  Hf  Hf6  1  0.09801718  0.49551872  0.70209609  1
  Hf  Hf7  1  0.29756768  0.70452733  0.69321431  1
  Hf  Hf8  1  0.30116462  0.30575993  0.30409613  1
  Hf  Hf9  1  0.59418743  0.20947377  0.58685501  1
  Hf  Hf10  1  0.48445519  0.30074405  0.09821357  1
  Hf  Hf11  1  0.19856611  0.60168663  0.00568632  1
  Hf  Hf12  1  0.00473569  0.79284832  -0.00627848  1
  Hf  Hf13  1  0.29247525  0.90740395  0.69819015  1
  Hf  Hf14  1  0.39716636  0.80555295  0.58860669  1
  Hf  Hf15  1  0.90410145  0.11016957  0.30992365  1
  Hf  Hf16  1  0.09904776  0.08425924  0.07802028  1
  Hf  Hf17  1  0.40589744  0.19488118  0.81159518  1
  Hf  Hf18  1  0.06890287  0.48274201  0.31616608  1
  Hf  Hf19  1  0.39619485  0.59186016  0.79931396  1
  Hf  Hf20  1  0.89646765  0.29100571  0.50932700  1
  Hf  Hf21  1  0.69390064  0.10385881  0.30788712  1
  Hf  Hf22  1  0.69609298  0.30399574  0.90546311  1
  Hf  Hf23  1  0.79060264  0.20391455  0.00487454  1
  Hf  Hf24  1  0.28132568  0.09388015  0.88952882  1
  Hf  Hf25  1  0.50305608  0.89556318  0.10230182  1
  Hf  Hf26  1  0.39742470  0.79385362  0.00686755  1
  Hf  Hf27  1  0.20778592  0.00825692  0.20511642  1
  Hf  Hf28  1  0.50080653  0.49804557  0.69532990  1
  Hf  Hf29  1  0.89360199  0.10407283  0.69429319  1
  Hf  Hf30  1  0.29780183  0.70454517  0.89684515  1
  Hf  Hf31  1  0.01925250  0.19669665  0.60628016  1
  Hf  Hf32  1  0.01054547  0.20849886  0.19948776  1
  Hf  Hf33  1  0.70213801  0.29683704  0.69271924  1
  Hf  Hf34  1  0.89798462  0.29176595  0.70173756  1
  Hf  Hf35  1  0.01055724  0.00846625  0.79563240  1
  Hf  Hf36  1  0.40078084  0.00698639  0.20216245  1
  Hf  Hf37  1  0.10247087  0.70124242  0.11519681  1
  Hf  Hf38  1  0.70029765  0.90112019  0.69897607  1
  Hf  Hf39  1  0.10294893  0.31513637  0.09454212  1
  Hf  Hf40  1  0.19555083  0.20816448  -0.00850548  1
  Hf  Hf41  1  0.89893138  0.09895377  0.89699294  1
  Hf  Hf42  1  0.19237784  0.58824412  0.39297065  1
  Hf  Hf43  1  0.50242469  0.69520450  0.89954484  1
  Hf  Hf44  1  0.50003303  0.09777273  0.49410348  1
  Hf  Hf45  1  0.71220310  0.48921903  0.29016738  1
  Hf  Hf46  1  0.19827384  0.59633589  0.59322323  1
  Hf  Hf47  1  0.69999577  0.88696760  0.11203390  1
  Hf  Hf48  1  0.20076077  0.20138598  0.20049575  1
  Hf  Hf49  1  0.50025986  0.69891203  0.69241683  1
  Zr  Zr50  1  -0.00192754  0.20876696  -0.00956975  1
  Zr  Zr51  1  0.79947851  0.00449114  0.20616785  1
  Zr  Zr52  1  0.60649739  0.60408699  0.39472226  1
  Zr  Zr53  1  0.19928547  0.39239651  0.80929497  1
  Zr  Zr54  1  0.50284186  0.09725935  0.31133712  1
  Zr  Zr55  1  -0.00341582  0.59469831  0.20861335  1
  Zr  Zr56  1  0.49260089  0.49581252  0.10373856  1
  Zr  Zr57  1  -0.00003801  0.80634190  0.80819862  1
  Zr  Zr58  1  0.10559882  0.09927600  0.31777600  1
  Zr  Zr59  1  0.59826154  0.79441927  0.39268839  1
  Zr  Zr60  1  0.41112516  0.01316868  -0.00427402  1
  Zr  Zr61  1  0.89929800  0.10374451  0.10101711  1
  Zr  Zr62  1  0.39380018  0.19659440  0.20078129  1
  Zr  Zr63  1  0.90604689  0.70553918  0.49736814  1
  Zr  Zr64  1  0.50545108  0.89720665  0.89957574  1
  Zr  Zr65  1  0.49869287  0.10628774  0.69204724  1
  Zr  Zr66  1  0.88467150  0.70609780  0.71825023  1
  Zr  Zr67  1  0.71977182  0.69803997  0.88397249  1
  Zr  Zr68  1  0.29743356  0.48998923  0.69691848  1
  Zr  Zr69  1  0.39749444  0.40570167  0.40566033  1
  Zr  Zr70  1  0.79329852  0.80160387  0.59162796  1
  Zr  Zr71  1  0.60128784  0.01339729  0.80342252  1
  Zr  Zr72  1  0.59351419  0.39595023  0.40839297  1
  Zr  Zr73  1  0.91060621  0.31368060  0.30065637  1
  Zr  Zr74  1  0.60052797  0.19969505  0.19062208  1
  Zr  Zr75  1  0.00711368  -0.00072686  0.20850372  1
  Zr  Zr76  1  0.71103314  0.48575756  0.09685263  1
  Zr  Zr77  1  0.49500566  0.69590485  0.49301305  1
  Zr  Zr78  1  0.71628727  0.71669308  0.26446445  1
  Zr  Zr79  1  0.00242553  0.61004081  0.81594864  1
  Zr  Zr80  1  0.40455816  0.39448599  0.59376998  1
  Zr  Zr81  1  0.80682104  0.79616689  -0.00186181  1
  Zr  Zr82  1  0.29895162  0.90216676  0.89916468  1
  Zr  Zr83  1  0.91011022  0.90709684  0.09421852  1
  Zr  Zr84  1  0.80571971  0.60428097  0.39187574  1
  Zr  Zr85  1  0.19346310  0.40304778  0.21360314  1
  Zr  Zr86  1  0.61332127  0.58383513  0.79431307  1
  Zr  Zr87  1  0.49074527  0.50088618  0.29317890  1
  Zr  Zr88  1  0.10665635  0.93063089  0.92027408  1
  Zr  Zr89  1  0.09639420  0.70055899  0.49350993  1
  Zr  Zr90  1  0.90006732  0.49633812  0.70612436  1
  Zr  Zr91  1  0.19352564  0.60183072  0.80493483  1
  Zr  Zr92  1  0.70493422  0.49538393  0.49609716  1
  Zr  Zr93  1  0.60599917  0.60302506  0.19326941  1
  Zr  Zr94  1  0.58578123  0.18921550  -0.00512402  1
  Zr  Zr95  1  0.60203149  0.80017621  0.79621754  1
  Zr  Zr96  1  0.18152129  0.80281719  0.80495442  1
  Zr  Zr97  1  0.30150380  0.90210108  0.30655901  1
  Zr  Zr98  1  -0.00298070  0.59480007  0.59832591  1
  Zr  Zr99  1  0.89881507  0.91105191  0.69437042  1
  Ta  Ta100  1  0.49824485  0.90310745  0.69085403  1
  Ta  Ta101  1  0.30349740  0.28746556  0.70156055  1
  Ta  Ta102  1  0.69939708  0.69685682  0.69493576  1
  Ta  Ta103  1  0.29772012  0.29161869  0.50657124  1
  Ta  Ta104  1  0.60875777  0.78839003  0.00465995  1
  Ta  Ta105  1  0.89953074  0.49460257  0.10407929  1
  Ta  Ta106  1  0.40360238  0.39151480  0.80588877  1
  Ta  Ta107  1  0.29789878  0.89815941  0.10468804  1
  Ta  Ta108  1  0.29879643  0.69782811  0.48713465  1
  Ta  Ta109  1  0.30163155  0.29772015  0.90292988  1
  Ta  Ta110  1  0.11149614  0.09085278  0.50582876  1
  Ta  Ta111  1  0.09622423  0.49447653  0.91355680  1
  Ta  Ta112  1  0.30208828  0.10794315  0.08799549  1
  Ta  Ta113  1  0.39750074  0.00195157  0.59655192  1
  Ta  Ta114  1  0.39725792  0.79696409  0.20410530  1
  Ta  Ta115  1  0.29665567  0.49398142  0.11055428  1
  Ta  Ta116  1  0.79593951  0.20240346  0.40168872  1
  Ta  Ta117  1  0.59900681  -0.00299097  0.59378665  1
  Ta  Ta118  1  0.50032143  0.29897999  0.30148127  1
  Ta  Ta119  1  0.39698723  0.59311406  0.58598391  1
  Ta  Ta120  1  0.40113126  0.00387209  0.79245300  1
  Ta  Ta121  1  0.90684012  0.90977511  0.50064331  1
  Ta  Ta122  1  0.01043444  0.39255565  0.59574421  1
  Ta  Ta123  1  0.19866249  0.80374151  0.58841744  1
  Ta  Ta124  1  0.09705169  0.70868220  0.68870588  1
  Ta  Ta125  1  0.69376659  0.90549678  0.49149452  1
  Ta  Ta126  1  0.29924066  0.09557848  0.49734193  1
  Ta  Ta127  1  0.19947215  0.79854637  0.00982122  1
  Ta  Ta128  1  0.89535803  0.49922178  0.90583336  1
  Ta  Ta129  1  0.00404951  0.81011045  0.39473573  1
  Ta  Ta130  1  0.69512742  0.10037748  0.49343282  1
  Ta  Ta131  1  0.09676984  0.49973769  0.10148302  1
  Ta  Ta132  1  0.10403749  0.70519391  0.29922630  1
  Ta  Ta133  1  0.61039713  0.60439867  0.00281137  1
  Ta  Ta134  1  0.89274774  0.69803915  0.11281186  1
  Ta  Ta135  1  -0.00536987  0.40019743  -0.00427955  1
  Ta  Ta136  1  0.69319569  0.90412734  0.29757588  1
  Ta  Ta137  1  0.39885267  0.20292857  0.40547065  1
  Ta  Ta138  1  0.59687956  0.39348331  0.79785309  1
  Ta  Ta139  1  0.78509499  0.19325262  0.80429941  1
  Ta  Ta140  1  0.70362425  0.90276065  0.90374107  1
  Ta  Ta141  1  0.19911639  0.80266682  0.40053142  1
  Ta  Ta142  1  0.80400382  0.60036910  0.00390365  1
  Ta  Ta143  1  0.00247213  0.39083836  0.80786209  1
  Ta  Ta144  1  0.50185731  0.69987094  0.10668674  1
  Ta  Ta145  1  0.59511505  0.00149222  0.19731813  1
  Ta  Ta146  1  0.49807643  0.29750985  0.70103840  1
  Ta  Ta147  1  0.59797421  0.40068210  0.59794913  1
  Ta  Ta148  1  0.79971000  0.00048264  0.40212279  1
  Ta  Ta149  1  0.70192298  0.30130172  0.30030580  1
  Ti  Ti150  1  0.29390908  0.69565926  0.29725682  1
  Ti  Ti151  1  0.00077336  0.80598331  0.20613150  1
  Ti  Ti152  1  0.29656477  0.49239069  0.90798720  1
  Ti  Ti153  1  0.69758338  0.09578806  0.10174526  1
  Ti  Ti154  1  0.79281127  0.00399293  -0.00213835  1
  Ti  Ti155  1  0.18527431  0.39107021  0.41226598  1
  Ti  Ti156  1  0.10847780  0.89892864  0.10490194  1
  Ti  Ti157  1  0.19640315  0.39335749  0.59365355  1
  Ti  Ti158  1  0.60161426  0.38961310  0.19624030  1
  Ti  Ti159  1  0.59832361  0.39133420  0.00405702  1
  Ti  Ti160  1  0.89136512  0.90728708  0.89449363  1
  Ti  Ti161  1  0.60040551  0.80165408  0.59073992  1
  Ti  Ti162  1  0.89991887  0.90321103  0.30353857  1
  Ti  Ti163  1  0.60300397  0.59531789  0.59181091  1
  Ti  Ti164  1  0.29618700  0.90797628  0.49390430  1
  Ti  Ti165  1  0.00409707  -0.00559413  0.40350560  1
  Ti  Ti166  1  0.70336731  0.49474482  0.90926663  1
  Ti  Ti167  1  0.79564502  0.21029195  0.19968777  1
  Ti  Ti168  1  0.60253068  0.00365028  0.00179306  1
  Ti  Ti169  1  0.30536940  0.50986977  0.29148048  1
  Ti  Ti170  1  0.38860099  0.39248612  0.00052125  1
  Ti  Ti171  1  0.70041268  0.10613880  0.68784214  1
  Ti  Ti172  1  0.90651699  0.70297314  0.29740957  1
  Ti  Ti173  1  0.01814229  0.20237467  0.80404153  1
  Ti  Ti174  1  0.59921105  0.20068911  0.80598899  1
  Ti  Ti175  1  0.12366851  0.09407703  0.70296922  1
  Ti  Ti176  1  0.48384794  0.69175712  0.29250382  1
  Ti  Ti177  1  0.29554732  0.49873605  0.49445221  1
  Ti  Ti178  1  0.80249396  0.40410665  0.59803193  1
  Ti  Ti179  1  0.39684644  0.79825489  0.39643392  1
  Ti  Ti180  1  0.01726174  0.21275418  0.40955892  1
  Ti  Ti181  1  0.79093264  0.00370759  0.59010825  1
  Ti  Ti182  1  0.20968699  0.19295524  0.60446556  1
  Ti  Ti183  1  0.80835317  0.39731911  0.40053663  1
  Ti  Ti184  1  0.29439695  0.69689984  0.11990897  1
  Ti  Ti185  1  0.91900714  0.49695737  0.47954392  1
  Ti  Ti186  1  0.50060623  0.90125235  0.30306903  1
  Ti  Ti187  1  0.40356141  0.80393861  0.79455010  1
  Ti  Ti188  1  0.49886389  0.90770902  0.48928151  1
  Ti  Ti189  1  0.89298769  0.30146059  0.89464256  1
  Ti  Ti190  1  0.78941407  0.00804048  0.80170749  1
  Ti  Ti191  1  0.10370702  0.90907942  0.68497247  1
  Ti  Ti192  1  -0.00536203  0.60321587  0.00441177  1
  Ti  Ti193  1  0.70624160  0.29803275  0.49698041  1
  Ti  Ti194  1  0.10945808  0.89726664  0.30207393  1
  Ti  Ti195  1  0.89145096  0.31237192  0.10115205  1
  Ti  Ti196  1  0.10255758  0.90841309  0.50119564  1
  Ti  Ti197  1  0.00242398  0.80945058  0.59769126  1
  Ti  Ti198  1  0.20438875  0.20142599  0.40326954  1
  Ti  Ti199  1  0.11137390  0.29712883  0.70375521  1
  Mo  Mo200  1  0.49421459  0.29614231  0.49929203  1
  Mo  Mo201  1  -0.00119760  0.61311629  0.39602723  1
  Mo  Mo202  1  0.11384933  0.29072443  0.50892477  1
  Mo  Mo203  1  0.39965016  -0.00094635  0.40564345  1
  Mo  Mo204  1  0.50070958  0.50487918  0.50270066  1
  Mo  Mo205  1  0.58115357  0.80216755  0.20110811  1
  Mo  Mo206  1  0.29806197  0.30382973  0.09531535  1
  Mo  Mo207  1  0.89620233  0.49290742  0.30368850  1
  Mo  Mo208  1  0.49834723  0.30430900  0.89934916  1
  Mo  Mo209  1  0.50250646  0.09858136  0.89561371  1
  Mo  Mo210  1  0.79892623  0.58549120  0.80422784  1
  Mo  Mo211  1  0.01240134  0.00278096  0.59896832  1
  Mo  Mo212  1  0.21523870  -0.00180150  0.01444587  1
  Mo  Mo213  1  0.38707577  0.60036073  0.39684650  1
  Mo  Mo214  1  0.60057087  -0.00752376  0.39861230  1
  Mo  Mo215  1  0.19670429  0.59496195  0.20641362  1
  Mo  Mo216  1  0.20156595  -0.00428686  0.40544263  1
  Mo  Mo217  1  0.30210398  0.10043920  0.69375717  1
  Mo  Mo218  1  0.70156506  0.09661773  0.90571762  1
  Mo  Mo219  1  0.39241643  0.20385926  -0.00372371  1
  Mo  Mo220  1  0.60230875  0.21030675  0.40025953  1
  Mo  Mo221  1  0.00191389  0.38187438  0.42477047  1
  Mo  Mo222  1  0.20234379  0.80096243  0.20492945  1
  Mo  Mo223  1  0.39286421  0.39815652  0.20153338  1
  Mo  Mo224  1  0.20092588  0.00130493  0.78767462  1
  Mo  Mo225  1  0.20529563  0.40591472  0.00121891  1
  Mo  Mo226  1  0.78952701  0.19382141  0.59569755  1
  Mo  Mo227  1  -0.01675363  0.00163409  -0.00954582  1
  Mo  Mo228  1  0.90159156  0.69008229  0.90892802  1
  Mo  Mo229  1  0.39418928  0.19767595  0.59752432  1
  Mo  Mo230  1  0.70438628  0.70028776  0.09493770  1
  Mo  Mo231  1  0.09895581  0.30478318  0.89846311  1
  Mo  Mo232  1  0.20468478  -0.00161823  0.59486485  1
  Mo  Mo233  1  0.80308231  0.39189421  0.19925498  1
  Mo  Mo234  1  0.10152968  0.69245205  0.91964357  1
  Mo  Mo235  1  0.09912920  0.10530741  0.89129765  1
  Mo  Mo236  1  0.09878479  0.49056107  0.50198617  1
  Mo  Mo237  1  0.69565825  0.49314147  0.69093281  1
  Mo  Mo238  1  0.80994376  0.59232888  0.19564180  1
  Mo  Mo239  1  0.82412756  0.81201868  0.20165074  1
  Mo  Mo240  1  0.80672538  0.39743660  -0.00244988  1
  Mo  Mo241  1  -0.00274428  0.40026052  0.18538816  1
  Mo  Mo242  1  0.10362045  0.29772103  0.31091112  1
  Mo  Mo243  1  0.20048565  0.20144874  0.79430680  1
  Mo  Mo244  1  0.80080378  0.81812648  0.80174070  1
  Mo  Mo245  1  0.30076614  0.10403854  0.31607185  1
  Mo  Mo246  1  0.39054874  0.60577939  0.19989371  1
  Mo  Mo247  1  0.49777649  0.09599368  0.09848403  1
  Mo  Mo248  1  0.69954170  0.30035292  0.10378332  1
  Mo  Mo249  1  0.69394176  0.70570030  0.51094882  1
