# generated using pymatgen
data_HfZrTaTiMo
_symmetry_space_group_name_H-M   'P 1'
_cell_length_a   16.87151945
_cell_length_b   16.88227930
_cell_length_c   16.89021184
_cell_angle_alpha   90.00868623
_cell_angle_beta   90.00174307
_cell_angle_gamma   89.99996427
_symmetry_Int_Tables_number   1
_chemical_formula_structural   HfZrTaTiMo
_chemical_formula_sum   'Hf50 Zr50 Ta50 Ti50 Mo50'
_cell_volume   4810.83397151
_cell_formula_units_Z   50
loop_
 _symmetry_equiv_pos_site_id
 _symmetry_equiv_pos_as_xyz
  1  'x, y, z'
loop_
 _atom_site_type_symbol
 _atom_site_label
 _atom_site_symmetry_multiplicity
 _atom_site_fract_x
 _atom_site_fract_y
 _atom_site_fract_z
 _atom_site_occupancy
  Hf  Hf0  1  -0.00040126  0.80395602  0.00960206  1
  Hf  Hf1  1  0.50471369  0.88989191  0.68341737  1
  Hf  Hf2  1  0.40250115  0.80240485  0.21073425  1
  Hf  Hf3  1  0.69689913  0.70358431  0.69384201  1
  Hf  Hf4  1  0.21272493  0.61702606  0.80185593  1
  Hf  Hf5  1  0.69552281  0.90569719  0.29123332  1
  Hf  Hf6  1  0.40877500  0.60033388  -0.00909740  1
  Hf  Hf7  1  0.10271115  0.90671206  0.29671833  1
  Hf  Hf8  1  0.79922033  0.00159848  0.59629728  1
  Hf  Hf9  1  0.10159029  0.50048099  0.89789799  1
  Hf  Hf10  1  0.50308536  0.09562827  0.90254708  1
  Hf  Hf11  1  0.49225454  0.49050404  0.69528207  1
  Hf  Hf12  1  0.20125126  0.39964273  -0.00368510  1
  Hf  Hf13  1  0.20025320  0.19866423  0.80259274  1
  Hf  Hf14  1  -0.00015445  0.20378201  0.20895492  1
  Hf  Hf15  1  0.20565455  0.80125884  0.79875959  1
  Hf  Hf16  1  0.58210376  0.79037851  0.39928261  1
  Hf  Hf17  1  0.09588058  0.50591365  0.30564139  1
  Hf  Hf18  1  0.09199211  0.09157185  0.70084068  1
  Hf  Hf19  1  0.51332169  0.09407681  0.28707699  1
  Hf  Hf20  1  0.30576087  0.90388151  0.90805373  1
  Hf  Hf21  1  0.80250270  -0.00016149  0.01232772  1
  Hf  Hf22  1  0.30757490  0.70083858  0.09584827  1
  Hf  Hf23  1  0.50502082  0.90955020  0.11406902  1
  Hf  Hf24  1  0.88743012  0.49264258  0.70258241  1
  Hf  Hf25  1  0.70262640  0.90154637  0.89869317  1
  Hf  Hf26  1  0.10077567  0.28385475  0.48504660  1
  Hf  Hf27  1  -0.00034202  0.80587690  0.59261204  1
  Hf  Hf28  1  0.29949119  0.49936188  0.49588003  1
  Hf  Hf29  1  -0.00278094  0.80927894  0.39813221  1
  Hf  Hf30  1  0.19176083  0.60765847  0.19229507  1
  Hf  Hf31  1  -0.00901560  0.19673472  0.80607311  1
  Hf  Hf32  1  0.39798011  0.60643612  0.80568628  1
  Hf  Hf33  1  0.20425767  0.61204687  0.59857494  1
  Hf  Hf34  1  0.89307618  0.30455280  0.10320644  1
  Hf  Hf35  1  0.41002391  0.59754832  0.19887364  1
  Hf  Hf36  1  0.69618293  0.68931000  0.29899009  1
  Hf  Hf37  1  0.29524143  0.49927537  0.30454456  1
  Hf  Hf38  1  0.28355560  0.10372367  0.49200493  1
  Hf  Hf39  1  0.70148209  0.49643023  0.30321755  1
  Hf  Hf40  1  -0.00715572  0.40023505  0.40043392  1
  Hf  Hf41  1  0.51332921  0.29630093  0.29783085  1
  Hf  Hf42  1  -0.00027304  0.59392572  0.59529122  1
  Hf  Hf43  1  0.88671232  0.49815457  0.90150415  1
  Hf  Hf44  1  -0.00631974  -0.00151198  0.00148916  1
  Hf  Hf45  1  0.20139695  0.19252602  -0.00079424  1
  Hf  Hf46  1  0.79093600  0.20140793  0.58620931  1
  Hf  Hf47  1  0.80164514  0.80681841  0.01469471  1
  Hf  Hf48  1  0.19673897  0.80254003  0.00339863  1
  Hf  Hf49  1  0.10198427  0.09253684  0.11013632  1
  Zr  Zr50  1  0.60283723  0.20301414  0.01576116  1
  Zr  Zr51  1  0.90664774  0.11322088  0.49058448  1
  Zr  Zr52  1  0.41061656  0.40366051  -0.00037909  1
  Zr  Zr53  1  -0.00216135  0.39411675  0.59287109  1
  Zr  Zr54  1  0.30255100  0.29697687  0.10083964  1
  Zr  Zr55  1  0.70117633  0.10065023  0.89726765  1
  Zr  Zr56  1  0.90456955  0.90257765  0.89040527  1
  Zr  Zr57  1  0.60286502  0.20398154  0.60368856  1
  Zr  Zr58  1  0.49832728  0.70432274  0.69070419  1
  Zr  Zr59  1  0.80761646  0.59612968  0.19996015  1
  Zr  Zr60  1  0.70448138  0.49272852  0.70396710  1
  Zr  Zr61  1  0.79665277  0.20280757  0.00055186  1
  Zr  Zr62  1  0.68801940  0.89369260  0.50282157  1
  Zr  Zr63  1  0.09255740  0.70410860  0.89979227  1
  Zr  Zr64  1  0.60437022  0.00927599  0.59682546  1
  Zr  Zr65  1  0.30507168  0.09167713  0.90346757  1
  Zr  Zr66  1  0.59223355  0.59803567  0.80709906  1
  Zr  Zr67  1  -0.01107725  0.19373327  -0.00430529  1
  Zr  Zr68  1  0.09463219  0.29989220  0.10110222  1
  Zr  Zr69  1  0.51906349  0.50656956  0.30349243  1
  Zr  Zr70  1  0.40900950  0.40427688  0.39876261  1
  Zr  Zr71  1  0.30129366  0.49328312  0.70103800  1
  Zr  Zr72  1  0.09167213  0.50279224  0.09726133  1
  Zr  Zr73  1  0.30039847  0.69426629  0.30645515  1
  Zr  Zr74  1  0.60181615  -0.00431138  0.79254312  1
  Zr  Zr75  1  0.10791310  0.49629450  0.70430571  1
  Zr  Zr76  1  0.40326785  0.19984389  0.60081076  1
  Zr  Zr77  1  0.19725376  0.39946361  0.20126781  1
  Zr  Zr78  1  -0.00647021  0.39035280  0.80435394  1
  Zr  Zr79  1  -0.00675489  0.60384965  0.79720474  1
  Zr  Zr80  1  0.80561042  0.80648574  0.39341784  1
  Zr  Zr81  1  0.19432370  0.19749751  0.60621381  1
  Zr  Zr82  1  0.40612651  0.20416425  0.80074497  1
  Zr  Zr83  1  0.88682480  0.29663903  0.69525070  1
  Zr  Zr84  1  0.30265595  0.08848165  0.70530692  1
  Zr  Zr85  1  0.41013545  0.40088420  0.19260745  1
  Zr  Zr86  1  0.09944769  0.10074356  0.31658459  1
  Zr  Zr87  1  0.80735098  0.80591183  0.60088169  1
  Zr  Zr88  1  0.19944986  0.80167660  0.20235224  1
  Zr  Zr89  1  0.40043247  0.79702855  0.80912874  1
  Zr  Zr90  1  0.69834575  0.49828881  0.90610098  1
  Zr  Zr91  1  0.39637150  -0.00756524  0.39685043  1
  Zr  Zr92  1  0.60527816  0.80727068  0.00581977  1
  Zr  Zr93  1  0.59345737  0.59226207  0.58747613  1
  Zr  Zr94  1  0.70117169  0.30106105  0.30107483  1
  Zr  Zr95  1  0.70087353  0.69180474  0.49240694  1
  Zr  Zr96  1  0.40266700  0.19351695  0.39222757  1
  Zr  Zr97  1  0.29745112  0.30282737  0.49476967  1
  Zr  Zr98  1  0.39807181  -0.00685639  0.58831738  1
  Zr  Zr99  1  0.90106983  0.68778649  0.48809809  1
  Ta  Ta100  1  0.19397086  -0.01179013  0.80277892  1
  Ta  Ta101  1  0.19263335  -0.00717293  0.00137224  1
  Ta  Ta102  1  0.60369266  0.00065714  0.01148759  1
  Ta  Ta103  1  -0.00017473  -0.00082653  0.59235175  1
  Ta  Ta104  1  0.79901912  0.80336751  0.79294142  1
  Ta  Ta105  1  0.79757774  0.00390959  0.40335338  1
  Ta  Ta106  1  0.20557936  0.19457061  0.20479017  1
  Ta  Ta107  1  0.20260168  0.80163162  0.59352599  1
  Ta  Ta108  1  0.39667628  0.80348770  0.40382099  1
  Ta  Ta109  1  0.59719148  0.39183460  0.80368574  1
  Ta  Ta110  1  0.40751692  0.19821506  0.00742027  1
  Ta  Ta111  1  0.80082850  0.60741275  0.00436127  1
  Ta  Ta112  1  0.30362543  0.09090963  0.10476082  1
  Ta  Ta113  1  0.50533136  0.30618457  0.49931550  1
  Ta  Ta114  1  -0.00916831  0.39796623  -0.00468495  1
  Ta  Ta115  1  0.60284959  0.20983171  0.79784548  1
  Ta  Ta116  1  0.10015795  0.29912735  0.89991773  1
  Ta  Ta117  1  0.09853858  0.70940918  0.69535988  1
  Ta  Ta118  1  0.20401356  0.80263271  0.40629134  1
  Ta  Ta119  1  0.89875256  0.70392256  0.10757642  1
  Ta  Ta120  1  0.70233310  0.10135146  0.30098909  1
  Ta  Ta121  1  -0.00903287  0.60504267  0.00590853  1
  Ta  Ta122  1  0.10537715  0.49924225  0.49220490  1
  Ta  Ta123  1  0.89316348  0.09782295  0.11860674  1
  Ta  Ta124  1  0.09687198  0.90406439  0.10906042  1
  Ta  Ta125  1  0.60313244  0.80444964  0.80118448  1
  Ta  Ta126  1  0.29772287  0.50719044  0.09429321  1
  Ta  Ta127  1  0.09005290  0.69985429  0.30475616  1
  Ta  Ta128  1  0.89244511  0.70494269  0.90124197  1
  Ta  Ta129  1  0.89214294  0.29545488  0.30652853  1
  Ta  Ta130  1  0.89127818  0.10373187  0.30158786  1
  Ta  Ta131  1  0.51168260  0.69792693  0.10398674  1
  Ta  Ta132  1  0.60387924  0.39528256  0.18267753  1
  Ta  Ta133  1  0.50213895  0.90496956  0.29906989  1
  Ta  Ta134  1  0.09582720  0.89897956  0.70103348  1
  Ta  Ta135  1  0.19621889  0.39633745  0.59637405  1
  Ta  Ta136  1  0.80238463  0.00024122  0.78955062  1
  Ta  Ta137  1  0.60217023  0.39845138  0.59451895  1
  Ta  Ta138  1  0.70170510  0.50151081  0.09527675  1
  Ta  Ta139  1  0.30272500  0.31328864  0.70215130  1
  Ta  Ta140  1  0.40898534  0.80594695  0.00482093  1
  Ta  Ta141  1  0.09522452  0.08838268  0.89619306  1
  Ta  Ta142  1  0.19491575  -0.00929150  0.59833799  1
  Ta  Ta143  1  0.40633482  0.19458194  0.19387873  1
  Ta  Ta144  1  0.80234931  0.59044344  0.59315315  1
  Ta  Ta145  1  0.89911401  0.10034916  0.69811138  1
  Ta  Ta146  1  0.39544528  0.60513963  0.59088361  1
  Ta  Ta147  1  0.70399946  0.70254265  0.90181890  1
  Ta  Ta148  1  0.29642853  0.29588386  0.30183966  1
  Ta  Ta149  1  0.50464493  0.29819880  0.90474233  1
  Ti  Ti150  1  0.90166935  0.69204273  0.30132625  1
  Ti  Ti151  1  0.20403647  -0.00849319  0.40173707  1
  Ti  Ti152  1  0.49954132  0.09914311  0.70194842  1
  Ti  Ti153  1  0.79779789  0.61186222  0.79899110  1
  Ti  Ti154  1  0.10482352  0.30286093  0.70550825  1
  Ti  Ti155  1  0.60350541  0.39235876  0.00041282  1
  Ti  Ti156  1  0.52012398  0.51200587  0.08915406  1
  Ti  Ti157  1  0.40536338  0.40258684  0.81287342  1
  Ti  Ti158  1  0.30021760  0.91149545  0.11109167  1
  Ti  Ti159  1  -0.00767498  -0.00232849  0.40363808  1
  Ti  Ti160  1  0.30266625  0.30114313  0.89713496  1
  Ti  Ti161  1  0.59909330  0.00000152  0.40453840  1
  Ti  Ti162  1  0.40875575  -0.01282361  0.79948747  1
  Ti  Ti163  1  0.00077925  0.20075664  0.59734855  1
  Ti  Ti164  1  -0.00660437  0.80076022  0.20160369  1
  Ti  Ti165  1  0.60232448  0.79640940  0.20164696  1
  Ti  Ti166  1  0.40848303  -0.00035088  0.00931574  1
  Ti  Ti167  1  0.51116997  0.70670781  0.90930004  1
  Ti  Ti168  1  0.39136453  0.79389353  0.58044764  1
  Ti  Ti169  1  0.09682757  0.69890157  0.49331199  1
  Ti  Ti170  1  0.49478440  0.30867877  0.69690956  1
  Ti  Ti171  1  0.30159794  0.89565152  0.69489316  1
  Ti  Ti172  1  0.70483668  0.30727095  0.70537780  1
  Ti  Ti173  1  0.10070078  0.90651273  0.49777449  1
  Ti  Ti174  1  0.89176392  0.90809353  0.29173785  1
  Ti  Ti175  1  0.69912339  0.30486851  0.48774162  1
  Ti  Ti176  1  0.41724716  0.61206208  0.40754382  1
  Ti  Ti177  1  0.50307864  0.10215666  0.49595358  1
  Ti  Ti178  1  0.29693394  0.09004831  0.29018717  1
  Ti  Ti179  1  0.29585907  0.50005814  0.90050840  1
  Ti  Ti180  1  0.79097142  0.20223618  0.19906730  1
  Ti  Ti181  1  0.80054031  0.40240422  0.19892841  1
  Ti  Ti182  1  0.89716380  0.49743173  0.09617037  1
  Ti  Ti183  1  0.10620767  0.29997092  0.30652572  1
  Ti  Ti184  1  0.79854690  0.40018817  0.58159349  1
  Ti  Ti185  1  -0.00870652  -0.00136498  0.20370104  1
  Ti  Ti186  1  0.69808091  0.49940354  0.48710081  1
  Ti  Ti187  1  0.80079195  0.20347274  0.80879254  1
  Ti  Ti188  1  0.19741279  0.60926013  -0.00049125  1
  Ti  Ti189  1  0.69933555  0.69622517  0.10500647  1
  Ti  Ti190  1  0.90734425  0.90733268  0.70000741  1
  Ti  Ti191  1  -0.01035029  0.40361358  0.20805026  1
  Ti  Ti192  1  -0.00402765  0.60137639  0.19908612  1
  Ti  Ti193  1  0.80961151  0.40355958  0.40446220  1
  Ti  Ti194  1  0.19637008  0.60844863  0.40461513  1
  Ti  Ti195  1  0.90004898  0.70009974  0.69803211  1
  Ti  Ti196  1  0.70622076  0.10821645  0.70466362  1
  Ti  Ti197  1  0.69639798  0.09181472  0.11906451  1
  Ti  Ti198  1  0.60746298  0.19512110  0.40676293  1
  Ti  Ti199  1  -0.00060867  0.80270549  0.79650298  1
  Mo  Mo200  1  0.59536035  0.79629554  0.59567556  1
  Mo  Mo201  1  0.29837931  0.90232806  0.30391134  1
  Mo  Mo202  1  0.60601909  0.60814255  0.00171451  1
  Mo  Mo203  1  0.49811423  0.49869120  0.50179970  1
  Mo  Mo204  1  -0.00262221  -0.00063388  0.79299807  1
  Mo  Mo205  1  0.69724769  0.10091395  0.48783524  1
  Mo  Mo206  1  0.60596181  0.19891655  0.19678597  1
  Mo  Mo207  1  0.49479042  0.89656356  0.49504599  1
  Mo  Mo208  1  0.89533874  0.30111828  0.49604022  1
  Mo  Mo209  1  0.70126949  0.90205035  0.11100874  1
  Mo  Mo210  1  0.30627716  0.70618370  0.91592993  1
  Mo  Mo211  1  0.49771635  0.09888656  0.10137829  1
  Mo  Mo212  1  0.79089124  0.38019218  0.81531236  1
  Mo  Mo213  1  0.39736699  0.00027672  0.20230624  1
  Mo  Mo214  1  0.20566818  0.39025570  0.80446246  1
  Mo  Mo215  1  0.89679888  0.09661463  0.88757889  1
  Mo  Mo216  1  0.60565880  0.59813246  0.19222236  1
  Mo  Mo217  1  0.90259816  0.91143306  0.49531224  1
  Mo  Mo218  1  0.80024143  0.00257772  0.20700676  1
  Mo  Mo219  1  0.19598842  0.39833343  0.40005500  1
  Mo  Mo220  1  0.89316973  0.30104366  0.90451956  1
  Mo  Mo221  1  0.40286925  0.40036784  0.59626555  1
  Mo  Mo222  1  0.29926502  0.70837397  0.68622643  1
  Mo  Mo223  1  0.08466366  0.70376126  0.10705344  1
  Mo  Mo224  1  0.49468042  0.70021523  0.49818433  1
  Mo  Mo225  1  0.50560129  0.29562187  0.10087936  1
  Mo  Mo226  1  0.70114206  0.89496272  0.70081599  1
  Mo  Mo227  1  0.80348320  0.79833054  0.20082956  1
  Mo  Mo228  1  0.59850028  0.59780374  0.40051576  1
  Mo  Mo229  1  0.20366975  0.19557932  0.38800931  1
  Mo  Mo230  1  0.90105702  0.90081884  0.11920741  1
  Mo  Mo231  1  0.79789327  0.40385219  0.00683074  1
  Mo  Mo232  1  0.70447743  0.31003701  0.10226554  1
  Mo  Mo233  1  0.20434524  -0.00008534  0.19851090  1
  Mo  Mo234  1  -0.00444956  0.20487182  0.39377110  1
  Mo  Mo235  1  0.09670663  0.09120134  0.50138294  1
  Mo  Mo236  1  0.50184235  0.70128390  0.29658227  1
  Mo  Mo237  1  0.30028346  0.70077120  0.49463682  1
  Mo  Mo238  1  0.50241898  0.90315977  0.91104731  1
  Mo  Mo239  1  0.29184309  0.89813974  0.49881364  1
  Mo  Mo240  1  0.50518785  0.48949630  0.90017059  1
  Mo  Mo241  1  0.89578305  0.49773893  0.49690176  1
  Mo  Mo242  1  0.80840987  0.58514561  0.39692223  1
  Mo  Mo243  1  0.79628099  0.20133681  0.39605015  1
  Mo  Mo244  1  0.00304636  0.59790450  0.39691125  1
  Mo  Mo245  1  0.90111397  0.49414963  0.29786143  1
  Mo  Mo246  1  0.60503007  0.00095372  0.20065286  1
  Mo  Mo247  1  0.69685925  0.30161559  0.90103932  1
  Mo  Mo248  1  0.60488125  0.40005507  0.41203069  1
  Mo  Mo249  1  0.09993604  0.90315559  0.89774162  1
