# generated using pymatgen
data_HfZrTaTiMo
_symmetry_space_group_name_H-M   'P 1'
_cell_length_a   16.88637003
_cell_length_b   16.89185961
_cell_length_c   16.88890972
_cell_angle_alpha   90.04836263
_cell_angle_beta   89.98141922
_cell_angle_gamma   89.98059845
_symmetry_Int_Tables_number   1
_chemical_formula_structural   HfZrTaTiMo
_chemical_formula_sum   'Hf50 Zr50 Ta50 Ti50 Mo50'
_cell_volume   4817.42737972
_cell_formula_units_Z   50
loop_
 _symmetry_equiv_pos_site_id
 _symmetry_equiv_pos_as_xyz
  1  'x, y, z'
loop_
 _atom_site_type_symbol
 _atom_site_label
 _atom_site_symmetry_multiplicity
 _atom_site_fract_x
 _atom_site_fract_y
 _atom_site_fract_z
 _atom_site_occupancy
  Hf  Hf0  1  0.60444250  -0.00304068  0.39836076  1
  Hf  Hf1  1  0.19910198  -0.00174156  0.39174880  1
  Hf  Hf2  1  0.90800357  0.30908143  0.09095901  1
  Hf  Hf3  1  0.39729830  0.40582830  -0.00444366  1
  Hf  Hf4  1  0.91037028  0.69702961  0.09707547  1
  Hf  Hf5  1  0.09712331  0.07936398  0.08915620  1
  Hf  Hf6  1  0.38794797  -0.00064382  0.60691656  1
  Hf  Hf7  1  0.69391391  0.29999436  0.09155858  1
  Hf  Hf8  1  0.29877161  0.89835276  0.09956413  1
  Hf  Hf9  1  0.30320841  0.68901983  0.70348916  1
  Hf  Hf10  1  0.69845686  0.30881477  0.90380445  1
  Hf  Hf11  1  0.49541283  0.29701722  0.29766474  1
  Hf  Hf12  1  0.40800489  0.40045810  0.79351955  1
  Hf  Hf13  1  0.21821734  0.39598425  0.60089451  1
  Hf  Hf14  1  0.70523347  0.29397454  0.29807726  1
  Hf  Hf15  1  0.59605879  0.41237546  0.20538063  1
  Hf  Hf16  1  0.29452576  0.11056596  0.48681031  1
  Hf  Hf17  1  0.19694715  0.19615106  0.19593257  1
  Hf  Hf18  1  0.59871734  0.60505596  0.19449960  1
  Hf  Hf19  1  0.48616122  0.89072727  0.30493081  1
  Hf  Hf20  1  0.70963290  0.10217326  0.30071903  1
  Hf  Hf21  1  -0.00131303  0.00610482  0.80330959  1
  Hf  Hf22  1  0.59503160  0.40572923  0.40175428  1
  Hf  Hf23  1  0.29562629  0.29539537  0.89779759  1
  Hf  Hf24  1  0.19471743  0.79064169  0.00803181  1
  Hf  Hf25  1  0.69470949  0.88993205  0.69767427  1
  Hf  Hf26  1  0.39756402  0.19621971  0.19246943  1
  Hf  Hf27  1  0.19120956  0.79572129  0.19446689  1
  Hf  Hf28  1  0.89272756  0.08310974  0.08630080  1
  Hf  Hf29  1  0.59248364  0.21154887  0.79895763  1
  Hf  Hf30  1  0.09676585  0.50757733  0.30639496  1
  Hf  Hf31  1  0.80661628  0.41048784  0.61708201  1
  Hf  Hf32  1  -0.00524893  -0.01612065  0.19364908  1
  Hf  Hf33  1  0.49031333  0.10036826  0.70494241  1
  Hf  Hf34  1  0.89930823  0.89803533  0.91645076  1
  Hf  Hf35  1  0.90595101  0.29604396  0.70577952  1
  Hf  Hf36  1  0.19806443  0.39118737  0.78929622  1
  Hf  Hf37  1  0.69765530  0.10438794  0.90748587  1
  Hf  Hf38  1  0.79912320  -0.00138420  0.80289048  1
  Hf  Hf39  1  0.10389951  0.49929732  0.49849509  1
  Hf  Hf40  1  0.31212071  0.69437654  0.50016417  1
  Hf  Hf41  1  0.28692268  0.50580632  0.89122581  1
  Hf  Hf42  1  0.70247691  0.50261641  0.50274517  1
  Hf  Hf43  1  0.59535063  0.20429007  0.40892741  1
  Hf  Hf44  1  0.60884988  0.79340263  0.19309080  1
  Hf  Hf45  1  0.40510551  0.59674669  0.19133636  1
  Hf  Hf46  1  0.70917747  0.50793231  0.30315572  1
  Hf  Hf47  1  0.90454955  0.29638380  0.29989630  1
  Hf  Hf48  1  0.19398772  0.60541574  0.18667678  1
  Hf  Hf49  1  0.49793660  0.70170146  0.30722519  1
  Zr  Zr50  1  0.40510639  0.19752604  -0.00023712  1
  Zr  Zr51  1  0.70745941  0.50408938  0.08989037  1
  Zr  Zr52  1  0.00634863  0.79652990  0.60554863  1
  Zr  Zr53  1  0.59493630  0.21045539  0.59917025  1
  Zr  Zr54  1  0.19428372  0.40299284  0.19086574  1
  Zr  Zr55  1  0.00270390  0.19569074  0.19031689  1
  Zr  Zr56  1  0.70188537  0.10547429  0.70169121  1
  Zr  Zr57  1  0.20195788  0.80325649  0.60437433  1
  Zr  Zr58  1  0.09968183  0.29556481  0.49500637  1
  Zr  Zr59  1  0.10004887  0.29967623  0.30412023  1
  Zr  Zr60  1  0.50574912  0.30493733  0.09593275  1
  Zr  Zr61  1  0.29879062  0.09134655  0.09321158  1
  Zr  Zr62  1  0.09259518  0.90016662  0.90660120  1
  Zr  Zr63  1  0.28845243  0.69260258  0.89615398  1
  Zr  Zr64  1  0.19744847  0.00375634  0.60522231  1
  Zr  Zr65  1  0.40152071  0.39809127  0.41027336  1
  Zr  Zr66  1  0.89449677  0.09895755  0.30365607  1
  Zr  Zr67  1  0.90109729  0.89727913  0.70281304  1
  Zr  Zr68  1  0.60273588  0.00456404  0.59500807  1
  Zr  Zr69  1  0.61071433  0.60369970  0.60347904  1
  Zr  Zr70  1  -0.00536083  0.00503375  0.40421593  1
  Zr  Zr71  1  0.39502865  0.22167696  0.60052371  1
  Zr  Zr72  1  0.18966079  0.80060679  0.79813360  1
  Zr  Zr73  1  -0.00880182  0.78962907  0.40756340  1
  Zr  Zr74  1  0.59474182  -0.00371687  0.80326415  1
  Zr  Zr75  1  0.19359266  0.20533261  0.00108388  1
  Zr  Zr76  1  0.79922144  0.78462543  0.59309833  1
  Zr  Zr77  1  0.08834986  0.88982498  0.29976924  1
  Zr  Zr78  1  -0.00113811  0.40402663  0.79861173  1
  Zr  Zr79  1  0.40409045  0.60700335  0.00032348  1
  Zr  Zr80  1  0.40023297  0.80352969  0.80660928  1
  Zr  Zr81  1  0.29653058  0.50251871  0.30437941  1
  Zr  Zr82  1  0.90274071  0.50009892  0.50420072  1
  Zr  Zr83  1  0.49687397  0.89140540  0.50099579  1
  Zr  Zr84  1  0.79825009  0.58817357  0.79630386  1
  Zr  Zr85  1  0.00241610  0.19876565  -0.00789050  1
  Zr  Zr86  1  0.20230512  0.21072388  0.61366247  1
  Zr  Zr87  1  0.59193050  0.00065276  0.00391862  1
  Zr  Zr88  1  0.20058238  0.79993138  0.39671095  1
  Zr  Zr89  1  0.30218838  0.69862802  0.30588566  1
  Zr  Zr90  1  0.60108119  -0.00230191  0.20077540  1
  Zr  Zr91  1  0.89380175  0.90411285  0.49756262  1
  Zr  Zr92  1  0.70783114  0.30668524  0.50494879  1
  Zr  Zr93  1  0.50502806  0.70961644  0.69631736  1
  Zr  Zr94  1  0.48264287  0.09814049  0.49229412  1
  Zr  Zr95  1  0.49701449  0.89209490  0.10080269  1
  Zr  Zr96  1  0.10140404  0.50499809  0.69999347  1
  Zr  Zr97  1  0.48965101  0.09855230  0.30115517  1
  Zr  Zr98  1  0.10821834  0.68693219  0.49872900  1
  Zr  Zr99  1  0.80721584  0.40341299  0.19703016  1
  Ta  Ta100  1  0.89939242  0.69621090  0.70702768  1
  Ta  Ta101  1  0.60954386  0.79300986  0.40317331  1
  Ta  Ta102  1  0.19769313  -0.00851052  0.20517983  1
  Ta  Ta103  1  0.09769355  0.10891453  0.49705007  1
  Ta  Ta104  1  0.90617737  0.50780465  0.29665117  1
  Ta  Ta105  1  0.80308807  0.79219370  0.80965307  1
  Ta  Ta106  1  0.49923786  0.50865851  0.50709645  1
  Ta  Ta107  1  0.50066650  0.70160302  0.50173289  1
  Ta  Ta108  1  0.00022862  0.01208395  0.60093292  1
  Ta  Ta109  1  0.90188203  0.69626043  0.29216946  1
  Ta  Ta110  1  0.41067042  0.59407775  0.79969917  1
  Ta  Ta111  1  0.80086884  0.79211462  0.00376408  1
  Ta  Ta112  1  0.21428675  0.58903265  0.60208251  1
  Ta  Ta113  1  0.80507365  0.60840351  0.40474212  1
  Ta  Ta114  1  0.49397463  0.10385866  0.90015813  1
  Ta  Ta115  1  0.60220613  0.41100347  0.79464358  1
  Ta  Ta116  1  0.70585768  0.30797507  0.70870238  1
  Ta  Ta117  1  0.60117202  0.59860536  0.80438003  1
  Ta  Ta118  1  0.29797073  0.09597324  0.89180127  1
  Ta  Ta119  1  0.71008745  0.89957630  0.09342391  1
  Ta  Ta120  1  0.80964277  0.40187630  0.40002592  1
  Ta  Ta121  1  0.29850515  0.30973598  0.10144810  1
  Ta  Ta122  1  0.40079550  -0.00639608  -0.01079482  1
  Ta  Ta123  1  0.29957101  0.29411504  0.30219610  1
  Ta  Ta124  1  -0.00738126  0.39818128  0.40176662  1
  Ta  Ta125  1  0.80458900  0.00877419  0.59690489  1
  Ta  Ta126  1  0.69830743  0.70137124  0.90234715  1
  Ta  Ta127  1  0.90207354  0.49936886  0.90585260  1
  Ta  Ta128  1  0.80198275  0.19845799  0.18650677  1
  Ta  Ta129  1  0.70241149  0.09838360  0.09583063  1
  Ta  Ta130  1  0.30689544  0.90034073  0.48805951  1
  Ta  Ta131  1  0.80412781  0.20301724  0.80463327  1
  Ta  Ta132  1  0.18573281  0.40149299  -0.00095601  1
  Ta  Ta133  1  0.70878709  0.70043368  0.29876618  1
  Ta  Ta134  1  0.80397573  0.79900245  0.19471943  1
  Ta  Ta135  1  0.50317994  0.89532916  0.69887140  1
  Ta  Ta136  1  -0.00766065  0.60182085  0.60632491  1
  Ta  Ta137  1  0.80166102  0.20190424  -0.00177566  1
  Ta  Ta138  1  0.71164519  0.89465846  0.30405647  1
  Ta  Ta139  1  0.89773657  0.30549673  0.89931734  1
  Ta  Ta140  1  0.70398161  0.89708007  0.49694595  1
  Ta  Ta141  1  0.69805729  0.70367617  0.70991183  1
  Ta  Ta142  1  0.39984898  0.79593912  -0.00072699  1
  Ta  Ta143  1  0.40017188  0.40500304  0.60217940  1
  Ta  Ta144  1  0.90293310  0.10644226  0.70248187  1
  Ta  Ta145  1  0.08563691  0.69171286  0.90568141  1
  Ta  Ta146  1  0.60209335  0.61014333  0.00149975  1
  Ta  Ta147  1  0.09347420  0.11311284  0.70762338  1
  Ta  Ta148  1  0.80661072  0.20150715  0.60103721  1
  Ta  Ta149  1  0.69790599  0.88929140  0.90628706  1
  Ti  Ti150  1  0.00159334  0.39721457  0.60308174  1
  Ti  Ti151  1  0.40121132  0.40929829  0.20169369  1
  Ti  Ti152  1  0.40167409  0.21142673  0.79762572  1
  Ti  Ti153  1  0.80576857  0.40533176  -0.00400336  1
  Ti  Ti154  1  -0.00575469  0.20041434  0.59276741  1
  Ti  Ti155  1  0.81757401  0.20431545  0.41646086  1
  Ti  Ti156  1  0.89807855  0.10017628  0.90206530  1
  Ti  Ti157  1  0.50599711  0.49853530  0.08935660  1
  Ti  Ti158  1  0.80045205  0.78939303  0.40094750  1
  Ti  Ti159  1  0.18800980  0.60003879  0.00700910  1
  Ti  Ti160  1  0.09791078  0.91037521  0.70551220  1
  Ti  Ti161  1  0.50971333  0.30600564  0.90769785  1
  Ti  Ti162  1  0.39921931  -0.00506941  0.80548953  1
  Ti  Ti163  1  0.69953569  0.49901328  0.90220892  1
  Ti  Ti164  1  0.30074080  0.10060698  0.30203326  1
  Ti  Ti165  1  -0.00791759  0.60206574  0.40472748  1
  Ti  Ti166  1  0.89204585  0.89142857  0.29994118  1
  Ti  Ti167  1  0.29386215  0.90315935  0.89738332  1
  Ti  Ti168  1  -0.00557086  0.79152834  0.80590374  1
  Ti  Ti169  1  0.08807011  0.69203393  0.29523002  1
  Ti  Ti170  1  0.29582577  0.90433779  0.71032287  1
  Ti  Ti171  1  0.29165259  0.10591785  0.72039268  1
  Ti  Ti172  1  0.50740557  0.89058217  0.89988393  1
  Ti  Ti173  1  0.40604257  0.59018638  0.40299785  1
  Ti  Ti174  1  0.39437618  -0.00068501  0.19965545  1
  Ti  Ti175  1  0.19979457  -0.00797595  -0.00430307  1
  Ti  Ti176  1  0.09535742  0.50640632  0.90250454  1
  Ti  Ti177  1  0.80341226  0.60533777  0.19457539  1
  Ti  Ti178  1  0.80040228  -0.00879054  0.19734633  1
  Ti  Ti179  1  0.60276304  0.60346097  0.40070319  1
  Ti  Ti180  1  0.59760410  0.18846938  0.18852649  1
  Ti  Ti181  1  0.20915417  0.39936023  0.40669496  1
  Ti  Ti182  1  0.91368413  0.50635171  0.09290530  1
  Ti  Ti183  1  0.10098709  0.90507770  0.50310288  1
  Ti  Ti184  1  0.50115986  0.50720966  0.69475555  1
  Ti  Ti185  1  0.59442421  0.39985475  0.60789241  1
  Ti  Ti186  1  0.10984770  0.09828006  0.89155579  1
  Ti  Ti187  1  0.29530234  0.49990477  0.09265129  1
  Ti  Ti188  1  0.71363766  0.09771320  0.49361320  1
  Ti  Ti189  1  0.00695386  0.40812995  0.19293579  1
  Ti  Ti190  1  0.80211781  0.60136294  0.60550656  1
  Ti  Ti191  1  -0.00747703  0.60056975  0.80363607  1
  Ti  Ti192  1  0.80489159  0.60688232  -0.00706080  1
  Ti  Ti193  1  0.10051725  0.68914195  0.70763567  1
  Ti  Ti194  1  0.39270295  0.78649394  0.18963275  1
  Ti  Ti195  1  0.51172553  0.70720615  0.90008064  1
  Ti  Ti196  1  0.50906246  0.50228427  0.90284203  1
  Ti  Ti197  1  0.09594120  0.10353708  0.30459010  1
  Ti  Ti198  1  0.09273211  0.29689609  0.89120570  1
  Ti  Ti199  1  0.39534055  0.80556101  0.60360906  1
  Mo  Mo200  1  0.18975521  0.59786727  0.79795519  1
  Mo  Mo201  1  0.40398580  0.79647535  0.40512731  1
  Mo  Mo202  1  0.30917991  0.50280364  0.70163678  1
  Mo  Mo203  1  0.09948377  0.31087194  0.09531325  1
  Mo  Mo204  1  0.79571168  -0.00400284  -0.00232239  1
  Mo  Mo205  1  0.90035181  0.10598046  0.50751219  1
  Mo  Mo206  1  0.89854836  0.89215766  0.10022868  1
  Mo  Mo207  1  0.79655185  -0.00352793  0.40272758  1
  Mo  Mo208  1  0.38658816  -0.00601361  0.39086070  1
  Mo  Mo209  1  0.08952514  0.69768242  0.09642202  1
  Mo  Mo210  1  0.19833256  0.00501187  0.80116020  1
  Mo  Mo211  1  0.30007768  0.30099989  0.48725924  1
  Mo  Mo212  1  0.50082679  0.31317781  0.50529096  1
  Mo  Mo213  1  0.60349949  0.79627127  0.00012056  1
  Mo  Mo214  1  0.09585228  0.89529947  0.09844189  1
  Mo  Mo215  1  0.50040614  0.50807768  0.30684250  1
  Mo  Mo216  1  0.70004743  0.69748509  0.49290356  1
  Mo  Mo217  1  0.19882761  0.19617624  0.38976181  1
  Mo  Mo218  1  0.30234384  0.69875037  0.09572575  1
  Mo  Mo219  1  0.00028177  -0.00356164  -0.00448421  1
  Mo  Mo220  1  0.50129110  0.70170758  0.09326894  1
  Mo  Mo221  1  0.39368463  0.20707693  0.39569204  1
  Mo  Mo222  1  0.40639363  0.59478600  0.60309149  1
  Mo  Mo223  1  0.60044729  0.19583335  -0.00160999  1
  Mo  Mo224  1  0.90401117  0.50508433  0.70371740  1
  Mo  Mo225  1  0.00044415  0.59657913  0.19762901  1
  Mo  Mo226  1  0.60341697  0.79845297  0.59407051  1
  Mo  Mo227  1  0.19505399  0.19918952  0.80211172  1
  Mo  Mo228  1  0.00046489  0.79581145  0.00782639  1
  Mo  Mo229  1  -0.00134530  0.19823254  0.80620315  1
  Mo  Mo230  1  -0.00076074  0.59632774  -0.00341756  1
  Mo  Mo231  1  0.50542216  0.31175458  0.70079727  1
  Mo  Mo232  1  0.59838275  0.41482995  -0.00815867  1
  Mo  Mo233  1  0.30929598  0.30251707  0.71189433  1
  Mo  Mo234  1  0.90337464  0.30272219  0.50448292  1
  Mo  Mo235  1  0.00028524  0.20116898  0.40629956  1
  Mo  Mo236  1  -0.00558913  0.79458628  0.19990775  1
  Mo  Mo237  1  0.00473498  0.40470495  -0.00743712  1
  Mo  Mo238  1  0.30468372  0.50307585  0.50252122  1
  Mo  Mo239  1  0.79898773  0.40015607  0.80647449  1
  Mo  Mo240  1  0.49949951  0.09281091  0.09572905  1
  Mo  Mo241  1  0.69533784  0.50107904  0.70331858  1
  Mo  Mo242  1  0.89854000  0.69319986  0.50360611  1
  Mo  Mo243  1  0.20406996  0.59509507  0.40552856  1
  Mo  Mo244  1  0.09188058  0.29337712  0.69720036  1
  Mo  Mo245  1  0.89914860  0.69738660  0.90034710  1
  Mo  Mo246  1  0.70955007  0.69963592  0.09695037  1
  Mo  Mo247  1  0.30421150  0.90070726  0.29276484  1
  Mo  Mo248  1  0.60455605  0.79672334  0.80640793  1
  Mo  Mo249  1  0.09115870  0.50405667  0.09132861  1
