# generated using pymatgen
data_HfZrTaTiMo
_symmetry_space_group_name_H-M   'P 1'
_cell_length_a   16.89043768
_cell_length_b   16.88840705
_cell_length_c   16.89915057
_cell_angle_alpha   90.00457312
_cell_angle_beta   90.03110321
_cell_angle_gamma   90.05650691
_symmetry_Int_Tables_number   1
_chemical_formula_structural   HfZrTaTiMo
_chemical_formula_sum   'Hf50 Zr50 Ta50 Ti50 Mo50'
_cell_volume   4820.52334227
_cell_formula_units_Z   50
loop_
 _symmetry_equiv_pos_site_id
 _symmetry_equiv_pos_as_xyz
  1  'x, y, z'
loop_
 _atom_site_type_symbol
 _atom_site_label
 _atom_site_symmetry_multiplicity
 _atom_site_fract_x
 _atom_site_fract_y
 _atom_site_fract_z
 _atom_site_occupancy
  Hf  Hf0  1  0.79361995  0.00338063  0.40486640  1
  Hf  Hf1  1  0.49559663  0.70567673  0.69196844  1
  Hf  Hf2  1  -0.00021061  0.39252484  0.39526661  1
  Hf  Hf3  1  0.18417541  0.40332539  0.01027358  1
  Hf  Hf4  1  0.69601555  0.28911395  0.90182858  1
  Hf  Hf5  1  0.50293589  0.69085947  0.88959372  1
  Hf  Hf6  1  0.78012662  0.59359551  0.78181702  1
  Hf  Hf7  1  0.20040005  0.79577919  -0.00104228  1
  Hf  Hf8  1  0.29642342  0.10276404  0.30158359  1
  Hf  Hf9  1  0.00602791  0.19802274  0.20022051  1
  Hf  Hf10  1  -0.00798359  -0.00040480  0.01510563  1
  Hf  Hf11  1  0.00483211  0.40105442  0.79085197  1
  Hf  Hf12  1  0.90703347  0.51533772  0.29738278  1
  Hf  Hf13  1  0.49679616  0.90465647  0.30003582  1
  Hf  Hf14  1  0.79884236  0.20326125  0.79589653  1
  Hf  Hf15  1  0.70012382  0.10368711  0.29411352  1
  Hf  Hf16  1  0.69468462  0.90111240  0.30220501  1
  Hf  Hf17  1  0.50270512  0.10110733  0.69476140  1
  Hf  Hf18  1  0.79310197  0.40101572  0.00212270  1
  Hf  Hf19  1  0.00761353  0.39910076  0.59624358  1
  Hf  Hf20  1  0.70566978  0.68869845  0.11191471  1
  Hf  Hf21  1  0.58570360  0.19861288  0.39944319  1
  Hf  Hf22  1  0.30111406  0.89839959  0.68903615  1
  Hf  Hf23  1  0.20952639  0.60295877  0.20970001  1
  Hf  Hf24  1  0.09974620  0.30609595  0.90266225  1
  Hf  Hf25  1  0.88566879  0.09416747  0.90150226  1
  Hf  Hf26  1  0.59467963  0.40174895  0.39821479  1
  Hf  Hf27  1  -0.00308520  0.20084164  0.01283152  1
  Hf  Hf28  1  0.37457621  0.60599783  0.79039992  1
  Hf  Hf29  1  0.10287987  0.50794070  0.50186390  1
  Hf  Hf30  1  0.00695508  0.80317301  0.59907072  1
  Hf  Hf31  1  0.60547568  0.80432693  0.00683279  1
  Hf  Hf32  1  0.70427339  0.29335055  0.11120819  1
  Hf  Hf33  1  0.49375318  0.50085254  0.90368818  1
  Hf  Hf34  1  0.90606616  0.51163446  0.68590856  1
  Hf  Hf35  1  0.70658493  0.71562321  0.89123189  1
  Hf  Hf36  1  0.90283981  0.69165797  0.10443600  1
  Hf  Hf37  1  0.90261601  0.69814766  0.50136738  1
  Hf  Hf38  1  0.00496688  0.58552308  -0.01214207  1
  Hf  Hf39  1  0.19874620  0.00846575  0.00459639  1
  Hf  Hf40  1  0.90616034  0.10067780  0.30447237  1
  Hf  Hf41  1  0.89742695  0.70598206  0.89592682  1
  Hf  Hf42  1  0.89226043  0.89857104  0.90094361  1
  Hf  Hf43  1  0.51001644  0.30027436  0.90204083  1
  Hf  Hf44  1  0.80479260  0.80322502  0.20834588  1
  Hf  Hf45  1  0.69122766  0.09838192  0.70147307  1
  Hf  Hf46  1  0.10360252  0.90448266  0.30327148  1
  Hf  Hf47  1  0.79433528  -0.00016815  0.59346876  1
  Hf  Hf48  1  -0.00279986  0.20741215  0.79672409  1
  Hf  Hf49  1  0.70906655  0.90883420  0.89603693  1
  Zr  Zr50  1  0.30507469  0.30309793  0.10593940  1
  Zr  Zr51  1  0.29727970  0.89976549  0.90001661  1
  Zr  Zr52  1  -0.00498424  0.80673875  0.20251741  1
  Zr  Zr53  1  0.89801843  0.50097566  0.10906928  1
  Zr  Zr54  1  0.90049112  0.69623843  0.69743733  1
  Zr  Zr55  1  0.39624577  0.79287743  0.20629340  1
  Zr  Zr56  1  0.39926210  0.79457155  -0.00389185  1
  Zr  Zr57  1  0.29678461  0.29765300  0.68054646  1
  Zr  Zr58  1  0.59007093  0.79171170  0.20213941  1
  Zr  Zr59  1  0.60941312  0.60073313  0.60609007  1
  Zr  Zr60  1  0.79491746  0.59222286  -0.00832776  1
  Zr  Zr61  1  0.50595732  0.90119780  0.90044690  1
  Zr  Zr62  1  0.31516589  0.50194167  0.09678002  1
  Zr  Zr63  1  0.10663144  0.10114018  0.68599134  1
  Zr  Zr64  1  0.09551139  0.69933568  0.10279919  1
  Zr  Zr65  1  0.39858182  0.39028852  0.79242918  1
  Zr  Zr66  1  0.67667097  0.48383638  0.87277564  1
  Zr  Zr67  1  0.70243285  0.50741389  0.49545618  1
  Zr  Zr68  1  0.39881932  -0.00281421  0.58264101  1
  Zr  Zr69  1  0.69610258  0.69308353  0.30931518  1
  Zr  Zr70  1  0.09723486  0.69815142  0.88829299  1
  Zr  Zr71  1  0.09587355  0.50928642  0.30657380  1
  Zr  Zr72  1  0.39503448  0.19808384  0.80635727  1
  Zr  Zr73  1  0.29644670  0.90297954  0.10992935  1
  Zr  Zr74  1  0.11372698  0.29216637  0.49396063  1
  Zr  Zr75  1  0.51519581  0.50268229  0.71663624  1
  Zr  Zr76  1  0.00056908  -0.00268152  0.79453923  1
  Zr  Zr77  1  0.20530153  0.19797991  0.80792940  1
  Zr  Zr78  1  0.69305411  0.89101989  0.49314134  1
  Zr  Zr79  1  0.00092867  0.80594206  0.79168636  1
  Zr  Zr80  1  0.31156228  0.70994408  0.50264927  1
  Zr  Zr81  1  0.69466090  0.30284115  0.49965864  1
  Zr  Zr82  1  0.29360285  0.09899425  0.68241207  1
  Zr  Zr83  1  0.61064740  0.59114975  -0.00081755  1
  Zr  Zr84  1  0.70616034  0.29798458  0.30212077  1
  Zr  Zr85  1  0.30225219  0.29600978  0.31091681  1
  Zr  Zr86  1  0.19637117  0.39928844  0.20851849  1
  Zr  Zr87  1  0.90035888  0.09692359  0.69550489  1
  Zr  Zr88  1  0.29074412  0.48899661  0.89331431  1
  Zr  Zr89  1  0.20038410  0.59734502  -0.00743763  1
  Zr  Zr90  1  0.39526775  0.00357485  0.80361732  1
  Zr  Zr91  1  0.09409013  0.09969997  0.90262690  1
  Zr  Zr92  1  0.89831620  0.49522293  0.88628644  1
  Zr  Zr93  1  0.91951675  0.10151172  0.49305314  1
  Zr  Zr94  1  0.49675849  0.67984256  0.09423859  1
  Zr  Zr95  1  0.80405615  0.40190800  0.59538150  1
  Zr  Zr96  1  0.21079095  0.60106159  0.60310233  1
  Zr  Zr97  1  0.51316433  0.10352625  0.89961708  1
  Zr  Zr98  1  0.39719933  0.60287580  0.21986559  1
  Zr  Zr99  1  0.79742175  0.20008507  0.59301173  1
  Ta  Ta100  1  0.39701272  0.00259260  0.40215101  1
  Ta  Ta101  1  0.39918334  0.59255244  0.60125202  1
  Ta  Ta102  1  0.21416664  0.60444950  0.39870510  1
  Ta  Ta103  1  0.50719652  0.50795073  0.30351957  1
  Ta  Ta104  1  0.11514691  0.90142326  0.69679696  1
  Ta  Ta105  1  0.50133656  0.49474269  0.10702065  1
  Ta  Ta106  1  0.19669303  0.20054778  0.01344143  1
  Ta  Ta107  1  0.81149153  0.40577385  0.39851940  1
  Ta  Ta108  1  0.80029575  0.80410967  0.59657717  1
  Ta  Ta109  1  0.60157413  0.19419112  0.01533685  1
  Ta  Ta110  1  0.48870877  0.30274699  0.50002951  1
  Ta  Ta111  1  0.49859912  0.91166815  0.10277493  1
  Ta  Ta112  1  0.29490581  0.90173139  0.30524540  1
  Ta  Ta113  1  0.58818233  0.00700502  0.40684997  1
  Ta  Ta114  1  0.80432842  0.39991257  0.21158321  1
  Ta  Ta115  1  0.50205833  0.69739525  0.49902969  1
  Ta  Ta116  1  0.30274557  0.29816393  0.49598902  1
  Ta  Ta117  1  0.00146178  0.80079903  0.40012094  1
  Ta  Ta118  1  0.39805306  0.00630534  0.20225601  1
  Ta  Ta119  1  0.79668156  0.39148962  0.78566956  1
  Ta  Ta120  1  0.90269324  0.90743434  0.31041244  1
  Ta  Ta121  1  0.30522340  0.49061286  0.49987262  1
  Ta  Ta122  1  0.39882298  0.19809682  0.00506163  1
  Ta  Ta123  1  0.20463546  0.00208974  0.40577953  1
  Ta  Ta124  1  0.00043690  0.38513103  0.20394211  1
  Ta  Ta125  1  0.60610135  0.00659556  0.01263920  1
  Ta  Ta126  1  0.39510199  0.79788601  0.79338028  1
  Ta  Ta127  1  0.60226081  0.39732103  0.01466825  1
  Ta  Ta128  1  0.08619397  0.50399091  0.11644522  1
  Ta  Ta129  1  0.20081439  -0.00047113  0.80487286  1
  Ta  Ta130  1  0.59829399  0.39899222  0.20597506  1
  Ta  Ta131  1  0.40000625  0.01126917  0.00616312  1
  Ta  Ta132  1  0.80661926  0.00222687  0.19571124  1
  Ta  Ta133  1  0.30022872  0.10623112  0.10844111  1
  Ta  Ta134  1  0.18805732  0.20023595  0.20119013  1
  Ta  Ta135  1  0.40701436  0.20113740  0.20481945  1
  Ta  Ta136  1  0.58964800  0.20102947  0.20249252  1
  Ta  Ta137  1  0.49922692  0.30212302  0.10461663  1
  Ta  Ta138  1  0.80597145  0.60451819  0.39963641  1
  Ta  Ta139  1  0.10101641  0.70240149  0.30860457  1
  Ta  Ta140  1  0.10588599  0.89987990  0.49594621  1
  Ta  Ta141  1  0.09830346  0.89567237  0.90346086  1
  Ta  Ta142  1  0.70390674  0.70288652  0.49773717  1
  Ta  Ta143  1  0.10425448  0.69325694  0.69686744  1
  Ta  Ta144  1  0.09788566  0.89787638  0.10077470  1
  Ta  Ta145  1  0.50382968  0.89913138  0.69410513  1
  Ta  Ta146  1  0.90438401  0.89932354  0.49487596  1
  Ta  Ta147  1  0.80478941  0.80987548  0.01842044  1
  Ta  Ta148  1  0.20266360  0.80079313  0.59443097  1
  Ta  Ta149  1  0.00681383  -0.00855302  0.59511711  1
  Ti  Ti150  1  0.79517955  0.19576111  0.40735376  1
  Ti  Ti151  1  0.10575600  0.09916159  0.49279202  1
  Ti  Ti152  1  0.28381517  0.48399676  0.69645896  1
  Ti  Ti153  1  0.89693455  0.28849346  0.30533363  1
  Ti  Ti154  1  0.40713890  0.40142487  0.21528836  1
  Ti  Ti155  1  0.59450059  0.40112576  0.60203156  1
  Ti  Ti156  1  0.89477294  0.30113181  0.90477819  1
  Ti  Ti157  1  0.49691992  0.10204312  0.10505079  1
  Ti  Ti158  1  0.69999896  0.90110641  0.70166157  1
  Ti  Ti159  1  0.40431549  0.39444634  0.00125421  1
  Ti  Ti160  1  0.29403193  0.30222167  0.90790632  1
  Ti  Ti161  1  0.20871318  0.79094505  0.79453664  1
  Ti  Ti162  1  0.90210950  0.29945944  0.69048055  1
  Ti  Ti163  1  0.59565879  0.19456971  0.58692532  1
  Ti  Ti164  1  0.90828075  0.51503407  0.49819782  1
  Ti  Ti165  1  0.69944282  0.50108777  0.12196293  1
  Ti  Ti166  1  0.60110426  -0.00238404  0.79940915  1
  Ti  Ti167  1  0.50492302  0.28995582  0.69373031  1
  Ti  Ti168  1  0.79820616  0.18760121  0.01544940  1
  Ti  Ti169  1  0.49225215  0.09971386  0.30149416  1
  Ti  Ti170  1  0.89002249  0.90266567  0.69909514  1
  Ti  Ti171  1  0.90617390  0.29004326  0.49108157  1
  Ti  Ti172  1  0.39959234  0.60017211  0.40186326  1
  Ti  Ti173  1  0.89167748  0.29779335  0.10786745  1
  Ti  Ti174  1  0.70275933  0.71487476  0.69415775  1
  Ti  Ti175  1  0.70123212  0.50641972  0.30109390  1
  Ti  Ti176  1  0.39749568  0.80349572  0.39763062  1
  Ti  Ti177  1  0.49417087  0.88949075  0.49952388  1
  Ti  Ti178  1  0.59733316  0.00852078  0.19806518  1
  Ti  Ti179  1  0.59873604  0.80418778  0.79300868  1
  Ti  Ti180  1  -0.00267097  0.39742594  0.00778965  1
  Ti  Ti181  1  0.69699870  0.90524376  0.10997101  1
  Ti  Ti182  1  0.20420439  0.79339851  0.20576184  1
  Ti  Ti183  1  0.19077864  0.01036331  0.20005082  1
  Ti  Ti184  1  0.70042639  0.09806846  0.90083493  1
  Ti  Ti185  1  0.59918948  0.80317208  0.59726550  1
  Ti  Ti186  1  0.68657977  0.29729681  0.69835994  1
  Ti  Ti187  1  0.20397491  0.40553641  0.39750656  1
  Ti  Ti188  1  0.00067273  0.00522685  0.19749731  1
  Ti  Ti189  1  0.11728006  0.30408474  0.69165866  1
  Ti  Ti190  1  0.79540689  0.00256502  0.01888506  1
  Ti  Ti191  1  0.40467022  0.40448284  0.39728975  1
  Ti  Ti192  1  0.30448666  0.69262376  0.09256781  1
  Ti  Ti193  1  0.10345526  0.70006305  0.49475232  1
  Ti  Ti194  1  0.00809666  0.20387969  0.59687471  1
  Ti  Ti195  1  0.59621817  0.00201897  0.58563342  1
  Ti  Ti196  1  0.40604230  0.40575617  0.59955877  1
  Ti  Ti197  1  0.49908247  0.50501660  0.49971646  1
  Ti  Ti198  1  0.40165704  0.19353590  0.58322732  1
  Ti  Ti199  1  0.58790464  0.79379284  0.39900827  1
  Mo  Mo200  1  0.90209235  0.70527117  0.30935225  1
  Mo  Mo201  1  0.01029222  0.59363228  0.79308162  1
  Mo  Mo202  1  0.19918320  0.80160453  0.40117919  1
  Mo  Mo203  1  0.69742651  0.09953414  0.10722690  1
  Mo  Mo204  1  0.39626674  0.59419284  -0.00941541  1
  Mo  Mo205  1  0.20425444  0.39989239  0.59211408  1
  Mo  Mo206  1  0.80906063  0.80060634  0.40064983  1
  Mo  Mo207  1  0.89911481  0.90373604  0.10617696  1
  Mo  Mo208  1  0.00471192  0.61240883  0.40348010  1
  Mo  Mo209  1  0.89367001  0.10085646  0.10680433  1
  Mo  Mo210  1  0.80821902  0.19912414  0.20085101  1
  Mo  Mo211  1  0.60258801  0.19454869  0.79713642  1
  Mo  Mo212  1  0.49655509  0.69619832  0.31931710  1
  Mo  Mo213  1  0.59629444  0.37637126  0.78832730  1
  Mo  Mo214  1  0.29811795  0.71022677  0.69548242  1
  Mo  Mo215  1  0.00956891  -0.00353414  0.40134910  1
  Mo  Mo216  1  0.29790922  0.10503396  0.91748797  1
  Mo  Mo217  1  0.00279253  0.61220890  0.20689482  1
  Mo  Mo218  1  0.09473098  0.30536470  0.10193049  1
  Mo  Mo219  1  0.40668864  0.80236531  0.59598443  1
  Mo  Mo220  1  0.40033745  0.19909880  0.40125374  1
  Mo  Mo221  1  0.70023228  0.48301060  0.69094670  1
  Mo  Mo222  1  0.10325278  0.29528052  0.30376482  1
  Mo  Mo223  1  0.68604537  0.09896156  0.49961218  1
  Mo  Mo224  1  0.79093096  -0.00061045  0.79352388  1
  Mo  Mo225  1  0.29669483  0.10649044  0.49098084  1
  Mo  Mo226  1  0.29648162  0.70850463  0.31375503  1
  Mo  Mo227  1  0.59988983  0.58891187  0.20745830  1
  Mo  Mo228  1  -0.00174834  0.80948259  0.00130368  1
  Mo  Mo229  1  0.49656157  0.30671315  0.29883568  1
  Mo  Mo230  1  0.10082666  0.09591790  0.30489322  1
  Mo  Mo231  1  0.59575372  0.60011885  0.40490937  1
  Mo  Mo232  1  0.29741835  0.70011558  0.89202541  1
  Mo  Mo233  1  0.19457640  0.39578153  0.79250231  1
  Mo  Mo234  1  0.09883871  0.49570781  0.88408895  1
  Mo  Mo235  1  0.30796548  0.49685202  0.31558451  1
  Mo  Mo236  1  0.20338358  0.19697506  0.58556498  1
  Mo  Mo237  1  0.79909037  0.59745220  0.21253197  1
  Mo  Mo238  1  0.19775547  -0.00389082  0.58808530  1
  Mo  Mo239  1  0.29770894  0.90036260  0.49199813  1
  Mo  Mo240  1  0.01100087  0.19845973  0.39264577  1
  Mo  Mo241  1  0.10163168  0.09775866  0.10772236  1
  Mo  Mo242  1  0.20080386  0.19083124  0.39615277  1
  Mo  Mo243  1  0.19418577  0.59284662  0.79126172  1
  Mo  Mo244  1  0.49428473  0.10492047  0.49670539  1
  Mo  Mo245  1  0.01281014  0.60377589  0.59623601  1
  Mo  Mo246  1  0.10425980  0.50355954  0.69812493  1
  Mo  Mo247  1  0.79551628  0.60795268  0.59223143  1
  Mo  Mo248  1  0.79686936  0.80869245  0.78329171  1
  Mo  Mo249  1  0.60565047  0.62039934  0.79285876  1
