# generated using pymatgen
data_HfZrTaTiMo
_symmetry_space_group_name_H-M   'P 1'
_cell_length_a   16.88545348
_cell_length_b   16.88689481
_cell_length_c   16.89229475
_cell_angle_alpha   90.02047848
_cell_angle_beta   90.04430371
_cell_angle_gamma   89.98701507
_symmetry_Int_Tables_number   1
_chemical_formula_structural   HfZrTaTiMo
_chemical_formula_sum   'Hf50 Zr50 Ta50 Ti50 Mo50'
_cell_volume   4816.71564870
_cell_formula_units_Z   50
loop_
 _symmetry_equiv_pos_site_id
 _symmetry_equiv_pos_as_xyz
  1  'x, y, z'
loop_
 _atom_site_type_symbol
 _atom_site_label
 _atom_site_symmetry_multiplicity
 _atom_site_fract_x
 _atom_site_fract_y
 _atom_site_fract_z
 _atom_site_occupancy
  Hf  Hf0  1  0.48841564  0.50457603  0.88717814  1
  Hf  Hf1  1  0.40271461  0.79704647  0.40338875  1
  Hf  Hf2  1  0.39429393  0.00465756  -0.00350701  1
  Hf  Hf3  1  0.09545691  0.49022915  0.51531601  1
  Hf  Hf4  1  0.00440725  0.39302970  0.39894424  1
  Hf  Hf5  1  0.00058130  0.60357727  0.19501690  1
  Hf  Hf6  1  0.91199113  0.09862520  0.50627372  1
  Hf  Hf7  1  0.09414921  0.70079607  0.50519317  1
  Hf  Hf8  1  0.29023087  0.10286182  0.30277277  1
  Hf  Hf9  1  0.60208108  0.60220547  -0.00710298  1
  Hf  Hf10  1  0.09507963  0.09631194  0.90291911  1
  Hf  Hf11  1  0.19704505  0.80034988  0.40849139  1
  Hf  Hf12  1  0.80152392  0.79804370  0.20176738  1
  Hf  Hf13  1  0.20611888  0.60288472  0.60736456  1
  Hf  Hf14  1  0.29390580  0.49863867  0.09242229  1
  Hf  Hf15  1  0.50202974  0.89678105  0.10583507  1
  Hf  Hf16  1  0.30751850  0.09924360  0.69488226  1
  Hf  Hf17  1  0.09754134  0.90157756  0.90329508  1
  Hf  Hf18  1  0.79927993  0.00349476  0.60578573  1
  Hf  Hf19  1  0.10005131  0.28630476  0.51721137  1
  Hf  Hf20  1  0.70773289  0.29524702  0.90252262  1
  Hf  Hf21  1  0.59297850  0.40526353  0.60508525  1
  Hf  Hf22  1  0.19147946  0.38704398  0.18872384  1
  Hf  Hf23  1  -0.00804736  0.80295118  0.79085362  1
  Hf  Hf24  1  0.49566957  0.50089367  0.29640726  1
  Hf  Hf25  1  0.19486217  0.00043272  0.19223334  1
  Hf  Hf26  1  0.90303635  0.30144719  0.51321779  1
  Hf  Hf27  1  0.89469954  0.49892329  0.51335434  1
  Hf  Hf28  1  0.70323931  0.30456453  0.70284883  1
  Hf  Hf29  1  0.78953840  0.80086683  0.39483624  1
  Hf  Hf30  1  0.59368663  0.60699935  0.59871719  1
  Hf  Hf31  1  0.70500233  0.31159662  0.29370953  1
  Hf  Hf32  1  0.49279594  0.69696287  0.71249511  1
  Hf  Hf33  1  0.01105186  0.39556380  0.80376430  1
  Hf  Hf34  1  0.89481922  0.69545385  0.69538147  1
  Hf  Hf35  1  0.59604026  0.18981192  0.39200083  1
  Hf  Hf36  1  0.20777270  0.39317316  0.61902751  1
  Hf  Hf37  1  0.70819831  0.09288981  0.09276798  1
  Hf  Hf38  1  0.18958196  0.00097295  0.59767424  1
  Hf  Hf39  1  0.70778053  0.50634294  0.70023213  1
  Hf  Hf40  1  0.49637559  0.09602798  0.70584391  1
  Hf  Hf41  1  0.79993023  0.19452708  0.40386144  1
  Hf  Hf42  1  0.29767266  0.69398311  0.88739426  1
  Hf  Hf43  1  0.70739442  0.50115093  0.50439442  1
  Hf  Hf44  1  0.31342361  0.50231996  0.71579016  1
  Hf  Hf45  1  0.80431581  0.18708759  0.79749087  1
  Hf  Hf46  1  0.38985339  0.39498605  0.39968710  1
  Hf  Hf47  1  0.90155106  0.49907706  0.69485238  1
  Hf  Hf48  1  0.69018096  0.70296115  0.71457741  1
  Hf  Hf49  1  0.80953935  0.40498932  0.81494583  1
  Zr  Zr50  1  0.19376821  0.80216923  0.78953627  1
  Zr  Zr51  1  0.90490741  0.30122147  0.69570092  1
  Zr  Zr52  1  0.61621407  0.79798484  0.21852858  1
  Zr  Zr53  1  0.19824583  0.59578186  0.40387829  1
  Zr  Zr54  1  0.80198534  0.61045137  0.81766933  1
  Zr  Zr55  1  -0.00507493  0.39351433  0.18569719  1
  Zr  Zr56  1  0.39940298  0.79625675  -0.00270793  1
  Zr  Zr57  1  0.60305322  0.79823060  -0.00861105  1
  Zr  Zr58  1  0.68739556  0.90673048  0.49213437  1
  Zr  Zr59  1  0.28888837  0.89973576  0.30161377  1
  Zr  Zr60  1  0.40100743  0.79367557  0.59753711  1
  Zr  Zr61  1  0.50407938  0.91068503  0.50458960  1
  Zr  Zr62  1  0.90388164  0.09919573  0.28963935  1
  Zr  Zr63  1  0.60863332  0.59594340  0.20125594  1
  Zr  Zr64  1  0.30160595  0.91600420  0.49830825  1
  Zr  Zr65  1  0.69866861  0.90721294  0.90014385  1
  Zr  Zr66  1  0.90203356  0.90297204  0.29641229  1
  Zr  Zr67  1  0.59692609  0.00549041  0.21318803  1
  Zr  Zr68  1  0.08584337  0.69113935  0.89769951  1
  Zr  Zr69  1  0.31428613  0.90251798  0.69870682  1
  Zr  Zr70  1  0.60418789  0.20331616  0.19425080  1
  Zr  Zr71  1  0.38968558  0.39221148  -0.01174668  1
  Zr  Zr72  1  0.89971734  0.29716285  0.29462905  1
  Zr  Zr73  1  0.11438826  0.50780926  0.90029636  1
  Zr  Zr74  1  0.49656791  0.69326015  0.30842517  1
  Zr  Zr75  1  0.92385423  0.52253938  0.90914529  1
  Zr  Zr76  1  0.89244480  0.49411093  0.29770832  1
  Zr  Zr77  1  0.19695936  0.39060906  0.40003448  1
  Zr  Zr78  1  0.69998329  0.30371949  0.50231774  1
  Zr  Zr79  1  0.19573215  0.00133847  0.79662938  1
  Zr  Zr80  1  0.58794755  0.00142621  -0.00408605  1
  Zr  Zr81  1  0.20255374  0.19946221  0.79621308  1
  Zr  Zr82  1  0.00414118  0.39311598  0.00481051  1
  Zr  Zr83  1  0.29737363  0.50006939  0.29781705  1
  Zr  Zr84  1  0.68661756  0.90656637  0.71095625  1
  Zr  Zr85  1  0.49809027  0.30396632  0.50229586  1
  Zr  Zr86  1  0.41553943  0.01164551  0.38783770  1
  Zr  Zr87  1  0.50250464  0.69865235  0.10463929  1
  Zr  Zr88  1  0.48549891  0.51148009  0.49707979  1
  Zr  Zr89  1  0.39883200  0.00142280  0.19847808  1
  Zr  Zr90  1  0.59967644  0.20039452  -0.00398668  1
  Zr  Zr91  1  0.19300750  0.60961997  0.19479268  1
  Zr  Zr92  1  0.49343885  0.30404155  0.71115265  1
  Zr  Zr93  1  0.60047764  0.39924786  -0.00391006  1
  Zr  Zr94  1  0.90745726  0.90809141  0.90425473  1
  Zr  Zr95  1  0.80431267  0.20577684  0.17945569  1
  Zr  Zr96  1  0.00047249  0.59806794  0.39787851  1
  Zr  Zr97  1  0.49633750  0.30385282  0.29321447  1
  Zr  Zr98  1  0.80373507  0.60155198  0.19743839  1
  Zr  Zr99  1  0.79717024  0.80766369  0.60411530  1
  Ta  Ta100  1  0.39354526  0.60179616  -0.00120849  1
  Ta  Ta101  1  0.00390603  -0.00010460  0.19328195  1
  Ta  Ta102  1  0.79243700  0.19036865  0.60478327  1
  Ta  Ta103  1  0.70959199  0.90343284  0.10241338  1
  Ta  Ta104  1  0.19761583  0.79995474  0.60062451  1
  Ta  Ta105  1  0.39900091  0.20370753  0.60035795  1
  Ta  Ta106  1  0.59188716  0.79897660  0.60281766  1
  Ta  Ta107  1  0.29908029  0.69909444  0.30115831  1
  Ta  Ta108  1  0.70627212  0.70072665  0.09401085  1
  Ta  Ta109  1  0.60179944  0.19388277  0.60625301  1
  Ta  Ta110  1  0.70703221  0.49866954  0.09429638  1
  Ta  Ta111  1  0.39449656  0.39601993  0.19113400  1
  Ta  Ta112  1  0.19872048  0.79778326  0.00336570  1
  Ta  Ta113  1  0.90432283  0.70439599  0.30594132  1
  Ta  Ta114  1  0.49388421  0.49833917  0.09769887  1
  Ta  Ta115  1  0.10149664  0.28699920  0.90529295  1
  Ta  Ta116  1  0.89941051  0.90225936  0.10076601  1
  Ta  Ta117  1  0.60189420  0.40178442  0.18774296  1
  Ta  Ta118  1  0.00112823  0.80938879  0.60209436  1
  Ta  Ta119  1  0.21092632  0.39154341  0.80956472  1
  Ta  Ta120  1  0.29699180  0.29294008  0.51020323  1
  Ta  Ta121  1  -0.00091173  0.80499724  0.40354765  1
  Ta  Ta122  1  0.09937010  0.10217271  0.09449744  1
  Ta  Ta123  1  0.29661286  0.10502018  0.50108022  1
  Ta  Ta124  1  0.81147159  0.39862130  0.00642730  1
  Ta  Ta125  1  0.80427099  0.79588394  -0.00305662  1
  Ta  Ta126  1  0.09834068  0.10170509  0.29599062  1
  Ta  Ta127  1  0.89769307  0.70311338  0.50213920  1
  Ta  Ta128  1  0.39100588  0.60285886  0.19244579  1
  Ta  Ta129  1  0.80160585  0.80305932  0.80965294  1
  Ta  Ta130  1  0.00713474  0.19587401  0.40148572  1
  Ta  Ta131  1  0.90346388  0.90403745  0.50033855  1
  Ta  Ta132  1  0.79930359  0.00089968  0.39808522  1
  Ta  Ta133  1  0.60899407  0.60560623  0.40081999  1
  Ta  Ta134  1  0.49897137  0.10300367  0.50608343  1
  Ta  Ta135  1  0.20118730  0.61470072  0.00721315  1
  Ta  Ta136  1  0.00159937  0.19374158  0.79899464  1
  Ta  Ta137  1  0.29952501  0.89673611  0.89905243  1
  Ta  Ta138  1  0.00719075  0.00088001  0.39980669  1
  Ta  Ta139  1  0.20603684  0.00015709  0.00212534  1
  Ta  Ta140  1  0.39334721  0.79843672  0.20365995  1
  Ta  Ta141  1  0.19829053  0.19818479  0.19014991  1
  Ta  Ta142  1  0.49387916  0.30024056  0.09664471  1
  Ta  Ta143  1  0.29648227  0.89424127  0.09828852  1
  Ta  Ta144  1  0.80887712  0.00324530  0.79457668  1
  Ta  Ta145  1  0.90553844  0.28555986  0.90576656  1
  Ta  Ta146  1  0.39526844  0.20087890  0.40136541  1
  Ta  Ta147  1  0.39285833  0.19509840  -0.00517971  1
  Ta  Ta148  1  0.09864167  0.49366042  0.29298939  1
  Ta  Ta149  1  0.49194733  0.10939515  0.10214811  1
  Ti  Ti150  1  0.31297449  0.68399473  0.49877334  1
  Ti  Ti151  1  0.70483843  0.49549375  0.29828521  1
  Ti  Ti152  1  0.49764279  0.10299170  0.89361116  1
  Ti  Ti153  1  0.29895439  0.29134795  0.09434437  1
  Ti  Ti154  1  0.09852185  0.28815960  0.29409208  1
  Ti  Ti155  1  -0.00074640  -0.00394075  0.78065796  1
  Ti  Ti156  1  0.80210550  0.39866096  0.40406051  1
  Ti  Ti157  1  0.80983226  0.00233416  0.00053813  1
  Ti  Ti158  1  0.00404579  0.80051530  0.19862599  1
  Ti  Ti159  1  0.21009700  0.18998680  -0.00164913  1
  Ti  Ti160  1  0.00330033  0.19975100  0.18218564  1
  Ti  Ti161  1  0.60708578  0.19075356  0.79747317  1
  Ti  Ti162  1  0.50089666  0.69932602  0.88724657  1
  Ti  Ti163  1  0.79800441  0.60547174  0.39978866  1
  Ti  Ti164  1  0.60141342  0.40695826  0.80304701  1
  Ti  Ti165  1  0.70106922  0.70084146  0.50398033  1
  Ti  Ti166  1  0.09938158  0.50493726  0.09166479  1
  Ti  Ti167  1  0.49128358  0.50451542  0.70570467  1
  Ti  Ti168  1  0.09884226  0.89563604  0.09692206  1
  Ti  Ti169  1  0.09373270  0.90487354  0.50083576  1
  Ti  Ti170  1  0.09857950  0.29165325  0.69942312  1
  Ti  Ti171  1  0.90667023  0.09959427  0.90575428  1
  Ti  Ti172  1  0.10246353  0.50660551  0.70984267  1
  Ti  Ti173  1  0.60020384  0.40772188  0.39652027  1
  Ti  Ti174  1  0.80495569  0.60612424  0.00042220  1
  Ti  Ti175  1  0.09195569  0.10604858  0.68420010  1
  Ti  Ti176  1  -0.00166300  0.79507966  0.00505687  1
  Ti  Ti177  1  0.40504421  -0.00669227  0.80895832  1
  Ti  Ti178  1  0.71072802  0.09383121  0.29491586  1
  Ti  Ti179  1  0.70321085  0.09380889  0.89669982  1
  Ti  Ti180  1  0.70057319  0.50397031  0.90158484  1
  Ti  Ti181  1  0.38720653  0.20426520  0.81145677  1
  Ti  Ti182  1  0.19457365  0.19617397  0.40323685  1
  Ti  Ti183  1  0.39225291  0.19995525  0.19679403  1
  Ti  Ti184  1  0.00116056  0.60242831  0.60454432  1
  Ti  Ti185  1  0.49868187  0.29736782  0.89347267  1
  Ti  Ti186  1  0.09967856  0.90175834  0.30156633  1
  Ti  Ti187  1  0.91074691  0.09986473  0.69267758  1
  Ti  Ti188  1  0.30741027  0.49709848  0.51213467  1
  Ti  Ti189  1  0.09822235  0.69635606  0.70062159  1
  Ti  Ti190  1  0.69226250  0.09505107  0.50137683  1
  Ti  Ti191  1  0.09749406  0.70637271  0.30149255  1
  Ti  Ti192  1  0.51682145  0.89395650  0.31434752  1
  Ti  Ti193  1  0.59634190  0.00603432  0.61089847  1
  Ti  Ti194  1  0.19943732  0.38840884  -0.00415479  1
  Ti  Ti195  1  0.29389183  0.29347484  0.29725936  1
  Ti  Ti196  1  0.00008538  0.00264724  0.01228576  1
  Ti  Ti197  1  0.30631357  0.69630429  0.70589255  1
  Ti  Ti198  1  0.19835869  0.79592461  0.19379409  1
  Ti  Ti199  1  0.90409725  0.70231392  0.09490130  1
  Mo  Mo200  1  0.48998060  0.11544168  0.29572786  1
  Mo  Mo201  1  0.60574133  0.01649853  0.39515820  1
  Mo  Mo202  1  0.59905028  0.59642881  0.80414003  1
  Mo  Mo203  1  0.01186702  0.39997860  0.61196497  1
  Mo  Mo204  1  0.29666044  0.10233713  0.09782812  1
  Mo  Mo205  1  0.00181552  0.19452917  0.60352483  1
  Mo  Mo206  1  0.50244668  0.90121847  0.70485558  1
  Mo  Mo207  1  0.39598950  0.39265808  0.80252669  1
  Mo  Mo208  1  0.09761964  0.71532417  0.10149849  1
  Mo  Mo209  1  0.39809345  0.60261899  0.80484433  1
  Mo  Mo210  1  0.79303079  0.39448069  0.60298376  1
  Mo  Mo211  1  0.20333557  0.19614601  0.60284758  1
  Mo  Mo212  1  0.70146919  0.91249577  0.30193851  1
  Mo  Mo213  1  0.59171010  0.80656354  0.80168113  1
  Mo  Mo214  1  0.80540767  0.19330922  -0.00840463  1
  Mo  Mo215  1  -0.00115784  0.19207687  -0.00166843  1
  Mo  Mo216  1  0.49407664  0.89607193  0.88755395  1
  Mo  Mo217  1  0.89676712  0.50541473  0.09539166  1
  Mo  Mo218  1  0.39386614  0.59947828  0.39822285  1
  Mo  Mo219  1  0.29362216  0.29315607  0.90119268  1
  Mo  Mo220  1  0.00090307  -0.00348624  0.59814041  1
  Mo  Mo221  1  0.79679489  0.61016030  0.59325016  1
  Mo  Mo222  1  0.39556031  0.39837928  0.60311632  1
  Mo  Mo223  1  0.50544577  0.69998873  0.50074202  1
  Mo  Mo224  1  0.90161415  0.70875281  0.90722967  1
  Mo  Mo225  1  0.70392849  0.30945369  0.09306557  1
  Mo  Mo226  1  0.19960246  0.59894751  0.79630181  1
  Mo  Mo227  1  0.40097734  0.80380841  0.80201987  1
  Mo  Mo228  1  0.29507945  0.50206449  0.90352700  1
  Mo  Mo229  1  0.89829273  0.90453661  0.69936719  1
  Mo  Mo230  1  0.59143450  0.00660919  0.80575542  1
  Mo  Mo231  1  0.60093194  0.78620992  0.41067187  1
  Mo  Mo232  1  0.69465626  0.10022408  0.70450082  1
  Mo  Mo233  1  0.79493127  0.40163110  0.18213044  1
  Mo  Mo234  1  0.30177633  0.09454624  0.89871527  1
  Mo  Mo235  1  0.90634582  0.09389941  0.09271504  1
  Mo  Mo236  1  0.00450211  0.60413040  0.78381295  1
  Mo  Mo237  1  0.18355252  0.00461351  0.39967913  1
  Mo  Mo238  1  0.80362891  -0.00387461  0.19591758  1
  Mo  Mo239  1  0.30625548  0.29931388  0.70319710  1
  Mo  Mo240  1  0.00585095  0.60796856  0.01996475  1
  Mo  Mo241  1  0.39773064  0.60026671  0.60343424  1
  Mo  Mo242  1  0.10400094  0.28350694  0.08866118  1
  Mo  Mo243  1  0.09434969  0.89930352  0.69079739  1
  Mo  Mo244  1  0.29870978  0.70344521  0.10221809  1
  Mo  Mo245  1  0.70103751  0.70359702  0.90261699  1
  Mo  Mo246  1  0.40366714  0.01135957  0.59641359  1
  Mo  Mo247  1  0.70788249  0.68963137  0.30915044  1
  Mo  Mo248  1  0.10266830  0.09960251  0.49279004  1
  Mo  Mo249  1  0.90099613  0.29025055  0.08719542  1
