# generated using pymatgen
data_HfZrTaTiMo
_symmetry_space_group_name_H-M   'P 1'
_cell_length_a   16.88663751
_cell_length_b   16.88962844
_cell_length_c   16.88604543
_cell_angle_alpha   89.98418694
_cell_angle_beta   90.04489250
_cell_angle_gamma   89.96830961
_symmetry_Int_Tables_number   1
_chemical_formula_structural   HfZrTaTiMo
_chemical_formula_sum   'Hf50 Zr50 Ta50 Ti50 Mo50'
_cell_volume   4816.05029231
_cell_formula_units_Z   50
loop_
 _symmetry_equiv_pos_site_id
 _symmetry_equiv_pos_as_xyz
  1  'x, y, z'
loop_
 _atom_site_type_symbol
 _atom_site_label
 _atom_site_symmetry_multiplicity
 _atom_site_fract_x
 _atom_site_fract_y
 _atom_site_fract_z
 _atom_site_occupancy
  Hf  Hf0  1  0.49077362  0.69868317  0.89631784  1
  Hf  Hf1  1  0.09125986  0.49420423  0.30294404  1
  Hf  Hf2  1  0.70961003  0.90253980  0.09708559  1
  Hf  Hf3  1  0.70058493  0.89458321  0.50405328  1
  Hf  Hf4  1  0.49675043  0.69500493  0.09883023  1
  Hf  Hf5  1  0.50106938  0.09892767  0.49554105  1
  Hf  Hf6  1  0.60232669  0.60409508  0.79669528  1
  Hf  Hf7  1  0.79354251  0.20229235  0.79290099  1
  Hf  Hf8  1  0.39460344  0.19351762  -0.00092740  1
  Hf  Hf9  1  0.10719541  0.69754463  0.49939003  1
  Hf  Hf10  1  0.70129784  0.31367869  0.30560194  1
  Hf  Hf11  1  0.39405099  0.80286633  0.19619740  1
  Hf  Hf12  1  0.20532279  0.79315253  -0.00540198  1
  Hf  Hf13  1  0.10540009  0.90775008  0.89651763  1
  Hf  Hf14  1  0.38782458  0.21234363  0.39417559  1
  Hf  Hf15  1  0.21343415  0.00358266  0.19441539  1
  Hf  Hf16  1  0.70608266  0.10213672  0.09413878  1
  Hf  Hf17  1  0.48210212  0.90591030  0.30795258  1
  Hf  Hf18  1  0.30225138  0.31494467  0.51481801  1
  Hf  Hf19  1  0.80173635  0.40848898  0.18533854  1
  Hf  Hf20  1  0.49728690  0.49428779  0.49595495  1
  Hf  Hf21  1  0.49478900  0.50735313  0.10151905  1
  Hf  Hf22  1  0.11012722  0.49500735  0.51087260  1
  Hf  Hf23  1  0.69560450  0.49056050  0.49202069  1
  Hf  Hf24  1  0.00127573  0.39294651  0.60445794  1
  Hf  Hf25  1  0.59312076  0.60856060  0.39204934  1
  Hf  Hf26  1  0.50077123  0.89747489  0.49898797  1
  Hf  Hf27  1  0.09726048  0.68881972  0.09668120  1
  Hf  Hf28  1  0.39275377  0.39802833  0.80007050  1
  Hf  Hf29  1  0.19510044  0.60591152  0.80550641  1
  Hf  Hf30  1  0.10327754  0.89485622  0.70062883  1
  Hf  Hf31  1  0.30105703  0.89100743  0.70514037  1
  Hf  Hf32  1  0.90588993  0.10908940  0.69427330  1
  Hf  Hf33  1  0.79441980  -0.00210421  0.79466567  1
  Hf  Hf34  1  0.39002718  0.00338767  0.00995843  1
  Hf  Hf35  1  0.49631154  0.30429605  0.69586597  1
  Hf  Hf36  1  0.80870004  0.21347911  0.19535911  1
  Hf  Hf37  1  0.19718055  0.40145422  0.00455991  1
  Hf  Hf38  1  0.89141059  0.49107565  0.30970646  1
  Hf  Hf39  1  -0.01073123  0.58904157  0.19626129  1
  Hf  Hf40  1  0.59229784  0.00483290  0.19360029  1
  Hf  Hf41  1  0.48951666  0.10151865  0.29806850  1
  Hf  Hf42  1  0.50679718  0.09449816  0.69488429  1
  Hf  Hf43  1  0.61116373  0.19698813  0.79323282  1
  Hf  Hf44  1  0.60319989  0.80088342  0.80103812  1
  Hf  Hf45  1  0.50288782  0.30940642  0.49820924  1
  Hf  Hf46  1  0.61185860  -0.00540982  0.80189193  1
  Hf  Hf47  1  0.60065642  0.40660105  0.00547215  1
  Hf  Hf48  1  0.59474829  0.79677454  0.20482439  1
  Hf  Hf49  1  0.39149653  0.00303543  0.59773340  1
  Zr  Zr50  1  0.30306002  0.88968712  0.48459561  1
  Zr  Zr51  1  0.30311087  0.51018127  0.90150830  1
  Zr  Zr52  1  0.70427390  0.49773506  0.89671955  1
  Zr  Zr53  1  0.21229397  0.58628195  0.40103857  1
  Zr  Zr54  1  0.89595419  0.70585090  0.69784140  1
  Zr  Zr55  1  -0.00297579  0.39107671  0.18805980  1
  Zr  Zr56  1  0.00098448  0.39685844  0.80382572  1
  Zr  Zr57  1  0.00432770  0.00535599  0.20299719  1
  Zr  Zr58  1  -0.00340688  0.00177875  0.79763071  1
  Zr  Zr59  1  0.71003968  0.11079968  0.29816317  1
  Zr  Zr60  1  0.20649322  0.79422147  0.19659212  1
  Zr  Zr61  1  0.00177821  0.79203518  0.40513093  1
  Zr  Zr62  1  0.20329514  0.58386499  0.19495528  1
  Zr  Zr63  1  0.09904798  0.69620950  0.69546855  1
  Zr  Zr64  1  0.70226467  0.71046523  0.50187449  1
  Zr  Zr65  1  -0.00304401  0.00599168  0.00891006  1
  Zr  Zr66  1  0.70202697  0.09966415  0.50698767  1
  Zr  Zr67  1  0.28123464  0.09991778  0.88133306  1
  Zr  Zr68  1  0.20371627  0.00345894  0.59967336  1
  Zr  Zr69  1  0.89960146  0.88751233  0.30250255  1
  Zr  Zr70  1  0.82224735  0.00350721  0.19244432  1
  Zr  Zr71  1  0.49909818  0.09739951  0.89662505  1
  Zr  Zr72  1  0.10110683  0.89782243  0.10023811  1
  Zr  Zr73  1  0.49728175  0.30099807  0.10446691  1
  Zr  Zr74  1  0.60022115  0.80645135  -0.00225184  1
  Zr  Zr75  1  0.11457974  0.10324130  0.71472368  1
  Zr  Zr76  1  0.71168331  0.88714164  0.29923931  1
  Zr  Zr77  1  0.59369518  0.60853787  0.60215370  1
  Zr  Zr78  1  -0.00180614  0.79275094  -0.00497841  1
  Zr  Zr79  1  0.70556188  0.30312431  0.90288417  1
  Zr  Zr80  1  0.20444620  0.39043947  0.39158625  1
  Zr  Zr81  1  0.11450755  0.89199452  0.30995734  1
  Zr  Zr82  1  0.00075038  0.38371031  0.41953332  1
  Zr  Zr83  1  0.29860971  0.29710539  0.09873826  1
  Zr  Zr84  1  0.00265625  0.20007710  0.19334254  1
  Zr  Zr85  1  0.88905865  0.69374471  0.09790270  1
  Zr  Zr86  1  0.80164095  0.59551320  0.59850974  1
  Zr  Zr87  1  0.50154147  0.89243963  0.69518132  1
  Zr  Zr88  1  0.60513481  0.00097868  0.39334186  1
  Zr  Zr89  1  0.89024051  0.90126873  0.90564870  1
  Zr  Zr90  1  0.00618926  0.00366738  0.40526729  1
  Zr  Zr91  1  0.40150831  0.60044732  0.59408660  1
  Zr  Zr92  1  0.49984314  0.30863583  0.29607479  1
  Zr  Zr93  1  0.89052453  0.69555829  0.29983419  1
  Zr  Zr94  1  0.49913821  0.30023243  0.89726617  1
  Zr  Zr95  1  0.90818553  0.11555810  0.50532739  1
  Zr  Zr96  1  0.39189350  0.19776933  0.60474344  1
  Zr  Zr97  1  0.29790242  0.49663211  0.69779314  1
  Zr  Zr98  1  0.81125882  0.00420899  0.40318088  1
  Zr  Zr99  1  0.89574446  0.11218577  0.90567779  1
  Ta  Ta100  1  0.49918998  0.49869028  0.70487603  1
  Ta  Ta101  1  0.00872215  0.20823082  0.80433442  1
  Ta  Ta102  1  0.38768089  0.41216877  0.39236762  1
  Ta  Ta103  1  0.80851825  -0.00531217  0.60890935  1
  Ta  Ta104  1  -0.00586704  0.59941600  0.80428644  1
  Ta  Ta105  1  0.19614437  0.39392168  0.19777396  1
  Ta  Ta106  1  0.30436622  0.69797303  0.30542341  1
  Ta  Ta107  1  0.20004358  0.79090208  0.80646325  1
  Ta  Ta108  1  0.79883358  0.59827879  0.40234035  1
  Ta  Ta109  1  0.70301606  0.69623448  0.10289265  1
  Ta  Ta110  1  0.38398512  0.40905769  0.20166263  1
  Ta  Ta111  1  0.30800877  0.68642382  0.09038560  1
  Ta  Ta112  1  0.00228274  -0.00378663  0.59837650  1
  Ta  Ta113  1  0.39437508  -0.00025876  0.79525117  1
  Ta  Ta114  1  0.39533180  0.40686485  0.00150974  1
  Ta  Ta115  1  0.20337654  0.00569337  0.00195197  1
  Ta  Ta116  1  0.59014884  0.79080029  0.39444403  1
  Ta  Ta117  1  0.00046494  0.79354737  0.80461547  1
  Ta  Ta118  1  0.09913745  0.50018765  0.70554586  1
  Ta  Ta119  1  0.19946376  0.20161587  0.20230075  1
  Ta  Ta120  1  0.59934990  0.19991429  0.19719216  1
  Ta  Ta121  1  0.89873620  0.30049976  0.31488428  1
  Ta  Ta122  1  0.60943395  0.20449204  0.60201465  1
  Ta  Ta123  1  0.49708746  0.50551047  0.89833040  1
  Ta  Ta124  1  0.10487059  0.11156639  0.50194428  1
  Ta  Ta125  1  0.89719108  0.30023858  0.70196495  1
  Ta  Ta126  1  0.49872992  0.50198584  0.29672100  1
  Ta  Ta127  1  0.69660606  0.30715508  0.49773650  1
  Ta  Ta128  1  0.60189242  0.20614206  0.39928456  1
  Ta  Ta129  1  0.71069826  0.70107804  0.90237605  1
  Ta  Ta130  1  0.70497591  0.49480380  0.70248422  1
  Ta  Ta131  1  0.10062370  0.69198701  0.30208737  1
  Ta  Ta132  1  0.20953765  0.79135786  0.59850820  1
  Ta  Ta133  1  0.31174409  0.70218429  0.70743169  1
  Ta  Ta134  1  0.69894862  0.50249315  0.29941260  1
  Ta  Ta135  1  0.59690043  0.19428174  0.00636059  1
  Ta  Ta136  1  -0.00121781  0.79524714  0.19780082  1
  Ta  Ta137  1  0.10649406  0.89503027  0.50375015  1
  Ta  Ta138  1  0.80185891  0.59920831  0.80012412  1
  Ta  Ta139  1  0.19399817  0.19849190  -0.00144124  1
  Ta  Ta140  1  0.49035999  0.90182095  0.89801434  1
  Ta  Ta141  1  0.39436537  0.80539302  0.00125295  1
  Ta  Ta142  1  0.70279116  0.70754206  0.69953497  1
  Ta  Ta143  1  0.89768219  0.49626832  0.70405559  1
  Ta  Ta144  1  0.09686351  0.50048659  0.90097953  1
  Ta  Ta145  1  -0.00573372  0.59481207  0.41144137  1
  Ta  Ta146  1  -0.00383749  0.59203032  0.59912279  1
  Ta  Ta147  1  0.60504759  0.60181585  -0.00071614  1
  Ta  Ta148  1  0.89808467  0.89036301  0.50912156  1
  Ta  Ta149  1  0.30724991  0.69865924  0.49331532  1
  Ti  Ti150  1  0.31164565  0.69765148  0.89774421  1
  Ti  Ti151  1  0.38719729  0.19913592  0.79065042  1
  Ti  Ti152  1  0.20823571  0.60164069  0.60107599  1
  Ti  Ti153  1  0.59611439  0.00019789  -0.00064352  1
  Ti  Ti154  1  0.79732008  0.80724121  0.79851262  1
  Ti  Ti155  1  0.60467240  0.39962229  0.60884875  1
  Ti  Ti156  1  0.71046277  0.69969746  0.29528872  1
  Ti  Ti157  1  0.30383585  0.89970354  0.30857095  1
  Ti  Ti158  1  0.80070464  0.40588348  0.00528774  1
  Ti  Ti159  1  0.20241096  0.00599702  0.40253335  1
  Ti  Ti160  1  0.19451340  0.39023069  0.61751357  1
  Ti  Ti161  1  0.80197750  0.21284104  0.41080069  1
  Ti  Ti162  1  0.70736104  0.09576793  0.91424951  1
  Ti  Ti163  1  0.60322250  0.40002511  0.79587148  1
  Ti  Ti164  1  0.79997711  0.39197522  0.60203994  1
  Ti  Ti165  1  0.08759209  0.49337795  0.08819312  1
  Ti  Ti166  1  0.90562465  0.30236077  0.07618271  1
  Ti  Ti167  1  0.79779091  0.80197995  -0.00028448  1
  Ti  Ti168  1  0.89461096  0.49150823  0.50220971  1
  Ti  Ti169  1  0.89158745  0.69672848  0.89801083  1
  Ti  Ti170  1  0.01355650  0.21436284  0.60055455  1
  Ti  Ti171  1  0.29375986  0.10659670  0.49515791  1
  Ti  Ti172  1  0.89744878  0.49338834  0.90068965  1
  Ti  Ti173  1  0.40797794  0.78752994  0.59654866  1
  Ti  Ti174  1  0.89568997  0.30255765  0.90187579  1
  Ti  Ti175  1  0.09417367  0.29165861  0.30185658  1
  Ti  Ti176  1  0.89598980  0.70332752  0.50336852  1
  Ti  Ti177  1  0.19835788  0.59839439  -0.00204044  1
  Ti  Ti178  1  0.60533254  0.60200351  0.20157270  1
  Ti  Ti179  1  0.10572777  0.30484824  0.89976113  1
  Ti  Ti180  1  0.79124237  0.20898185  0.60531580  1
  Ti  Ti181  1  0.69838952  0.29848111  0.09692263  1
  Ti  Ti182  1  0.10389308  0.10696996  0.30869559  1
  Ti  Ti183  1  0.10585017  0.10515495  0.09727641  1
  Ti  Ti184  1  0.20376651  0.20620761  0.61378470  1
  Ti  Ti185  1  0.69971674  0.89297428  0.68504799  1
  Ti  Ti186  1  0.60481761  0.40812861  0.19557789  1
  Ti  Ti187  1  0.01359555  0.20725297  -0.00622467  1
  Ti  Ti188  1  0.00020290  0.80197389  0.60234040  1
  Ti  Ti189  1  0.19966409  0.20774185  0.39943791  1
  Ti  Ti190  1  0.49197196  0.90617449  0.10053087  1
  Ti  Ti191  1  0.39332623  0.59632634  0.20721586  1
  Ti  Ti192  1  0.29237718  0.30113207  0.89596542  1
  Ti  Ti193  1  0.91019064  0.11906891  0.31134904  1
  Ti  Ti194  1  0.39286671  0.19048321  0.19332497  1
  Ti  Ti195  1  -0.00738454  0.59338175  -0.00974541  1
  Ti  Ti196  1  0.30086788  0.09873461  0.30132965  1
  Ti  Ti197  1  0.89338765  0.11585553  0.08254355  1
  Ti  Ti198  1  0.79633588  0.58978118  0.00346239  1
  Ti  Ti199  1  0.30092483  0.90006648  0.89538264  1
  Mo  Mo200  1  0.30074855  0.49947165  0.29456102  1
  Mo  Mo201  1  0.90469384  0.89679304  0.69809404  1
  Mo  Mo202  1  0.29408369  0.10403720  0.10370081  1
  Mo  Mo203  1  0.10254617  0.29579382  0.09587017  1
  Mo  Mo204  1  0.79407937  0.21066127  0.00001791  1
  Mo  Mo205  1  0.49198123  0.69409844  0.29491453  1
  Mo  Mo206  1  0.40506126  0.60216606  0.79538510  1
  Mo  Mo207  1  0.40272903  0.59787768  0.39388623  1
  Mo  Mo208  1  0.60982504  0.00045759  0.60310885  1
  Mo  Mo209  1  0.80387402  0.80477171  0.60549399  1
  Mo  Mo210  1  0.88850298  0.29673287  0.51111887  1
  Mo  Mo211  1  0.29989090  0.10219493  0.70427298  1
  Mo  Mo212  1  0.39212827  0.00009426  0.19965796  1
  Mo  Mo213  1  0.70028102  0.30876789  0.69396413  1
  Mo  Mo214  1  0.30047755  0.89887320  0.09056963  1
  Mo  Mo215  1  0.19523843  0.40425806  0.80569321  1
  Mo  Mo216  1  0.29722461  0.29754881  0.29105989  1
  Mo  Mo217  1  0.79917212  0.00157356  -0.00168357  1
  Mo  Mo218  1  0.30197592  0.49819981  0.50494932  1
  Mo  Mo219  1  0.39709395  0.80116640  0.80749019  1
  Mo  Mo220  1  0.09340025  0.69242858  0.89996124  1
  Mo  Mo221  1  0.80011337  0.79187990  0.40828209  1
  Mo  Mo222  1  0.38432637  0.01473775  0.40089423  1
  Mo  Mo223  1  0.59639199  0.40341953  0.38984508  1
  Mo  Mo224  1  0.11587437  0.29046427  0.51092593  1
  Mo  Mo225  1  0.49609621  0.70515761  0.49341169  1
  Mo  Mo226  1  0.00916828  0.20388307  0.40445452  1
  Mo  Mo227  1  0.50052066  0.10042967  0.10217453  1
  Mo  Mo228  1  0.40236531  0.40399084  0.60404588  1
  Mo  Mo229  1  0.29433308  0.30007660  0.70785130  1
  Mo  Mo230  1  0.19645774  0.22178844  0.80226147  1
  Mo  Mo231  1  0.20371563  -0.01594871  0.80290916  1
  Mo  Mo232  1  0.69793377  0.50910068  0.10189110  1
  Mo  Mo233  1  0.30045564  0.50108024  0.09765628  1
  Mo  Mo234  1  0.40354560  0.78627788  0.39450584  1
  Mo  Mo235  1  0.50003557  0.70027245  0.69965851  1
  Mo  Mo236  1  0.89793428  0.88759235  0.10297848  1
  Mo  Mo237  1  0.59566135  0.79878396  0.60174878  1
  Mo  Mo238  1  0.80098073  0.79501751  0.18974973  1
  Mo  Mo239  1  0.79925652  0.40115384  0.40716059  1
  Mo  Mo240  1  -0.00060215  0.39798575  -0.00719729  1
  Mo  Mo241  1  0.70256157  0.09420781  0.68951699  1
  Mo  Mo242  1  0.89747851  0.49891348  0.08286014  1
  Mo  Mo243  1  0.40338568  0.60087117  -0.00132173  1
  Mo  Mo244  1  0.80685206  0.40119934  0.79502461  1
  Mo  Mo245  1  0.79103802  0.59483121  0.20175806  1
  Mo  Mo246  1  0.10003755  0.10752904  0.90572403  1
  Mo  Mo247  1  0.10071538  0.30128431  0.70558585  1
  Mo  Mo248  1  0.69887620  0.89783456  0.90715911  1
  Mo  Mo249  1  0.20405588  0.78960549  0.39963586  1
