# generated using pymatgen
data_HfZrTaTiMo
_symmetry_space_group_name_H-M   'P 1'
_cell_length_a   16.88937319
_cell_length_b   16.89584253
_cell_length_c   16.89905065
_cell_angle_alpha   89.95678039
_cell_angle_beta   89.99823000
_cell_angle_gamma   89.96674556
_symmetry_Int_Tables_number   1
_chemical_formula_structural   HfZrTaTiMo
_chemical_formula_sum   'Hf50 Zr50 Ta50 Ti50 Mo50'
_cell_volume   4822.31411420
_cell_formula_units_Z   50
loop_
 _symmetry_equiv_pos_site_id
 _symmetry_equiv_pos_as_xyz
  1  'x, y, z'
loop_
 _atom_site_type_symbol
 _atom_site_label
 _atom_site_symmetry_multiplicity
 _atom_site_fract_x
 _atom_site_fract_y
 _atom_site_fract_z
 _atom_site_occupancy
  Hf  Hf0  1  0.78982811  0.79722543  0.79042099  1
  Hf  Hf1  1  0.59606715  0.20625299  0.19337730  1
  Hf  Hf2  1  0.59734240  0.80497306  0.39283909  1
  Hf  Hf3  1  0.70356932  0.30745381  0.50184441  1
  Hf  Hf4  1  0.09399005  0.90157259  0.49633684  1
  Hf  Hf5  1  0.21851667  0.40430408  0.19855654  1
  Hf  Hf6  1  -0.01015249  0.40187751  0.00906595  1
  Hf  Hf7  1  0.59346168  0.00019104  0.19883926  1
  Hf  Hf8  1  0.29212105  0.90251668  0.50296127  1
  Hf  Hf9  1  0.00340748  0.00820494  0.79562284  1
  Hf  Hf10  1  0.10396098  0.89877619  0.90634187  1
  Hf  Hf11  1  0.50106285  0.50101883  0.89597989  1
  Hf  Hf12  1  0.90559309  0.09469573  0.49234264  1
  Hf  Hf13  1  0.09142191  0.50684333  0.50567528  1
  Hf  Hf14  1  0.29575454  0.90540962  0.30399107  1
  Hf  Hf15  1  0.60167667  -0.00484953  0.40092428  1
  Hf  Hf16  1  0.60324182  -0.00080240  -0.00312608  1
  Hf  Hf17  1  0.89467119  0.50140150  0.29763146  1
  Hf  Hf18  1  0.71629360  0.09336718  0.10431058  1
  Hf  Hf19  1  0.89759498  0.90438964  0.30040039  1
  Hf  Hf20  1  0.19655763  0.19934685  0.20645051  1
  Hf  Hf21  1  0.30373927  0.89755269  0.70168504  1
  Hf  Hf22  1  0.70439001  0.10869017  0.30075103  1
  Hf  Hf23  1  0.70302034  0.69399810  0.29153025  1
  Hf  Hf24  1  0.90259367  0.30181574  0.70058612  1
  Hf  Hf25  1  0.89275689  0.90959418  0.89261112  1
  Hf  Hf26  1  0.79814407  0.60326076  0.79527802  1
  Hf  Hf27  1  0.70309448  0.29976022  0.09596907  1
  Hf  Hf28  1  0.40308226  0.00167650  0.40822251  1
  Hf  Hf29  1  -0.00183571  0.79777470  0.20199527  1
  Hf  Hf30  1  0.90704994  0.89862791  0.49806145  1
  Hf  Hf31  1  0.10198846  0.50534226  0.89960784  1
  Hf  Hf32  1  0.30405987  0.49445521  0.71389715  1
  Hf  Hf33  1  0.40325646  0.00428727  0.19622276  1
  Hf  Hf34  1  0.29096845  0.89545516  0.09154134  1
  Hf  Hf35  1  0.19825819  0.00676239  0.80478190  1
  Hf  Hf36  1  0.20712309  0.20129655  0.40531211  1
  Hf  Hf37  1  0.70596099  0.30474983  0.69381975  1
  Hf  Hf38  1  0.69547797  0.09251146  0.70013370  1
  Hf  Hf39  1  0.38889817  0.56992066  0.20193118  1
  Hf  Hf40  1  0.19765774  0.60940891  0.60909454  1
  Hf  Hf41  1  -0.00602034  0.60903700  0.19719846  1
  Hf  Hf42  1  0.51178886  0.89824227  0.51985920  1
  Hf  Hf43  1  -0.00011276  0.61164354  0.78836064  1
  Hf  Hf44  1  0.18999924  0.78880794  0.39676847  1
  Hf  Hf45  1  0.60193016  0.40074160  0.79810828  1
  Hf  Hf46  1  0.70435600  0.30058217  0.90385470  1
  Hf  Hf47  1  0.90213601  0.69611106  0.49612358  1
  Hf  Hf48  1  0.89548797  0.29594535  0.28857918  1
  Hf  Hf49  1  0.89374182  0.10279446  0.28512357  1
  Zr  Zr50  1  0.80850897  0.60525983  0.60345228  1
  Zr  Zr51  1  0.20211310  0.59978417  0.20607188  1
  Zr  Zr52  1  0.00636199  0.00591428  0.19361629  1
  Zr  Zr53  1  0.50273946  0.68889339  0.28434023  1
  Zr  Zr54  1  0.10246767  0.49619859  0.70442718  1
  Zr  Zr55  1  0.20069105  0.39049434  0.60102339  1
  Zr  Zr56  1  0.69656593  0.69142451  0.49850543  1
  Zr  Zr57  1  0.89949276  0.30080385  0.90265700  1
  Zr  Zr58  1  0.30915312  0.10709913  0.70631934  1
  Zr  Zr59  1  0.50361215  0.90309395  0.70646424  1
  Zr  Zr60  1  0.40258382  -0.00097300  -0.00515384  1
  Zr  Zr61  1  -0.00557673  0.80333346  0.00246612  1
  Zr  Zr62  1  0.39890234  0.58974971  0.39827991  1
  Zr  Zr63  1  0.40916557  0.80223276  0.39696351  1
  Zr  Zr64  1  0.69204095  0.69553587  0.09852299  1
  Zr  Zr65  1  0.59227743  0.58484307  0.39547508  1
  Zr  Zr66  1  0.80163743  0.40484731  0.18593812  1
  Zr  Zr67  1  0.88526756  0.91884539  0.10067536  1
  Zr  Zr68  1  0.70550526  0.49775501  0.49693309  1
  Zr  Zr69  1  0.20505308  0.39126559  0.39777528  1
  Zr  Zr70  1  0.80486636  0.19127351  0.59689993  1
  Zr  Zr71  1  0.29575880  0.70145318  0.09453559  1
  Zr  Zr72  1  0.19792189  0.00727273  0.19738990  1
  Zr  Zr73  1  0.59200128  0.81254801  -0.00746066  1
  Zr  Zr74  1  0.49942666  0.69377069  0.10081814  1
  Zr  Zr75  1  0.39490884  0.59199966  0.00134580  1
  Zr  Zr76  1  0.18840359  0.79764755  0.20902434  1
  Zr  Zr77  1  0.39928304  0.40194721  0.01318507  1
  Zr  Zr78  1  0.50037860  0.10766324  0.30939357  1
  Zr  Zr79  1  0.69149466  0.90409291  0.69757036  1
  Zr  Zr80  1  0.50257032  0.30270897  0.90274899  1
  Zr  Zr81  1  -0.00881965  0.39900766  0.40494255  1
  Zr  Zr82  1  0.09265782  0.49144758  0.29575205  1
  Zr  Zr83  1  0.30628152  0.30241943  0.70993152  1
  Zr  Zr84  1  0.19601486  0.00762240  0.60246326  1
  Zr  Zr85  1  0.29744548  0.29211211  0.09468511  1
  Zr  Zr86  1  0.89394173  0.70130726  0.90149553  1
  Zr  Zr87  1  0.40587088  0.20099016  0.19409558  1
  Zr  Zr88  1  0.30133421  0.70305969  0.50497798  1
  Zr  Zr89  1  0.10362124  0.29812772  0.90069813  1
  Zr  Zr90  1  0.30023078  0.49596084  0.50514596  1
  Zr  Zr91  1  0.00282568  0.20037109  0.39395992  1
  Zr  Zr92  1  0.70094134  0.49642135  0.69083883  1
  Zr  Zr93  1  0.79595229  0.80028174  0.39817078  1
  Zr  Zr94  1  0.09873539  0.50141913  0.09708890  1
  Zr  Zr95  1  0.08854328  0.29551260  0.50904997  1
  Zr  Zr96  1  0.80319213  0.18694412  0.80150452  1
  Zr  Zr97  1  0.78475273  0.81025100  -0.00672905  1
  Zr  Zr98  1  0.20513823  0.19602972  0.59750295  1
  Zr  Zr99  1  0.49881221  0.70227793  0.70530646  1
  Ta  Ta100  1  0.70430417  0.50438156  0.90557153  1
  Ta  Ta101  1  0.40797822  0.20087757  0.80557256  1
  Ta  Ta102  1  0.59752779  0.20611317  0.60154924  1
  Ta  Ta103  1  0.80333412  -0.00196807  0.59891313  1
  Ta  Ta104  1  0.19981927  0.80132454  0.80079855  1
  Ta  Ta105  1  0.80196619  0.79860665  0.60434689  1
  Ta  Ta106  1  0.90610852  0.49881114  0.69530717  1
  Ta  Ta107  1  0.60139704  0.19802960  0.80073178  1
  Ta  Ta108  1  0.51626575  0.48914835  0.11547643  1
  Ta  Ta109  1  0.50311080  0.09968543  0.89524777  1
  Ta  Ta110  1  0.39939900  0.20589010  0.41081234  1
  Ta  Ta111  1  0.00305652  0.18605383  0.61342365  1
  Ta  Ta112  1  0.68856414  0.69582787  0.89749950  1
  Ta  Ta113  1  0.41072436  0.19524890  0.00112733  1
  Ta  Ta114  1  0.39826367  0.80529800  -0.01101687  1
  Ta  Ta115  1  0.50319054  0.10750332  0.50839620  1
  Ta  Ta116  1  0.89867232  0.50463894  0.89883008  1
  Ta  Ta117  1  0.79713823  0.59552846  0.19182037  1
  Ta  Ta118  1  0.49993453  0.69998142  0.89709851  1
  Ta  Ta119  1  0.29941121  0.29956546  0.89662043  1
  Ta  Ta120  1  0.20249317  0.40228654  -0.00003383  1
  Ta  Ta121  1  0.00402553  0.80069050  0.79343063  1
  Ta  Ta122  1  0.59825240  0.21159627  0.40636048  1
  Ta  Ta123  1  0.49456638  0.49722006  0.70109126  1
  Ta  Ta124  1  0.10585299  0.70069279  0.90301841  1
  Ta  Ta125  1  -0.00088752  0.40073017  0.80144412  1
  Ta  Ta126  1  0.49675222  0.30007531  0.70028313  1
  Ta  Ta127  1  0.80490870  0.19029447  -0.00073200  1
  Ta  Ta128  1  0.19497595  0.60128747  0.39432246  1
  Ta  Ta129  1  0.58684370  0.40184981  0.59446931  1
  Ta  Ta130  1  0.10413065  0.89922236  0.09102627  1
  Ta  Ta131  1  0.29987762  0.10046564  0.30922683  1
  Ta  Ta132  1  0.89877796  0.90213823  0.69888405  1
  Ta  Ta133  1  0.60207071  0.60072342  0.79516455  1
  Ta  Ta134  1  0.40140626  0.00857262  0.59907192  1
  Ta  Ta135  1  0.59717926  0.81312182  0.20112842  1
  Ta  Ta136  1  0.50480072  0.69237169  0.51003772  1
  Ta  Ta137  1  -0.00030100  0.79286698  0.61131305  1
  Ta  Ta138  1  0.30061429  0.11036067  0.90077108  1
  Ta  Ta139  1  0.10441372  0.70213622  0.08664838  1
  Ta  Ta140  1  0.50400816  0.10056911  0.70084452  1
  Ta  Ta141  1  0.40350929  0.59669705  0.60428534  1
  Ta  Ta142  1  0.00018913  0.00301312  0.60727594  1
  Ta  Ta143  1  0.88440978  0.70482549  0.10189891  1
  Ta  Ta144  1  0.30452584  0.70402587  0.70847556  1
  Ta  Ta145  1  -0.00317563  0.60431267  0.39558783  1
  Ta  Ta146  1  0.29627603  0.70311609  0.89968321  1
  Ta  Ta147  1  -0.00729104  0.60434846  0.00170356  1
  Ta  Ta148  1  0.00559830  0.19011523  0.80010419  1
  Ta  Ta149  1  0.79415978  0.00024422  0.40399950  1
  Ti  Ti150  1  0.39875399  0.60208355  0.80374304  1
  Ti  Ti151  1  0.49453462  0.89759116  0.09993105  1
  Ti  Ti152  1  0.09402833  0.29842097  0.10322035  1
  Ti  Ti153  1  0.00170196  0.78832528  0.38780645  1
  Ti  Ti154  1  0.90495503  0.27873146  0.10735765  1
  Ti  Ti155  1  0.80354295  0.41205096  0.00365870  1
  Ti  Ti156  1  0.10302863  0.29534266  0.71102605  1
  Ti  Ti157  1  0.40168176  -0.00039397  0.80776384  1
  Ti  Ti158  1  0.70614863  0.90383017  0.10738674  1
  Ti  Ti159  1  0.29325735  0.49564447  0.89635867  1
  Ti  Ti160  1  0.40040143  0.79775443  0.60193550  1
  Ti  Ti161  1  0.60415365  0.40264823  0.00627769  1
  Ti  Ti162  1  0.09679724  0.09091597  0.49206575  1
  Ti  Ti163  1  0.09167639  0.69697870  0.50406844  1
  Ti  Ti164  1  0.30499126  0.69943690  0.29942413  1
  Ti  Ti165  1  0.89674457  0.30028628  0.50686808  1
  Ti  Ti166  1  0.79741476  0.20321504  0.40288439  1
  Ti  Ti167  1  0.19201634  0.79518999  0.60879367  1
  Ti  Ti168  1  0.10081797  0.09473928  0.30874130  1
  Ti  Ti169  1  0.31468966  0.30068793  0.30103679  1
  Ti  Ti170  1  0.29882779  0.10258871  0.09506877  1
  Ti  Ti171  1  0.09623514  0.91353624  0.31256417  1
  Ti  Ti172  1  0.60030512  0.19119218  -0.00011849  1
  Ti  Ti173  1  0.70285506  0.30295115  0.29990842  1
  Ti  Ti174  1  0.80522001  0.40711645  0.80154475  1
  Ti  Ti175  1  0.00257053  0.00999473  -0.00140319  1
  Ti  Ti176  1  0.69973427  0.90183767  0.51013713  1
  Ti  Ti177  1  0.20202651  0.60943938  0.80076595  1
  Ti  Ti178  1  0.60294943  -0.00123831  0.81273073  1
  Ti  Ti179  1  0.19642076  0.19540028  -0.00371259  1
  Ti  Ti180  1  0.50099670  0.30920033  0.29641896  1
  Ti  Ti181  1  0.08674231  0.30458483  0.28248080  1
  Ti  Ti182  1  0.70843415  0.90389934  0.28916895  1
  Ti  Ti183  1  0.40333072  0.39764828  0.59670784  1
  Ti  Ti184  1  0.40314257  0.80634882  0.20173480  1
  Ti  Ti185  1  0.60083574  0.59149890  0.00076844  1
  Ti  Ti186  1  0.59218148  0.39896397  0.39920857  1
  Ti  Ti187  1  -0.00249155  0.19026808  -0.00252799  1
  Ti  Ti188  1  0.09682804  0.10761018  0.09514062  1
  Ti  Ti189  1  0.39940505  0.80844617  0.81354134  1
  Ti  Ti190  1  0.49612364  0.30000764  0.50373304  1
  Ti  Ti191  1  0.19941865  0.00813683  -0.00480723  1
  Ti  Ti192  1  0.61129786  0.78371335  0.60916164  1
  Ti  Ti193  1  0.89500136  0.09182433  0.90204637  1
  Ti  Ti194  1  0.80381684  0.40260069  0.40239590  1
  Ti  Ti195  1  -0.00534309  0.40060337  0.60262587  1
  Ti  Ti196  1  0.09945578  0.89950583  0.69966056  1
  Ti  Ti197  1  0.69403937  0.09997688  0.50188054  1
  Ti  Ti198  1  0.69642067  0.49410171  0.29373226  1
  Ti  Ti199  1  0.40512066  0.40001342  0.40029725  1
  Mo  Mo200  1  0.58954899  0.59374034  0.60352273  1
  Mo  Mo201  1  0.31022315  0.10218605  0.50063357  1
  Mo  Mo202  1  0.40742025  0.39411505  0.20565688  1
  Mo  Mo203  1  0.59796736  0.79491579  0.80460868  1
  Mo  Mo204  1  0.79988909  -0.00271886  0.79655199  1
  Mo  Mo205  1  0.10153870  0.10246035  0.90790088  1
  Mo  Mo206  1  0.30060325  0.49102490  0.31280092  1
  Mo  Mo207  1  0.60554929  0.39426475  0.20701471  1
  Mo  Mo208  1  0.69521471  0.69749789  0.70167009  1
  Mo  Mo209  1  0.80536966  0.59534586  0.38796966  1
  Mo  Mo210  1  0.20178804  0.79920187  -0.00790380  1
  Mo  Mo211  1  0.51043922  0.30080670  0.09661941  1
  Mo  Mo212  1  0.79362011  0.80153116  0.19688621  1
  Mo  Mo213  1  0.19796956  0.59980059  -0.00926442  1
  Mo  Mo214  1  0.19855899  0.39579404  0.80971331  1
  Mo  Mo215  1  0.49762224  0.90159774  0.89398364  1
  Mo  Mo216  1  0.50107865  0.48096916  0.29939502  1
  Mo  Mo217  1  0.19822830  0.00766631  0.40214401  1
  Mo  Mo218  1  -0.00474572  0.39345619  0.18799421  1
  Mo  Mo219  1  0.69784860  0.49820004  0.09222717  1
  Mo  Mo220  1  0.69819548  0.10020373  0.89979845  1
  Mo  Mo221  1  0.89522382  0.51600553  0.09219140  1
  Mo  Mo222  1  0.31721257  0.29811164  0.50242487  1
  Mo  Mo223  1  0.20127041  0.20015610  0.80681993  1
  Mo  Mo224  1  0.60188644  0.01366526  0.59479948  1
  Mo  Mo225  1  0.29332580  0.49500539  0.09038847  1
  Mo  Mo226  1  0.40040622  0.39940408  0.80516947  1
  Mo  Mo227  1  0.69725864  0.90480905  0.88917817  1
  Mo  Mo228  1  0.49764217  0.49383102  0.50581013  1
  Mo  Mo229  1  0.40951813  0.20280597  0.60217618  1
  Mo  Mo230  1  0.90093620  0.09226034  0.69969575  1
  Mo  Mo231  1  0.79749670  0.20434865  0.19370112  1
  Mo  Mo232  1  0.49795683  0.90071471  0.29280812  1
  Mo  Mo233  1  0.10619789  0.70831920  0.70485958  1
  Mo  Mo234  1  0.60932347  0.58173988  0.19922494  1
  Mo  Mo235  1  0.79669062  0.59863783  -0.00209076  1
  Mo  Mo236  1  0.90355258  0.10466762  0.09012446  1
  Mo  Mo237  1  0.50592577  0.10218064  0.08893476  1
  Mo  Mo238  1  0.10096993  0.10436190  0.70575105  1
  Mo  Mo239  1  0.29889555  0.90196314  0.89643547  1
  Mo  Mo240  1  0.90159512  0.50135028  0.49991023  1
  Mo  Mo241  1  0.79125794  0.00608943  -0.01599179  1
  Mo  Mo242  1  0.79779322  0.00139205  0.20834778  1
  Mo  Mo243  1  0.81750701  0.40284347  0.59317327  1
  Mo  Mo244  1  0.00869860  0.19857981  0.19254539  1
  Mo  Mo245  1  0.09191315  0.69394691  0.30388415  1
  Mo  Mo246  1  -0.00038977  0.00153586  0.39894812  1
  Mo  Mo247  1  0.89303190  0.69736000  0.29688947  1
  Mo  Mo248  1  0.00136315  0.60473131  0.59739824  1
  Mo  Mo249  1  0.90322279  0.70599825  0.69757587  1
