# generated using pymatgen
data_HfZrTaTiMo
_symmetry_space_group_name_H-M   'P 1'
_cell_length_a   16.89678998
_cell_length_b   16.88718677
_cell_length_c   16.88849401
_cell_angle_alpha   90.02505259
_cell_angle_beta   89.96561135
_cell_angle_gamma   90.03591462
_symmetry_Int_Tables_number   1
_chemical_formula_structural   HfZrTaTiMo
_chemical_formula_sum   'Hf50 Zr50 Ta50 Ti50 Mo50'
_cell_volume   4818.94791130
_cell_formula_units_Z   50
loop_
 _symmetry_equiv_pos_site_id
 _symmetry_equiv_pos_as_xyz
  1  'x, y, z'
loop_
 _atom_site_type_symbol
 _atom_site_label
 _atom_site_symmetry_multiplicity
 _atom_site_fract_x
 _atom_site_fract_y
 _atom_site_fract_z
 _atom_site_occupancy
  Hf  Hf0  1  0.60613598  0.40349819  0.40058611  1
  Hf  Hf1  1  0.69325050  0.89313978  0.70897394  1
  Hf  Hf2  1  0.00350294  0.60418858  0.80912261  1
  Hf  Hf3  1  0.30197988  0.49627518  0.90278596  1
  Hf  Hf4  1  0.10138180  0.70590834  0.50346475  1
  Hf  Hf5  1  0.10151557  0.10076969  0.09613289  1
  Hf  Hf6  1  0.50749531  0.70317123  0.09796172  1
  Hf  Hf7  1  0.50163571  0.50939114  0.69964298  1
  Hf  Hf8  1  0.39477621  -0.00137068  0.19742248  1
  Hf  Hf9  1  0.79914262  0.19856882  0.60095723  1
  Hf  Hf10  1  0.30393441  0.10592458  0.49743149  1
  Hf  Hf11  1  0.20547366  0.60161921  0.39739984  1
  Hf  Hf12  1  0.29659174  0.49433895  0.09140279  1
  Hf  Hf13  1  0.09908221  0.30341327  0.49790181  1
  Hf  Hf14  1  0.31065785  0.09792693  0.69607119  1
  Hf  Hf15  1  0.90717074  0.29772753  0.91125782  1
  Hf  Hf16  1  0.70155042  0.08888970  0.49214584  1
  Hf  Hf17  1  -0.00613934  0.19079077  0.21641956  1
  Hf  Hf18  1  0.28258729  0.29643371  0.08699507  1
  Hf  Hf19  1  0.19368161  0.39453123  0.20496929  1
  Hf  Hf20  1  0.67477347  0.30683207  0.10925442  1
  Hf  Hf21  1  0.10429446  0.30439854  0.69209853  1
  Hf  Hf22  1  0.20548950  0.00218709  0.20564832  1
  Hf  Hf23  1  0.50439627  0.89887361  0.71235973  1
  Hf  Hf24  1  -0.01326974  0.81044807  0.60497509  1
  Hf  Hf25  1  0.10492210  0.29905348  0.91338862  1
  Hf  Hf26  1  0.10786928  0.71252994  0.70726934  1
  Hf  Hf27  1  0.50885267  0.49574459  0.09360941  1
  Hf  Hf28  1  -0.00386618  0.79198381  0.19179101  1
  Hf  Hf29  1  0.60461320  0.20006633  0.39746395  1
  Hf  Hf30  1  0.88926680  0.69444539  0.49680854  1
  Hf  Hf31  1  0.60156720  -0.00863515  0.59550911  1
  Hf  Hf32  1  0.69310622  0.50564785  0.09269387  1
  Hf  Hf33  1  0.49018079  0.29852966  0.69444439  1
  Hf  Hf34  1  0.50034362  0.09240659  0.89206731  1
  Hf  Hf35  1  0.69308601  0.70608002  0.70867591  1
  Hf  Hf36  1  0.40362034  0.38726798  0.18619642  1
  Hf  Hf37  1  0.60308374  0.20340133  0.79694960  1
  Hf  Hf38  1  0.69812155  0.30090012  0.90153183  1
  Hf  Hf39  1  0.10660192  0.50030808  0.69542667  1
  Hf  Hf40  1  0.38937389  -0.01772806  0.39852197  1
  Hf  Hf41  1  0.49150833  0.10345007  0.50084113  1
  Hf  Hf42  1  0.20160082  0.80421662  0.19743687  1
  Hf  Hf43  1  0.18988408  0.60833118  -0.00195951  1
  Hf  Hf44  1  0.10029320  0.49319906  0.50155411  1
  Hf  Hf45  1  0.60962646  0.40271167  0.60017525  1
  Hf  Hf46  1  0.70141305  0.89722365  0.09955346  1
  Hf  Hf47  1  0.60181452  0.60937688  0.39939692  1
  Hf  Hf48  1  0.40831842  0.60216301  -0.01200288  1
  Hf  Hf49  1  -0.01309273  0.01318431  0.39817286  1
  Zr  Zr50  1  0.20772679  0.60481385  0.60104542  1
  Zr  Zr51  1  -0.00831074  0.80878770  0.40631164  1
  Zr  Zr52  1  -0.00667270  0.19661013  0.59211020  1
  Zr  Zr53  1  0.79564422  0.19739189  0.00658420  1
  Zr  Zr54  1  0.09039314  0.29238462  0.09331594  1
  Zr  Zr55  1  0.59578397  0.00251570  0.19468153  1
  Zr  Zr56  1  0.19916293  0.40313762  0.80352592  1
  Zr  Zr57  1  0.69172414  0.90436373  0.30941105  1
  Zr  Zr58  1  0.30462575  0.89427392  0.70396376  1
  Zr  Zr59  1  0.89533378  0.89145966  0.09295100  1
  Zr  Zr60  1  0.19764928  -0.00195956  0.80201569  1
  Zr  Zr61  1  0.71986642  0.30633503  0.48592490  1
  Zr  Zr62  1  0.40582135  0.39885974  0.39988710  1
  Zr  Zr63  1  0.09041561  0.49309187  0.30236571  1
  Zr  Zr64  1  0.49580337  0.09250785  0.69845332  1
  Zr  Zr65  1  0.30269310  0.50072482  0.29754069  1
  Zr  Zr66  1  0.10111810  0.09319670  0.69285536  1
  Zr  Zr67  1  0.40900531  0.20357247  0.00004480  1
  Zr  Zr68  1  0.88870829  0.50809615  0.90407478  1
  Zr  Zr69  1  0.39876815  0.19160573  0.19084000  1
  Zr  Zr70  1  0.40394245  0.60700579  0.19990755  1
  Zr  Zr71  1  0.79873638  0.39369100  0.00708551  1
  Zr  Zr72  1  0.10076066  0.70198488  0.30437966  1
  Zr  Zr73  1  0.80007592  0.39595085  0.20295606  1
  Zr  Zr74  1  0.30100571  0.29772946  0.50252555  1
  Zr  Zr75  1  0.90121960  0.09874817  0.09642796  1
  Zr  Zr76  1  0.10028901  0.10508376  0.90608361  1
  Zr  Zr77  1  0.90934729  0.49607176  0.09741884  1
  Zr  Zr78  1  0.30898875  0.50308213  0.70335728  1
  Zr  Zr79  1  0.89903856  0.09295802  0.69619723  1
  Zr  Zr80  1  0.50717873  0.70486756  0.70166902  1
  Zr  Zr81  1  0.10573204  0.10353516  0.48804341  1
  Zr  Zr82  1  0.88685841  0.70257961  0.71567858  1
  Zr  Zr83  1  0.80678146  -0.00381070  0.80889902  1
  Zr  Zr84  1  0.89053379  0.70702128  0.91628296  1
  Zr  Zr85  1  0.50583337  0.50165047  0.29483297  1
  Zr  Zr86  1  -0.00929374  0.59879046  0.60964218  1
  Zr  Zr87  1  0.60888234  0.20565774  0.59974931  1
  Zr  Zr88  1  0.89410070  0.49704362  0.48902877  1
  Zr  Zr89  1  0.49753893  0.09543788  0.31039724  1
  Zr  Zr90  1  0.09596472  0.90554634  0.30143350  1
  Zr  Zr91  1  0.60285709  0.40138034  0.79566444  1
  Zr  Zr92  1  -0.00460148  -0.01042224  -0.01607562  1
  Zr  Zr93  1  0.41022488  0.80004539  0.58639209  1
  Zr  Zr94  1  0.80627489  0.60614950  0.19786328  1
  Zr  Zr95  1  0.51160620  0.29753747  0.28703982  1
  Zr  Zr96  1  0.30333838  0.70720843  0.09491823  1
  Zr  Zr97  1  0.30573228  0.90054048  0.89777373  1
  Zr  Zr98  1  -0.00428106  0.19491267  0.80139054  1
  Zr  Zr99  1  -0.00536533  0.40704113  0.79856697  1
  Ta  Ta100  1  0.60787014  0.60835599  0.20378528  1
  Ta  Ta101  1  0.49939566  0.88947403  0.29698719  1
  Ta  Ta102  1  0.20953623  0.20195089  0.79886166  1
  Ta  Ta103  1  0.70405295  0.70131669  0.09078274  1
  Ta  Ta104  1  0.20292818  0.39716633  0.39956267  1
  Ta  Ta105  1  0.79822458  0.79642864  0.20250620  1
  Ta  Ta106  1  0.10063841  0.89870645  0.69841641  1
  Ta  Ta107  1  0.20474134  0.19958460  0.60405768  1
  Ta  Ta108  1  0.18939988  0.80368225  -0.00587505  1
  Ta  Ta109  1  0.69627669  0.50898594  0.90569698  1
  Ta  Ta110  1  0.39531600  0.20434187  0.80337361  1
  Ta  Ta111  1  0.30033674  0.30336491  0.90374890  1
  Ta  Ta112  1  0.90242947  0.30375458  0.49229199  1
  Ta  Ta113  1  0.89275668  0.30396931  0.70140809  1
  Ta  Ta114  1  0.60208268  0.80505940  -0.00406203  1
  Ta  Ta115  1  -0.01362051  0.40252893  0.60347228  1
  Ta  Ta116  1  0.69532222  0.09419910  0.89991055  1
  Ta  Ta117  1  0.30265621  0.70481620  0.70644013  1
  Ta  Ta118  1  0.50225923  0.50713051  0.50478816  1
  Ta  Ta119  1  0.89181028  0.89932039  0.29697996  1
  Ta  Ta120  1  0.70640665  0.51005680  0.49652129  1
  Ta  Ta121  1  0.40709948  0.80424629  -0.00423555  1
  Ta  Ta122  1  0.30559472  0.70590420  0.29704590  1
  Ta  Ta123  1  0.30285603  0.89790513  0.09416636  1
  Ta  Ta124  1  -0.00541518  -0.01265958  0.79887616  1
  Ta  Ta125  1  0.79912681  0.40736728  0.60795031  1
  Ta  Ta126  1  0.20454354  -0.00723454  0.59216854  1
  Ta  Ta127  1  0.40304477  0.79496286  0.39464022  1
  Ta  Ta128  1  0.21337894  0.80907859  0.40189903  1
  Ta  Ta129  1  0.00120318  0.81059035  0.81255799  1
  Ta  Ta130  1  0.79566414  0.79838498  0.40099669  1
  Ta  Ta131  1  0.30322596  0.30517369  0.69888186  1
  Ta  Ta132  1  0.30490219  0.70125809  0.49677012  1
  Ta  Ta133  1  0.89906605  0.30239129  0.31173615  1
  Ta  Ta134  1  0.60194850  0.79275749  0.20338960  1
  Ta  Ta135  1  0.40695001  -0.00175854  0.00490514  1
  Ta  Ta136  1  0.69929021  0.09040976  0.70408681  1
  Ta  Ta137  1  0.29821826  0.29054630  0.30511930  1
  Ta  Ta138  1  0.19167632  0.60379157  0.19325354  1
  Ta  Ta139  1  0.80059305  0.00374379  0.20381237  1
  Ta  Ta140  1  0.79290586  0.60088466  0.60515871  1
  Ta  Ta141  1  0.59777229  -0.00288490  -0.00034184  1
  Ta  Ta142  1  0.80448876  -0.01310643  0.59672403  1
  Ta  Ta143  1  0.40368972  0.40588698  0.59740343  1
  Ta  Ta144  1  0.00266474  0.60496155  0.19561783  1
  Ta  Ta145  1  0.90326475  0.49893116  0.30481880  1
  Ta  Ta146  1  0.79486044  0.80352888  0.59498460  1
  Ta  Ta147  1  0.00372945  0.61370839  0.01057062  1
  Ta  Ta148  1  0.79770381  0.19834529  0.80141585  1
  Ta  Ta149  1  0.30526848  0.50089949  0.50066262  1
  Ti  Ti150  1  0.40351343  0.60666172  0.59398012  1
  Ti  Ti151  1  0.29387138  0.70859054  0.89349616  1
  Ti  Ti152  1  0.59655998  0.78831530  0.40289084  1
  Ti  Ti153  1  0.20394680  -0.00511764  0.39626586  1
  Ti  Ti154  1  0.40644640  0.79452227  0.80876576  1
  Ti  Ti155  1  0.79582180  0.40263871  0.79547873  1
  Ti  Ti156  1  0.69637441  0.89320132  0.49503898  1
  Ti  Ti157  1  0.30364751  0.09838548  0.90158777  1
  Ti  Ti158  1  0.57848177  0.39515939  -0.01835994  1
  Ti  Ti159  1  0.70239707  0.09611644  0.30119265  1
  Ti  Ti160  1  0.70993575  0.50321476  0.30420422  1
  Ti  Ti161  1  0.10297068  0.90287132  0.50128071  1
  Ti  Ti162  1  0.89716945  0.69806000  0.30416127  1
  Ti  Ti163  1  0.49492810  0.29564616  0.50104856  1
  Ti  Ti164  1  0.70495136  0.29863010  0.29764794  1
  Ti  Ti165  1  0.09708318  0.28973104  0.31507453  1
  Ti  Ti166  1  0.79793303  0.81068238  0.81462119  1
  Ti  Ti167  1  0.29268969  0.09895584  0.08833467  1
  Ti  Ti168  1  0.59300207  0.19537528  0.00213451  1
  Ti  Ti169  1  0.41309925  0.39720253  0.81484457  1
  Ti  Ti170  1  0.40315018  0.60770178  0.80602111  1
  Ti  Ti171  1  0.70507464  0.70184194  0.30283812  1
  Ti  Ti172  1  -0.00060007  0.60178337  0.39831305  1
  Ti  Ti173  1  0.59538855  0.18680502  0.19195331  1
  Ti  Ti174  1  0.19452195  0.19328378  0.21075209  1
  Ti  Ti175  1  0.49721881  0.89347381  0.10246577  1
  Ti  Ti176  1  -0.00936171  -0.00887340  0.59223873  1
  Ti  Ti177  1  0.59851421  0.60008605  0.81275828  1
  Ti  Ti178  1  -0.00411703  0.38875732  0.20246635  1
  Ti  Ti179  1  0.19638127  0.60652931  0.80920548  1
  Ti  Ti180  1  0.70248516  0.51263415  0.70667033  1
  Ti  Ti181  1  0.40860660  0.61005922  0.40260675  1
  Ti  Ti182  1  -0.00339081  0.00175837  0.20509556  1
  Ti  Ti183  1  0.09272078  0.49362801  0.91608469  1
  Ti  Ti184  1  0.20144885  -0.00661094  -0.00135031  1
  Ti  Ti185  1  0.50632222  0.90314501  0.89462106  1
  Ti  Ti186  1  0.60469681  0.61180309  0.58977583  1
  Ti  Ti187  1  0.29634585  0.11108005  0.31364463  1
  Ti  Ti188  1  0.81542854  0.18451783  0.39510748  1
  Ti  Ti189  1  0.20764579  0.80723778  0.59525065  1
  Ti  Ti190  1  0.70133781  0.69785160  0.90542262  1
  Ti  Ti191  1  0.69815436  0.09605155  0.09666701  1
  Ti  Ti192  1  0.39712640  -0.01573902  0.58932269  1
  Ti  Ti193  1  0.09692815  0.49260553  0.09721407  1
  Ti  Ti194  1  0.09848995  0.90110870  0.09514202  1
  Ti  Ti195  1  0.51174000  0.70419082  0.90069104  1
  Ti  Ti196  1  0.80576746  -0.00530022  0.40156732  1
  Ti  Ti197  1  0.80005827  0.19812011  0.20233682  1
  Ti  Ti198  1  0.51173364  0.89736975  0.48680503  1
  Ti  Ti199  1  0.79639102  -0.00427653  -0.00737576  1
  Mo  Mo200  1  0.60554271  0.79963827  0.58208096  1
  Mo  Mo201  1  0.80019402  0.40699191  0.39459686  1
  Mo  Mo202  1  0.19784788  0.20196220  0.39733192  1
  Mo  Mo203  1  0.89153022  0.10006794  0.90005584  1
  Mo  Mo204  1  0.29666414  0.89650581  0.49846255  1
  Mo  Mo205  1  0.71255846  0.30085154  0.70466709  1
  Mo  Mo206  1  0.50699588  0.29756651  0.09325133  1
  Mo  Mo207  1  0.60194163  0.60811629  -0.00531016  1
  Mo  Mo208  1  0.89666272  0.89427915  0.90206846  1
  Mo  Mo209  1  0.78749072  0.59906028  0.80275338  1
  Mo  Mo210  1  0.89857650  0.69969099  0.10237694  1
  Mo  Mo211  1  0.19893802  0.79758716  0.80200682  1
  Mo  Mo212  1  0.19432890  0.40957143  0.00122623  1
  Mo  Mo213  1  0.89864652  0.89563444  0.70177778  1
  Mo  Mo214  1  -0.00873760  0.19744604  0.00449342  1
  Mo  Mo215  1  0.40204322  0.00238016  0.80879346  1
  Mo  Mo216  1  0.88683375  0.50013999  0.70359124  1
  Mo  Mo217  1  0.79706571  0.60468395  0.00060326  1
  Mo  Mo218  1  0.39698979  0.20935065  0.60273373  1
  Mo  Mo219  1  0.50219581  0.70545620  0.29828753  1
  Mo  Mo220  1  0.89219749  0.09584353  0.49757691  1
  Mo  Mo221  1  0.00004703  0.40204386  0.00622175  1
  Mo  Mo222  1  0.01124515  0.79755287  0.00021253  1
  Mo  Mo223  1  0.00006530  0.39682719  0.39880723  1
  Mo  Mo224  1  0.79017903  0.80074817  0.00269435  1
  Mo  Mo225  1  0.50462829  0.09455278  0.09201816  1
  Mo  Mo226  1  0.10612439  0.10004589  0.29924242  1
  Mo  Mo227  1  0.10256416  0.89738072  0.89713701  1
  Mo  Mo228  1  0.49777703  0.29463783  0.89561293  1
  Mo  Mo229  1  0.60161834  0.80104633  0.82084494  1
  Mo  Mo230  1  0.20994804  0.18780354  -0.00910243  1
  Mo  Mo231  1  0.09787688  0.70580537  0.90146155  1
  Mo  Mo232  1  0.59699332  -0.00442649  0.40064441  1
  Mo  Mo233  1  0.79603452  0.60384257  0.39399088  1
  Mo  Mo234  1  0.60684630  0.41195156  0.20787110  1
  Mo  Mo235  1  0.50133436  0.50556461  0.89549177  1
  Mo  Mo236  1  0.88777655  0.89973814  0.49638968  1
  Mo  Mo237  1  0.69736887  0.90034700  0.90611903  1
  Mo  Mo238  1  0.21101853  0.40039364  0.59605490  1
  Mo  Mo239  1  -0.00546178  0.20199370  0.39826523  1
  Mo  Mo240  1  0.90404531  0.29550634  0.11317922  1
  Mo  Mo241  1  0.69961960  0.70307769  0.50398962  1
  Mo  Mo242  1  0.30355920  0.89323566  0.29534868  1
  Mo  Mo243  1  0.40460318  0.39749053  -0.00759057  1
  Mo  Mo244  1  0.10019169  0.70358845  0.10005679  1
  Mo  Mo245  1  0.40387151  0.80637007  0.19740060  1
  Mo  Mo246  1  0.40082032  0.20459254  0.40033894  1
  Mo  Mo247  1  0.60527783  -0.00149508  0.80537017  1
  Mo  Mo248  1  0.49923483  0.69701016  0.49594403  1
  Mo  Mo249  1  0.88935831  0.09575329  0.29753844  1
