# generated using pymatgen
data_HfZrTaTiMo
_symmetry_space_group_name_H-M   'P 1'
_cell_length_a   16.87916144
_cell_length_b   16.89117018
_cell_length_c   16.89100682
_cell_angle_alpha   90.00580737
_cell_angle_beta   89.96100689
_cell_angle_gamma   89.98018743
_symmetry_Int_Tables_number   1
_chemical_formula_structural   HfZrTaTiMo
_chemical_formula_sum   'Hf50 Zr50 Ta50 Ti50 Mo50'
_cell_volume   4815.77306024
_cell_formula_units_Z   50
loop_
 _symmetry_equiv_pos_site_id
 _symmetry_equiv_pos_as_xyz
  1  'x, y, z'
loop_
 _atom_site_type_symbol
 _atom_site_label
 _atom_site_symmetry_multiplicity
 _atom_site_fract_x
 _atom_site_fract_y
 _atom_site_fract_z
 _atom_site_occupancy
  Hf  Hf0  1  0.79596047  0.00585540  -0.00057352  1
  Hf  Hf1  1  0.70972234  0.28901571  0.30587270  1
  Hf  Hf2  1  0.20465409  0.39794297  0.80363037  1
  Hf  Hf3  1  0.29652418  0.89517732  0.68869643  1
  Hf  Hf4  1  0.60000055  0.19644364  -0.00065047  1
  Hf  Hf5  1  0.21042508  0.20737027  0.00207533  1
  Hf  Hf6  1  0.19660613  0.60052558  0.00287195  1
  Hf  Hf7  1  0.50278421  0.69432569  0.10146827  1
  Hf  Hf8  1  0.50140651  0.69253962  0.89385246  1
  Hf  Hf9  1  0.89576905  0.69391339  0.08868580  1
  Hf  Hf10  1  0.69665683  0.70026231  0.69149487  1
  Hf  Hf11  1  0.30562505  0.50694231  0.89909614  1
  Hf  Hf12  1  0.70056052  0.89516383  0.69154552  1
  Hf  Hf13  1  0.29732522  0.49985622  0.49855056  1
  Hf  Hf14  1  0.90219689  0.69059419  0.69453153  1
  Hf  Hf15  1  0.19566153  0.59965902  0.20001976  1
  Hf  Hf16  1  0.80818855  0.79662814  0.20507704  1
  Hf  Hf17  1  0.39496719  0.38763688  0.19940518  1
  Hf  Hf18  1  0.40892963  0.80980057  0.19760024  1
  Hf  Hf19  1  0.00154297  0.00240807  0.00294460  1
  Hf  Hf20  1  0.90035540  0.90259957  0.10279551  1
  Hf  Hf21  1  0.59121466  0.80507108  0.00140798  1
  Hf  Hf22  1  0.60571614  0.59658182  0.41047499  1
  Hf  Hf23  1  0.50139503  0.49023779  0.30898103  1
  Hf  Hf24  1  0.39982954  0.39748457  0.79732043  1
  Hf  Hf25  1  0.09764474  0.30165574  0.30319350  1
  Hf  Hf26  1  0.09779162  0.28816320  0.69666485  1
  Hf  Hf27  1  0.90907663  0.90686378  0.49971552  1
  Hf  Hf28  1  0.09556558  0.90851802  0.30337083  1
  Hf  Hf29  1  0.79917900  0.59604431  0.20658255  1
  Hf  Hf30  1  -0.00590256  0.20526461  0.40480877  1
  Hf  Hf31  1  0.70591191  0.30118220  0.10903806  1
  Hf  Hf32  1  0.20550181  0.00645240  0.78654285  1
  Hf  Hf33  1  -0.00065364  0.00254655  0.78969804  1
  Hf  Hf34  1  0.89708296  0.49847829  0.48966396  1
  Hf  Hf35  1  0.90504104  0.50282452  0.90646150  1
  Hf  Hf36  1  0.70296352  0.89864133  0.10386284  1
  Hf  Hf37  1  0.20711174  0.39603853  0.19031326  1
  Hf  Hf38  1  0.29286925  0.89877945  0.10485332  1
  Hf  Hf39  1  0.79163431  0.59310385  0.59290861  1
  Hf  Hf40  1  0.30019440  0.28420362  0.69310214  1
  Hf  Hf41  1  0.80283726  0.19795845  0.60222564  1
  Hf  Hf42  1  -0.00190988  0.39783282  0.59715364  1
  Hf  Hf43  1  0.00821589  0.79828896  0.00005015  1
  Hf  Hf44  1  0.39517136  0.79376112  0.79629474  1
  Hf  Hf45  1  0.09309236  0.48789100  0.30272772  1
  Hf  Hf46  1  0.80065355  0.79068042  0.80189413  1
  Hf  Hf47  1  0.89664174  0.49474484  0.09221588  1
  Hf  Hf48  1  0.21140068  0.20344222  0.20027601  1
  Hf  Hf49  1  0.49219439  0.10106480  0.71373067  1
  Zr  Zr50  1  0.08873364  0.30429473  0.10052146  1
  Zr  Zr51  1  0.79574570  0.40127912  0.80335862  1
  Zr  Zr52  1  0.59840984  0.00141349  0.00227829  1
  Zr  Zr53  1  0.29119467  0.70722712  0.51532646  1
  Zr  Zr54  1  0.11163514  0.89835246  0.90249050  1
  Zr  Zr55  1  0.70190836  0.89219689  0.49921430  1
  Zr  Zr56  1  0.89751168  0.30466273  0.69855801  1
  Zr  Zr57  1  0.00734727  0.59444847  0.59286947  1
  Zr  Zr58  1  0.01129679  0.78757035  0.79979268  1
  Zr  Zr59  1  0.59399990  0.00211991  0.59239472  1
  Zr  Zr60  1  0.80225867  0.00298486  0.79468519  1
  Zr  Zr61  1  0.29776839  0.29487870  0.49431020  1
  Zr  Zr62  1  0.11988084  0.69823669  0.68012733  1
  Zr  Zr63  1  0.49683460  0.90146069  0.31104734  1
  Zr  Zr64  1  0.29676163  0.49157365  0.30684525  1
  Zr  Zr65  1  0.30839679  0.71383016  0.30269516  1
  Zr  Zr66  1  0.31165756  0.09413339  0.89027958  1
  Zr  Zr67  1  0.79530444  0.20289240  -0.00470783  1
  Zr  Zr68  1  0.39654925  0.38783023  -0.00294774  1
  Zr  Zr69  1  0.90516073  0.68549754  0.90333446  1
  Zr  Zr70  1  0.00230646  0.60408905  0.20126427  1
  Zr  Zr71  1  0.09541264  0.91548656  0.49746307  1
  Zr  Zr72  1  0.40206968  0.40187329  0.60367988  1
  Zr  Zr73  1  0.19011526  0.61433221  0.39590495  1
  Zr  Zr74  1  0.60096478  0.59872598  0.20636247  1
  Zr  Zr75  1  0.69450499  0.90242084  0.30494896  1
  Zr  Zr76  1  0.89954867  0.10466942  0.89771402  1
  Zr  Zr77  1  0.70005272  0.70122109  0.31251782  1
  Zr  Zr78  1  0.19745722  0.40267938  0.60632891  1
  Zr  Zr79  1  0.09057770  0.30180264  0.89587470  1
  Zr  Zr80  1  0.09911358  0.10835304  0.89573740  1
  Zr  Zr81  1  0.70010490  0.89322467  0.89815168  1
  Zr  Zr82  1  0.60458708  0.39957691  0.20689962  1
  Zr  Zr83  1  0.90136776  0.89271698  0.68653766  1
  Zr  Zr84  1  0.50379543  0.50409300  0.89676622  1
  Zr  Zr85  1  0.09061653  0.09976176  0.30079248  1
  Zr  Zr86  1  0.59635535  0.19510103  0.59662970  1
  Zr  Zr87  1  0.10139933  0.49212745  0.48581102  1
  Zr  Zr88  1  0.89325647  0.11464299  0.29562879  1
  Zr  Zr89  1  0.79942378  0.01137030  0.40163524  1
  Zr  Zr90  1  0.40767098  -0.00976741  0.00682134  1
  Zr  Zr91  1  0.39711871  0.00535499  0.59558549  1
  Zr  Zr92  1  0.20090194  0.60609516  0.80252351  1
  Zr  Zr93  1  0.49609287  0.09717942  0.11732167  1
  Zr  Zr94  1  0.50372267  0.29142069  0.10764789  1
  Zr  Zr95  1  0.81965872  0.79984027  0.39168753  1
  Zr  Zr96  1  0.40369469  0.60342230  0.40428959  1
  Zr  Zr97  1  0.29972248  0.70372707  0.10189200  1
  Zr  Zr98  1  0.20216501  0.00732465  0.00765748  1
  Zr  Zr99  1  0.10057947  0.90109966  0.68592764  1
  Ta  Ta100  1  0.59219961  0.00942844  0.40629835  1
  Ta  Ta101  1  0.09012925  0.50161654  0.90370883  1
  Ta  Ta102  1  0.20586115  0.01127804  0.40355911  1
  Ta  Ta103  1  0.89367721  0.30008319  0.10878229  1
  Ta  Ta104  1  0.00356508  0.78728227  0.58178937  1
  Ta  Ta105  1  0.29879702  0.90788983  0.30651477  1
  Ta  Ta106  1  0.50167710  0.49853097  0.09724364  1
  Ta  Ta107  1  0.50667534  0.49179593  0.50401877  1
  Ta  Ta108  1  0.79931353  0.39604870  0.39884629  1
  Ta  Ta109  1  0.59917724  0.19268392  0.40109832  1
  Ta  Ta110  1  0.19400013  0.80723205  0.40228054  1
  Ta  Ta111  1  0.59130662  0.79945806  0.59590563  1
  Ta  Ta112  1  0.70503819  0.10289028  0.11933707  1
  Ta  Ta113  1  -0.00219825  0.79629346  0.20903254  1
  Ta  Ta114  1  0.89624522  0.69548436  0.49247741  1
  Ta  Ta115  1  0.69933685  0.30322704  0.50055486  1
  Ta  Ta116  1  0.50642555  0.50518110  0.69904864  1
  Ta  Ta117  1  0.20268543  0.00653820  0.20529438  1
  Ta  Ta118  1  0.89882802  0.49667764  0.30728517  1
  Ta  Ta119  1  0.90069231  0.10446601  0.11065187  1
  Ta  Ta120  1  0.49836918  0.89630248  0.70071353  1
  Ta  Ta121  1  0.49904122  0.70652148  0.49910505  1
  Ta  Ta122  1  0.40369019  0.60291045  0.60290330  1
  Ta  Ta123  1  0.20404636  0.39902241  -0.00165295  1
  Ta  Ta124  1  0.60355115  0.39825484  -0.00405631  1
  Ta  Ta125  1  0.50077209  0.69612093  0.69736606  1
  Ta  Ta126  1  0.50576231  0.29912222  0.69983888  1
  Ta  Ta127  1  0.89839254  0.89239139  0.90503865  1
  Ta  Ta128  1  0.79516878  0.20389017  0.79640511  1
  Ta  Ta129  1  0.69365307  0.49304872  0.69299828  1
  Ta  Ta130  1  -0.00724814  0.20269429  0.00681776  1
  Ta  Ta131  1  0.59948260  0.79959595  0.19997367  1
  Ta  Ta132  1  0.49678969  0.29011002  0.30939790  1
  Ta  Ta133  1  0.50007878  0.09958155  0.89197412  1
  Ta  Ta134  1  0.39778501  0.00531407  0.40762481  1
  Ta  Ta135  1  0.70388564  0.69994354  0.09218701  1
  Ta  Ta136  1  0.39918975  0.20042179  -0.00179074  1
  Ta  Ta137  1  0.40256188  0.80229040  -0.00204641  1
  Ta  Ta138  1  0.69352117  0.30388935  0.69496483  1
  Ta  Ta139  1  0.50536408  0.30183565  0.49506668  1
  Ta  Ta140  1  0.40198716  0.60231671  0.00216350  1
  Ta  Ta141  1  0.79238503  0.59399648  0.79892304  1
  Ta  Ta142  1  0.10433326  0.71112133  0.09996549  1
  Ta  Ta143  1  0.59930018  0.39940698  0.79898620  1
  Ta  Ta144  1  0.70317912  0.49710093  0.09590128  1
  Ta  Ta145  1  0.89284727  0.30159612  0.49810925  1
  Ta  Ta146  1  0.69616175  0.10410817  0.70425061  1
  Ta  Ta147  1  0.20653525  0.79400499  0.80181161  1
  Ta  Ta148  1  0.80254191  0.01145604  0.60103004  1
  Ta  Ta149  1  0.09135993  0.10527375  0.11054894  1
  Ti  Ti150  1  0.09929456  0.50559149  0.70574242  1
  Ti  Ti151  1  0.40280835  0.59648506  0.20299165  1
  Ti  Ti152  1  -0.00054515  0.40683649  0.79657075  1
  Ti  Ti153  1  0.60332223  0.19166624  0.21415319  1
  Ti  Ti154  1  0.59726049  -0.00094901  0.20820291  1
  Ti  Ti155  1  0.59756501  0.79739564  0.79638471  1
  Ti  Ti156  1  0.69908263  0.50124529  0.90256468  1
  Ti  Ti157  1  0.79840149  0.00346550  0.20754879  1
  Ti  Ti158  1  0.69614276  0.48213753  0.50224675  1
  Ti  Ti159  1  0.60819262  0.59738328  0.79601318  1
  Ti  Ti160  1  0.39649349  0.20681980  0.80554392  1
  Ti  Ti161  1  0.00103931  0.61693938  0.39166438  1
  Ti  Ti162  1  0.29791496  0.89994775  0.49708578  1
  Ti  Ti163  1  -0.01458636  0.39616318  0.20537804  1
  Ti  Ti164  1  0.70204581  0.69496230  0.90787157  1
  Ti  Ti165  1  0.30257024  0.51729213  0.69991840  1
  Ti  Ti166  1  0.89574120  0.50130439  0.70080759  1
  Ti  Ti167  1  0.50211985  0.70871294  0.31155342  1
  Ti  Ti168  1  0.69193984  0.29806352  0.89182250  1
  Ti  Ti169  1  0.10208056  0.29609192  0.49870816  1
  Ti  Ti170  1  0.08741812  0.49381288  0.09107673  1
  Ti  Ti171  1  0.39940966  0.38968897  0.40068756  1
  Ti  Ti172  1  0.68938254  0.10484951  0.88586367  1
  Ti  Ti173  1  0.19386777  0.80291551  0.20930424  1
  Ti  Ti174  1  0.40553124  0.19511671  0.59349520  1
  Ti  Ti175  1  0.91769864  0.91901538  0.30234849  1
  Ti  Ti176  1  0.30068918  0.89767736  0.90027347  1
  Ti  Ti177  1  0.20422780  0.19282946  0.79330491  1
  Ti  Ti178  1  0.10067269  0.90293160  0.10990885  1
  Ti  Ti179  1  0.29845188  0.10920717  0.50016148  1
  Ti  Ti180  1  0.31148098  0.10024071  0.11063741  1
  Ti  Ti181  1  0.59793729  -0.00445775  0.79675467  1
  Ti  Ti182  1  0.70572821  0.49238622  0.30918620  1
  Ti  Ti183  1  0.40452246  0.80135945  0.59727859  1
  Ti  Ti184  1  0.30187809  0.70205185  0.90478351  1
  Ti  Ti185  1  0.49349301  0.90361156  0.88694482  1
  Ti  Ti186  1  0.19880401  0.02015891  0.59755476  1
  Ti  Ti187  1  0.59738639  0.59944075  0.59401402  1
  Ti  Ti188  1  0.70349701  0.10736090  0.49594584  1
  Ti  Ti189  1  0.90571942  0.30452435  0.90263849  1
  Ti  Ti190  1  -0.01011124  0.19318297  0.78739081  1
  Ti  Ti191  1  0.30856009  0.50142423  0.09726588  1
  Ti  Ti192  1  0.30971685  0.10337106  0.30237729  1
  Ti  Ti193  1  0.49037252  0.10127576  0.30348151  1
  Ti  Ti194  1  0.70347646  0.70794671  0.49948704  1
  Ti  Ti195  1  0.79477677  0.39576732  -0.00431089  1
  Ti  Ti196  1  0.50668946  0.29261074  0.89310064  1
  Ti  Ti197  1  0.20086328  0.19693496  0.39993740  1
  Ti  Ti198  1  0.90944173  0.10258912  0.50507428  1
  Ti  Ti199  1  0.60354240  0.59432072  0.00245482  1
  Mo  Mo200  1  0.09827139  0.70690437  0.49090375  1
  Mo  Mo201  1  -0.00764043  0.38894886  0.39950373  1
  Mo  Mo202  1  0.90368541  0.68930584  0.30110524  1
  Mo  Mo203  1  0.40040024  0.60372879  0.79298260  1
  Mo  Mo204  1  0.89886326  0.10596520  0.69527913  1
  Mo  Mo205  1  0.01622300  0.59975590  0.00431341  1
  Mo  Mo206  1  0.09731304  0.10617862  0.69059121  1
  Mo  Mo207  1  0.30263431  0.29090000  0.30457962  1
  Mo  Mo208  1  0.79944133  0.20161834  0.20108864  1
  Mo  Mo209  1  -0.00329101  0.02089577  0.60071417  1
  Mo  Mo210  1  0.40135714  -0.01025191  0.79753214  1
  Mo  Mo211  1  0.30153371  0.10621585  0.69422262  1
  Mo  Mo212  1  0.78269516  0.59462803  -0.00434508  1
  Mo  Mo213  1  0.00146849  0.20122525  0.59432443  1
  Mo  Mo214  1  0.20413553  0.79830834  -0.00452849  1
  Mo  Mo215  1  0.59806236  0.39846743  0.60197314  1
  Mo  Mo216  1  0.59168797  0.79816508  0.40737979  1
  Mo  Mo217  1  0.69226112  0.09916083  0.30162237  1
  Mo  Mo218  1  0.00290265  0.79537016  0.39582889  1
  Mo  Mo219  1  0.40370332  0.19594003  0.40161500  1
  Mo  Mo220  1  0.00142773  0.01383011  0.40293730  1
  Mo  Mo221  1  0.39725576  0.19850621  0.20946849  1
  Mo  Mo222  1  0.10781050  0.69623335  0.90666430  1
  Mo  Mo223  1  0.30278961  0.29556160  0.09436066  1
  Mo  Mo224  1  0.19800568  0.81109447  0.59114224  1
  Mo  Mo225  1  0.19596800  0.19183049  0.59424910  1
  Mo  Mo226  1  0.10298962  0.10851292  0.50024261  1
  Mo  Mo227  1  -0.00541562  0.39623058  0.00003620  1
  Mo  Mo228  1  0.09835933  0.71444366  0.29597084  1
  Mo  Mo229  1  0.50417488  0.89896920  0.11048785  1
  Mo  Mo230  1  0.39635615  0.80990176  0.40830430  1
  Mo  Mo231  1  0.89713051  0.30735248  0.30116558  1
  Mo  Mo232  1  -0.00608192  0.20620464  0.19775195  1
  Mo  Mo233  1  0.80494745  0.79144844  0.59262214  1
  Mo  Mo234  1  0.80338329  0.40296784  0.20658178  1
  Mo  Mo235  1  0.79573804  0.59071532  0.40287638  1
  Mo  Mo236  1  0.49335500  0.89736415  0.50055011  1
  Mo  Mo237  1  0.20680763  0.59264619  0.60078771  1
  Mo  Mo238  1  0.79701006  0.20228647  0.41046560  1
  Mo  Mo239  1  0.00349831  0.58901996  0.79564283  1
  Mo  Mo240  1  0.20192029  0.38440456  0.39482383  1
  Mo  Mo241  1  0.29909876  0.29552750  0.89579880  1
  Mo  Mo242  1  0.49376649  0.10526048  0.49155398  1
  Mo  Mo243  1  0.60323993  0.39301345  0.40432853  1
  Mo  Mo244  1  0.00102110  -0.00138611  0.19654043  1
  Mo  Mo245  1  0.79817468  0.79673362  -0.00160303  1
  Mo  Mo246  1  0.39152812  0.00256667  0.21187542  1
  Mo  Mo247  1  0.79422967  0.40110169  0.59591772  1
  Mo  Mo248  1  0.30756233  0.70242039  0.69642853  1
  Mo  Mo249  1  0.60027012  0.20506813  0.80089960  1
