# generated using pymatgen
data_HfZrTaTiMo
_symmetry_space_group_name_H-M   'P 1'
_cell_length_a   16.86912196
_cell_length_b   16.87410091
_cell_length_c   16.89383472
_cell_angle_alpha   89.94817849
_cell_angle_beta   90.03174118
_cell_angle_gamma   90.03471857
_symmetry_Int_Tables_number   1
_chemical_formula_structural   HfZrTaTiMo
_chemical_formula_sum   'Hf50 Zr50 Ta50 Ti50 Mo50'
_cell_volume   4808.84785921
_cell_formula_units_Z   50
loop_
 _symmetry_equiv_pos_site_id
 _symmetry_equiv_pos_as_xyz
  1  'x, y, z'
loop_
 _atom_site_type_symbol
 _atom_site_label
 _atom_site_symmetry_multiplicity
 _atom_site_fract_x
 _atom_site_fract_y
 _atom_site_fract_z
 _atom_site_occupancy
  Hf  Hf0  1  0.90717890  0.90990609  0.29693925  1
  Hf  Hf1  1  0.90368657  0.88987891  0.89080431  1
  Hf  Hf2  1  -0.00248963  0.60772602  0.19214909  1
  Hf  Hf3  1  0.90177905  0.29278868  0.10858756  1
  Hf  Hf4  1  0.90569959  0.72296143  0.28854482  1
  Hf  Hf5  1  0.70239649  0.29567907  0.10431501  1
  Hf  Hf6  1  0.11108645  0.28620489  0.90993264  1
  Hf  Hf7  1  0.81369659  0.19193679  -0.00756514  1
  Hf  Hf8  1  0.81264475  0.39922012  -0.00766865  1
  Hf  Hf9  1  0.29846641  0.89843703  0.30861671  1
  Hf  Hf10  1  0.69734431  0.51222326  0.30416821  1
  Hf  Hf11  1  0.59268914  0.80525159  0.59061655  1
  Hf  Hf12  1  0.59841984  0.60543509  0.19967445  1
  Hf  Hf13  1  0.59714795  0.39147749  0.60511569  1
  Hf  Hf14  1  0.39387313  0.00047400  0.79687464  1
  Hf  Hf15  1  0.40708490  0.19820722  0.60785905  1
  Hf  Hf16  1  -0.00049989  0.18733578  0.00309916  1
  Hf  Hf17  1  0.89391243  0.87986020  0.11277560  1
  Hf  Hf18  1  0.29986769  0.08925285  0.50156874  1
  Hf  Hf19  1  0.10163512  0.28768775  0.30416071  1
  Hf  Hf20  1  0.09872084  0.50120303  0.50284001  1
  Hf  Hf21  1  0.90538587  0.28603482  0.69243993  1
  Hf  Hf22  1  0.18406308  -0.01781774  0.41108128  1
  Hf  Hf23  1  0.10091703  0.29952377  0.69277799  1
  Hf  Hf24  1  0.50579245  0.70920434  0.09096697  1
  Hf  Hf25  1  0.59801680  -0.00082388  0.79515957  1
  Hf  Hf26  1  0.80404675  0.00303308  0.79498251  1
  Hf  Hf27  1  0.49571512  0.29016275  0.30032413  1
  Hf  Hf28  1  0.49593215  0.29659906  0.10291731  1
  Hf  Hf29  1  0.49007433  0.09475477  0.30330455  1
  Hf  Hf30  1  0.79659259  0.40174297  0.20880650  1
  Hf  Hf31  1  0.80349496  0.80522310  0.60455901  1
  Hf  Hf32  1  0.20193046  0.80398781  0.79933451  1
  Hf  Hf33  1  0.69726493  0.70186215  0.70507299  1
  Hf  Hf34  1  0.69773902  0.09863660  0.30352109  1
  Hf  Hf35  1  0.70084952  0.50346764  0.89555479  1
  Hf  Hf36  1  0.49206378  0.09471443  0.90265275  1
  Hf  Hf37  1  0.00255455  0.39931986  0.20015118  1
  Hf  Hf38  1  0.00249875  0.40416762  0.81180809  1
  Hf  Hf39  1  0.90786213  0.70280040  0.50011302  1
  Hf  Hf40  1  0.90104842  0.29095280  0.30509282  1
  Hf  Hf41  1  0.00171696  0.18283459  0.40195978  1
  Hf  Hf42  1  0.20517286  0.40035913  0.40401223  1
  Hf  Hf43  1  0.39625885  0.40081265  0.40510233  1
  Hf  Hf44  1  0.39471592  0.60746642  0.19671878  1
  Hf  Hf45  1  0.79447082  0.81003324  0.40182440  1
  Hf  Hf46  1  0.70185600  0.49742042  0.70226105  1
  Hf  Hf47  1  0.38948138  0.80496512  0.18506739  1
  Hf  Hf48  1  0.38866475  0.19665964  -0.00341953  1
  Hf  Hf49  1  -0.00386028  0.79156419  -0.00333518  1
  Zr  Zr50  1  0.20616885  0.60729115  0.19454255  1
  Zr  Zr51  1  0.69776035  0.10048136  0.89432568  1
  Zr  Zr52  1  0.30753353  0.50118202  0.90533245  1
  Zr  Zr53  1  0.59797521  0.40081890  -0.00283872  1
  Zr  Zr54  1  0.70102606  0.89994195  0.09620490  1
  Zr  Zr55  1  0.71299889  0.71394162  0.09838329  1
  Zr  Zr56  1  0.10967959  0.49883951  0.69053058  1
  Zr  Zr57  1  0.29058891  0.09548571  0.30732735  1
  Zr  Zr58  1  0.60168117  0.19484587  0.59120819  1
  Zr  Zr59  1  0.81579486  0.39688997  0.80181371  1
  Zr  Zr60  1  0.29582444  0.28276257  0.30609402  1
  Zr  Zr61  1  0.70143350  0.69972627  0.49909260  1
  Zr  Zr62  1  0.00125522  0.39790972  -0.00273606  1
  Zr  Zr63  1  0.09712314  0.90118114  0.28276211  1
  Zr  Zr64  1  0.10767044  0.71064207  0.30150230  1
  Zr  Zr65  1  0.59788397  0.19833732  0.00047266  1
  Zr  Zr66  1  0.20403547  0.60297632  0.80051115  1
  Zr  Zr67  1  0.49018689  0.90725230  0.30300397  1
  Zr  Zr68  1  0.58375050  0.20067482  0.78168034  1
  Zr  Zr69  1  0.01910558  0.81691879  0.41310621  1
  Zr  Zr70  1  0.90749212  0.91317129  0.50442729  1
  Zr  Zr71  1  0.49825068  0.70072505  0.89505331  1
  Zr  Zr72  1  0.20705502  0.40207297  0.80682230  1
  Zr  Zr73  1  0.90540628  0.29254909  0.50235432  1
  Zr  Zr74  1  -0.00072997  -0.00048510  -0.00100532  1
  Zr  Zr75  1  0.38940386  0.80826199  0.59574391  1
  Zr  Zr76  1  0.19175437  -0.00154868  0.80230081  1
  Zr  Zr77  1  0.49277186  0.71003594  0.30203940  1
  Zr  Zr78  1  0.09877026  0.30019288  0.50360946  1
  Zr  Zr79  1  0.70318246  0.50519712  0.09848233  1
  Zr  Zr80  1  0.49722733  0.50188671  0.50048367  1
  Zr  Zr81  1  0.79993185  0.39687171  0.40164134  1
  Zr  Zr82  1  0.49472943  0.50275063  0.08992735  1
  Zr  Zr83  1  0.49739224  0.90531131  0.08581797  1
  Zr  Zr84  1  0.09988485  0.09350960  0.50974356  1
  Zr  Zr85  1  0.20844454  0.19155646  0.80185955  1
  Zr  Zr86  1  0.19841347  0.40174451  0.19769141  1
  Zr  Zr87  1  0.28978033  0.29270040  0.09697428  1
  Zr  Zr88  1  0.81169086  0.59925944  0.60557846  1
  Zr  Zr89  1  0.11250727  0.70217018  0.51523130  1
  Zr  Zr90  1  0.39112741  0.80248843  0.79594425  1
  Zr  Zr91  1  0.80654953  0.00093777  -0.00123054  1
  Zr  Zr92  1  0.49921555  0.70256201  0.69765603  1
  Zr  Zr93  1  0.69822375  0.29926955  0.88672527  1
  Zr  Zr94  1  0.09743159  0.50304151  0.30735805  1
  Zr  Zr95  1  0.19904162  0.60775790  -0.00168277  1
  Zr  Zr96  1  0.60588158  0.38769708  0.39872182  1
  Zr  Zr97  1  0.00034781  0.18298640  0.80647146  1
  Zr  Zr98  1  0.70285667  0.50442461  0.50029806  1
  Zr  Zr99  1  0.39764395  0.40525699  0.20388890  1
  Ta  Ta100  1  0.81038423  0.60686713  0.39155487  1
  Ta  Ta101  1  0.59151922  0.61347517  0.40350371  1
  Ta  Ta102  1  0.39661239  0.60951452  0.40879633  1
  Ta  Ta103  1  -0.00027272  0.59926812  0.80501789  1
  Ta  Ta104  1  0.69832902  0.90292406  0.69546546  1
  Ta  Ta105  1  0.90557344  0.89941066  0.70304258  1
  Ta  Ta106  1  0.39653938  0.59495239  0.78925895  1
  Ta  Ta107  1  0.40383584  0.19348287  0.41497900  1
  Ta  Ta108  1  0.59868195  0.00312179  0.19872549  1
  Ta  Ta109  1  0.29978428  0.90495630  0.90787656  1
  Ta  Ta110  1  0.80161283  0.39474125  0.59667544  1
  Ta  Ta111  1  0.38704300  0.00127517  0.18409759  1
  Ta  Ta112  1  0.49008331  0.30396799  0.89310626  1
  Ta  Ta113  1  0.09541668  0.70561589  0.89371412  1
  Ta  Ta114  1  0.79822655  0.00369675  0.20139902  1
  Ta  Ta115  1  0.59151693  0.59954088  0.60194722  1
  Ta  Ta116  1  0.20757292  0.80316966  0.17906055  1
  Ta  Ta117  1  0.49758895  0.09448143  0.09863009  1
  Ta  Ta118  1  0.29704806  0.71184411  0.30957974  1
  Ta  Ta119  1  0.29474411  0.50633583  0.51245316  1
  Ta  Ta120  1  0.80755500  0.60856285  0.20160982  1
  Ta  Ta121  1  0.71004631  0.29389067  0.69435535  1
  Ta  Ta122  1  0.59907132  0.00138714  0.40751412  1
  Ta  Ta123  1  -0.00377910  0.60145233  -0.00642654  1
  Ta  Ta124  1  0.79990832  0.00908427  0.40470998  1
  Ta  Ta125  1  0.40151411  0.40145879  0.79132783  1
  Ta  Ta126  1  0.20303882  -0.00360969  0.18569848  1
  Ta  Ta127  1  0.60203363  0.39547170  0.20833884  1
  Ta  Ta128  1  0.81109801  0.61050095  -0.00540581  1
  Ta  Ta129  1  0.60219332  0.80903748  0.20679474  1
  Ta  Ta130  1  0.79837622  0.00690597  0.60299365  1
  Ta  Ta131  1  0.30232526  0.51208805  0.30919846  1
  Ta  Ta132  1  0.19429642  0.39965686  0.00141952  1
  Ta  Ta133  1  0.60061655  0.19535473  0.40675219  1
  Ta  Ta134  1  0.59605258  0.59563817  0.79756130  1
  Ta  Ta135  1  0.60043627  0.19552873  0.20354489  1
  Ta  Ta136  1  0.59567199  0.80784587  0.40401698  1
  Ta  Ta137  1  0.69620178  0.91314523  0.50428883  1
  Ta  Ta138  1  0.20553541  0.19760560  0.60260895  1
  Ta  Ta139  1  0.60620964  0.80838677  -0.01970402  1
  Ta  Ta140  1  0.09681703  0.50251346  0.09428260  1
  Ta  Ta141  1  0.29862343  0.30335730  0.69721928  1
  Ta  Ta142  1  0.49913587  0.91221611  0.68953379  1
  Ta  Ta143  1  0.89940183  0.50568789  0.10006451  1
  Ta  Ta144  1  0.60580692  0.60824045  -0.00972716  1
  Ta  Ta145  1  0.81021270  0.60413272  0.80467355  1
  Ta  Ta146  1  0.39888256  0.40231198  0.60647962  1
  Ta  Ta147  1  -0.00097690  0.60202576  0.60963244  1
  Ta  Ta148  1  0.49690055  0.50169607  0.89592593  1
  Ta  Ta149  1  0.20863357  0.60803630  0.40854754  1
  Ti  Ti150  1  0.10016773  0.70051725  0.70064753  1
  Ti  Ti151  1  0.00612907  -0.00098820  0.80433502  1
  Ti  Ti152  1  0.09864735  0.70496883  0.09641069  1
  Ti  Ti153  1  0.10241495  0.09447535  0.09940801  1
  Ti  Ti154  1  0.60127514  -0.00695242  -0.01069458  1
  Ti  Ti155  1  0.58761485  0.40127513  0.79010990  1
  Ti  Ti156  1  -0.00178108  0.00185673  0.61140467  1
  Ti  Ti157  1  0.29968974  0.50015252  0.09534300  1
  Ti  Ti158  1  0.70321551  0.10264949  0.69072835  1
  Ti  Ti159  1  0.69986335  0.70571365  0.30094738  1
  Ti  Ti160  1  0.79626184  0.80093292  0.80069730  1
  Ti  Ti161  1  0.39400850  0.20294823  0.79790771  1
  Ti  Ti162  1  0.90531701  0.50201946  0.30448547  1
  Ti  Ti163  1  0.39875744  0.60147640  0.59992156  1
  Ti  Ti164  1  0.90750170  0.50090543  0.49266233  1
  Ti  Ti165  1  0.81079323  0.19061330  0.79717691  1
  Ti  Ti166  1  0.59757027  0.81243492  0.80219127  1
  Ti  Ti167  1  0.39388504  0.61384016  -0.00405866  1
  Ti  Ti168  1  0.09814458  0.89817843  0.09495622  1
  Ti  Ti169  1  0.19740831  -0.00186032  0.00081518  1
  Ti  Ti170  1  0.39397754  0.18699871  0.19440481  1
  Ti  Ti171  1  0.70286359  0.70360150  0.89403355  1
  Ti  Ti172  1  0.49725121  0.08128842  0.50918321  1
  Ti  Ti173  1  0.00397710  0.80151811  0.60838922  1
  Ti  Ti174  1  0.09498943  0.89463120  0.70152039  1
  Ti  Ti175  1  0.91063987  0.71011204  0.71309639  1
  Ti  Ti176  1  0.30159403  0.09512006  0.69245613  1
  Ti  Ti177  1  0.39930611  0.80218043  0.41709834  1
  Ti  Ti178  1  0.49855380  0.50371869  0.30368688  1
  Ti  Ti179  1  0.39420798  0.80340607  -0.00859105  1
  Ti  Ti180  1  0.90425222  0.49997175  0.70181293  1
  Ti  Ti181  1  0.90291410  0.09379808  0.29678777  1
  Ti  Ti182  1  0.09920170  0.08864118  0.29665754  1
  Ti  Ti183  1  -0.00884897  0.40696741  0.59895949  1
  Ti  Ti184  1  0.29753296  0.29532504  0.50585436  1
  Ti  Ti185  1  0.69630470  0.09715809  0.10090133  1
  Ti  Ti186  1  0.89874573  0.10219624  0.51240327  1
  Ti  Ti187  1  0.69765311  0.90725659  0.30175864  1
  Ti  Ti188  1  0.20587917  -0.01645949  0.60823172  1
  Ti  Ti189  1  0.00486839  0.18765663  0.19674820  1
  Ti  Ti190  1  0.00071700  0.60587415  0.39968336  1
  Ti  Ti191  1  0.79673774  0.19151373  0.20346567  1
  Ti  Ti192  1  0.29268138  0.09625467  0.91000401  1
  Ti  Ti193  1  0.10003601  0.09950353  0.69366326  1
  Ti  Ti194  1  0.20251497  0.80041681  -0.00518242  1
  Ti  Ti195  1  0.78929328  0.19657975  0.41237111  1
  Ti  Ti196  1  0.19233180  0.18956665  0.18941926  1
  Ti  Ti197  1  0.39231711  0.39118536  -0.00680156  1
  Ti  Ti198  1  0.28848290  0.69564419  0.68454455  1
  Ti  Ti199  1  0.49648977  0.29905967  0.50079338  1
  Mo  Mo200  1  -0.00245075  0.40551059  0.39903066  1
  Mo  Mo201  1  0.29407507  0.09574929  0.09713125  1
  Mo  Mo202  1  0.10525870  0.09030549  0.90865200  1
  Mo  Mo203  1  0.30247205  0.70739018  0.08966517  1
  Mo  Mo204  1  0.00850164  0.79817675  0.79542208  1
  Mo  Mo205  1  0.10062197  0.29229008  0.10450528  1
  Mo  Mo206  1  0.10125922  0.89976999  0.52640143  1
  Mo  Mo207  1  0.79938235  0.19499224  0.60095334  1
  Mo  Mo208  1  0.09847587  0.50904736  0.90654929  1
  Mo  Mo209  1  0.21108360  0.80188889  0.41759050  1
  Mo  Mo210  1  0.00245697  0.00593152  0.19262825  1
  Mo  Mo211  1  0.89962449  0.09716806  0.12128239  1
  Mo  Mo212  1  0.01585960  0.80121703  0.18442036  1
  Mo  Mo213  1  0.90397267  0.08905703  0.88849720  1
  Mo  Mo214  1  0.30710860  0.50092309  0.69357177  1
  Mo  Mo215  1  0.30113495  0.70023202  0.50277806  1
  Mo  Mo216  1  0.39394575  0.00130687  -0.00472267  1
  Mo  Mo217  1  0.60119988  0.00254509  0.60134518  1
  Mo  Mo218  1  0.70462928  0.29163672  0.50324663  1
  Mo  Mo219  1  0.40181699  -0.00410188  0.41215045  1
  Mo  Mo220  1  0.49674837  0.70110954  0.49953758  1
  Mo  Mo221  1  0.21214195  0.39425934  0.59763559  1
  Mo  Mo222  1  0.20090494  0.60098167  0.60313797  1
  Mo  Mo223  1  0.90535653  0.28523574  0.89790911  1
  Mo  Mo224  1  0.19608345  0.18938899  0.00300076  1
  Mo  Mo225  1  0.00490283  0.18644568  0.60511293  1
  Mo  Mo226  1  0.70106726  0.89527912  0.89007398  1
  Mo  Mo227  1  0.49974278  0.50196135  0.70078174  1
  Mo  Mo228  1  0.79793517  0.79511137  -0.02104062  1
  Mo  Mo229  1  0.89690426  0.69859777  0.09957897  1
  Mo  Mo230  1  0.69726379  0.28545095  0.30034526  1
  Mo  Mo231  1  0.49131703  0.09728080  0.69787136  1
  Mo  Mo232  1  0.90198611  0.51009643  0.90194233  1
  Mo  Mo233  1  0.29389761  0.90281384  0.08440438  1
  Mo  Mo234  1  0.30020285  0.70620498  0.90083550  1
  Mo  Mo235  1  0.30325062  0.30099516  0.89667785  1
  Mo  Mo236  1  0.89908469  0.70206849  0.89229159  1
  Mo  Mo237  1  0.39937339  -0.00006877  0.60427510  1
  Mo  Mo238  1  -0.00429727  0.00813595  0.39955141  1
  Mo  Mo239  1  0.49816529  0.90032006  0.89460281  1
  Mo  Mo240  1  0.19942855  0.80525057  0.60993511  1
  Mo  Mo241  1  0.10294412  0.89553612  0.90361546  1
  Mo  Mo242  1  0.29819509  0.90498167  0.70013220  1
  Mo  Mo243  1  0.20236970  0.19462326  0.40880058  1
  Mo  Mo244  1  0.90384046  0.09219160  0.69419654  1
  Mo  Mo245  1  0.78444680  0.80586449  0.21767259  1
  Mo  Mo246  1  0.49859078  0.90645780  0.49832615  1
  Mo  Mo247  1  0.49185753  0.30263573  0.70059587  1
  Mo  Mo248  1  0.70290817  0.09727728  0.49839980  1
  Mo  Mo249  1  0.29711242  0.89911743  0.50377157  1
