# generated using pymatgen
data_HfZrTaTiMo
_symmetry_space_group_name_H-M   'P 1'
_cell_length_a   16.88333756
_cell_length_b   16.88830332
_cell_length_c   16.89755050
_cell_angle_alpha   90.05747744
_cell_angle_beta   89.98740617
_cell_angle_gamma   89.99814736
_symmetry_Int_Tables_number   1
_chemical_formula_structural   HfZrTaTiMo
_chemical_formula_sum   'Hf50 Zr50 Ta50 Ti50 Mo50'
_cell_volume   4818.01167327
_cell_formula_units_Z   50
loop_
 _symmetry_equiv_pos_site_id
 _symmetry_equiv_pos_as_xyz
  1  'x, y, z'
loop_
 _atom_site_type_symbol
 _atom_site_label
 _atom_site_symmetry_multiplicity
 _atom_site_fract_x
 _atom_site_fract_y
 _atom_site_fract_z
 _atom_site_occupancy
  Hf  Hf0  1  0.50687948  0.68458695  0.90010627  1
  Hf  Hf1  1  0.20609724  0.39620368  0.80837792  1
  Hf  Hf2  1  0.39266723  -0.00117633  0.59313275  1
  Hf  Hf3  1  0.60005580  0.79537215  0.80097899  1
  Hf  Hf4  1  -0.00209150  0.79902258  0.59223834  1
  Hf  Hf5  1  0.89153332  0.70418092  0.69938991  1
  Hf  Hf6  1  0.88477894  0.90561621  0.92537782  1
  Hf  Hf7  1  0.49906743  0.70794868  0.51670736  1
  Hf  Hf8  1  0.90050798  0.30590536  0.49746943  1
  Hf  Hf9  1  0.00923208  0.20388768  -0.00036213  1
  Hf  Hf10  1  0.90425819  0.30343224  0.70079165  1
  Hf  Hf11  1  0.29887779  0.50101298  0.50173799  1
  Hf  Hf12  1  0.59858025  0.40324442  0.39375359  1
  Hf  Hf13  1  -0.01071975  0.80054303  0.81069208  1
  Hf  Hf14  1  0.90059079  0.10340793  0.70057252  1
  Hf  Hf15  1  0.40313372  0.78723730  0.79577574  1
  Hf  Hf16  1  0.00162397  0.40492402  0.20388693  1
  Hf  Hf17  1  0.50803732  0.09820286  0.70036768  1
  Hf  Hf18  1  0.38095129  0.58959891  -0.00878221  1
  Hf  Hf19  1  0.19846958  0.20267857  0.59654216  1
  Hf  Hf20  1  0.28843558  0.70582776  0.30938451  1
  Hf  Hf21  1  -0.00630878  0.00016686  0.80280852  1
  Hf  Hf22  1  0.39954094  0.59550244  0.20460667  1
  Hf  Hf23  1  0.90274308  0.29867106  0.89811025  1
  Hf  Hf24  1  0.80447958  -0.00188615  0.19749035  1
  Hf  Hf25  1  0.38896719  0.00541513  0.39692356  1
  Hf  Hf26  1  0.40817373  0.59846187  0.40050073  1
  Hf  Hf27  1  0.29769671  0.89209369  0.89563413  1
  Hf  Hf28  1  0.30868224  0.30865552  0.10721910  1
  Hf  Hf29  1  -0.00027838  0.19588253  0.20148861  1
  Hf  Hf30  1  0.50397180  0.90500639  0.90094535  1
  Hf  Hf31  1  0.00219189  0.60558109  0.59209531  1
  Hf  Hf32  1  0.79241366  -0.00306712  0.80344160  1
  Hf  Hf33  1  0.38612111  0.80519967  0.19476065  1
  Hf  Hf34  1  0.39638115  0.21301280  0.80934058  1
  Hf  Hf35  1  0.70498179  0.69974670  0.30154425  1
  Hf  Hf36  1  0.59719508  0.20475027  0.19793525  1
  Hf  Hf37  1  0.10602382  0.70657752  0.70802725  1
  Hf  Hf38  1  0.80078012  0.60736662  0.58535260  1
  Hf  Hf39  1  0.40020184  0.20279047  0.20997005  1
  Hf  Hf40  1  0.80110628  0.40393936  0.39586880  1
  Hf  Hf41  1  0.59075156  0.20873316  0.00595844  1
  Hf  Hf42  1  0.50535896  0.30293053  0.69670494  1
  Hf  Hf43  1  0.79316101  0.20161981  0.79750969  1
  Hf  Hf44  1  0.21180230  0.40952683  -0.00267396  1
  Hf  Hf45  1  0.68860143  0.69527887  0.69068431  1
  Hf  Hf46  1  0.69401902  0.30890423  0.69626743  1
  Hf  Hf47  1  0.50573705  0.69629853  0.09936198  1
  Hf  Hf48  1  0.30466393  0.50234529  0.69215036  1
  Hf  Hf49  1  0.29416362  0.89189477  0.69776707  1
  Zr  Zr50  1  0.79297325  0.79975509  0.81261490  1
  Zr  Zr51  1  -0.00176511  -0.00722878  0.19379831  1
  Zr  Zr52  1  0.69411076  0.09468534  0.90281060  1
  Zr  Zr53  1  0.00405104  0.00160624  0.00472124  1
  Zr  Zr54  1  0.19820587  0.00853018  0.80707134  1
  Zr  Zr55  1  0.49795125  0.49734954  0.10238825  1
  Zr  Zr56  1  0.29478567  0.50011431  0.29789236  1
  Zr  Zr57  1  0.60075419  0.39882581  0.00070211  1
  Zr  Zr58  1  0.69407003  0.89995480  0.69400561  1
  Zr  Zr59  1  0.19828141  0.77367631  -0.00805455  1
  Zr  Zr60  1  0.39157060  0.79141815  0.00662470  1
  Zr  Zr61  1  0.89911098  0.49575871  0.69309070  1
  Zr  Zr62  1  0.10826680  0.52544574  0.10409777  1
  Zr  Zr63  1  0.00625231  0.40256371  0.00347873  1
  Zr  Zr64  1  0.50424239  0.29853701  0.50512600  1
  Zr  Zr65  1  0.79305192  0.00516269  0.59305553  1
  Zr  Zr66  1  0.50482660  0.71181228  0.29693034  1
  Zr  Zr67  1  0.50365892  0.10729821  0.50161243  1
  Zr  Zr68  1  0.40584024  0.39466266  -0.01354402  1
  Zr  Zr69  1  0.10692950  0.89219405  0.30190925  1
  Zr  Zr70  1  0.09822383  0.30187442  0.49410685  1
  Zr  Zr71  1  0.70110768  0.50619591  0.49905135  1
  Zr  Zr72  1  -0.00056458  0.19932727  0.59640886  1
  Zr  Zr73  1  0.59907012  0.60220886  0.40283922  1
  Zr  Zr74  1  0.89929127  0.89899275  0.30931912  1
  Zr  Zr75  1  0.71037819  0.90497335  0.09348001  1
  Zr  Zr76  1  -0.00577112  0.59959996  0.80631787  1
  Zr  Zr77  1  0.89835122  0.09454967  0.48309610  1
  Zr  Zr78  1  0.60518000  -0.00376277  0.40255757  1
  Zr  Zr79  1  0.20205930  0.00555433  0.00744732  1
  Zr  Zr80  1  0.29463295  0.10058697  0.70269775  1
  Zr  Zr81  1  0.19978429  0.40125451  0.20334173  1
  Zr  Zr82  1  0.39067168  -0.00042109  0.01383202  1
  Zr  Zr83  1  0.81096697  0.79234997  0.19112012  1
  Zr  Zr84  1  0.21142147  0.60817167  0.81421014  1
  Zr  Zr85  1  0.10176370  0.90158119  0.69970922  1
  Zr  Zr86  1  0.49882253  0.09693406  0.89898681  1
  Zr  Zr87  1  0.10291192  0.08674097  0.30830521  1
  Zr  Zr88  1  0.79493101  0.41168380  0.80630608  1
  Zr  Zr89  1  0.10265769  0.49655488  0.69903237  1
  Zr  Zr90  1  0.71184866  0.10051946  0.30360057  1
  Zr  Zr91  1  0.50132652  0.10366612  0.30716428  1
  Zr  Zr92  1  0.38796043  0.20007566  0.59422443  1
  Zr  Zr93  1  0.50173715  0.89101446  0.68674835  1
  Zr  Zr94  1  0.40837233  0.39687489  0.38834266  1
  Zr  Zr95  1  0.89375028  0.29940498  0.10589746  1
  Zr  Zr96  1  0.10080350  0.88810546  0.90206389  1
  Zr  Zr97  1  0.71205458  0.30379570  0.28618440  1
  Zr  Zr98  1  0.60942399  0.79860463  0.00105685  1
  Zr  Zr99  1  0.20794382  0.19291522  0.20171579  1
  Ta  Ta100  1  0.89479500  0.90010229  0.69052790  1
  Ta  Ta101  1  0.21328799  0.19520366  0.39832475  1
  Ta  Ta102  1  0.69708374  0.30490878  0.90035264  1
  Ta  Ta103  1  0.50105645  0.90123725  0.10741311  1
  Ta  Ta104  1  0.59893614  0.20743242  0.80302480  1
  Ta  Ta105  1  0.70104125  0.89365867  0.30251250  1
  Ta  Ta106  1  0.20680124  0.20538673  -0.00333540  1
  Ta  Ta107  1  0.39973519  -0.00170220  0.79808170  1
  Ta  Ta108  1  0.50295341  0.89892091  0.29721524  1
  Ta  Ta109  1  0.90618714  0.50411927  0.48880488  1
  Ta  Ta110  1  0.39212634  -0.00088047  0.20138875  1
  Ta  Ta111  1  0.10116154  0.09157420  0.49454852  1
  Ta  Ta112  1  0.80165651  0.60281975  0.19422757  1
  Ta  Ta113  1  0.39957202  0.20386485  0.00625167  1
  Ta  Ta114  1  0.30790007  0.69786604  0.68915221  1
  Ta  Ta115  1  0.00101312  -0.00192952  0.59632788  1
  Ta  Ta116  1  0.19908845  0.79689019  0.59444127  1
  Ta  Ta117  1  0.90467776  0.51197673  0.10006522  1
  Ta  Ta118  1  0.27889538  0.67606870  0.11025687  1
  Ta  Ta119  1  0.30209679  0.70240475  0.50112362  1
  Ta  Ta120  1  0.79191677  0.20580236  0.00058674  1
  Ta  Ta121  1  0.90149840  0.51109957  0.29881381  1
  Ta  Ta122  1  0.19868032  0.39709194  0.39759948  1
  Ta  Ta123  1  0.41262354  0.59107588  0.79207138  1
  Ta  Ta124  1  0.40483422  0.40472630  0.80202468  1
  Ta  Ta125  1  0.79339566  0.59607816  0.80622900  1
  Ta  Ta126  1  0.19894987  0.60493031  0.59437255  1
  Ta  Ta127  1  0.89163865  0.10177202  0.09268055  1
  Ta  Ta128  1  0.10084059  0.90278999  0.49225136  1
  Ta  Ta129  1  0.60110369  0.00043234  0.00872734  1
  Ta  Ta130  1  0.19666608  0.21014587  0.80795733  1
  Ta  Ta131  1  0.89687324  0.10666093  0.90467842  1
  Ta  Ta132  1  0.00080922  0.79359951  0.39984565  1
  Ta  Ta133  1  0.10018008  0.50165528  0.49309893  1
  Ta  Ta134  1  0.10097133  0.50804849  0.90689956  1
  Ta  Ta135  1  0.10345736  0.88696351  0.10195761  1
  Ta  Ta136  1  0.79573143  0.40749799  0.00194407  1
  Ta  Ta137  1  0.70478058  0.50529609  0.29232739  1
  Ta  Ta138  1  0.79007390  0.20531749  0.59444212  1
  Ta  Ta139  1  0.69878341  0.68521621  0.90291090  1
  Ta  Ta140  1  0.10198066  0.29787101  0.30387141  1
  Ta  Ta141  1  0.09369405  0.50859365  0.30637228  1
  Ta  Ta142  1  0.10659531  0.70266638  0.49099260  1
  Ta  Ta143  1  0.29374814  0.89343324  0.49512773  1
  Ta  Ta144  1  0.79952896  0.78109314  0.00704343  1
  Ta  Ta145  1  0.09647768  0.10430484  0.70072854  1
  Ta  Ta146  1  0.49688311  0.89335092  0.49723138  1
  Ta  Ta147  1  0.61008498  0.21484905  0.40241636  1
  Ta  Ta148  1  0.59953642  -0.00127569  0.19921991  1
  Ta  Ta149  1  0.90002065  0.90021259  0.49586526  1
  Ti  Ti150  1  0.09566563  0.11207047  0.89350900  1
  Ti  Ti151  1  0.00101164  0.78723747  0.19628544  1
  Ti  Ti152  1  0.80466272  0.78780979  0.40879316  1
  Ti  Ti153  1  0.70349041  0.89386109  0.49432035  1
  Ti  Ti154  1  -0.00575355  0.78920804  0.01243643  1
  Ti  Ti155  1  0.69026944  0.50736663  0.69874655  1
  Ti  Ti156  1  0.19639624  0.39703397  0.59636305  1
  Ti  Ti157  1  -0.00134426  0.60896568  0.39944025  1
  Ti  Ti158  1  0.60198799  0.40741661  0.59635146  1
  Ti  Ti159  1  0.60347548  0.80059534  0.40589098  1
  Ti  Ti160  1  0.30214115  0.30453687  0.49286017  1
  Ti  Ti161  1  0.90176227  0.50329943  0.91071848  1
  Ti  Ti162  1  0.79617658  0.59634165  0.00565566  1
  Ti  Ti163  1  0.29099192  0.89946390  0.30342181  1
  Ti  Ti164  1  0.09353211  0.29564754  0.70907335  1
  Ti  Ti165  1  0.19298131  0.79045283  0.19665194  1
  Ti  Ti166  1  0.60164359  -0.00231035  0.59072641  1
  Ti  Ti167  1  0.60855036  0.80295818  0.19391861  1
  Ti  Ti168  1  0.49842101  0.50781209  0.51754458  1
  Ti  Ti169  1  0.30217112  0.10436320  0.90343443  1
  Ti  Ti170  1  0.79774911  0.79660108  0.58734905  1
  Ti  Ti171  1  0.49603465  0.09641234  0.10462269  1
  Ti  Ti172  1  0.70437754  0.10419339  0.10208221  1
  Ti  Ti173  1  0.00881700  0.39947885  0.81020825  1
  Ti  Ti174  1  0.68774396  0.10213670  0.69777895  1
  Ti  Ti175  1  0.19420984  0.60083425  0.40106375  1
  Ti  Ti176  1  0.60456071  0.59808241  0.20010772  1
  Ti  Ti177  1  0.29950224  0.30571098  0.69762063  1
  Ti  Ti178  1  0.59297494  0.41250568  0.80829242  1
  Ti  Ti179  1  0.90010304  0.29640956  0.29761161  1
  Ti  Ti180  1  0.39833757  0.80558099  0.39909982  1
  Ti  Ti181  1  0.90271193  0.69343248  0.30034522  1
  Ti  Ti182  1  0.79713894  0.20957101  0.40285237  1
  Ti  Ti183  1  0.19822933  0.00195014  0.59311789  1
  Ti  Ti184  1  0.80746690  0.41197368  0.19626767  1
  Ti  Ti185  1  0.10465207  0.10056362  0.10227264  1
  Ti  Ti186  1  0.40273173  0.40194521  0.60221297  1
  Ti  Ti187  1  0.00497733  0.40361736  0.59571731  1
  Ti  Ti188  1  0.70183753  0.49913860  0.10572474  1
  Ti  Ti189  1  0.60819239  0.58643495  -0.00298902  1
  Ti  Ti190  1  0.00091145  0.40176709  0.39262626  1
  Ti  Ti191  1  0.70605700  0.30327354  0.10369161  1
  Ti  Ti192  1  0.58821097  0.39694563  0.20440003  1
  Ti  Ti193  1  0.89728583  0.69017050  0.91156962  1
  Ti  Ti194  1  0.00217202  0.19889771  0.39381140  1
  Ti  Ti195  1  0.21317931  -0.00348943  0.19269624  1
  Ti  Ti196  1  0.89642264  0.09848170  0.30349684  1
  Ti  Ti197  1  0.10644831  0.29958243  0.10305719  1
  Ti  Ti198  1  0.79667627  0.40301720  0.59362518  1
  Ti  Ti199  1  0.69876421  0.10811983  0.49708538  1
  Mo  Mo200  1  0.50202350  0.68794723  0.69336668  1
  Mo  Mo201  1  0.28832980  0.09328257  0.49663706  1
  Mo  Mo202  1  0.50451054  0.50137426  0.89275573  1
  Mo  Mo203  1  0.39847445  0.59931058  0.60078455  1
  Mo  Mo204  1  -0.00396804  0.60819910  0.20585288  1
  Mo  Mo205  1  0.60175733  0.59126096  0.79653662  1
  Mo  Mo206  1  0.19141937  0.60501643  0.21720980  1
  Mo  Mo207  1  0.61323944  0.19858332  0.60153261  1
  Mo  Mo208  1  0.09528740  0.69730806  0.30139257  1
  Mo  Mo209  1  0.39248992  0.80041446  0.59522567  1
  Mo  Mo210  1  0.31501574  0.69618067  0.88837339  1
  Mo  Mo211  1  0.60588040  0.80147252  0.58830959  1
  Mo  Mo212  1  0.80419267  0.19453305  0.19510133  1
  Mo  Mo213  1  0.79688703  -0.01141040  0.39829016  1
  Mo  Mo214  1  0.59756597  0.00088894  0.80216221  1
  Mo  Mo215  1  0.30017004  0.29837801  0.30695400  1
  Mo  Mo216  1  0.90357313  0.70296901  0.49154842  1
  Mo  Mo217  1  0.90697838  0.89282246  0.09933657  1
  Mo  Mo218  1  0.51055876  0.49946120  0.29162195  1
  Mo  Mo219  1  0.70366463  0.30500220  0.50465531  1
  Mo  Mo220  1  0.08326544  0.69428499  0.90597640  1
  Mo  Mo221  1  0.10362093  0.30283216  0.90207386  1
  Mo  Mo222  1  0.79665237  0.01275619  0.00323446  1
  Mo  Mo223  1  0.80683016  0.60210653  0.39160138  1
  Mo  Mo224  1  0.69638435  0.89835408  0.90605878  1
  Mo  Mo225  1  0.30278675  0.29783729  0.90335193  1
  Mo  Mo226  1  -0.00230890  0.60704858  0.00221979  1
  Mo  Mo227  1  0.50412281  0.49594005  0.69516471  1
  Mo  Mo228  1  0.00520944  0.19982464  0.80261448  1
  Mo  Mo229  1  0.90270694  0.69243573  0.09762140  1
  Mo  Mo230  1  0.29859313  0.50204187  0.10523579  1
  Mo  Mo231  1  0.50283989  0.29939659  0.30197243  1
  Mo  Mo232  1  0.49713691  0.30038388  0.10734337  1
  Mo  Mo233  1  0.30410376  0.49827977  0.88833125  1
  Mo  Mo234  1  0.30321357  0.10554692  0.10086021  1
  Mo  Mo235  1  0.70001298  0.70811289  0.49646798  1
  Mo  Mo236  1  0.69959872  0.68529973  0.09894561  1
  Mo  Mo237  1  0.38641275  0.20340474  0.39760429  1
  Mo  Mo238  1  0.28919144  0.89325947  0.10810750  1
  Mo  Mo239  1  0.50462653  0.30169544  0.89348743  1
  Mo  Mo240  1  0.09451675  0.70190024  0.10531117  1
  Mo  Mo241  1  0.19838694  0.79985591  0.40329168  1
  Mo  Mo242  1  -0.00101608  -0.00622123  0.40386390  1
  Mo  Mo243  1  0.59567434  0.59889386  0.60406812  1
  Mo  Mo244  1  0.29972726  0.09398323  0.29942115  1
  Mo  Mo245  1  0.41010241  0.39763705  0.20305445  1
  Mo  Mo246  1  0.19825886  0.59820834  -0.00791765  1
  Mo  Mo247  1  0.20262193  -0.00299538  0.40377366  1
  Mo  Mo248  1  0.20615414  0.78918602  0.79552369  1
  Mo  Mo249  1  0.70081872  0.50191752  0.90370635  1
