# generated using pymatgen
data_HfZrTaTiMo
_symmetry_space_group_name_H-M   'P 1'
_cell_length_a   16.88426261
_cell_length_b   16.88596116
_cell_length_c   16.87116639
_cell_angle_alpha   89.95597492
_cell_angle_beta   90.01757614
_cell_angle_gamma   90.01674956
_symmetry_Int_Tables_number   1
_chemical_formula_structural   HfZrTaTiMo
_chemical_formula_sum   'Hf50 Zr50 Ta50 Ti50 Mo50'
_cell_volume   4810.08582801
_cell_formula_units_Z   50
loop_
 _symmetry_equiv_pos_site_id
 _symmetry_equiv_pos_as_xyz
  1  'x, y, z'
loop_
 _atom_site_type_symbol
 _atom_site_label
 _atom_site_symmetry_multiplicity
 _atom_site_fract_x
 _atom_site_fract_y
 _atom_site_fract_z
 _atom_site_occupancy
  Hf  Hf0  1  0.09159138  0.49427433  0.89432618  1
  Hf  Hf1  1  0.80533334  0.81009594  0.59888148  1
  Hf  Hf2  1  0.58836443  0.59303785  -0.00082748  1
  Hf  Hf3  1  0.49347945  0.89642934  0.09236351  1
  Hf  Hf4  1  0.09327198  0.09618045  0.29688672  1
  Hf  Hf5  1  0.80583931  0.20298880  0.39405991  1
  Hf  Hf6  1  0.09865824  0.89990529  0.10544587  1
  Hf  Hf7  1  0.70514116  0.50264100  0.90635733  1
  Hf  Hf8  1  0.69532103  0.50725823  0.49397486  1
  Hf  Hf9  1  0.50104442  0.30813321  0.10681345  1
  Hf  Hf10  1  0.19472477  0.20332051  0.19198051  1
  Hf  Hf11  1  0.10123640  0.10083940  0.69976020  1
  Hf  Hf12  1  0.69697783  0.69679803  0.90162181  1
  Hf  Hf13  1  0.80450093  0.59303188  0.39381168  1
  Hf  Hf14  1  0.00674555  0.20463851  0.59590073  1
  Hf  Hf15  1  0.79507459  0.81182754  0.00511714  1
  Hf  Hf16  1  0.39562904  0.19807379  0.20406720  1
  Hf  Hf17  1  0.20671617  0.59000083  0.00155601  1
  Hf  Hf18  1  0.20553258  -0.00850086  0.59793423  1
  Hf  Hf19  1  0.89335824  0.69527987  0.90539431  1
  Hf  Hf20  1  0.09455629  0.69635477  0.10379098  1
  Hf  Hf21  1  0.48637205  0.30458600  0.48814947  1
  Hf  Hf22  1  0.90986453  0.49228105  0.70438130  1
  Hf  Hf23  1  0.09623201  0.70204754  0.90022993  1
  Hf  Hf24  1  0.20767083  0.60639635  0.80237878  1
  Hf  Hf25  1  0.69465058  0.70321594  0.69671814  1
  Hf  Hf26  1  0.30364598  0.09917282  0.69380267  1
  Hf  Hf27  1  0.30867555  0.72489796  0.71904699  1
  Hf  Hf28  1  0.50067059  0.70059711  0.49882069  1
  Hf  Hf29  1  0.20585463  0.01488380  -0.00558653  1
  Hf  Hf30  1  0.59376594  0.20207399  0.60132714  1
  Hf  Hf31  1  0.70363980  0.30767101  0.10179333  1
  Hf  Hf32  1  0.80805670  -0.01005495  0.40834664  1
  Hf  Hf33  1  0.00942616  0.20358830  0.00416789  1
  Hf  Hf34  1  0.89796058  0.30800188  0.10311635  1
  Hf  Hf35  1  0.60426279  0.19830699  0.80009721  1
  Hf  Hf36  1  0.01108024  0.40246875  0.58652600  1
  Hf  Hf37  1  0.60364905  0.40562626  0.38932288  1
  Hf  Hf38  1  0.10822967  0.49477480  0.69537762  1
  Hf  Hf39  1  0.69007685  0.68511241  0.30161314  1
  Hf  Hf40  1  0.49186607  0.68859980  0.10830054  1
  Hf  Hf41  1  0.30482181  0.30955960  0.09819208  1
  Hf  Hf42  1  0.20114338  0.19508506  0.80945823  1
  Hf  Hf43  1  0.49667564  0.09737670  0.10353063  1
  Hf  Hf44  1  0.71345694  0.11048553  0.11445254  1
  Hf  Hf45  1  0.39615976  0.60496263  0.60446754  1
  Hf  Hf46  1  0.59014717  0.59990797  0.60840302  1
  Hf  Hf47  1  0.38954001  -0.01478744  0.40569557  1
  Hf  Hf48  1  0.39650351  0.19927646  0.79691644  1
  Hf  Hf49  1  0.20165374  0.59544685  0.20637828  1
  Zr  Zr50  1  0.10344574  0.72108725  0.68730402  1
  Zr  Zr51  1  0.38296963  0.18533695  -0.00035140  1
  Zr  Zr52  1  0.49773358  0.09554971  0.49908976  1
  Zr  Zr53  1  0.30245734  0.88083393  0.88496900  1
  Zr  Zr54  1  -0.00015021  -0.00529317  0.40375343  1
  Zr  Zr55  1  0.70686131  0.89694820  0.30578042  1
  Zr  Zr56  1  0.29550094  0.89049511  0.10059941  1
  Zr  Zr57  1  0.29546330  0.10352261  0.31000067  1
  Zr  Zr58  1  0.59254204  0.40359276  0.60352896  1
  Zr  Zr59  1  -0.00510757  -0.01083667  0.60827553  1
  Zr  Zr60  1  0.20477607  0.78565558  0.00085897  1
  Zr  Zr61  1  0.68568469  0.90991173  0.69413368  1
  Zr  Zr62  1  0.80272040  0.00244329  0.80288184  1
  Zr  Zr63  1  0.49387737  0.30396670  0.90238415  1
  Zr  Zr64  1  0.30159526  0.30551836  0.31032597  1
  Zr  Zr65  1  0.19910717  -0.01309520  0.40645312  1
  Zr  Zr66  1  -0.00521740  0.60732892  0.79274938  1
  Zr  Zr67  1  0.00543222  0.60529245  0.58699351  1
  Zr  Zr68  1  0.89615449  0.10823456  0.50623971  1
  Zr  Zr69  1  0.60654854  0.79566717  0.18910631  1
  Zr  Zr70  1  0.09482730  0.87488636  0.51438117  1
  Zr  Zr71  1  0.50165615  0.09791386  0.30811571  1
  Zr  Zr72  1  0.19378704  0.40003043  0.20314468  1
  Zr  Zr73  1  0.90726421  0.10077333  0.11559006  1
  Zr  Zr74  1  0.80464426  0.40250943  0.80582423  1
  Zr  Zr75  1  0.71046196  0.30101550  0.50302184  1
  Zr  Zr76  1  0.60480786  0.20608414  0.39307076  1
  Zr  Zr77  1  0.59702391  0.80087015  0.40205098  1
  Zr  Zr78  1  0.90070363  0.29654482  0.69366619  1
  Zr  Zr79  1  0.20578902  0.39641015  0.79871761  1
  Zr  Zr80  1  -0.01206775  0.81372306  0.78912793  1
  Zr  Zr81  1  0.80573882  0.59941693  0.60457855  1
  Zr  Zr82  1  0.50100491  0.90255806  0.30417896  1
  Zr  Zr83  1  0.60824903  -0.00280358  0.19766157  1
  Zr  Zr84  1  0.90519339  0.10828781  0.90473946  1
  Zr  Zr85  1  0.39164126  0.79881260  0.21464816  1
  Zr  Zr86  1  0.80167324  0.80532918  0.79814453  1
  Zr  Zr87  1  0.50412762  0.51116737  0.28942050  1
  Zr  Zr88  1  0.10224901  0.89949559  0.89982785  1
  Zr  Zr89  1  0.40754399  0.60020322  0.80469387  1
  Zr  Zr90  1  0.20741626  0.60696701  0.59112635  1
  Zr  Zr91  1  0.60756748  0.19701526  -0.00100051  1
  Zr  Zr92  1  0.80290212  -0.00249968  0.00180357  1
  Zr  Zr93  1  0.00657851  0.59740377  0.39682430  1
  Zr  Zr94  1  0.89594097  0.69243962  0.09927404  1
  Zr  Zr95  1  -0.00337074  0.79490856  0.39824390  1
  Zr  Zr96  1  0.70351860  0.30222570  0.69846865  1
  Zr  Zr97  1  0.79947468  0.58944787  0.19832388  1
  Zr  Zr98  1  0.61167537  -0.00015006  0.00205488  1
  Zr  Zr99  1  0.50281810  0.08842245  0.89331674  1
  Ta  Ta100  1  0.39608973  -0.00581336  0.79589246  1
  Ta  Ta101  1  0.90064205  0.30584004  0.49572738  1
  Ta  Ta102  1  0.39861025  0.20646633  0.60039876  1
  Ta  Ta103  1  0.08949884  0.49636007  0.10351847  1
  Ta  Ta104  1  0.20351582  -0.00252569  0.20240957  1
  Ta  Ta105  1  0.19774395  0.40170106  0.00411194  1
  Ta  Ta106  1  0.50074333  0.89782601  0.89768748  1
  Ta  Ta107  1  0.38998223  -0.00195620  -0.00481807  1
  Ta  Ta108  1  0.49307290  0.50407555  0.49320603  1
  Ta  Ta109  1  0.69756492  0.09331629  0.50333905  1
  Ta  Ta110  1  0.00525920  0.39621623  0.39391751  1
  Ta  Ta111  1  0.89494819  0.70584890  0.49600988  1
  Ta  Ta112  1  0.20604335  0.79012875  0.40196863  1
  Ta  Ta113  1  0.70396686  0.30648512  0.90633072  1
  Ta  Ta114  1  0.10907273  0.30437216  0.49502503  1
  Ta  Ta115  1  0.10449978  0.89069927  0.29174281  1
  Ta  Ta116  1  -0.00740200  0.80024035  0.19909196  1
  Ta  Ta117  1  0.09680928  0.09525174  0.10588261  1
  Ta  Ta118  1  0.40182859  0.41514331  -0.00199325  1
  Ta  Ta119  1  0.59187830  0.79703400  0.79713222  1
  Ta  Ta120  1  -0.01248537  0.80907853  0.00275958  1
  Ta  Ta121  1  0.20067360  -0.00370272  0.79507711  1
  Ta  Ta122  1  0.30162863  0.11332658  0.49948567  1
  Ta  Ta123  1  0.68664194  0.90242424  0.89399380  1
  Ta  Ta124  1  0.20256878  0.20900456  0.59913742  1
  Ta  Ta125  1  0.19559362  0.20067797  0.00025217  1
  Ta  Ta126  1  0.29998847  0.30645229  0.90477355  1
  Ta  Ta127  1  0.00663876  0.21996626  0.20888868  1
  Ta  Ta128  1  0.00369788  0.20263051  0.80294899  1
  Ta  Ta129  1  0.09933699  0.30363588  0.90161710  1
  Ta  Ta130  1  -0.00363423  0.40130688  0.00110199  1
  Ta  Ta131  1  0.20063375  0.60039168  0.40209307  1
  Ta  Ta132  1  0.59689961  0.40624153  0.00100923  1
  Ta  Ta133  1  0.39095588  0.60214652  0.39868043  1
  Ta  Ta134  1  0.29826128  0.30536118  0.49915544  1
  Ta  Ta135  1  0.80051174  0.80024921  0.19709527  1
  Ta  Ta136  1  0.69889206  0.09900735  0.69314752  1
  Ta  Ta137  1  0.49820820  0.89970518  0.69787584  1
  Ta  Ta138  1  0.30035314  0.49398475  0.49833601  1
  Ta  Ta139  1  0.69971998  0.70311733  0.49738048  1
  Ta  Ta140  1  0.59506688  0.40622111  0.80699787  1
  Ta  Ta141  1  0.79815484  0.19866431  0.80354920  1
  Ta  Ta142  1  0.70831362  0.09440969  0.30408225  1
  Ta  Ta143  1  0.00108830  0.21001732  0.39519124  1
  Ta  Ta144  1  -0.00866147  0.58826657  0.00130929  1
  Ta  Ta145  1  0.38552945  -0.00060833  0.19901011  1
  Ta  Ta146  1  0.50182667  0.08770715  0.69469772  1
  Ta  Ta147  1  0.00033165  -0.00188300  0.00028875  1
  Ta  Ta148  1  0.00164669  0.00350994  0.80297737  1
  Ta  Ta149  1  0.80298158  0.59962214  0.79772662  1
  Ti  Ti150  1  0.80654720  -0.01329974  0.19727136  1
  Ti  Ti151  1  0.49162786  0.30692350  0.70404805  1
  Ti  Ti152  1  0.30281667  0.49217151  0.69730519  1
  Ti  Ti153  1  0.89695378  0.10513072  0.69989482  1
  Ti  Ti154  1  0.09578554  0.49657158  0.29761779  1
  Ti  Ti155  1  0.60107870  0.79841989  0.00013658  1
  Ti  Ti156  1  0.50142124  0.69023990  0.29876315  1
  Ti  Ti157  1  0.69831816  0.50019836  0.70491233  1
  Ti  Ti158  1  0.10088010  0.70289351  0.29488393  1
  Ti  Ti159  1  0.90287398  0.89576356  0.29720660  1
  Ti  Ti160  1  0.51003525  0.90282317  0.50956063  1
  Ti  Ti161  1  0.80344948  -0.00152801  0.59959880  1
  Ti  Ti162  1  0.80134241  0.40596495  0.20365955  1
  Ti  Ti163  1  0.49076635  0.49014379  0.70845526  1
  Ti  Ti164  1  0.39725635  0.40180619  0.59863567  1
  Ti  Ti165  1  0.90497472  0.09527748  0.29606923  1
  Ti  Ti166  1  0.29721406  0.69636960  0.30101224  1
  Ti  Ti167  1  0.30602494  0.49393417  0.89532281  1
  Ti  Ti168  1  0.31174322  0.50017297  0.11288538  1
  Ti  Ti169  1  0.19316339  0.20563375  0.40035191  1
  Ti  Ti170  1  0.90154211  0.49484734  0.49292749  1
  Ti  Ti171  1  0.10522640  0.10529272  0.49936995  1
  Ti  Ti172  1  0.80253442  0.40718236  0.59775206  1
  Ti  Ti173  1  0.90229889  0.30715206  0.90161928  1
  Ti  Ti174  1  0.39621216  0.41325531  0.39060532  1
  Ti  Ti175  1  0.69366264  0.90125812  0.50216306  1
  Ti  Ti176  1  0.60176481  0.20304017  0.20804792  1
  Ti  Ti177  1  0.81078928  0.21050056  0.21695846  1
  Ti  Ti178  1  0.49465167  0.31059168  0.29248472  1
  Ti  Ti179  1  0.69944631  0.49577197  0.10021955  1
  Ti  Ti180  1  0.22154768  0.80243204  0.59425828  1
  Ti  Ti181  1  0.39820970  0.78747495  -0.00641718  1
  Ti  Ti182  1  0.70028282  0.68835611  0.09427088  1
  Ti  Ti183  1  -0.00464441  0.59455234  0.20118290  1
  Ti  Ti184  1  0.39354586  -0.00973884  0.59710247  1
  Ti  Ti185  1  0.59296236  0.59875010  0.79803378  1
  Ti  Ti186  1  0.40311753  0.80403298  0.59839801  1
  Ti  Ti187  1  0.30238594  0.30613041  0.69534898  1
  Ti  Ti188  1  0.19491366  0.41035944  0.40064990  1
  Ti  Ti189  1  0.10220760  0.30474201  0.70145970  1
  Ti  Ti190  1  0.89361768  0.70416570  0.29912741  1
  Ti  Ti191  1  0.80383188  0.40061813  0.38856775  1
  Ti  Ti192  1  0.49534919  0.49884681  0.11044641  1
  Ti  Ti193  1  0.79926084  0.20362091  -0.00734457  1
  Ti  Ti194  1  0.39594940  0.59732614  -0.00489300  1
  Ti  Ti195  1  0.90839542  0.48768087  0.29204650  1
  Ti  Ti196  1  0.70114247  0.30895527  0.28930073  1
  Ti  Ti197  1  0.49867348  0.70425673  0.89915106  1
  Ti  Ti198  1  0.39028830  0.79744304  0.40497882  1
  Ti  Ti199  1  0.30377359  0.69318495  0.10706988  1
  Mo  Mo200  1  0.00072724  0.40334475  0.20055622  1
  Mo  Mo201  1  0.30630470  0.88887868  0.50127596  1
  Mo  Mo202  1  0.50186597  0.70819177  0.69799027  1
  Mo  Mo203  1  0.79868168  0.19215465  0.60299996  1
  Mo  Mo204  1  0.29481486  0.09666081  0.10369378  1
  Mo  Mo205  1  0.50122379  0.50093430  0.90070940  1
  Mo  Mo206  1  0.30620226  0.90207444  0.69602869  1
  Mo  Mo207  1  0.00218751  -0.00789671  0.20254692  1
  Mo  Mo208  1  -0.01847885  0.79715070  0.60033248  1
  Mo  Mo209  1  0.90046185  0.30896291  0.30047481  1
  Mo  Mo210  1  0.30665087  0.70043118  0.49403851  1
  Mo  Mo211  1  0.60198861  0.59541105  0.18925500  1
  Mo  Mo212  1  0.29895473  0.50328418  0.30649541  1
  Mo  Mo213  1  0.10624405  0.69906084  0.49492485  1
  Mo  Mo214  1  0.89842710  0.49915348  0.90477630  1
  Mo  Mo215  1  0.70269422  0.89447346  0.10019886  1
  Mo  Mo216  1  0.59511004  -0.00111120  0.79608970  1
  Mo  Mo217  1  0.70448882  0.10649722  0.89097775  1
  Mo  Mo218  1  0.89555401  0.69923798  0.69241328  1
  Mo  Mo219  1  0.19445238  0.79084880  0.20780564  1
  Mo  Mo220  1  0.10116637  0.30211595  0.30701072  1
  Mo  Mo221  1  0.40086713  0.40501794  0.19852670  1
  Mo  Mo222  1  0.41922980  0.80130714  0.80230182  1
  Mo  Mo223  1  0.39913885  0.39895812  0.79862592  1
  Mo  Mo224  1  0.80284718  0.40195585  0.00231127  1
  Mo  Mo225  1  0.89607643  0.89509536  0.50107128  1
  Mo  Mo226  1  0.70065856  0.49332151  0.29525505  1
  Mo  Mo227  1  0.90353184  0.90750851  0.90384779  1
  Mo  Mo228  1  0.59727403  0.80211215  0.59787200  1
  Mo  Mo229  1  0.30700782  0.69356578  0.90486290  1
  Mo  Mo230  1  0.39627457  0.20876103  0.40294449  1
  Mo  Mo231  1  0.59629963  0.60054456  0.40633571  1
  Mo  Mo232  1  0.29907685  0.09587495  0.89081974  1
  Mo  Mo233  1  0.20702008  0.39586906  0.59715892  1
  Mo  Mo234  1  0.90243654  0.90097373  0.10755711  1
  Mo  Mo235  1  0.18914677  0.80499978  0.79592685  1
  Mo  Mo236  1  0.90081626  0.49414251  0.09963287  1
  Mo  Mo237  1  0.79876040  0.59127580  -0.00094040  1
  Mo  Mo238  1  0.79975432  0.79405250  0.39903368  1
  Mo  Mo239  1  0.00290674  0.38924605  0.80596471  1
  Mo  Mo240  1  0.10938753  0.49682095  0.49075092  1
  Mo  Mo241  1  0.39241313  0.60074409  0.20534015  1
  Mo  Mo242  1  0.89699337  0.91217231  0.70157034  1
  Mo  Mo243  1  0.09859316  0.30442105  0.09367977  1
  Mo  Mo244  1  0.10637973  0.90237752  0.70270494  1
  Mo  Mo245  1  0.29167015  0.89230817  0.30301682  1
  Mo  Mo246  1  0.61148863  0.00024942  0.40786680  1
  Mo  Mo247  1  0.09982193  0.10222728  0.89877796  1
  Mo  Mo248  1  0.59556043  0.00056860  0.59798980  1
  Mo  Mo249  1  0.60381681  0.40259426  0.19614288  1
