# generated using pymatgen
data_HfZrTaTiMo
_symmetry_space_group_name_H-M   'P 1'
_cell_length_a   16.89874194
_cell_length_b   16.88724558
_cell_length_c   16.87964095
_cell_angle_alpha   89.95097245
_cell_angle_beta   89.98599149
_cell_angle_gamma   90.00235023
_symmetry_Int_Tables_number   1
_chemical_formula_structural   HfZrTaTiMo
_chemical_formula_sum   'Hf50 Zr50 Ta50 Ti50 Mo50'
_cell_volume   4816.99532762
_cell_formula_units_Z   50
loop_
 _symmetry_equiv_pos_site_id
 _symmetry_equiv_pos_as_xyz
  1  'x, y, z'
loop_
 _atom_site_type_symbol
 _atom_site_label
 _atom_site_symmetry_multiplicity
 _atom_site_fract_x
 _atom_site_fract_y
 _atom_site_fract_z
 _atom_site_occupancy
  Hf  Hf0  1  0.90076371  0.09341866  0.69637920  1
  Hf  Hf1  1  -0.00845853  0.61910514  0.18864673  1
  Hf  Hf2  1  0.20471989  0.80260681  0.80315404  1
  Hf  Hf3  1  0.79671521  0.19785766  0.40429862  1
  Hf  Hf4  1  0.70715818  0.90434972  0.48444124  1
  Hf  Hf5  1  0.09720022  0.29451989  0.30045067  1
  Hf  Hf6  1  0.59432441  0.59198373  0.39597886  1
  Hf  Hf7  1  0.59964750  0.39997098  0.59422639  1
  Hf  Hf8  1  0.69930644  0.29542434  0.91241527  1
  Hf  Hf9  1  0.41150462  0.18283471  0.19600204  1
  Hf  Hf10  1  -0.01121768  0.59745792  0.41095456  1
  Hf  Hf11  1  0.39745034  0.80854406  0.80501264  1
  Hf  Hf12  1  0.40274247  0.20509101  0.80025705  1
  Hf  Hf13  1  0.59455913  0.59921713  0.19153811  1
  Hf  Hf14  1  0.19628095  0.40178173  -0.00609646  1
  Hf  Hf15  1  -0.00893603  0.80355002  0.00778652  1
  Hf  Hf16  1  0.20236422  0.39229759  0.40084545  1
  Hf  Hf17  1  0.39674345  0.39683258  0.60795960  1
  Hf  Hf18  1  0.70241735  0.09658045  0.10172580  1
  Hf  Hf19  1  0.79561343  0.60063991  0.59832265  1
  Hf  Hf20  1  0.69803298  0.71116544  0.48864543  1
  Hf  Hf21  1  0.32200275  0.90634754  0.51178333  1
  Hf  Hf22  1  0.78756206  0.38798610  0.19610745  1
  Hf  Hf23  1  0.79911536  0.39943236  0.80462643  1
  Hf  Hf24  1  0.40040462  0.59796499  0.39748982  1
  Hf  Hf25  1  0.61395451  0.00706090  0.59525873  1
  Hf  Hf26  1  0.49456487  0.90776225  0.69620195  1
  Hf  Hf27  1  0.59721164  0.60458795  0.00254274  1
  Hf  Hf28  1  0.30142806  0.49434677  0.29493636  1
  Hf  Hf29  1  -0.00522336  0.60382179  0.59946732  1
  Hf  Hf30  1  0.09064744  0.09945871  0.69044264  1
  Hf  Hf31  1  0.09544553  0.29500387  0.50404413  1
  Hf  Hf32  1  0.19621956  0.20061370  0.00550410  1
  Hf  Hf33  1  0.49912006  0.29885624  0.29737816  1
  Hf  Hf34  1  0.89757898  0.91326322  0.29295374  1
  Hf  Hf35  1  -0.00420298  0.80541576  0.40221330  1
  Hf  Hf36  1  -0.00033692  -0.00889362  0.80602990  1
  Hf  Hf37  1  0.70498366  0.70680508  0.29988644  1
  Hf  Hf38  1  0.09525529  0.70628274  0.70453068  1
  Hf  Hf39  1  0.89125318  0.50053182  0.70128698  1
  Hf  Hf40  1  0.50261593  0.70848510  0.70497649  1
  Hf  Hf41  1  0.10142034  0.50381673  0.29956116  1
  Hf  Hf42  1  0.30163002  0.29379377  0.29352030  1
  Hf  Hf43  1  0.20590016  0.80269017  0.60613235  1
  Hf  Hf44  1  0.09636138  0.51385236  0.09006314  1
  Hf  Hf45  1  0.10309257  0.09751396  0.89878939  1
  Hf  Hf46  1  0.09159756  0.90511277  0.50440967  1
  Hf  Hf47  1  0.79498077  0.81097103  0.60426042  1
  Hf  Hf48  1  0.89519759  0.70612291  0.89902946  1
  Hf  Hf49  1  0.50688652  0.09771442  0.70307487  1
  Zr  Zr50  1  0.89477487  0.09686160  0.90402111  1
  Zr  Zr51  1  0.80071995  0.19796415  0.20665149  1
  Zr  Zr52  1  0.88979966  0.70569729  0.30250075  1
  Zr  Zr53  1  0.59860554  0.59174083  0.60390709  1
  Zr  Zr54  1  0.89605992  0.29857467  0.90483662  1
  Zr  Zr55  1  0.31500667  0.10016319  0.49406358  1
  Zr  Zr56  1  0.19799296  0.00036207  0.59896157  1
  Zr  Zr57  1  0.19990463  0.00105010  0.39799477  1
  Zr  Zr58  1  0.00703656  0.39492950  -0.00054056  1
  Zr  Zr59  1  0.10257411  0.69894736  0.30644019  1
  Zr  Zr60  1  0.00014136  0.39385036  0.19357523  1
  Zr  Zr61  1  0.50006247  0.70453711  0.29530292  1
  Zr  Zr62  1  0.69095218  0.71042411  0.70599093  1
  Zr  Zr63  1  0.59719247  0.39958983  0.01220731  1
  Zr  Zr64  1  0.60254463  0.80144881  -0.00206312  1
  Zr  Zr65  1  0.59301305  0.40567375  0.19859256  1
  Zr  Zr66  1  0.40067153  0.80442900  0.39665419  1
  Zr  Zr67  1  0.20700854  0.60668582  0.19229767  1
  Zr  Zr68  1  0.59594365  0.81072438  0.19145870  1
  Zr  Zr69  1  -0.00509811  0.19701716  0.19488739  1
  Zr  Zr70  1  0.70326676  0.49739797  0.90758322  1
  Zr  Zr71  1  0.20619184  -0.01647829  0.79530345  1
  Zr  Zr72  1  0.79623970  0.39883777  0.40348906  1
  Zr  Zr73  1  0.90617937  0.30226587  0.50955231  1
  Zr  Zr74  1  0.59118438  0.00168387  0.20271730  1
  Zr  Zr75  1  0.20026152  0.59239566  0.61149274  1
  Zr  Zr76  1  0.10062971  0.30063485  0.68950996  1
  Zr  Zr77  1  0.30973700  0.09199904  0.08943693  1
  Zr  Zr78  1  0.89155922  0.50376086  0.29191361  1
  Zr  Zr79  1  0.89135100  0.50608701  0.09365549  1
  Zr  Zr80  1  0.69826195  0.30016362  0.70296365  1
  Zr  Zr81  1  0.30877501  0.29977159  0.09955439  1
  Zr  Zr82  1  0.30248924  0.88669812  0.09198159  1
  Zr  Zr83  1  0.01204936  0.40744101  0.80390134  1
  Zr  Zr84  1  0.32215643  0.08066842  0.69219610  1
  Zr  Zr85  1  0.49891232  0.71373431  0.50971002  1
  Zr  Zr86  1  0.50623247  0.29666238  0.70098917  1
  Zr  Zr87  1  0.78948823  0.18719717  0.59457250  1
  Zr  Zr88  1  0.40584993  0.39685420  0.40266262  1
  Zr  Zr89  1  0.20515640  0.80195511  0.40076211  1
  Zr  Zr90  1  0.20885839  0.19955132  0.78858028  1
  Zr  Zr91  1  0.00024426  -0.00624581  0.01128087  1
  Zr  Zr92  1  0.30960716  0.09352875  0.90314095  1
  Zr  Zr93  1  0.00372421  0.59572177  0.80210335  1
  Zr  Zr94  1  0.20247209  0.59371785  0.80510925  1
  Zr  Zr95  1  0.40223244  0.58984430  0.61022705  1
  Zr  Zr96  1  0.90517865  0.29594743  0.69467951  1
  Zr  Zr97  1  0.59488892  -0.01015944  0.00628736  1
  Zr  Zr98  1  0.20006625  -0.00406792  0.19926845  1
  Zr  Zr99  1  0.10739303  0.49862373  0.49754729  1
  Ta  Ta100  1  0.19391752  -0.01136970  0.00226690  1
  Ta  Ta101  1  0.19630941  0.19268152  0.40205070  1
  Ta  Ta102  1  0.40921303  -0.00695940  0.19969632  1
  Ta  Ta103  1  0.10541153  0.29390792  0.89523536  1
  Ta  Ta104  1  0.48425166  0.70665347  0.09282362  1
  Ta  Ta105  1  0.79944358  -0.00742590  0.00222715  1
  Ta  Ta106  1  0.69761364  0.09481187  0.90557252  1
  Ta  Ta107  1  0.20657039  0.19736325  0.59373694  1
  Ta  Ta108  1  0.70155878  0.50679931  0.29486431  1
  Ta  Ta109  1  0.59916611  0.19803680  0.19722724  1
  Ta  Ta110  1  0.89552289  0.90030076  0.70365222  1
  Ta  Ta111  1  -0.00935456  0.80013395  0.60030557  1
  Ta  Ta112  1  0.89446197  0.70782869  0.70523481  1
  Ta  Ta113  1  0.30400351  0.49718456  0.09650139  1
  Ta  Ta114  1  0.19486506  0.39558663  0.18880019  1
  Ta  Ta115  1  0.09506535  0.09917820  0.29928427  1
  Ta  Ta116  1  0.88762732  0.89608436  0.89883266  1
  Ta  Ta117  1  0.60166486  0.40144135  0.39855490  1
  Ta  Ta118  1  0.79157060  0.60603074  0.80426940  1
  Ta  Ta119  1  0.80999515  0.80323336  0.18880144  1
  Ta  Ta120  1  -0.00378190  0.00938999  0.40332374  1
  Ta  Ta121  1  0.59708606  0.60021877  0.80718106  1
  Ta  Ta122  1  0.79749960  0.61628155  -0.00080121  1
  Ta  Ta123  1  0.49765564  0.09469122  0.90649400  1
  Ta  Ta124  1  0.60370993  0.19234378  0.81028753  1
  Ta  Ta125  1  0.30901183  0.70236084  0.70282780  1
  Ta  Ta126  1  0.09881317  0.69899668  0.90900322  1
  Ta  Ta127  1  0.79366991  0.19079498  0.80045068  1
  Ta  Ta128  1  0.89699465  0.50729612  0.90946517  1
  Ta  Ta129  1  0.59696655  0.00468233  0.39410913  1
  Ta  Ta130  1  0.19806771  0.79977759  0.19619797  1
  Ta  Ta131  1  0.40215996  0.59654932  0.19389289  1
  Ta  Ta132  1  0.39708462  0.60068975  -0.00135274  1
  Ta  Ta133  1  -0.00625261  0.18802165  0.40421039  1
  Ta  Ta134  1  0.00307676  0.19867871  0.00626747  1
  Ta  Ta135  1  0.10534837  0.70831753  0.08869211  1
  Ta  Ta136  1  0.59285956  0.19516503  0.00792700  1
  Ta  Ta137  1  0.40168888  0.59671172  0.80421369  1
  Ta  Ta138  1  0.70972388  0.90299374  0.29784907  1
  Ta  Ta139  1  0.40511193  0.40414778  -0.00273896  1
  Ta  Ta140  1  0.88898517  0.71042036  0.50056399  1
  Ta  Ta141  1  0.00263105  0.80960553  0.19201352  1
  Ta  Ta142  1  0.30336556  0.49819229  0.90185779  1
  Ta  Ta143  1  0.49943055  0.70530945  0.89840154  1
  Ta  Ta144  1  0.60889673  0.19391770  0.58762624  1
  Ta  Ta145  1  0.29678945  0.49764009  0.50135015  1
  Ta  Ta146  1  0.39872055  0.40404301  0.79934707  1
  Ta  Ta147  1  0.30464971  0.30381669  0.89946642  1
  Ta  Ta148  1  -0.00113750  0.19913595  0.80422910  1
  Ta  Ta149  1  0.20756821  0.40348393  0.79062612  1
  Ti  Ti150  1  0.30399979  0.90094599  0.29592557  1
  Ti  Ti151  1  0.20627739  0.60376286  -0.00303661  1
  Ti  Ti152  1  0.10350314  0.70033107  0.49988408  1
  Ti  Ti153  1  0.30079551  0.69527933  0.50565702  1
  Ti  Ti154  1  0.41734760  -0.00188596  0.38757609  1
  Ti  Ti155  1  0.19793175  0.19634928  0.19818230  1
  Ti  Ti156  1  0.09411937  0.90604146  0.29544857  1
  Ti  Ti157  1  0.71423955  0.90186290  0.10426792  1
  Ti  Ti158  1  -0.00732092  0.40619772  0.40364595  1
  Ti  Ti159  1  0.60275847  -0.00611835  0.80502377  1
  Ti  Ti160  1  0.78854800  -0.00114557  0.79747717  1
  Ti  Ti161  1  0.60384419  0.81897193  0.60059490  1
  Ti  Ti162  1  0.49694113  0.49648050  0.49858527  1
  Ti  Ti163  1  0.79175506  0.40195218  0.59416890  1
  Ti  Ti164  1  0.69873586  0.09725501  0.30142263  1
  Ti  Ti165  1  0.69893886  0.49879618  0.49539811  1
  Ti  Ti166  1  0.90404217  0.29914357  0.30542429  1
  Ti  Ti167  1  0.70832342  0.70561027  0.10053433  1
  Ti  Ti168  1  0.89695434  0.90877403  0.50327249  1
  Ti  Ti169  1  0.79901789  0.19466556  0.00699173  1
  Ti  Ti170  1  0.70052275  0.89594492  0.89771358  1
  Ti  Ti171  1  0.49446415  0.29792485  0.09941460  1
  Ti  Ti172  1  0.50889870  0.29002337  0.49323124  1
  Ti  Ti173  1  0.49748812  0.50263743  0.90120208  1
  Ti  Ti174  1  0.59221926  0.40277864  0.80397615  1
  Ti  Ti175  1  0.79238775  0.00234982  0.60242536  1
  Ti  Ti176  1  0.59009285  0.81882820  0.39265692  1
  Ti  Ti177  1  0.40469311  0.19605591  0.39467511  1
  Ti  Ti178  1  0.09909162  0.09400117  0.10617368  1
  Ti  Ti179  1  0.49866608  0.29714024  0.90515831  1
  Ti  Ti180  1  -0.00206142  0.80435952  0.80294712  1
  Ti  Ti181  1  0.68817151  0.29517098  0.30607170  1
  Ti  Ti182  1  0.78781263  0.80425841  0.80183710  1
  Ti  Ti183  1  0.29818370  0.69779905  0.29886130  1
  Ti  Ti184  1  0.00460334  0.41901618  0.60194033  1
  Ti  Ti185  1  0.29968171  0.29591182  0.50276378  1
  Ti  Ti186  1  0.30808643  0.90336041  0.91074096  1
  Ti  Ti187  1  0.08590423  0.89877546  0.69360221  1
  Ti  Ti188  1  0.30285581  0.70415728  0.90981203  1
  Ti  Ti189  1  0.40501754  0.20277238  0.59714938  1
  Ti  Ti190  1  0.89557310  0.08389966  0.11255622  1
  Ti  Ti191  1  0.69543793  0.49858454  0.70697538  1
  Ti  Ti192  1  0.10266541  0.88797158  0.90987254  1
  Ti  Ti193  1  0.30183095  0.09808513  0.29963995  1
  Ti  Ti194  1  0.71045805  0.50651720  0.10032320  1
  Ti  Ti195  1  0.50573231  0.10356298  0.49232950  1
  Ti  Ti196  1  0.89008083  0.30071757  0.09063220  1
  Ti  Ti197  1  0.80629021  0.01414743  0.39899479  1
  Ti  Ti198  1  0.39555778  0.79745958  0.19929250  1
  Ti  Ti199  1  0.80033827  0.59527574  0.40655052  1
  Mo  Mo200  1  0.69646031  0.28802083  0.10031113  1
  Mo  Mo201  1  0.80342757  0.81199164  0.39743884  1
  Mo  Mo202  1  0.79819627  0.39971376  0.00571395  1
  Mo  Mo203  1  0.21027232  0.39226119  0.60030877  1
  Mo  Mo204  1  -0.01060524  -0.00777488  0.59793776  1
  Mo  Mo205  1  0.49761540  0.90240741  0.29749112  1
  Mo  Mo206  1  0.79717540  0.00053007  0.20015540  1
  Mo  Mo207  1  0.40844639  -0.00367432  0.81401539  1
  Mo  Mo208  1  0.50113139  0.09785322  0.09617677  1
  Mo  Mo209  1  0.40754010  -0.01208806  0.00242370  1
  Mo  Mo210  1  0.50077174  0.49721385  0.29514493  1
  Mo  Mo211  1  0.10890498  0.50308047  0.90093890  1
  Mo  Mo212  1  0.30184674  0.30027498  0.69462537  1
  Mo  Mo213  1  0.90208652  0.09858386  0.30375856  1
  Mo  Mo214  1  0.39928523  0.40515797  0.19135027  1
  Mo  Mo215  1  0.50953918  0.90704443  0.49617257  1
  Mo  Mo216  1  0.20000835  0.79690365  -0.00513402  1
  Mo  Mo217  1  0.41006125  0.20928663  -0.00423240  1
  Mo  Mo218  1  0.31419044  0.89508462  0.69543568  1
  Mo  Mo219  1  0.60118503  0.19864762  0.39595229  1
  Mo  Mo220  1  0.50469638  0.49715999  0.71649695  1
  Mo  Mo221  1  0.69829236  0.09688928  0.71500011  1
  Mo  Mo222  1  0.59809054  0.80789163  0.80708449  1
  Mo  Mo223  1  0.69994786  0.90625234  0.70898775  1
  Mo  Mo224  1  0.49948949  0.90160273  0.89872644  1
  Mo  Mo225  1  0.42439587  0.00334025  0.58298294  1
  Mo  Mo226  1  0.69043164  0.30061979  0.49705435  1
  Mo  Mo227  1  0.00259593  0.00171332  0.20510546  1
  Mo  Mo228  1  0.21354766  0.60234507  0.40732833  1
  Mo  Mo229  1  0.30442126  0.49691747  0.70597545  1
  Mo  Mo230  1  0.89707648  0.70682440  0.09604906  1
  Mo  Mo231  1  0.50033922  0.10151395  0.30374212  1
  Mo  Mo232  1  0.89604900  0.90427185  0.10067617  1
  Mo  Mo233  1  0.10288950  0.89487261  0.10365727  1
  Mo  Mo234  1  0.48806622  0.50597731  0.09631553  1
  Mo  Mo235  1  0.39951869  0.79937127  0.60430022  1
  Mo  Mo236  1  0.79053302  0.60982734  0.19120855  1
  Mo  Mo237  1  0.10437459  0.29066884  0.09843718  1
  Mo  Mo238  1  0.70027187  0.09654929  0.48382483  1
  Mo  Mo239  1  0.48622192  0.89429181  0.09890953  1
  Mo  Mo240  1  0.00176174  0.18493576  0.59245252  1
  Mo  Mo241  1  0.10527601  0.49558867  0.69719453  1
  Mo  Mo242  1  -0.00220151  0.60836594  -0.00417336  1
  Mo  Mo243  1  0.30040031  0.69678764  0.09761559  1
  Mo  Mo244  1  0.89248042  0.50157676  0.50757943  1
  Mo  Mo245  1  0.69767064  0.70264542  0.89895838  1
  Mo  Mo246  1  0.79523113  0.80631040  -0.00072306  1
  Mo  Mo247  1  0.89774056  0.09104239  0.50283020  1
  Mo  Mo248  1  0.09535291  0.10266104  0.49824526  1
  Mo  Mo249  1  0.39958656  0.79391884  -0.00606945  1
