# generated using pymatgen
data_HfZrTaTiMo
_symmetry_space_group_name_H-M   'P 1'
_cell_length_a   16.89302904
_cell_length_b   16.88990862
_cell_length_c   16.88965404
_cell_angle_alpha   90.00218018
_cell_angle_beta   90.03597904
_cell_angle_gamma   89.98470072
_symmetry_Int_Tables_number   1
_chemical_formula_structural   HfZrTaTiMo
_chemical_formula_sum   'Hf50 Zr50 Ta50 Ti50 Mo50'
_cell_volume   4818.98396160
_cell_formula_units_Z   50
loop_
 _symmetry_equiv_pos_site_id
 _symmetry_equiv_pos_as_xyz
  1  'x, y, z'
loop_
 _atom_site_type_symbol
 _atom_site_label
 _atom_site_symmetry_multiplicity
 _atom_site_fract_x
 _atom_site_fract_y
 _atom_site_fract_z
 _atom_site_occupancy
  Hf  Hf0  1  0.60855217  0.40085246  0.39990048  1
  Hf  Hf1  1  0.80188379  0.79574958  0.19985210  1
  Hf  Hf2  1  0.11295059  0.90885824  0.50168066  1
  Hf  Hf3  1  0.19675669  0.00815065  0.00012797  1
  Hf  Hf4  1  0.00046134  0.00533772  0.20013651  1
  Hf  Hf5  1  0.20523091  0.79463277  0.60507477  1
  Hf  Hf6  1  0.79752220  0.79845234  0.79219635  1
  Hf  Hf7  1  0.50290761  0.90149757  0.30496516  1
  Hf  Hf8  1  0.51838071  0.49282832  0.11147827  1
  Hf  Hf9  1  0.20417683  -0.00268984  0.20292610  1
  Hf  Hf10  1  0.29741464  0.50012896  0.90660461  1
  Hf  Hf11  1  0.79525169  -0.00315423  0.79447303  1
  Hf  Hf12  1  0.79881573  0.79594097  -0.00209384  1
  Hf  Hf13  1  0.30722328  0.29665896  0.29366695  1
  Hf  Hf14  1  0.70559555  0.30046008  0.70022640  1
  Hf  Hf15  1  0.50159192  0.91073741  0.09511112  1
  Hf  Hf16  1  0.19530802  0.59880466  0.19913651  1
  Hf  Hf17  1  0.20298183  0.21531386  0.41164764  1
  Hf  Hf18  1  0.60716348  0.59428794  0.60328166  1
  Hf  Hf19  1  0.19750818  0.40637511  0.20159188  1
  Hf  Hf20  1  0.40984230  0.59102048  0.80102137  1
  Hf  Hf21  1  0.41122398  0.59926378  0.20195422  1
  Hf  Hf22  1  0.10957359  0.09897427  0.31399300  1
  Hf  Hf23  1  0.79147182  0.00402421  0.20105465  1
  Hf  Hf24  1  0.10326244  0.69587524  0.30970747  1
  Hf  Hf25  1  0.50273284  0.90449809  0.70038310  1
  Hf  Hf26  1  0.40485199  0.39569963  0.40238793  1
  Hf  Hf27  1  0.29532394  0.69933051  0.89336514  1
  Hf  Hf28  1  0.59520091  0.02006364  0.40448726  1
  Hf  Hf29  1  0.19138304  0.79856121  0.00200267  1
  Hf  Hf30  1  0.40983343  0.59610988  0.40125686  1
  Hf  Hf31  1  -0.00129394  0.59149545  0.59097811  1
  Hf  Hf32  1  0.70026115  0.69224030  0.30553556  1
  Hf  Hf33  1  0.19293640  0.19729820  0.19287768  1
  Hf  Hf34  1  0.50495586  0.90349326  0.50859952  1
  Hf  Hf35  1  0.20316659  0.59669476  0.60450382  1
  Hf  Hf36  1  0.30300566  0.29477777  0.90328509  1
  Hf  Hf37  1  0.10015782  0.49770995  0.90099131  1
  Hf  Hf38  1  0.08798674  0.31137038  0.29999162  1
  Hf  Hf39  1  0.89472545  0.30072205  0.11077947  1
  Hf  Hf40  1  0.11147721  0.10405217  0.69460965  1
  Hf  Hf41  1  0.59373193  0.79408570  -0.00822092  1
  Hf  Hf42  1  0.50799924  0.70822257  0.70294675  1
  Hf  Hf43  1  0.00257757  0.21239630  0.59564285  1
  Hf  Hf44  1  0.19818899  0.40123850  0.59954702  1
  Hf  Hf45  1  0.39897819  0.19710159  0.59384187  1
  Hf  Hf46  1  0.30366537  0.50071737  0.50206249  1
  Hf  Hf47  1  0.50774686  0.29699336  0.29599075  1
  Hf  Hf48  1  0.40102605  0.79734884  0.20303527  1
  Hf  Hf49  1  0.79210572  0.79592450  0.59994958  1
  Zr  Zr50  1  0.69751631  0.10661400  0.69171635  1
  Zr  Zr51  1  0.60025904  0.79604672  0.19138242  1
  Zr  Zr52  1  0.89121501  0.30384691  0.30768856  1
  Zr  Zr53  1  0.89089787  0.11637867  0.70224178  1
  Zr  Zr54  1  0.90140352  0.90101259  0.90045834  1
  Zr  Zr55  1  0.39985526  0.60045523  0.60913577  1
  Zr  Zr56  1  0.00850490  0.19547845  0.00238961  1
  Zr  Zr57  1  -0.00655037  0.79448419  0.39520997  1
  Zr  Zr58  1  0.89369576  0.29473102  0.88979089  1
  Zr  Zr59  1  -0.00599671  0.79634597  0.79527017  1
  Zr  Zr60  1  -0.00142809  0.00018709  0.60719561  1
  Zr  Zr61  1  0.26684506  0.07979045  0.50737860  1
  Zr  Zr62  1  0.31124834  0.10750168  0.09441760  1
  Zr  Zr63  1  0.00577991  0.00667521  0.00692124  1
  Zr  Zr64  1  0.59933574  0.01196261  0.20169095  1
  Zr  Zr65  1  0.09196610  0.49350084  0.70728783  1
  Zr  Zr66  1  0.89430416  0.90098291  0.30004163  1
  Zr  Zr67  1  0.89821295  0.10625617  0.89450446  1
  Zr  Zr68  1  -0.00104979  0.00813815  0.40649985  1
  Zr  Zr69  1  0.39902653  0.00371991  0.40149687  1
  Zr  Zr70  1  0.19585659  0.80150224  0.20208218  1
  Zr  Zr71  1  0.70712963  0.69078153  0.88860508  1
  Zr  Zr72  1  0.89535355  0.69394693  0.69070990  1
  Zr  Zr73  1  0.89293844  0.68268649  0.09053695  1
  Zr  Zr74  1  0.79530054  0.00459712  -0.00087754  1
  Zr  Zr75  1  0.42050512  0.60300730  -0.00585066  1
  Zr  Zr76  1  0.09864778  0.89580545  0.89370828  1
  Zr  Zr77  1  0.40961978  0.18836622  0.40780603  1
  Zr  Zr78  1  0.20407260  -0.00887528  0.79937574  1
  Zr  Zr79  1  0.31534698  0.29703576  0.09624773  1
  Zr  Zr80  1  -0.00055636  0.20413752  0.41110589  1
  Zr  Zr81  1  0.51343284  0.69268508  0.30755603  1
  Zr  Zr82  1  0.30571129  0.90337814  0.09642063  1
  Zr  Zr83  1  0.90183272  0.88948042  0.50764135  1
  Zr  Zr84  1  0.29896557  0.09989694  0.70352763  1
  Zr  Zr85  1  -0.01840744  0.59245025  0.79964378  1
  Zr  Zr86  1  0.30094316  0.29588166  0.70416318  1
  Zr  Zr87  1  0.78919497  0.00199065  0.40396052  1
  Zr  Zr88  1  0.09077773  0.50360612  0.32309901  1
  Zr  Zr89  1  -0.00648145  0.60570830  0.20666991  1
  Zr  Zr90  1  0.08908791  0.31206282  0.10338700  1
  Zr  Zr91  1  -0.01044877  0.40099580  -0.01166609  1
  Zr  Zr92  1  0.41120747  0.79737294  -0.00761886  1
  Zr  Zr93  1  0.29511920  0.69181846  0.09295409  1
  Zr  Zr94  1  0.10428381  0.69285201  0.49230152  1
  Zr  Zr95  1  0.59695199  0.59649814  -0.01049199  1
  Zr  Zr96  1  0.10323130  0.68606564  0.90000216  1
  Zr  Zr97  1  0.87905604  0.11341588  0.50601742  1
  Zr  Zr98  1  0.30219900  0.49624479  0.09530650  1
  Zr  Zr99  1  0.59948958  0.20596312  0.19209035  1
  Ta  Ta100  1  0.79330104  0.40011846  -0.00068635  1
  Ta  Ta101  1  0.40660123  0.39938423  0.80081266  1
  Ta  Ta102  1  0.78948276  0.40059883  0.20529511  1
  Ta  Ta103  1  0.40051880  0.79728028  0.59634740  1
  Ta  Ta104  1  0.40510989  0.00332126  -0.01365900  1
  Ta  Ta105  1  -0.00981716  0.40073701  0.59976061  1
  Ta  Ta106  1  -0.00175441  0.78804621  0.00573087  1
  Ta  Ta107  1  0.70073804  0.12432328  0.30694879  1
  Ta  Ta108  1  0.69996660  0.29996004  0.89576398  1
  Ta  Ta109  1  0.69009419  0.90009878  0.89707709  1
  Ta  Ta110  1  0.60695973  0.79668537  0.59939645  1
  Ta  Ta111  1  0.60687479  0.40013585  0.59891358  1
  Ta  Ta112  1  0.79306174  -0.01185160  0.60517865  1
  Ta  Ta113  1  0.70443367  0.50050523  0.10037128  1
  Ta  Ta114  1  0.30118583  0.89719314  0.50297574  1
  Ta  Ta115  1  0.19154130  0.19827544  -0.00310581  1
  Ta  Ta116  1  0.60380645  0.39456194  -0.00288228  1
  Ta  Ta117  1  0.60035124  0.59174273  0.79537995  1
  Ta  Ta118  1  0.50790134  0.30090005  0.50456132  1
  Ta  Ta119  1  0.41199952  0.20125782  0.79799684  1
  Ta  Ta120  1  0.40339269  0.00991122  0.20769415  1
  Ta  Ta121  1  0.39997717  0.79840666  0.40491264  1
  Ta  Ta122  1  0.19127382  0.21747692  0.59120543  1
  Ta  Ta123  1  0.69433385  0.89566712  0.30491421  1
  Ta  Ta124  1  0.79614660  0.59056542  0.59702132  1
  Ta  Ta125  1  0.59981867  0.00845245  -0.00554326  1
  Ta  Ta126  1  0.80318920  0.40841861  0.80013398  1
  Ta  Ta127  1  0.89227997  0.49645763  0.30384136  1
  Ta  Ta128  1  0.89460332  0.49431729  0.10279646  1
  Ta  Ta129  1  0.89572118  0.49215651  0.49180324  1
  Ta  Ta130  1  0.89122594  0.11088069  0.10805749  1
  Ta  Ta131  1  0.29915039  0.69583333  0.30870407  1
  Ta  Ta132  1  0.59596470  0.20281579  0.79936049  1
  Ta  Ta133  1  0.50116910  0.10621370  0.89931029  1
  Ta  Ta134  1  0.50743536  0.69938439  0.50151227  1
  Ta  Ta135  1  0.69784806  0.68526000  0.09983331  1
  Ta  Ta136  1  0.08798187  0.50836050  0.09208977  1
  Ta  Ta137  1  0.59769459  0.00483073  0.80415960  1
  Ta  Ta138  1  0.20720112  0.40075786  0.79935766  1
  Ta  Ta139  1  0.30377821  0.50063031  0.30204966  1
  Ta  Ta140  1  0.30484918  0.11089517  0.89692309  1
  Ta  Ta141  1  0.70092015  0.10910287  0.09491232  1
  Ta  Ta142  1  0.20606754  0.40268632  0.40494074  1
  Ta  Ta143  1  0.50841029  0.49735296  0.50254742  1
  Ta  Ta144  1  0.69723536  0.69201636  0.49561591  1
  Ta  Ta145  1  0.88755708  0.11371485  0.29828528  1
  Ta  Ta146  1  0.41866139  0.39838240  -0.00459746  1
  Ta  Ta147  1  0.69764273  0.90257542  0.09450219  1
  Ta  Ta148  1  0.60036441  0.40055952  0.80042237  1
  Ta  Ta149  1  -0.00134651  0.79517446  0.19543286  1
  Ti  Ti150  1  0.20960423  0.59148016  0.78722577  1
  Ti  Ti151  1  0.50535988  0.09622349  0.69598086  1
  Ti  Ti152  1  0.59863901  0.20558615  -0.00134060  1
  Ti  Ti153  1  0.70279805  0.49633199  0.89814954  1
  Ti  Ti154  1  0.10559820  0.10666993  0.88426721  1
  Ti  Ti155  1  0.00153199  0.19291190  0.20255765  1
  Ti  Ti156  1  0.40813978  0.80544565  0.80515607  1
  Ti  Ti157  1  0.40130472  0.39660865  0.60185769  1
  Ti  Ti158  1  0.49460707  0.11045855  0.09192093  1
  Ti  Ti159  1  0.40574548  0.00205734  0.80578032  1
  Ti  Ti160  1  0.70754534  0.49806744  0.70302370  1
  Ti  Ti161  1  0.79344972  0.20602303  0.00119011  1
  Ti  Ti162  1  0.70797535  0.29723883  0.49460962  1
  Ti  Ti163  1  0.50289904  0.48800685  0.69721063  1
  Ti  Ti164  1  0.09727649  0.88890564  0.69744106  1
  Ti  Ti165  1  0.30175493  0.10425483  0.30042198  1
  Ti  Ti166  1  0.30176237  0.69945087  0.49451319  1
  Ti  Ti167  1  0.09922849  0.89960474  0.30428777  1
  Ti  Ti168  1  0.79904654  0.40252280  0.59318977  1
  Ti  Ti169  1  0.69887375  0.30547351  0.10063879  1
  Ti  Ti170  1  0.68808969  0.89799830  0.70167667  1
  Ti  Ti171  1  0.89544328  0.69338695  0.49502035  1
  Ti  Ti172  1  0.69153872  0.50076844  0.29580115  1
  Ti  Ti173  1  0.79438123  0.58931013  0.40401566  1
  Ti  Ti174  1  0.00551078  0.20635828  0.79404157  1
  Ti  Ti175  1  0.30631429  0.89609551  0.70043997  1
  Ti  Ti176  1  0.50433282  0.30187081  0.69669981  1
  Ti  Ti177  1  0.21242138  0.80761963  0.39545538  1
  Ti  Ti178  1  0.41106523  0.40014685  0.20093567  1
  Ti  Ti179  1  0.89451342  0.30607307  0.70103303  1
  Ti  Ti180  1  0.10276434  0.30269387  0.88826110  1
  Ti  Ti181  1  0.69729407  0.11304133  0.50550046  1
  Ti  Ti182  1  0.30173346  0.89628255  0.89527635  1
  Ti  Ti183  1  0.69771620  0.11076698  0.89745146  1
  Ti  Ti184  1  0.88676995  0.50957376  0.90505488  1
  Ti  Ti185  1  0.19581158  0.39571335  0.00119479  1
  Ti  Ti186  1  0.79740955  0.59434591  0.20539025  1
  Ti  Ti187  1  0.89880989  0.90112414  0.09930953  1
  Ti  Ti188  1  0.09340119  0.89769078  0.10275215  1
  Ti  Ti189  1  0.39873024  0.00207395  0.59950732  1
  Ti  Ti190  1  0.60297231  0.79973333  0.40743514  1
  Ti  Ti191  1  0.59851056  0.20515388  0.59653489  1
  Ti  Ti192  1  0.69422293  0.90046179  0.50069591  1
  Ti  Ti193  1  0.10003876  0.70036106  0.70266349  1
  Ti  Ti194  1  -0.00338746  -0.00233457  0.79012908  1
  Ti  Ti195  1  0.08958172  0.32446885  0.49261384  1
  Ti  Ti196  1  0.09771059  0.30581234  0.70932062  1
  Ti  Ti197  1  0.50412188  0.29680445  0.90022377  1
  Ti  Ti198  1  0.79598987  0.79623258  0.40108938  1
  Ti  Ti199  1  0.30446305  0.70805121  0.71073558  1
  Mo  Mo200  1  0.79316984  0.40392783  0.39895917  1
  Mo  Mo201  1  0.50104252  0.10758958  0.29337373  1
  Mo  Mo202  1  0.09102708  0.69882877  0.09994472  1
  Mo  Mo203  1  0.18970272  0.59662752  0.00408597  1
  Mo  Mo204  1  0.50321391  0.49276778  0.30195838  1
  Mo  Mo205  1  0.09657624  0.49635783  0.50064329  1
  Mo  Mo206  1  0.70373624  0.49751199  0.50124964  1
  Mo  Mo207  1  0.88932820  0.69159152  0.30635301  1
  Mo  Mo208  1  0.60949306  0.39911988  0.20068634  1
  Mo  Mo209  1  0.40722101  0.19351525  0.20047660  1
  Mo  Mo210  1  0.51213887  0.69226320  0.11043831  1
  Mo  Mo211  1  0.79493015  0.58853028  -0.00177131  1
  Mo  Mo212  1  0.69851907  0.69190225  0.69491057  1
  Mo  Mo213  1  0.70075692  0.30289777  0.30084075  1
  Mo  Mo214  1  0.60752190  -0.00103627  0.60133152  1
  Mo  Mo215  1  0.89043494  0.49163432  0.69085890  1
  Mo  Mo216  1  0.78931165  0.20740162  0.79995562  1
  Mo  Mo217  1  0.79753980  0.21811103  0.59632138  1
  Mo  Mo218  1  0.00685941  0.79228407  0.60082808  1
  Mo  Mo219  1  0.10587000  0.10070022  0.50651154  1
  Mo  Mo220  1  0.60204821  0.20533405  0.40981439  1
  Mo  Mo221  1  0.50211071  0.91050571  0.89373200  1
  Mo  Mo222  1  0.30531459  0.49199659  0.70526744  1
  Mo  Mo223  1  0.19543766  0.20706793  0.80448938  1
  Mo  Mo224  1  0.20604050  -0.01536124  0.38359166  1
  Mo  Mo225  1  -0.00825475  0.40560115  0.40570503  1
  Mo  Mo226  1  0.89118948  0.31032905  0.50435777  1
  Mo  Mo227  1  -0.00687772  0.39503824  0.79464777  1
  Mo  Mo228  1  0.60424984  0.80522659  0.79604335  1
  Mo  Mo229  1  0.89838857  0.69007493  0.90245294  1
  Mo  Mo230  1  -0.02421528  0.60095425  0.40318245  1
  Mo  Mo231  1  0.41194384  0.20121996  -0.00805850  1
  Mo  Mo232  1  0.50536583  0.30342469  0.09411998  1
  Mo  Mo233  1  0.60313069  0.59119984  0.40676537  1
  Mo  Mo234  1  0.79279659  0.59023184  0.79451196  1
  Mo  Mo235  1  0.51564529  0.10042263  0.52236876  1
  Mo  Mo236  1  0.30787419  0.89510342  0.30550980  1
  Mo  Mo237  1  0.79196390  0.20977541  0.40215391  1
  Mo  Mo238  1  0.21724614  0.59626971  0.40186342  1
  Mo  Mo239  1  -0.01147553  0.41306086  0.20226268  1
  Mo  Mo240  1  0.30850783  0.30826143  0.50473798  1
  Mo  Mo241  1  0.79291200  0.20465346  0.19865089  1
  Mo  Mo242  1  0.60907044  0.59428174  0.20336591  1
  Mo  Mo243  1  0.20754861  0.79543963  0.79365215  1
  Mo  Mo244  1  0.50779239  0.70812126  0.87675109  1
  Mo  Mo245  1  0.89673130  0.89857839  0.69637318  1
  Mo  Mo246  1  0.20223396  -0.01997013  0.61626874  1
  Mo  Mo247  1  0.10086293  0.10076207  0.10735183  1
  Mo  Mo248  1  -0.00789501  0.59758205  -0.00369367  1
  Mo  Mo249  1  0.50841991  0.48675972  0.89340938  1
