# generated using pymatgen
data_HfZrTaTiMo
_symmetry_space_group_name_H-M   'P 1'
_cell_length_a   16.88871500
_cell_length_b   16.89414691
_cell_length_c   16.88937149
_cell_angle_alpha   89.94324157
_cell_angle_beta   90.04547446
_cell_angle_gamma   90.00918638
_symmetry_Int_Tables_number   1
_chemical_formula_structural   HfZrTaTiMo
_chemical_formula_sum   'Hf50 Zr50 Ta50 Ti50 Mo50'
_cell_volume   4818.87883333
_cell_formula_units_Z   50
loop_
 _symmetry_equiv_pos_site_id
 _symmetry_equiv_pos_as_xyz
  1  'x, y, z'
loop_
 _atom_site_type_symbol
 _atom_site_label
 _atom_site_symmetry_multiplicity
 _atom_site_fract_x
 _atom_site_fract_y
 _atom_site_fract_z
 _atom_site_occupancy
  Hf  Hf0  1  0.71813434  0.70055787  0.09485635  1
  Hf  Hf1  1  0.49748627  0.49928374  0.68930119  1
  Hf  Hf2  1  0.49940686  0.49661487  0.49646186  1
  Hf  Hf3  1  0.89114997  0.70076550  0.90867336  1
  Hf  Hf4  1  -0.00299099  -0.00109929  0.78015382  1
  Hf  Hf5  1  -0.00079893  0.21531392  -0.01409088  1
  Hf  Hf6  1  0.40024385  0.00453574  0.40079578  1
  Hf  Hf7  1  0.39247196  0.60489105  0.79051736  1
  Hf  Hf8  1  -0.00953604  0.80714499  0.60414804  1
  Hf  Hf9  1  0.09968252  0.69896660  0.31266398  1
  Hf  Hf10  1  -0.00967116  0.60716304  0.59807495  1
  Hf  Hf11  1  0.49266241  0.31023019  0.10601045  1
  Hf  Hf12  1  0.10320794  0.29648142  0.10639934  1
  Hf  Hf13  1  0.90130886  0.30715048  0.10186842  1
  Hf  Hf14  1  0.28963505  0.49856572  0.89641474  1
  Hf  Hf15  1  0.89870694  0.50416799  0.08598743  1
  Hf  Hf16  1  0.20695119  0.41089996  0.59669032  1
  Hf  Hf17  1  0.09598927  0.70307637  0.10322751  1
  Hf  Hf18  1  0.79841840  0.19698594  0.40488217  1
  Hf  Hf19  1  0.40193881  0.39799599  0.79251747  1
  Hf  Hf20  1  0.29981135  0.10274535  0.10510255  1
  Hf  Hf21  1  0.19548775  -0.00028393  0.79575762  1
  Hf  Hf22  1  0.70751606  0.89485678  0.10118961  1
  Hf  Hf23  1  0.60537673  0.80367315  0.81339288  1
  Hf  Hf24  1  0.29382013  0.89866006  0.50122925  1
  Hf  Hf25  1  0.19797807  0.19524670  0.60283523  1
  Hf  Hf26  1  0.90301042  0.50047886  0.89344036  1
  Hf  Hf27  1  0.20524479  0.80328198  0.00259433  1
  Hf  Hf28  1  0.89498496  0.89981038  0.30394634  1
  Hf  Hf29  1  0.39423022  0.60073350  0.00342626  1
  Hf  Hf30  1  0.89294403  0.08866068  0.31207055  1
  Hf  Hf31  1  0.81149574  0.20136576  0.80202281  1
  Hf  Hf32  1  0.09558526  0.89270016  0.10688298  1
  Hf  Hf33  1  0.70861454  0.50666905  0.89454398  1
  Hf  Hf34  1  0.00219219  0.40359845  0.59990148  1
  Hf  Hf35  1  0.89881096  0.89184932  0.90845900  1
  Hf  Hf36  1  0.79643221  0.40877349  0.21337262  1
  Hf  Hf37  1  0.79406892  0.60541252  0.40187216  1
  Hf  Hf38  1  0.39838924  0.39668222  0.39173744  1
  Hf  Hf39  1  0.49972417  0.90203841  0.29679487  1
  Hf  Hf40  1  0.89381337  0.71551525  0.29677726  1
  Hf  Hf41  1  0.20035563  0.58964956  0.21321568  1
  Hf  Hf42  1  0.59648968  0.19858177  -0.00327142  1
  Hf  Hf43  1  0.00570236  0.40762033  0.21539496  1
  Hf  Hf44  1  0.60457146  0.60440922  0.59170265  1
  Hf  Hf45  1  0.10082482  0.49549593  0.71028788  1
  Hf  Hf46  1  0.89965178  0.30101280  0.50711602  1
  Hf  Hf47  1  0.49614700  0.89647623  0.69597161  1
  Hf  Hf48  1  0.00487911  0.60963660  0.80108119  1
  Hf  Hf49  1  0.70435673  0.10543166  0.69300448  1
  Zr  Zr50  1  0.10556158  0.70846486  0.49404875  1
  Zr  Zr51  1  0.50767440  0.69046033  0.10125324  1
  Zr  Zr52  1  0.80165280  0.59429484  0.20993194  1
  Zr  Zr53  1  0.49388825  0.49854730  0.90579910  1
  Zr  Zr54  1  0.19635890  0.39138088  -0.00358353  1
  Zr  Zr55  1  0.30248591  0.09664921  0.90226438  1
  Zr  Zr56  1  0.80229498  0.38859144  -0.01256023  1
  Zr  Zr57  1  0.60049258  0.60310454  0.80074259  1
  Zr  Zr58  1  0.39329647  0.78779206  0.40061678  1
  Zr  Zr59  1  0.20954168  0.59998721  0.59718782  1
  Zr  Zr60  1  0.40277607  -0.00180174  0.79962184  1
  Zr  Zr61  1  -0.00892178  0.20053913  0.20563232  1
  Zr  Zr62  1  0.50099056  0.49452694  0.29983106  1
  Zr  Zr63  1  0.50086467  0.69208359  0.30218068  1
  Zr  Zr64  1  0.20461909  0.00521787  0.40200014  1
  Zr  Zr65  1  0.19997744  0.60770043  0.79726396  1
  Zr  Zr66  1  -0.00354782  0.59787069  0.20843967  1
  Zr  Zr67  1  0.40213428  0.80053077  0.00213649  1
  Zr  Zr68  1  0.30221810  0.30133418  0.49961332  1
  Zr  Zr69  1  0.59846611  0.39605725  -0.00684549  1
  Zr  Zr70  1  0.50422471  0.70910617  0.69353268  1
  Zr  Zr71  1  0.58849552  0.20235395  0.80178101  1
  Zr  Zr72  1  0.59914263  -0.00174883  0.19485305  1
  Zr  Zr73  1  0.70364836  0.29870931  0.69250907  1
  Zr  Zr74  1  0.90792931  0.09648894  0.89888851  1
  Zr  Zr75  1  0.29942339  0.30298733  0.89517199  1
  Zr  Zr76  1  0.40332393  0.20188283  0.79429839  1
  Zr  Zr77  1  0.69399617  0.89357137  0.69184290  1
  Zr  Zr78  1  -0.00042515  0.19491972  0.40848212  1
  Zr  Zr79  1  0.20165273  0.41538146  0.39409513  1
  Zr  Zr80  1  0.20572325  0.40386299  0.20199059  1
  Zr  Zr81  1  0.59609949  0.00211587  0.59652846  1
  Zr  Zr82  1  0.10475985  0.10212354  0.30095646  1
  Zr  Zr83  1  0.09889752  0.50353268  0.08535662  1
  Zr  Zr84  1  0.09561099  0.08750356  0.51350312  1
  Zr  Zr85  1  0.40439910  0.19570703  0.39539389  1
  Zr  Zr86  1  0.40001985  0.79625128  0.19581355  1
  Zr  Zr87  1  0.10097818  0.10253493  0.09760231  1
  Zr  Zr88  1  0.88769951  0.69906338  0.70902149  1
  Zr  Zr89  1  0.40267460  0.19464600  0.59688949  1
  Zr  Zr90  1  0.79805233  -0.00404337  0.79673042  1
  Zr  Zr91  1  0.69919414  0.29648287  0.10736328  1
  Zr  Zr92  1  -0.00512074  -0.00139584  0.19813474  1
  Zr  Zr93  1  0.19914364  0.80314228  0.79796494  1
  Zr  Zr94  1  0.49371898  0.09807876  0.10478018  1
  Zr  Zr95  1  0.09167648  0.90165720  0.90770106  1
  Zr  Zr96  1  0.61837291  0.59219366  0.20687057  1
  Zr  Zr97  1  0.08782003  0.51527529  0.47822617  1
  Zr  Zr98  1  0.69754174  0.29587916  0.50275363  1
  Zr  Zr99  1  0.79538721  0.00334742  0.00380786  1
  Ta  Ta100  1  0.60037991  0.00080258  0.80940032  1
  Ta  Ta101  1  0.60650668  0.79998041  0.20080033  1
  Ta  Ta102  1  0.29497520  0.08988431  0.69153661  1
  Ta  Ta103  1  0.70444028  0.09614219  0.49971316  1
  Ta  Ta104  1  0.79731359  0.59946785  0.59558149  1
  Ta  Ta105  1  0.80135607  0.80253692  0.59462011  1
  Ta  Ta106  1  0.69958921  0.71083211  0.49951401  1
  Ta  Ta107  1  0.60726250  0.60250648  0.40123773  1
  Ta  Ta108  1  0.69677996  0.09867830  0.30537571  1
  Ta  Ta109  1  0.49570251  0.49554438  0.10484977  1
  Ta  Ta110  1  0.20039215  0.20079850  -0.00441641  1
  Ta  Ta111  1  0.89617254  0.49835879  0.70566322  1
  Ta  Ta112  1  0.89840687  0.87655421  0.10322927  1
  Ta  Ta113  1  0.80964740  -0.00249678  0.60316484  1
  Ta  Ta114  1  0.69366114  0.29681426  0.30942862  1
  Ta  Ta115  1  0.40133014  0.79451812  0.58885904  1
  Ta  Ta116  1  0.50679780  0.89161220  0.49669839  1
  Ta  Ta117  1  0.00125434  0.80437784  0.79566779  1
  Ta  Ta118  1  0.10422657  0.29794441  0.30951020  1
  Ta  Ta119  1  0.89667975  0.30415821  0.30947744  1
  Ta  Ta120  1  0.09542673  0.90051451  0.49635492  1
  Ta  Ta121  1  0.20192033  -0.00148056  0.00371149  1
  Ta  Ta122  1  0.89764162  0.90573444  0.49481339  1
  Ta  Ta123  1  0.60382289  0.39987437  0.20893477  1
  Ta  Ta124  1  0.30313855  0.90656840  0.10875440  1
  Ta  Ta125  1  0.70234609  0.90088913  0.49339456  1
  Ta  Ta126  1  0.59949493  -0.00474016  -0.00247271  1
  Ta  Ta127  1  0.50951869  0.30467898  0.49439801  1
  Ta  Ta128  1  0.79939759  0.20037800  -0.00269942  1
  Ta  Ta129  1  0.20030280  -0.00358900  0.20209565  1
  Ta  Ta130  1  0.80155576  0.41038324  0.60102061  1
  Ta  Ta131  1  0.10106262  0.10044244  0.89927445  1
  Ta  Ta132  1  0.70304355  0.70192335  0.69597837  1
  Ta  Ta133  1  0.39992598  0.20603846  0.20345238  1
  Ta  Ta134  1  0.70656522  0.90028551  0.30488556  1
  Ta  Ta135  1  0.19362420  0.19878257  0.79446954  1
  Ta  Ta136  1  0.60274925  0.80435011  0.00028391  1
  Ta  Ta137  1  0.38880364  0.59348723  0.20393156  1
  Ta  Ta138  1  0.79686395  0.19844883  0.20692801  1
  Ta  Ta139  1  0.90194432  0.30164991  0.69702560  1
  Ta  Ta140  1  0.39517130  0.60519248  0.58673728  1
  Ta  Ta141  1  0.28855872  0.69184578  0.10298190  1
  Ta  Ta142  1  0.30298549  0.89883517  0.69093023  1
  Ta  Ta143  1  0.59749736  0.39509057  0.79683974  1
  Ta  Ta144  1  0.09991531  0.30034068  0.49898209  1
  Ta  Ta145  1  0.29639432  0.89869356  0.29682112  1
  Ta  Ta146  1  0.39889855  0.21183603  0.00118652  1
  Ta  Ta147  1  0.09688638  0.89202084  0.30733063  1
  Ta  Ta148  1  0.29633139  0.29533047  0.29210732  1
  Ta  Ta149  1  0.49952802  0.90074774  0.90446590  1
  Ti  Ti150  1  0.90110742  0.09045358  0.50713542  1
  Ti  Ti151  1  0.69817905  0.49509652  0.49475564  1
  Ti  Ti152  1  0.39635770  0.79949016  0.80324997  1
  Ti  Ti153  1  0.20316018  0.80034203  0.59645484  1
  Ti  Ti154  1  0.30433615  0.90316425  0.90177068  1
  Ti  Ti155  1  0.30287138  0.71083591  0.69169628  1
  Ti  Ti156  1  0.60736265  0.40429482  0.60020800  1
  Ti  Ti157  1  0.60328028  0.60069707  -0.00185130  1
  Ti  Ti158  1  0.00570621  0.19939185  0.79281034  1
  Ti  Ti159  1  0.59469908  0.19703117  0.59508656  1
  Ti  Ti160  1  0.00001328  0.19408467  0.61191939  1
  Ti  Ti161  1  0.79464295  0.80651948  0.80252570  1
  Ti  Ti162  1  0.69843594  0.10067160  0.89954008  1
  Ti  Ti163  1  0.49970533  0.30819307  0.68138013  1
  Ti  Ti164  1  -0.00245092  0.00048856  0.00773600  1
  Ti  Ti165  1  0.60194573  0.00062070  0.39897662  1
  Ti  Ti166  1  0.10232021  0.30284745  0.70072407  1
  Ti  Ti167  1  0.40460046  -0.00767178  0.00864417  1
  Ti  Ti168  1  0.00263319  0.38543766  0.80884514  1
  Ti  Ti169  1  0.20659683  0.19569512  0.40557904  1
  Ti  Ti170  1  0.10015172  0.49447276  0.89937039  1
  Ti  Ti171  1  0.49939884  0.09494504  0.69838080  1
  Ti  Ti172  1  0.69820990  0.29649524  0.89175685  1
  Ti  Ti173  1  0.50888281  0.10214138  0.49269326  1
  Ti  Ti174  1  0.00070881  0.60650408  -0.00332193  1
  Ti  Ti175  1  0.59690380  0.20431539  0.21033154  1
  Ti  Ti176  1  0.29482255  0.69858751  0.90525252  1
  Ti  Ti177  1  0.49877866  0.70137521  0.90273210  1
  Ti  Ti178  1  0.50416337  0.10078230  0.29775236  1
  Ti  Ti179  1  0.79768629  0.40141590  0.40323669  1
  Ti  Ti180  1  0.69934244  0.10607157  0.10458980  1
  Ti  Ti181  1  0.80043795  0.39538120  0.79383594  1
  Ti  Ti182  1  0.10113511  0.70695820  0.69488208  1
  Ti  Ti183  1  0.30042856  0.10076839  0.29056999  1
  Ti  Ti184  1  0.71080647  0.69794905  0.90354955  1
  Ti  Ti185  1  0.49484301  0.09638574  0.90649340  1
  Ti  Ti186  1  0.89880279  0.50001666  0.49867756  1
  Ti  Ti187  1  0.30582184  0.49212381  0.09606585  1
  Ti  Ti188  1  0.10460158  0.90721285  0.68224989  1
  Ti  Ti189  1  0.91512867  0.49809135  0.32799368  1
  Ti  Ti190  1  0.70228134  0.49870028  0.08963020  1
  Ti  Ti191  1  0.60233082  0.79524886  0.39707774  1
  Ti  Ti192  1  0.89440150  0.10645989  0.09894614  1
  Ti  Ti193  1  0.29692414  0.30589936  0.69689030  1
  Ti  Ti194  1  0.09919899  0.70537077  0.90882956  1
  Ti  Ti195  1  -0.00889513  0.79984353  0.40860252  1
  Ti  Ti196  1  0.79820893  0.00373003  0.19813648  1
  Ti  Ti197  1  0.70624948  0.50468620  0.70367793  1
  Ti  Ti198  1  0.39973751  0.00177009  0.58959040  1
  Ti  Ti199  1  0.20374427  0.79728839  0.20864674  1
  Mo  Mo200  1  -0.00010559  0.38989839  0.40366851  1
  Mo  Mo201  1  0.59909414  0.19256162  0.39922432  1
  Mo  Mo202  1  0.20583968  0.19997400  0.20271771  1
  Mo  Mo203  1  0.79766548  0.79758860  -0.00165645  1
  Mo  Mo204  1  0.30362986  0.09713082  0.50743793  1
  Mo  Mo205  1  0.89051552  0.70717892  0.50044318  1
  Mo  Mo206  1  0.30154176  0.29559545  0.10146315  1
  Mo  Mo207  1  0.90328264  0.30077829  0.88822362  1
  Mo  Mo208  1  0.29656107  0.69786214  0.29893151  1
  Mo  Mo209  1  0.60065891  0.39496778  0.40091933  1
  Mo  Mo210  1  0.69567973  0.90069689  0.90480143  1
  Mo  Mo211  1  0.50248160  0.89920141  0.09669623  1
  Mo  Mo212  1  0.00313207  0.39952142  -0.01464756  1
  Mo  Mo213  1  -0.00189918  0.79136429  0.00322977  1
  Mo  Mo214  1  0.30507478  0.49745609  0.69343291  1
  Mo  Mo215  1  0.09302019  0.50452152  0.31101527  1
  Mo  Mo216  1  0.50561634  0.69868733  0.49579673  1
  Mo  Mo217  1  -0.02301397  0.61675746  0.40651514  1
  Mo  Mo218  1  0.90321817  0.10595368  0.69163938  1
  Mo  Mo219  1  0.89464531  0.89461247  0.69799714  1
  Mo  Mo220  1  0.39570517  0.40220156  0.00535210  1
  Mo  Mo221  1  0.90419237  0.70291870  0.09790055  1
  Mo  Mo222  1  0.79328710  0.80467941  0.40395383  1
  Mo  Mo223  1  -0.00129154  -0.00953750  0.40557899  1
  Mo  Mo224  1  0.20015534  0.80357139  0.39627953  1
  Mo  Mo225  1  0.09877436  0.10261020  0.70338793  1
  Mo  Mo226  1  0.50375527  0.29591695  0.29649595  1
  Mo  Mo227  1  0.39957163  0.59814699  0.39996755  1
  Mo  Mo228  1  0.39528495  0.00371088  0.20730094  1
  Mo  Mo229  1  0.19928322  0.60414112  -0.00180062  1
  Mo  Mo230  1  0.49790093  0.30316439  0.90486136  1
  Mo  Mo231  1  0.80131639  0.59753392  -0.00116823  1
  Mo  Mo232  1  0.79438931  0.00164800  0.40761081  1
  Mo  Mo233  1  0.22651536  0.60711483  0.39883909  1
  Mo  Mo234  1  0.31171530  0.50756246  0.49414568  1
  Mo  Mo235  1  -0.00365911  -0.00491654  0.59985343  1
  Mo  Mo236  1  0.10155288  0.29457279  0.88820370  1
  Mo  Mo237  1  0.69753507  0.48590134  0.32008734  1
  Mo  Mo238  1  0.39914880  0.40059062  0.59698996  1
  Mo  Mo239  1  0.69895422  0.71449888  0.30448934  1
  Mo  Mo240  1  0.19722372  0.39385554  0.79117849  1
  Mo  Mo241  1  0.20064902  -0.00460195  0.60340117  1
  Mo  Mo242  1  0.39780536  0.39984063  0.19909252  1
  Mo  Mo243  1  0.81165145  0.19227482  0.60099430  1
  Mo  Mo244  1  0.00130981  0.79982181  0.20386893  1
  Mo  Mo245  1  0.79647343  0.80228031  0.20376410  1
  Mo  Mo246  1  0.60040214  0.79930344  0.58685507  1
  Mo  Mo247  1  0.29906696  0.70183465  0.49676148  1
  Mo  Mo248  1  0.30965484  0.50100897  0.30073021  1
  Mo  Mo249  1  0.79631541  0.59838235  0.79421392  1
