# generated using pymatgen
data_HfZrTaTiMo
_symmetry_space_group_name_H-M   'P 1'
_cell_length_a   16.88142514
_cell_length_b   16.88666124
_cell_length_c   16.88631172
_cell_angle_alpha   90.00323501
_cell_angle_beta   89.97031183
_cell_angle_gamma   89.95182370
_symmetry_Int_Tables_number   1
_chemical_formula_structural   HfZrTaTiMo
_chemical_formula_sum   'Hf50 Zr50 Ta50 Ti50 Mo50'
_cell_volume   4813.79385305
_cell_formula_units_Z   50
loop_
 _symmetry_equiv_pos_site_id
 _symmetry_equiv_pos_as_xyz
  1  'x, y, z'
loop_
 _atom_site_type_symbol
 _atom_site_label
 _atom_site_symmetry_multiplicity
 _atom_site_fract_x
 _atom_site_fract_y
 _atom_site_fract_z
 _atom_site_occupancy
  Hf  Hf0  1  0.49302269  0.71309013  0.50143807  1
  Hf  Hf1  1  0.39544976  0.80279258  0.38123927  1
  Hf  Hf2  1  0.50267313  0.29344447  0.30315793  1
  Hf  Hf3  1  0.70171640  0.30599984  0.69664631  1
  Hf  Hf4  1  0.90781716  0.09529278  0.69538445  1
  Hf  Hf5  1  0.89500384  0.49630770  0.31351905  1
  Hf  Hf6  1  0.79655986  0.19483133  0.59648447  1
  Hf  Hf7  1  0.68970036  0.49467202  0.30441222  1
  Hf  Hf8  1  0.79585089  0.80816763  0.59568527  1
  Hf  Hf9  1  0.29256722  0.29647549  0.50368017  1
  Hf  Hf10  1  0.70442074  0.09832890  0.09777627  1
  Hf  Hf11  1  0.39437374  0.59656992  0.79346647  1
  Hf  Hf12  1  0.69603964  0.91280929  0.90075431  1
  Hf  Hf13  1  0.60832977  0.20577580  0.80901660  1
  Hf  Hf14  1  0.89426777  0.48934393  0.09752603  1
  Hf  Hf15  1  0.49364054  0.70690733  0.69135599  1
  Hf  Hf16  1  0.58764486  0.81392063  0.79784430  1
  Hf  Hf17  1  0.00278812  0.39661864  0.40189199  1
  Hf  Hf18  1  0.59644361  0.59833311  0.59845999  1
  Hf  Hf19  1  0.30938464  0.89852579  0.50526301  1
  Hf  Hf20  1  0.00616471  0.80537846  0.80447451  1
  Hf  Hf21  1  0.40080252  0.00532731  0.60153809  1
  Hf  Hf22  1  0.80215824  0.00438233  0.79845008  1
  Hf  Hf23  1  0.28979861  0.49350478  0.49983922  1
  Hf  Hf24  1  0.48796091  0.29404613  0.89728203  1
  Hf  Hf25  1  0.80309143  0.38509328  0.21042563  1
  Hf  Hf26  1  0.69564358  0.91060278  0.10281216  1
  Hf  Hf27  1  0.50540909  0.10170437  0.70241076  1
  Hf  Hf28  1  0.21006401  0.00231891  0.40237645  1
  Hf  Hf29  1  0.29433551  0.49185399  0.30061161  1
  Hf  Hf30  1  0.79816856  0.80404263  -0.00120009  1
  Hf  Hf31  1  0.09413087  0.29340195  0.09286338  1
  Hf  Hf32  1  0.79817163  0.80860697  0.79064641  1
  Hf  Hf33  1  0.30068589  0.29074232  0.09998191  1
  Hf  Hf34  1  0.70899742  0.29223095  0.09479614  1
  Hf  Hf35  1  0.20353821  0.79681666  0.39088962  1
  Hf  Hf36  1  0.68922794  0.09907038  0.30004032  1
  Hf  Hf37  1  0.01464277  0.78559368  0.40739538  1
  Hf  Hf38  1  0.91476986  0.90600132  0.50078958  1
  Hf  Hf39  1  -0.00306086  0.19680477  0.20707011  1
  Hf  Hf40  1  0.00667012  0.80005818  0.20481015  1
  Hf  Hf41  1  0.80214538  0.19970587  0.80561214  1
  Hf  Hf42  1  0.38816648  0.60352465  0.19273924  1
  Hf  Hf43  1  0.90259779  0.29610901  0.50651406  1
  Hf  Hf44  1  0.50154019  0.49179877  0.88756011  1
  Hf  Hf45  1  0.91467314  0.90345782  0.69212747  1
  Hf  Hf46  1  0.30151154  0.29741733  0.89017315  1
  Hf  Hf47  1  0.29258672  0.29745575  0.29831672  1
  Hf  Hf48  1  0.90535010  0.30655355  0.70050915  1
  Hf  Hf49  1  0.90148133  0.29042715  0.08835837  1
  Zr  Zr50  1  0.01063871  0.59870982  0.20976547  1
  Zr  Zr51  1  0.18802029  0.61174947  0.39809189  1
  Zr  Zr52  1  0.68519866  0.90668138  0.30514080  1
  Zr  Zr53  1  0.39328802  0.40838043  0.00321499  1
  Zr  Zr54  1  0.48715922  0.90883256  0.10586237  1
  Zr  Zr55  1  0.80348775  0.61170923  0.41808149  1
  Zr  Zr56  1  0.11023572  0.89681505  0.51343455  1
  Zr  Zr57  1  0.39518171  0.18662479  0.40811158  1
  Zr  Zr58  1  0.79991092  0.58951610  -0.00944652  1
  Zr  Zr59  1  0.00243036  0.39340561  0.20639592  1
  Zr  Zr60  1  0.50221368  0.49556468  0.49412919  1
  Zr  Zr61  1  0.20000070  0.40738581  0.00194784  1
  Zr  Zr62  1  0.49646975  0.29434649  0.70309682  1
  Zr  Zr63  1  0.69174053  0.70442335  0.30454911  1
  Zr  Zr64  1  0.90004429  0.70475906  0.09934692  1
  Zr  Zr65  1  0.19871509  0.19153539  -0.00714763  1
  Zr  Zr66  1  0.40337954  0.38898153  0.40736845  1
  Zr  Zr67  1  0.39673143  -0.00543335  0.80289778  1
  Zr  Zr68  1  0.90206010  0.91004495  0.09444936  1
  Zr  Zr69  1  0.09750876  0.30357020  0.89163207  1
  Zr  Zr70  1  0.39623950  0.80430676  0.80583364  1
  Zr  Zr71  1  0.11078656  0.70472900  0.09087617  1
  Zr  Zr72  1  0.50416380  0.50364925  0.10413072  1
  Zr  Zr73  1  0.91007498  0.90704983  0.30750658  1
  Zr  Zr74  1  0.69897495  0.69613766  0.88613689  1
  Zr  Zr75  1  0.20403913  -0.00423131  -0.01548671  1
  Zr  Zr76  1  0.00027033  0.60486687  0.58928155  1
  Zr  Zr77  1  0.30131072  0.09371332  0.28999573  1
  Zr  Zr78  1  0.79398144  0.00193382  0.40981487  1
  Zr  Zr79  1  0.50554788  0.49632956  0.29816475  1
  Zr  Zr80  1  0.00151978  0.59815936  -0.00315974  1
  Zr  Zr81  1  0.10489318  0.70924828  0.69420643  1
  Zr  Zr82  1  0.10143661  0.50357410  0.89017702  1
  Zr  Zr83  1  0.29762885  0.70859383  0.51998071  1
  Zr  Zr84  1  0.60534054  0.38694654  -0.00672726  1
  Zr  Zr85  1  0.69169478  0.29148427  0.31094711  1
  Zr  Zr86  1  0.10716586  0.29702356  0.49956341  1
  Zr  Zr87  1  0.58639402  0.80309887  -0.00471009  1
  Zr  Zr88  1  0.38978825  0.60672373  0.39805574  1
  Zr  Zr89  1  0.70289347  0.48141064  0.49934333  1
  Zr  Zr90  1  0.00101946  0.19449432  0.80398559  1
  Zr  Zr91  1  0.89700059  0.70399445  0.30474783  1
  Zr  Zr92  1  0.89975496  0.69574594  0.88892049  1
  Zr  Zr93  1  0.68885721  0.69670073  0.10834065  1
  Zr  Zr94  1  0.80284610  0.61017490  0.59724934  1
  Zr  Zr95  1  0.59516236  0.59898431  -0.00530969  1
  Zr  Zr96  1  0.70525850  0.49782460  0.70134503  1
  Zr  Zr97  1  0.79675764  0.59663636  0.20236281  1
  Zr  Zr98  1  0.50511213  0.69858818  0.28944723  1
  Zr  Zr99  1  0.10610320  0.90391729  0.10126370  1
  Ta  Ta100  1  0.10525680  0.10105502  0.50281936  1
  Ta  Ta101  1  0.90233655  0.49912139  0.70549539  1
  Ta  Ta102  1  0.80026440  0.19460500  0.40660215  1
  Ta  Ta103  1  0.70009645  0.48925366  0.09943179  1
  Ta  Ta104  1  0.68251263  0.10187155  0.50352499  1
  Ta  Ta105  1  0.39633732  0.58581567  0.60781079  1
  Ta  Ta106  1  0.38931876  0.40377242  0.78445180  1
  Ta  Ta107  1  0.59724337  0.81598922  0.60015282  1
  Ta  Ta108  1  0.79581787  0.81158177  0.20558196  1
  Ta  Ta109  1  0.11120747  0.70008868  0.89741569  1
  Ta  Ta110  1  0.30147974  0.90262000  0.10257916  1
  Ta  Ta111  1  -0.00605327  0.40521504  -0.00959512  1
  Ta  Ta112  1  0.69417592  0.70433167  0.69779404  1
  Ta  Ta113  1  0.59467637  0.59733238  0.79017186  1
  Ta  Ta114  1  0.10692646  0.09358522  0.70241240  1
  Ta  Ta115  1  0.69202948  0.09728270  0.69876299  1
  Ta  Ta116  1  0.20423391  0.80958796  0.80764180  1
  Ta  Ta117  1  0.49447007  0.10370342  0.90292508  1
  Ta  Ta118  1  0.10059398  0.49838464  0.70482315  1
  Ta  Ta119  1  0.01241429  0.19895034  0.60403838  1
  Ta  Ta120  1  0.59085414  0.80810090  0.20034528  1
  Ta  Ta121  1  0.70053946  0.49284730  0.89094837  1
  Ta  Ta122  1  0.79502584  0.80650044  0.41060460  1
  Ta  Ta123  1  0.80549103  0.39933228  0.80946895  1
  Ta  Ta124  1  0.39744205  0.39774930  0.60522773  1
  Ta  Ta125  1  0.60003439  0.38916411  0.19305498  1
  Ta  Ta126  1  0.90455741  0.09724658  0.31012326  1
  Ta  Ta127  1  0.40383275  0.19646591  0.19677763  1
  Ta  Ta128  1  0.59001592  0.00538001  -0.00328568  1
  Ta  Ta129  1  0.10628761  0.90995188  0.29763349  1
  Ta  Ta130  1  0.19614244  0.40285273  0.19586362  1
  Ta  Ta131  1  0.50350670  0.09629238  0.49903342  1
  Ta  Ta132  1  0.00797843  0.40295079  0.60468459  1
  Ta  Ta133  1  0.50278027  0.90673903  0.49171606  1
  Ta  Ta134  1  0.50169066  0.08980409  0.29865458  1
  Ta  Ta135  1  0.91401817  0.09866690  0.49966584  1
  Ta  Ta136  1  0.59249636  0.19762149  0.19223815  1
  Ta  Ta137  1  0.11012278  0.90833503  0.70343384  1
  Ta  Ta138  1  0.20191441  0.60001789  0.19699058  1
  Ta  Ta139  1  0.20208677  0.39853926  0.61320547  1
  Ta  Ta140  1  0.30473772  0.09099884  0.09919661  1
  Ta  Ta141  1  0.59213382  0.39422388  0.60098952  1
  Ta  Ta142  1  0.00301541  0.60062743  0.40951313  1
  Ta  Ta143  1  0.80807566  0.00782462  0.20109243  1
  Ta  Ta144  1  0.20731138  0.19345573  0.79130819  1
  Ta  Ta145  1  0.09706715  0.09721537  0.09930615  1
  Ta  Ta146  1  0.49333378  0.09975695  0.09709728  1
  Ta  Ta147  1  0.20704699  0.60399921  0.79427945  1
  Ta  Ta148  1  0.69770174  0.09847637  0.90445361  1
  Ta  Ta149  1  0.79247772  0.00169467  0.59634226  1
  Ti  Ti150  1  0.49242367  0.69378213  0.89869243  1
  Ti  Ti151  1  0.20024081  0.18992172  0.40114026  1
  Ti  Ti152  1  0.10058052  0.09263200  0.30105943  1
  Ti  Ti153  1  0.00313087  0.19686005  0.39830385  1
  Ti  Ti154  1  0.49368685  0.70391315  0.10086449  1
  Ti  Ti155  1  0.20569347  0.79588413  0.20660068  1
  Ti  Ti156  1  0.30329930  0.71359034  0.09705773  1
  Ti  Ti157  1  0.10591325  0.49518276  0.50268085  1
  Ti  Ti158  1  0.21239058  0.01226720  0.60496777  1
  Ti  Ti159  1  0.79997101  0.38148914  0.40612405  1
  Ti  Ti160  1  0.80988445  0.19343964  0.20989585  1
  Ti  Ti161  1  0.00688610  0.80607711  -0.00973953  1
  Ti  Ti162  1  0.38969990  0.19527567  0.60557811  1
  Ti  Ti163  1  0.30526673  0.90846307  0.28278910  1
  Ti  Ti164  1  0.21237047  0.59684186  0.00484858  1
  Ti  Ti165  1  0.39844411  0.39649396  0.19499863  1
  Ti  Ti166  1  0.00340414  0.00542429  -0.00232121  1
  Ti  Ti167  1  0.68404384  0.71833411  0.49870268  1
  Ti  Ti168  1  0.90122868  0.90812860  0.90405465  1
  Ti  Ti169  1  0.49425191  0.29216472  0.09550873  1
  Ti  Ti170  1  0.80489598  0.19335037  -0.00796542  1
  Ti  Ti171  1  0.29420172  0.49963138  0.89142342  1
  Ti  Ti172  1  0.19409571  0.19268744  0.19709082  1
  Ti  Ti173  1  0.39099191  0.59833202  0.00061753  1
  Ti  Ti174  1  0.89645910  0.48688485  0.50936621  1
  Ti  Ti175  1  0.39656804  0.80839642  -0.00783549  1
  Ti  Ti176  1  0.29430458  0.90080006  0.69954420  1
  Ti  Ti177  1  0.10082104  0.09676413  0.89537777  1
  Ti  Ti178  1  0.20100663  0.59604345  0.60660717  1
  Ti  Ti179  1  0.68630215  0.91597427  0.69689108  1
  Ti  Ti180  1  0.90331581  0.30303088  0.90384284  1
  Ti  Ti181  1  0.10383064  0.30388698  0.70695823  1
  Ti  Ti182  1  0.59867523  0.19823376  -0.00098655  1
  Ti  Ti183  1  -0.00016560  0.60044914  0.79507571  1
  Ti  Ti184  1  0.20394356  0.19563985  0.60999614  1
  Ti  Ti185  1  0.30038797  0.70925142  0.69523884  1
  Ti  Ti186  1  0.01008829  -0.00420855  0.80930629  1
  Ti  Ti187  1  0.10548560  0.49530962  0.30563666  1
  Ti  Ti188  1  0.90127657  0.09321306  0.91227751  1
  Ti  Ti189  1  0.01283203  0.00647306  0.59815368  1
  Ti  Ti190  1  0.51253149  0.28461216  0.50476519  1
  Ti  Ti191  1  0.49719706  0.91184366  0.29860909  1
  Ti  Ti192  1  0.30988844  0.10294390  0.89721914  1
  Ti  Ti193  1  0.09986656  0.49975112  0.09889008  1
  Ti  Ti194  1  0.29730114  0.70019295  0.90378298  1
  Ti  Ti195  1  0.89992288  0.70185622  0.69761617  1
  Ti  Ti196  1  0.10973188  0.29772910  0.30397751  1
  Ti  Ti197  1  0.20435744  0.80653710  -0.00980538  1
  Ti  Ti198  1  -0.00095059  0.00836904  0.20023662  1
  Ti  Ti199  1  0.59923595  0.60471778  0.40637625  1
  Mo  Mo200  1  0.39540529  0.80236259  0.19425454  1
  Mo  Mo201  1  0.29914500  0.10236465  0.70203114  1
  Mo  Mo202  1  0.89994065  0.49703906  0.89024954  1
  Mo  Mo203  1  0.40416427  0.81559801  0.61019320  1
  Mo  Mo204  1  0.39749703  0.00183798  0.19943935  1
  Mo  Mo205  1  0.50110849  0.90586563  0.69567953  1
  Mo  Mo206  1  0.10453361  0.69714018  0.50869462  1
  Mo  Mo207  1  0.29441163  0.50081210  0.10417078  1
  Mo  Mo208  1  0.60056502  0.20034211  0.60008286  1
  Mo  Mo209  1  0.09896692  0.89950075  0.89782133  1
  Mo  Mo210  1  0.49820125  0.49534632  0.69721404  1
  Mo  Mo211  1  0.29815177  0.29663183  0.69674790  1
  Mo  Mo212  1  0.20231095  0.00227782  0.79857987  1
  Mo  Mo213  1  0.01587932  0.00933203  0.40120945  1
  Mo  Mo214  1  0.80172500  0.39411646  -0.01074841  1
  Mo  Mo215  1  0.29765902  0.10152284  0.50680982  1
  Mo  Mo216  1  0.20238589  0.40149723  0.79150400  1
  Mo  Mo217  1  0.69566545  0.29366870  0.50476818  1
  Mo  Mo218  1  0.79773200  0.59810855  0.79016243  1
  Mo  Mo219  1  0.59359010  0.00647318  0.19577839  1
  Mo  Mo220  1  0.39698484  0.00227784  -0.00157041  1
  Mo  Mo221  1  0.19700864  0.00057781  0.19619630  1
  Mo  Mo222  1  0.00365211  0.80239288  0.60409081  1
  Mo  Mo223  1  0.89745001  0.28642429  0.31510797  1
  Mo  Mo224  1  0.40279767  -0.00490361  0.39668276  1
  Mo  Mo225  1  0.39954451  0.19318504  0.00176655  1
  Mo  Mo226  1  0.80263286  0.00599554  -0.00180503  1
  Mo  Mo227  1  0.19257741  0.39698261  0.39562993  1
  Mo  Mo228  1  0.81111872  0.39772599  0.60373120  1
  Mo  Mo229  1  0.30003991  0.89626985  0.90567040  1
  Mo  Mo230  1  0.69105306  0.90630691  0.50370283  1
  Mo  Mo231  1  0.60011400  0.59400309  0.19323918  1
  Mo  Mo232  1  0.39390013  0.19562673  0.79967121  1
  Mo  Mo233  1  0.29357071  0.50029014  0.69733305  1
  Mo  Mo234  1  0.70927199  0.29708349  0.90243378  1
  Mo  Mo235  1  0.29660329  0.70187022  0.28422808  1
  Mo  Mo236  1  0.10368464  0.69796610  0.29312099  1
  Mo  Mo237  1  0.20538386  0.80772094  0.61252064  1
  Mo  Mo238  1  0.60258993  0.38495323  0.40990640  1
  Mo  Mo239  1  0.59248402  0.00133099  0.40253753  1
  Mo  Mo240  1  0.90613156  0.71507491  0.50463661  1
  Mo  Mo241  1  0.49558921  0.91159809  0.90576569  1
  Mo  Mo242  1  0.59550026  0.19358514  0.40497271  1
  Mo  Mo243  1  0.59807670  0.00150984  0.59992413  1
  Mo  Mo244  1  0.59768610  0.00772704  0.80372620  1
  Mo  Mo245  1  0.60212080  0.40128916  0.79785676  1
  Mo  Mo246  1  -0.00271033  0.18766785  -0.00326314  1
  Mo  Mo247  1  -0.00192307  0.40385047  0.79788384  1
  Mo  Mo248  1  0.90296715  0.10074863  0.10091947  1
  Mo  Mo249  1  0.59324285  0.80753837  0.40142356  1
