# generated using pymatgen
data_HfZrTaTiMo
_symmetry_space_group_name_H-M   'P 1'
_cell_length_a   16.89020756
_cell_length_b   16.88588889
_cell_length_c   16.88210219
_cell_angle_alpha   90.05618666
_cell_angle_beta   89.99799042
_cell_angle_gamma   89.91440885
_symmetry_Int_Tables_number   1
_chemical_formula_structural   HfZrTaTiMo
_chemical_formula_sum   'Hf50 Zr50 Ta50 Ti50 Mo50'
_cell_volume   4814.87198616
_cell_formula_units_Z   50
loop_
 _symmetry_equiv_pos_site_id
 _symmetry_equiv_pos_as_xyz
  1  'x, y, z'
loop_
 _atom_site_type_symbol
 _atom_site_label
 _atom_site_symmetry_multiplicity
 _atom_site_fract_x
 _atom_site_fract_y
 _atom_site_fract_z
 _atom_site_occupancy
  Hf  Hf0  1  -0.00058465  -0.00840118  0.39987244  1
  Hf  Hf1  1  0.49984386  0.09592101  0.70737980  1
  Hf  Hf2  1  0.29329091  0.09996890  0.29447510  1
  Hf  Hf3  1  0.09504140  0.30500936  0.10387617  1
  Hf  Hf4  1  -0.01486001  0.60786558  0.40259722  1
  Hf  Hf5  1  0.80992689  0.19098493  0.20357823  1
  Hf  Hf6  1  0.60083709  0.40827931  0.20172184  1
  Hf  Hf7  1  0.51740325  0.68646861  0.90201449  1
  Hf  Hf8  1  0.39868602  0.40493365  0.59832612  1
  Hf  Hf9  1  0.51766482  0.49554499  0.70631929  1
  Hf  Hf10  1  0.81531369  0.79577691  0.39017742  1
  Hf  Hf11  1  0.49235570  0.90765698  0.89972210  1
  Hf  Hf12  1  0.59623906  -0.00430355  0.39145948  1
  Hf  Hf13  1  0.39380182  0.79139387  0.80247639  1
  Hf  Hf14  1  0.50687977  0.30171204  0.89817475  1
  Hf  Hf15  1  0.39064516  0.60759763  -0.00363220  1
  Hf  Hf16  1  0.50032644  0.70143355  0.10048746  1
  Hf  Hf17  1  0.19334716  0.19878667  0.20202863  1
  Hf  Hf18  1  0.60362770  0.80323909  0.19796341  1
  Hf  Hf19  1  -0.00930781  0.60736710  0.20028319  1
  Hf  Hf20  1  0.29326898  0.90146124  0.09893659  1
  Hf  Hf21  1  0.38827671  0.01314605  -0.00146826  1
  Hf  Hf22  1  0.60975493  0.80292345  0.00240468  1
  Hf  Hf23  1  0.82423654  0.00539575  0.20469814  1
  Hf  Hf24  1  0.90171848  0.30953914  0.10787404  1
  Hf  Hf25  1  -0.00979018  0.79857451  0.21403031  1
  Hf  Hf26  1  0.90170886  0.69855578  0.69820647  1
  Hf  Hf27  1  0.50603194  0.68651211  0.29641039  1
  Hf  Hf28  1  0.69294637  0.50123032  0.89572506  1
  Hf  Hf29  1  0.58959093  0.79526435  0.60377494  1
  Hf  Hf30  1  0.40507097  0.60011810  0.79454422  1
  Hf  Hf31  1  0.70749300  0.30464290  0.10363644  1
  Hf  Hf32  1  0.70181925  0.10313797  0.49828189  1
  Hf  Hf33  1  0.39133968  0.20006121  0.59723274  1
  Hf  Hf34  1  0.80730480  0.00248918  0.39449658  1
  Hf  Hf35  1  -0.00851476  0.60437959  0.00208162  1
  Hf  Hf36  1  0.60027214  0.00136078  0.00336412  1
  Hf  Hf37  1  0.48915453  0.90851354  0.70626646  1
  Hf  Hf38  1  0.40097277  -0.00553949  0.39617742  1
  Hf  Hf39  1  0.39266873  0.79050544  0.60666610  1
  Hf  Hf40  1  0.71214808  0.69378609  0.89980988  1
  Hf  Hf41  1  -0.00398881  0.59398092  0.79547939  1
  Hf  Hf42  1  -0.00135132  0.19658362  0.00306992  1
  Hf  Hf43  1  0.50614346  0.30339756  0.70359164  1
  Hf  Hf44  1  0.10103247  0.30607976  0.69564458  1
  Hf  Hf45  1  0.39545759  0.59425884  0.40225870  1
  Hf  Hf46  1  0.89886200  0.32300064  0.70884167  1
  Hf  Hf47  1  -0.00123122  0.20270345  0.79720917  1
  Hf  Hf48  1  0.50172541  0.09896304  0.50271784  1
  Hf  Hf49  1  0.20735472  0.19179510  0.00036424  1
  Zr  Zr50  1  0.09718384  0.70858850  0.09234087  1
  Zr  Zr51  1  0.70214678  0.09652363  0.90202597  1
  Zr  Zr52  1  0.70359232  0.69324413  0.70707098  1
  Zr  Zr53  1  0.20488786  0.59684463  0.41038964  1
  Zr  Zr54  1  0.39851155  0.80505587  0.20715962  1
  Zr  Zr55  1  0.59489674  0.19770334  0.19720476  1
  Zr  Zr56  1  0.28405646  0.50409293  0.10505104  1
  Zr  Zr57  1  0.89765845  0.09225883  0.89940948  1
  Zr  Zr58  1  0.39550437  0.40473845  0.39787930  1
  Zr  Zr59  1  0.29844969  0.30171632  0.89955763  1
  Zr  Zr60  1  0.19674120  0.40044916  0.00176583  1
  Zr  Zr61  1  -0.00217158  0.18950370  0.20860965  1
  Zr  Zr62  1  0.39549524  0.79755338  0.40075051  1
  Zr  Zr63  1  0.70099580  0.89757943  0.49922986  1
  Zr  Zr64  1  0.00560016  -0.01434534  0.79677665  1
  Zr  Zr65  1  0.70244379  0.30159821  0.30278759  1
  Zr  Zr66  1  0.79336725  0.20428950  0.79656607  1
  Zr  Zr67  1  0.38769896  0.59467828  0.20775187  1
  Zr  Zr68  1  0.00106079  0.20726517  0.59874606  1
  Zr  Zr69  1  0.29097965  0.51287062  0.89293825  1
  Zr  Zr70  1  0.51356427  0.30094241  0.49420656  1
  Zr  Zr71  1  0.18656886  0.81075849  0.21000274  1
  Zr  Zr72  1  0.00401941  -0.00446165  0.59669894  1
  Zr  Zr73  1  0.70587189  0.69494197  0.49231328  1
  Zr  Zr74  1  0.79703886  0.60226893  0.19226688  1
  Zr  Zr75  1  0.09240250  0.49410967  0.49338966  1
  Zr  Zr76  1  0.89425472  0.49139181  0.89524114  1
  Zr  Zr77  1  0.40359289  0.39915161  0.20503024  1
  Zr  Zr78  1  0.10446013  0.09661001  0.89313673  1
  Zr  Zr79  1  0.59280120  0.80360641  0.39422049  1
  Zr  Zr80  1  0.20710634  0.40878735  0.59025730  1
  Zr  Zr81  1  0.39716862  0.19954066  0.39514073  1
  Zr  Zr82  1  0.40496719  0.40069991  0.00413021  1
  Zr  Zr83  1  0.19329302  -0.00736551  0.40251302  1
  Zr  Zr84  1  0.19953900  0.80525035  0.80125189  1
  Zr  Zr85  1  0.60353826  0.59795919  0.60085245  1
  Zr  Zr86  1  0.79936926  0.21025355  0.60314741  1
  Zr  Zr87  1  0.59971892  0.80222652  0.80239593  1
  Zr  Zr88  1  0.01090484  -0.01044989  0.20699003  1
  Zr  Zr89  1  0.79461000  0.40910189  0.40717538  1
  Zr  Zr90  1  0.59881612  0.20091021  0.00654292  1
  Zr  Zr91  1  0.61439056  0.19998260  0.61243294  1
  Zr  Zr92  1  0.71198680  0.90591200  0.10047904  1
  Zr  Zr93  1  0.39176097  0.19508836  0.80366212  1
  Zr  Zr94  1  0.70688099  0.89512909  0.69834679  1
  Zr  Zr95  1  -0.00034655  0.80197668  0.59396689  1
  Zr  Zr96  1  0.19940521  0.40991436  0.79022518  1
  Zr  Zr97  1  0.50780883  0.51177104  0.10193461  1
  Zr  Zr98  1  0.90245307  0.89088354  0.08649387  1
  Zr  Zr99  1  0.28197080  0.68072228  0.70175069  1
  Ta  Ta100  1  0.28972307  0.30100199  0.29906600  1
  Ta  Ta101  1  0.39960995  0.40674933  0.79631156  1
  Ta  Ta102  1  0.80915122  0.19946854  0.39659442  1
  Ta  Ta103  1  0.10601202  0.08759368  0.10183298  1
  Ta  Ta104  1  0.19968224  -0.00504227  0.59971070  1
  Ta  Ta105  1  0.80599238  0.59076313  0.59426141  1
  Ta  Ta106  1  0.09570321  0.69568410  0.69811321  1
  Ta  Ta107  1  0.39756781  0.00246853  0.19859192  1
  Ta  Ta108  1  0.89854103  0.49006954  0.10477665  1
  Ta  Ta109  1  0.70278962  0.69605301  0.29714626  1
  Ta  Ta110  1  0.80675340  0.19877714  0.00536514  1
  Ta  Ta111  1  0.40027198  0.19662755  0.00873642  1
  Ta  Ta112  1  0.10051536  0.10595568  0.50084636  1
  Ta  Ta113  1  0.19643217  0.79735199  0.40991716  1
  Ta  Ta114  1  0.00569915  -0.00436841  -0.00175341  1
  Ta  Ta115  1  0.28834023  0.70753166  0.09790233  1
  Ta  Ta116  1  0.09276262  0.49674134  0.29857697  1
  Ta  Ta117  1  0.09461508  0.70606662  0.89387255  1
  Ta  Ta118  1  0.09448485  0.30625506  0.89506995  1
  Ta  Ta119  1  0.80236662  0.00469747  0.60171030  1
  Ta  Ta120  1  0.28805108  0.70120299  0.30027716  1
  Ta  Ta121  1  0.20035650  -0.00228921  -0.00463754  1
  Ta  Ta122  1  0.30005516  0.89727064  0.50481008  1
  Ta  Ta123  1  0.39507619  0.59384833  0.59634376  1
  Ta  Ta124  1  0.60636727  0.58997718  0.39766861  1
  Ta  Ta125  1  0.50745830  0.49842914  0.49603761  1
  Ta  Ta126  1  0.09915151  0.69375157  0.50959224  1
  Ta  Ta127  1  0.19024951  0.20695465  0.40299256  1
  Ta  Ta128  1  0.90676350  0.30779183  0.30459492  1
  Ta  Ta129  1  0.10642411  0.09905581  0.69515782  1
  Ta  Ta130  1  0.90038268  0.09595756  0.69780685  1
  Ta  Ta131  1  0.90768085  0.30724357  0.49274590  1
  Ta  Ta132  1  0.49386460  0.90249407  0.50946208  1
  Ta  Ta133  1  0.09861973  0.69730709  0.31130517  1
  Ta  Ta134  1  0.49776490  0.09720740  0.89432276  1
  Ta  Ta135  1  0.20060830  0.79925891  0.59696139  1
  Ta  Ta136  1  0.80440900  -0.00562998  0.79474566  1
  Ta  Ta137  1  0.09145519  0.49983391  0.10407570  1
  Ta  Ta138  1  0.49417577  0.90475190  0.09978791  1
  Ta  Ta139  1  0.49686946  0.69282542  0.49996570  1
  Ta  Ta140  1  0.89893667  0.49470067  0.29850264  1
  Ta  Ta141  1  0.30081779  0.29644623  0.10905351  1
  Ta  Ta142  1  0.38878731  0.00135668  0.60265446  1
  Ta  Ta143  1  0.29922860  0.30082282  0.69821396  1
  Ta  Ta144  1  0.09526321  0.50280668  0.90026896  1
  Ta  Ta145  1  0.90441194  0.10714559  0.49975792  1
  Ta  Ta146  1  0.60212240  -0.00044748  0.60456536  1
  Ta  Ta147  1  0.70459845  0.90248182  0.29006229  1
  Ta  Ta148  1  0.19999417  0.19946829  0.79422183  1
  Ta  Ta149  1  0.90090693  0.70710609  0.89747547  1
  Ti  Ti150  1  0.80684551  0.79205782  0.19913522  1
  Ti  Ti151  1  0.70180098  0.30633864  0.90134810  1
  Ti  Ti152  1  0.70047435  0.30093086  0.49233121  1
  Ti  Ti153  1  0.09849791  0.51037477  0.69271562  1
  Ti  Ti154  1  0.80735846  0.80426944  0.80245048  1
  Ti  Ti155  1  0.29004368  0.30223147  0.49094234  1
  Ti  Ti156  1  0.20739062  -0.00292183  0.79761292  1
  Ti  Ti157  1  0.51037038  0.50098478  0.90058009  1
  Ti  Ti158  1  0.89988193  0.50084656  0.50075123  1
  Ti  Ti159  1  0.80231214  0.58434194  0.78633807  1
  Ti  Ti160  1  0.60317169  0.19610909  0.39181939  1
  Ti  Ti161  1  0.89949625  0.89576030  0.69897029  1
  Ti  Ti162  1  0.19151623  0.39774971  0.20496847  1
  Ti  Ti163  1  0.80543553  0.79436419  0.59378328  1
  Ti  Ti164  1  -0.00292572  0.40809773  0.59944891  1
  Ti  Ti165  1  0.20055652  0.20111461  0.59553682  1
  Ti  Ti166  1  0.71100193  0.09225497  0.10014581  1
  Ti  Ti167  1  0.10306496  0.89647031  0.08549602  1
  Ti  Ti168  1  0.09201425  0.31163684  0.31312268  1
  Ti  Ti169  1  0.71964989  0.90313956  0.90757928  1
  Ti  Ti170  1  -0.00016101  0.40250789  -0.00375867  1
  Ti  Ti171  1  0.61244898  0.00024657  0.79861379  1
  Ti  Ti172  1  0.29802414  0.90193050  0.89962219  1
  Ti  Ti173  1  0.27928764  0.49231207  0.30296802  1
  Ti  Ti174  1  0.29213553  0.09832136  0.49748727  1
  Ti  Ti175  1  0.60071617  0.40000054  0.00803435  1
  Ti  Ti176  1  0.10086187  0.09801832  0.30666713  1
  Ti  Ti177  1  0.69786996  0.09404903  0.29308532  1
  Ti  Ti178  1  0.50020222  0.09540963  0.29103038  1
  Ti  Ti179  1  0.18953728  0.60493434  0.20340209  1
  Ti  Ti180  1  0.19320288  0.60948573  -0.00622656  1
  Ti  Ti181  1  0.62544900  0.60182197  0.02484285  1
  Ti  Ti182  1  -0.00005868  0.79951117  0.40294565  1
  Ti  Ti183  1  0.49667866  0.09626668  0.10406561  1
  Ti  Ti184  1  0.61497460  0.40620425  0.58974375  1
  Ti  Ti185  1  0.70253543  0.50424353  0.29861189  1
  Ti  Ti186  1  0.79635689  0.40235475  0.00165055  1
  Ti  Ti187  1  0.60860263  0.19782171  0.79994717  1
  Ti  Ti188  1  0.89899734  0.30660704  0.89925302  1
  Ti  Ti189  1  0.29250850  0.90283234  0.30006901  1
  Ti  Ti190  1  0.10539225  0.89500823  0.69878713  1
  Ti  Ti191  1  0.39251922  0.79638366  -0.00577709  1
  Ti  Ti192  1  0.90605420  0.89177615  0.90058243  1
  Ti  Ti193  1  0.89611889  0.90038294  0.50251786  1
  Ti  Ti194  1  0.79576115  0.41038442  0.60156230  1
  Ti  Ti195  1  0.69442337  0.32680818  0.71566095  1
  Ti  Ti196  1  0.39994239  0.20005383  0.19473489  1
  Ti  Ti197  1  0.50247267  0.30126834  0.30181826  1
  Ti  Ti198  1  0.80508666  0.60434676  0.01036052  1
  Ti  Ti199  1  0.29315775  0.09700873  0.70049811  1
  Mo  Mo200  1  0.19872145  0.00016299  0.19808053  1
  Mo  Mo201  1  0.29804739  0.10059871  0.10466984  1
  Mo  Mo202  1  0.09692493  0.29922026  0.49818208  1
  Mo  Mo203  1  0.00003678  0.79859294  0.79639108  1
  Mo  Mo204  1  0.29748001  0.09605316  0.89471734  1
  Mo  Mo205  1  0.60286174  0.59702484  0.79721173  1
  Mo  Mo206  1  0.19580873  0.59837444  0.59939985  1
  Mo  Mo207  1  0.10314943  0.89862493  0.90129918  1
  Mo  Mo208  1  -0.00477678  0.40247450  0.40029424  1
  Mo  Mo209  1  0.51442653  0.49901104  0.30601139  1
  Mo  Mo210  1  0.49625839  0.69223018  0.69796873  1
  Mo  Mo211  1  0.00355932  0.80278993  -0.01450938  1
  Mo  Mo212  1  0.10468110  0.89190525  0.50340489  1
  Mo  Mo213  1  0.70926396  0.49346961  0.09550949  1
  Mo  Mo214  1  0.80533782  0.79759113  -0.00843273  1
  Mo  Mo215  1  0.90746570  0.09575914  0.08960625  1
  Mo  Mo216  1  0.09712409  0.89054757  0.31423145  1
  Mo  Mo217  1  0.59339033  0.00044479  0.19797689  1
  Mo  Mo218  1  0.90025828  0.69717626  0.50406249  1
  Mo  Mo219  1  0.30399670  0.50050090  0.50059390  1
  Mo  Mo220  1  0.20096372  0.80319217  -0.00823548  1
  Mo  Mo221  1  0.60038736  0.40608648  0.39716685  1
  Mo  Mo222  1  0.89708551  0.69501597  0.30220135  1
  Mo  Mo223  1  0.00501561  0.40360750  0.80073859  1
  Mo  Mo224  1  0.79419694  0.40111999  0.80537352  1
  Mo  Mo225  1  0.19591007  0.39605621  0.39371145  1
  Mo  Mo226  1  0.00129075  0.40604345  0.20604717  1
  Mo  Mo227  1  0.38434892  0.00183307  0.80143386  1
  Mo  Mo228  1  0.80259473  0.40450544  0.20564426  1
  Mo  Mo229  1  0.70184431  0.49965402  0.50133323  1
  Mo  Mo230  1  0.90003828  0.49926117  0.69150643  1
  Mo  Mo231  1  0.70448746  0.08807762  0.70251639  1
  Mo  Mo232  1  0.29573069  0.90617709  0.69708073  1
  Mo  Mo233  1  0.29812041  0.69980254  0.50276121  1
  Mo  Mo234  1  0.59935635  0.39976502  0.81310441  1
  Mo  Mo235  1  0.50240951  0.90960625  0.28869498  1
  Mo  Mo236  1  0.80907307  0.00050261  -0.00481854  1
  Mo  Mo237  1  0.89975478  0.89420422  0.30126571  1
  Mo  Mo238  1  0.89625767  0.70407812  0.08872448  1
  Mo  Mo239  1  0.70751726  0.49479618  0.69988713  1
  Mo  Mo240  1  0.61240347  0.60174553  0.20312315  1
  Mo  Mo241  1  0.18446602  0.60126919  0.80095346  1
  Mo  Mo242  1  0.28728456  0.70409444  0.90528065  1
  Mo  Mo243  1  0.79967572  0.59787115  0.39770563  1
  Mo  Mo244  1  0.49446397  0.29611806  0.10127940  1
  Mo  Mo245  1  0.91124456  0.10731373  0.31418819  1
  Mo  Mo246  1  0.30446699  0.49902593  0.69690503  1
  Mo  Mo247  1  -0.00364088  0.59780541  0.59855530  1
  Mo  Mo248  1  0.70793210  0.70641482  0.10103774  1
  Mo  Mo249  1  0.00341134  0.20449689  0.40301051  1
