# generated using pymatgen
data_HfZrTaTiMo
_symmetry_space_group_name_H-M   'P 1'
_cell_length_a   16.89230511
_cell_length_b   16.87500669
_cell_length_c   16.88013941
_cell_angle_alpha   89.99578382
_cell_angle_beta   90.04505816
_cell_angle_gamma   90.00562607
_symmetry_Int_Tables_number   1
_chemical_formula_structural   HfZrTaTiMo
_chemical_formula_sum   'Hf50 Zr50 Ta50 Ti50 Mo50'
_cell_volume   4811.81323710
_cell_formula_units_Z   50
loop_
 _symmetry_equiv_pos_site_id
 _symmetry_equiv_pos_as_xyz
  1  'x, y, z'
loop_
 _atom_site_type_symbol
 _atom_site_label
 _atom_site_symmetry_multiplicity
 _atom_site_fract_x
 _atom_site_fract_y
 _atom_site_fract_z
 _atom_site_occupancy
  Hf  Hf0  1  0.50807208  0.70141237  0.50440489  1
  Hf  Hf1  1  0.79706052  0.80398679  0.39796183  1
  Hf  Hf2  1  0.90267597  0.09635863  0.69461499  1
  Hf  Hf3  1  0.20069780  0.60276118  0.59397156  1
  Hf  Hf4  1  -0.00742603  0.80620898  0.19943092  1
  Hf  Hf5  1  0.39555662  0.19938474  0.79961495  1
  Hf  Hf6  1  0.20130405  -0.00672281  0.40192944  1
  Hf  Hf7  1  0.41487202  0.19963044  0.40667170  1
  Hf  Hf8  1  0.40199487  0.60341031  0.20069045  1
  Hf  Hf9  1  -0.00047802  0.20053804  0.21025390  1
  Hf  Hf10  1  0.30931493  0.50179718  0.49627004  1
  Hf  Hf11  1  0.69906248  0.49634378  0.50525161  1
  Hf  Hf12  1  0.09714526  0.31055077  0.10736422  1
  Hf  Hf13  1  0.50956181  0.70535017  0.89200655  1
  Hf  Hf14  1  0.30176316  0.30097565  0.10635280  1
  Hf  Hf15  1  0.69873624  0.09285689  0.89792104  1
  Hf  Hf16  1  0.39597086  0.80792450  -0.00902737  1
  Hf  Hf17  1  0.79499615  0.60156892  0.00397522  1
  Hf  Hf18  1  0.89375128  0.30104544  0.69289034  1
  Hf  Hf19  1  0.19398433  0.39762700  0.39744199  1
  Hf  Hf20  1  0.80081018  0.60499499  0.20619034  1
  Hf  Hf21  1  0.20041962  -0.00227190  0.19953263  1
  Hf  Hf22  1  0.60898727  0.18509828  0.19898090  1
  Hf  Hf23  1  -0.00086005  0.19204313  -0.00754604  1
  Hf  Hf24  1  0.29648944  0.50824297  0.89026986  1
  Hf  Hf25  1  0.50413653  0.30142785  0.09735389  1
  Hf  Hf26  1  0.40528106  0.19744016  0.60490690  1
  Hf  Hf27  1  0.29696953  0.70444807  0.30907777  1
  Hf  Hf28  1  0.40599387  0.40511369  0.80057500  1
  Hf  Hf29  1  0.19549794  0.40397419  0.59547545  1
  Hf  Hf30  1  0.68653582  0.90225156  0.09986694  1
  Hf  Hf31  1  0.40456921  0.40352969  0.20386978  1
  Hf  Hf32  1  -0.00162408  0.60065686  0.00423816  1
  Hf  Hf33  1  0.30826255  0.09900048  0.30162201  1
  Hf  Hf34  1  0.79902144  0.80711615  0.00635573  1
  Hf  Hf35  1  0.68796896  0.89603855  0.90061191  1
  Hf  Hf36  1  0.69796954  0.49819705  0.30738278  1
  Hf  Hf37  1  0.10188045  0.69885599  0.88969195  1
  Hf  Hf38  1  0.88978584  0.30417670  0.50440483  1
  Hf  Hf39  1  0.50746925  0.30272823  0.89459035  1
  Hf  Hf40  1  0.51360669  0.50361545  0.50373023  1
  Hf  Hf41  1  0.00205654  0.19712498  0.59519326  1
  Hf  Hf42  1  0.89429827  0.09522762  0.30605936  1
  Hf  Hf43  1  0.10079255  0.50370221  0.89556715  1
  Hf  Hf44  1  0.49764110  0.09267561  0.70180833  1
  Hf  Hf45  1  0.30778716  0.09890342  0.09750389  1
  Hf  Hf46  1  0.29784237  0.89100698  0.69673703  1
  Hf  Hf47  1  0.50806016  0.50645319  0.31306370  1
  Hf  Hf48  1  0.89948575  0.49971602  0.89343201  1
  Hf  Hf49  1  0.60407687  0.39612768  0.20511584  1
  Zr  Zr50  1  0.40011490  0.59572281  -0.00365953  1
  Zr  Zr51  1  0.09052720  0.48734110  0.10184068  1
  Zr  Zr52  1  0.19437672  0.81280509  -0.00582084  1
  Zr  Zr53  1  0.19628779  0.20490673  0.21277036  1
  Zr  Zr54  1  0.40396839  0.80278001  0.19963985  1
  Zr  Zr55  1  0.89284256  0.08761734  0.50088904  1
  Zr  Zr56  1  0.09480461  0.50376339  0.69490189  1
  Zr  Zr57  1  0.89240913  0.69636123  0.89125600  1
  Zr  Zr58  1  0.90302675  0.30353500  0.09413865  1
  Zr  Zr59  1  -0.00620151  0.39810602  0.79463315  1
  Zr  Zr60  1  0.09850795  0.70386005  0.31532373  1
  Zr  Zr61  1  0.79947377  0.80597800  0.78622718  1
  Zr  Zr62  1  0.21614517  0.40447098  0.00207702  1
  Zr  Zr63  1  0.79372824  0.40140174  -0.00449863  1
  Zr  Zr64  1  0.77635589  0.19129864  0.59677111  1
  Zr  Zr65  1  0.10117925  0.29977221  0.90188697  1
  Zr  Zr66  1  0.79462291  0.19421867  0.19578842  1
  Zr  Zr67  1  0.90574699  0.70140777  0.50946153  1
  Zr  Zr68  1  0.50648007  0.50358838  0.09832339  1
  Zr  Zr69  1  0.10391294  0.89375977  0.69218956  1
  Zr  Zr70  1  0.69523258  0.69740970  0.69952773  1
  Zr  Zr71  1  0.00511615  0.00399505  0.80788475  1
  Zr  Zr72  1  0.51550656  0.09136976  0.31022770  1
  Zr  Zr73  1  0.40220831  0.19920872  -0.00392393  1
  Zr  Zr74  1  0.29079162  0.69902846  0.88469594  1
  Zr  Zr75  1  0.10138711  0.10142350  0.09770174  1
  Zr  Zr76  1  -0.00114877  0.80559384  0.79771167  1
  Zr  Zr77  1  0.30205716  0.09413348  0.50517157  1
  Zr  Zr78  1  0.40968845  0.40315484  0.60963758  1
  Zr  Zr79  1  0.09724631  0.88658025  0.50522989  1
  Zr  Zr80  1  0.09998645  0.29649827  0.70384220  1
  Zr  Zr81  1  0.51046841  0.71201470  0.09283627  1
  Zr  Zr82  1  0.89502137  0.70998111  0.10386940  1
  Zr  Zr83  1  -0.00659755  0.60532050  0.20998729  1
  Zr  Zr84  1  0.18743833  0.20211135  0.39974045  1
  Zr  Zr85  1  0.89781007  0.90828193  0.90903728  1
  Zr  Zr86  1  0.09661501  0.48959647  0.29563042  1
  Zr  Zr87  1  0.20023720  -0.00669565  0.80747020  1
  Zr  Zr88  1  0.40977789  -0.00788881  0.41437523  1
  Zr  Zr89  1  0.80905549  0.60405482  0.39850235  1
  Zr  Zr90  1  0.20228319  0.19577368  0.60458643  1
  Zr  Zr91  1  0.19913058  0.80343696  0.19298210  1
  Zr  Zr92  1  0.69811092  0.29852206  0.89109797  1
  Zr  Zr93  1  0.70141343  0.51341968  0.88356165  1
  Zr  Zr94  1  0.60008991  0.18943189  0.00274189  1
  Zr  Zr95  1  0.30578522  0.30224433  0.49985479  1
  Zr  Zr96  1  0.09761010  0.89654922  0.30528229  1
  Zr  Zr97  1  0.78381048  0.00289085  0.20030854  1
  Zr  Zr98  1  0.20508158  0.59445317  0.19413395  1
  Zr  Zr99  1  0.79386368  -0.00202627  0.78508796  1
  Ta  Ta100  1  0.69751750  0.70365878  0.50940647  1
  Ta  Ta101  1  0.41275943  0.39657165  0.39984842  1
  Ta  Ta102  1  0.50166283  0.89379396  0.69839521  1
  Ta  Ta103  1  0.60308894  0.80476010  0.39863443  1
  Ta  Ta104  1  -0.00084966  0.20028052  0.40196545  1
  Ta  Ta105  1  0.69937973  0.30278560  0.09753861  1
  Ta  Ta106  1  0.30914148  0.90991950  0.09579479  1
  Ta  Ta107  1  0.10391796  0.09724529  0.70053551  1
  Ta  Ta108  1  0.40113062  0.60534833  0.60644164  1
  Ta  Ta109  1  0.40676874  0.80275753  0.40537031  1
  Ta  Ta110  1  0.50291282  0.91241705  0.09297509  1
  Ta  Ta111  1  0.39844777  0.80051188  0.79499593  1
  Ta  Ta112  1  0.69957046  0.50201715  0.10662116  1
  Ta  Ta113  1  0.69401441  0.70439088  0.89580264  1
  Ta  Ta114  1  0.69787176  0.50138562  0.69129099  1
  Ta  Ta115  1  0.51938218  0.30158967  0.50667879  1
  Ta  Ta116  1  0.29894052  0.70284644  0.09374313  1
  Ta  Ta117  1  0.79796260  0.39808288  0.40391586  1
  Ta  Ta118  1  0.89390659  0.29898864  0.30802969  1
  Ta  Ta119  1  0.50350716  0.70480036  0.69683306  1
  Ta  Ta120  1  0.89091396  0.90295147  0.29451765  1
  Ta  Ta121  1  0.19644896  0.59680551  0.40754163  1
  Ta  Ta122  1  -0.00708291  -0.00653638  0.40074097  1
  Ta  Ta123  1  0.79664839  0.40135611  0.78756338  1
  Ta  Ta124  1  0.89451122  0.29502305  0.89449232  1
  Ta  Ta125  1  0.40048781  0.79677850  0.59912735  1
  Ta  Ta126  1  0.29739150  0.50650239  0.70307445  1
  Ta  Ta127  1  0.60105767  0.41114047  -0.00631973  1
  Ta  Ta128  1  0.29978607  0.09763991  0.89819972  1
  Ta  Ta129  1  0.10402985  0.70413686  0.69320397  1
  Ta  Ta130  1  0.69475690  0.70750303  0.10004846  1
  Ta  Ta131  1  0.20047912  -0.00145991  -0.00639053  1
  Ta  Ta132  1  0.69166765  0.30740966  0.69227945  1
  Ta  Ta133  1  0.79610924  0.39648361  0.20660541  1
  Ta  Ta134  1  0.59867885  -0.00503048  0.79229790  1
  Ta  Ta135  1  0.60227448  0.00375587  0.59915467  1
  Ta  Ta136  1  0.29586324  0.30067593  0.70808271  1
  Ta  Ta137  1  0.30845305  0.89781704  0.30290636  1
  Ta  Ta138  1  0.79518012  0.19921994  0.79335077  1
  Ta  Ta139  1  0.30282868  0.49747991  0.30555196  1
  Ta  Ta140  1  0.50776515  0.90210068  0.29970586  1
  Ta  Ta141  1  0.09358343  0.08743166  0.50211592  1
  Ta  Ta142  1  0.69969308  0.29361098  0.31094871  1
  Ta  Ta143  1  0.41421796  0.19826769  0.20388037  1
  Ta  Ta144  1  0.50120036  0.90242444  0.89705100  1
  Ta  Ta145  1  0.31031158  0.30203981  0.30221318  1
  Ta  Ta146  1  0.60587799  0.60960644  0.20438044  1
  Ta  Ta147  1  0.69625785  0.89588008  0.50465424  1
  Ta  Ta148  1  0.89905165  0.49089152  0.10539640  1
  Ta  Ta149  1  -0.00571433  0.39927706  0.40491316  1
  Ti  Ti150  1  0.20083239  0.59890523  0.00816719  1
  Ti  Ti151  1  0.29538125  0.88758872  0.50346990  1
  Ti  Ti152  1  0.80324448  0.59687368  0.59934370  1
  Ti  Ti153  1  0.08992915  0.30555399  0.50153317  1
  Ti  Ti154  1  0.51308108  0.29657360  0.31050065  1
  Ti  Ti155  1  0.90436094  0.69536476  0.69138909  1
  Ti  Ti156  1  0.59128198  0.59645545  0.79120000  1
  Ti  Ti157  1  0.60503302  0.19000267  0.78941283  1
  Ti  Ti158  1  0.09688116  0.70392711  0.50333123  1
  Ti  Ti159  1  0.78959775  0.19535684  0.40577871  1
  Ti  Ti160  1  0.09992342  0.70272846  0.09778528  1
  Ti  Ti161  1  0.78444819  -0.00485556  0.40060086  1
  Ti  Ti162  1  0.20350374  0.00182525  0.60330131  1
  Ti  Ti163  1  0.49797330  0.08652058  0.90157512  1
  Ti  Ti164  1  0.50969786  0.89689493  0.50741619  1
  Ti  Ti165  1  -0.00444154  0.60204940  0.78778054  1
  Ti  Ti166  1  0.30020855  0.70515470  0.49932130  1
  Ti  Ti167  1  0.00003123  0.80825517  0.00156656  1
  Ti  Ti168  1  0.00720672  0.00364017  -0.00608304  1
  Ti  Ti169  1  0.08879833  0.91104538  0.09884221  1
  Ti  Ti170  1  0.79809928  0.80672368  0.60259647  1
  Ti  Ti171  1  0.89986315  0.49118756  0.30338672  1
  Ti  Ti172  1  0.61192411  0.61747532  0.39743638  1
  Ti  Ti173  1  0.89924446  0.90253959  0.50543979  1
  Ti  Ti174  1  0.39470457  -0.00684498  0.80241824  1
  Ti  Ti175  1  0.59456903  0.41291044  0.79284732  1
  Ti  Ti176  1  0.60366583  0.59899137  -0.00260799  1
  Ti  Ti177  1  0.78593957  -0.00589622  0.60309849  1
  Ti  Ti178  1  0.40208621  0.40607219  -0.00726623  1
  Ti  Ti179  1  0.09086409  0.08990676  0.30493978  1
  Ti  Ti180  1  0.40665164  0.60047431  0.78972384  1
  Ti  Ti181  1  0.40145988  -0.00503905  0.60184223  1
  Ti  Ti182  1  0.40098080  0.60568411  0.40292739  1
  Ti  Ti183  1  0.89105302  0.10175890  0.89779466  1
  Ti  Ti184  1  0.70441802  0.71394709  0.29255074  1
  Ti  Ti185  1  0.89707940  0.50010109  0.68411008  1
  Ti  Ti186  1  0.60207321  0.80585483  0.20709344  1
  Ti  Ti187  1  0.20527943  0.20024087  -0.01187050  1
  Ti  Ti188  1  0.00053373  0.19310128  0.80356247  1
  Ti  Ti189  1  0.79772943  0.00488788  0.00914422  1
  Ti  Ti190  1  0.61217297  0.18934849  0.42122929  1
  Ti  Ti191  1  0.20513830  0.39586267  0.80115755  1
  Ti  Ti192  1  0.50392003  0.70598674  0.30469949  1
  Ti  Ti193  1  -0.00004000  0.59112074  0.41061726  1
  Ti  Ti194  1  0.79825034  0.19249518  0.00277879  1
  Ti  Ti195  1  0.90667664  0.08685954  0.10310337  1
  Ti  Ti196  1  -0.01446179  0.80108388  0.39910483  1
  Ti  Ti197  1  0.91263211  0.90435665  0.67967230  1
  Ti  Ti198  1  0.41045082  0.00298033  0.19919215  1
  Ti  Ti199  1  0.51207964  0.29907815  0.69767779  1
  Mo  Mo200  1  0.00403104  -0.00044513  0.59710811  1
  Mo  Mo201  1  -0.01929948  0.39454345  0.21228526  1
  Mo  Mo202  1  0.08645222  0.30211202  0.30589585  1
  Mo  Mo203  1  0.49978963  0.09104116  0.10532684  1
  Mo  Mo204  1  0.70023005  0.09904063  0.31871234  1
  Mo  Mo205  1  -0.01023530  0.39781486  -0.00547706  1
  Mo  Mo206  1  0.21348180  0.79611110  0.40743453  1
  Mo  Mo207  1  -0.00448425  0.40637946  0.58886114  1
  Mo  Mo208  1  0.20306202  0.79596259  0.79483783  1
  Mo  Mo209  1  0.59038096  0.00054662  -0.00539466  1
  Mo  Mo210  1  0.30467574  0.50352926  0.10472242  1
  Mo  Mo211  1  0.69242039  0.09854790  0.70048983  1
  Mo  Mo212  1  0.60408705  0.38813053  0.40277788  1
  Mo  Mo213  1  0.60644855  -0.00842812  0.40759049  1
  Mo  Mo214  1  0.10930901  0.10371959  0.89856036  1
  Mo  Mo215  1  0.20728538  0.78756980  0.59632900  1
  Mo  Mo216  1  0.59755712  0.80452675  0.59844291  1
  Mo  Mo217  1  -0.00390297  0.79818641  0.59949824  1
  Mo  Mo218  1  0.59885661  0.80146789  -0.00445188  1
  Mo  Mo219  1  0.59390113  0.80160019  0.79620291  1
  Mo  Mo220  1  0.80551945  0.59685798  0.78284754  1
  Mo  Mo221  1  0.30260864  0.30018679  0.89521162  1
  Mo  Mo222  1  0.50706936  0.09760836  0.51076602  1
  Mo  Mo223  1  0.21720026  0.39766682  0.20798268  1
  Mo  Mo224  1  0.69690042  0.30256061  0.49894532  1
  Mo  Mo225  1  0.60202888  0.39978983  0.60591843  1
  Mo  Mo226  1  0.30128203  0.09235822  0.70352514  1
  Mo  Mo227  1  0.09843500  0.89957413  0.90718745  1
  Mo  Mo228  1  0.00150846  0.60261179  0.59850981  1
  Mo  Mo229  1  0.69604286  0.08748626  0.50146192  1
  Mo  Mo230  1  0.09088426  0.50319440  0.49685260  1
  Mo  Mo231  1  0.30583322  0.90373327  0.89687066  1
  Mo  Mo232  1  0.89834680  0.71011446  0.30652334  1
  Mo  Mo233  1  0.90103766  0.49773202  0.50473580  1
  Mo  Mo234  1  0.69276790  0.90184054  0.30288889  1
  Mo  Mo235  1  0.19570828  0.60057160  0.78652823  1
  Mo  Mo236  1  0.59903391  0.60245866  0.60186776  1
  Mo  Mo237  1  0.30445446  0.69799343  0.69571169  1
  Mo  Mo238  1  0.59574656  -0.00063138  0.19949726  1
  Mo  Mo239  1  0.59552267  0.19734670  0.60265611  1
  Mo  Mo240  1  0.39885552  0.00083565  -0.00702912  1
  Mo  Mo241  1  0.69719061  0.09503763  0.08641361  1
  Mo  Mo242  1  0.20613667  0.19217547  0.80194508  1
  Mo  Mo243  1  0.79637924  0.40475741  0.59961745  1
  Mo  Mo244  1  0.50230450  0.51046593  0.69930920  1
  Mo  Mo245  1  -0.00663457  -0.00047541  0.20247489  1
  Mo  Mo246  1  0.90660969  0.91409187  0.10200124  1
  Mo  Mo247  1  0.50462276  0.50444695  0.89469290  1
  Mo  Mo248  1  0.68845548  0.89816237  0.69140141  1
  Mo  Mo249  1  0.79511386  0.80585844  0.20360842  1
