# generated using pymatgen
data_HfZrTaTiMo
_symmetry_space_group_name_H-M   'P 1'
_cell_length_a   16.88605575
_cell_length_b   16.89431270
_cell_length_c   16.88420119
_cell_angle_alpha   89.94810319
_cell_angle_beta   90.02795186
_cell_angle_gamma   89.97844690
_symmetry_Int_Tables_number   1
_chemical_formula_structural   HfZrTaTiMo
_chemical_formula_sum   'Hf50 Zr50 Ta50 Ti50 Mo50'
_cell_volume   4816.69342467
_cell_formula_units_Z   50
loop_
 _symmetry_equiv_pos_site_id
 _symmetry_equiv_pos_as_xyz
  1  'x, y, z'
loop_
 _atom_site_type_symbol
 _atom_site_label
 _atom_site_symmetry_multiplicity
 _atom_site_fract_x
 _atom_site_fract_y
 _atom_site_fract_z
 _atom_site_occupancy
  Hf  Hf0  1  0.91128920  0.29798404  0.10253171  1
  Hf  Hf1  1  0.59141569  0.60959441  0.39940922  1
  Hf  Hf2  1  0.28964703  0.70058250  0.50398646  1
  Hf  Hf3  1  0.49737831  0.10317527  0.29688249  1
  Hf  Hf4  1  0.79647168  0.39340024  -0.00327913  1
  Hf  Hf5  1  0.59886849  0.79822370  0.59531259  1
  Hf  Hf6  1  0.59239015  0.79452843  0.20188214  1
  Hf  Hf7  1  0.39873616  0.80494466  0.60780994  1
  Hf  Hf8  1  0.71176261  0.08934459  0.49854975  1
  Hf  Hf9  1  0.90794323  0.49785737  0.10289169  1
  Hf  Hf10  1  0.20240484  0.19493259  0.39604199  1
  Hf  Hf11  1  0.09180174  0.69690091  0.70206639  1
  Hf  Hf12  1  0.20379643  0.59595101  0.20181830  1
  Hf  Hf13  1  0.49574728  0.90710836  0.49724552  1
  Hf  Hf14  1  0.49243649  0.90243501  0.29915028  1
  Hf  Hf15  1  0.09784149  0.90088481  0.10537490  1
  Hf  Hf16  1  0.50004201  0.48455318  0.70442852  1
  Hf  Hf17  1  0.19949833  0.01281083  0.00906928  1
  Hf  Hf18  1  0.79824767  0.39593692  0.20351847  1
  Hf  Hf19  1  0.20955537  0.40663207  0.40003986  1
  Hf  Hf20  1  -0.00483754  0.40474004  0.59713341  1
  Hf  Hf21  1  0.49736906  0.50173926  0.09036801  1
  Hf  Hf22  1  0.19789468  0.19619971  0.60396386  1
  Hf  Hf23  1  0.59638141  0.60092599  0.20309012  1
  Hf  Hf24  1  0.90973589  0.28958756  0.90451492  1
  Hf  Hf25  1  0.09927800  0.49011848  0.10122226  1
  Hf  Hf26  1  0.49214889  0.29185778  0.70592306  1
  Hf  Hf27  1  -0.00342839  0.00610049  0.60061620  1
  Hf  Hf28  1  0.90205382  0.69819458  0.70983090  1
  Hf  Hf29  1  0.30068816  0.29841013  0.29958614  1
  Hf  Hf30  1  0.09607717  0.90607054  0.70998072  1
  Hf  Hf31  1  0.39637408  0.59836950  0.39667686  1
  Hf  Hf32  1  0.68445942  0.09420594  0.10612287  1
  Hf  Hf33  1  0.00978459  0.61141044  -0.00540263  1
  Hf  Hf34  1  0.09879395  0.90287430  0.49870868  1
  Hf  Hf35  1  0.81339888  0.19279140  0.58532098  1
  Hf  Hf36  1  0.60115092  0.00661266  0.39704864  1
  Hf  Hf37  1  0.39043735  0.58466516  0.80952170  1
  Hf  Hf38  1  0.29174909  0.89067739  0.10377640  1
  Hf  Hf39  1  0.60652493  0.39917045  0.39597352  1
  Hf  Hf40  1  0.09389543  0.30281494  0.28714063  1
  Hf  Hf41  1  0.70018901  0.50371122  0.69677495  1
  Hf  Hf42  1  0.30688170  0.30180369  0.70743329  1
  Hf  Hf43  1  0.29382147  0.89977138  0.29648897  1
  Hf  Hf44  1  0.49923825  0.69867319  0.90981333  1
  Hf  Hf45  1  0.29633962  0.90442465  0.90159824  1
  Hf  Hf46  1  0.80365005  0.80351979  0.60198096  1
  Hf  Hf47  1  0.49201533  0.30285096  0.30256400  1
  Hf  Hf48  1  0.50085072  0.31214516  0.08996150  1
  Hf  Hf49  1  0.20216906  0.19948026  0.80994813  1
  Zr  Zr50  1  0.59246524  0.00079139  -0.01031017  1
  Zr  Zr51  1  0.38449570  0.00874038  0.19224757  1
  Zr  Zr52  1  0.39935359  0.59951456  0.20082419  1
  Zr  Zr53  1  0.18470719  0.79501589  -0.00982228  1
  Zr  Zr54  1  0.80518822  -0.00098846  0.00719746  1
  Zr  Zr55  1  0.59972165  0.20447438  0.20339021  1
  Zr  Zr56  1  -0.00412598  0.19497237  0.39767935  1
  Zr  Zr57  1  0.40103129  0.59772500  0.59815117  1
  Zr  Zr58  1  0.80009583  0.60011295  -0.00080606  1
  Zr  Zr59  1  0.60349429  0.59552581  0.80509236  1
  Zr  Zr60  1  0.69965127  0.90391497  0.30110022  1
  Zr  Zr61  1  0.80426890  0.19642797  0.20082614  1
  Zr  Zr62  1  0.80308992  0.40011561  0.58878727  1
  Zr  Zr63  1  0.90458621  0.70499965  0.50136949  1
  Zr  Zr64  1  0.00450533  0.80532434  0.37852456  1
  Zr  Zr65  1  0.30140846  0.89977052  0.49308615  1
  Zr  Zr66  1  0.00440655  0.19788624  0.59846471  1
  Zr  Zr67  1  0.80066789  0.60171807  0.19924700  1
  Zr  Zr68  1  0.48935297  0.28865157  0.49047085  1
  Zr  Zr69  1  0.00270866  0.61248104  0.20665508  1
  Zr  Zr70  1  0.80359886  0.00270109  0.20042625  1
  Zr  Zr71  1  0.70653170  0.90726844  0.70366490  1
  Zr  Zr72  1  0.89374302  0.08940998  0.70967255  1
  Zr  Zr73  1  0.50580930  0.50011716  0.50529290  1
  Zr  Zr74  1  0.89872591  0.29760817  0.70392689  1
  Zr  Zr75  1  0.40629728  0.00309845  0.81084380  1
  Zr  Zr76  1  0.38917126  0.20201510  0.19037186  1
  Zr  Zr77  1  0.09342410  0.49019464  0.29996491  1
  Zr  Zr78  1  0.29774676  0.71034509  0.29847718  1
  Zr  Zr79  1  0.49948477  0.90194032  0.09667928  1
  Zr  Zr80  1  0.50017502  0.48640524  0.90736262  1
  Zr  Zr81  1  0.31179767  0.10710594  0.70228701  1
  Zr  Zr82  1  0.09945758  0.69972184  0.50911098  1
  Zr  Zr83  1  0.29792718  0.69699901  0.90346246  1
  Zr  Zr84  1  0.69751310  0.71123699  0.09000372  1
  Zr  Zr85  1  0.50321443  0.69050341  0.69977707  1
  Zr  Zr86  1  0.10300741  0.30817964  0.49533537  1
  Zr  Zr87  1  0.79549525  0.39572650  0.80339202  1
  Zr  Zr88  1  0.01295670  0.39956839  0.79777949  1
  Zr  Zr89  1  0.70124665  0.09156423  0.70349654  1
  Zr  Zr90  1  0.09914502  0.50681216  0.50888957  1
  Zr  Zr91  1  0.50251526  0.10304670  0.69965014  1
  Zr  Zr92  1  0.28987876  0.69489832  0.70181218  1
  Zr  Zr93  1  -0.00139093  -0.00035725  0.20263223  1
  Zr  Zr94  1  0.90573406  0.50757198  0.89099168  1
  Zr  Zr95  1  0.01735588  0.19327970  0.79182340  1
  Zr  Zr96  1  0.60331327  0.38762936  0.59450623  1
  Zr  Zr97  1  0.69666517  0.28630516  0.69945121  1
  Zr  Zr98  1  0.70809137  0.70728819  0.30855794  1
  Zr  Zr99  1  0.59753939  0.80233478  0.79937616  1
  Ta  Ta100  1  -0.00486685  0.59785120  0.39998264  1
  Ta  Ta101  1  0.59679082  0.20497061  -0.00742395  1
  Ta  Ta102  1  0.49247063  0.10020743  0.09007377  1
  Ta  Ta103  1  0.90387605  0.51220661  0.69939870  1
  Ta  Ta104  1  0.10411075  0.09238716  0.49732726  1
  Ta  Ta105  1  0.59907623  0.19095676  0.58753041  1
  Ta  Ta106  1  0.19811572  0.00259521  0.39395780  1
  Ta  Ta107  1  0.59506276  0.19534563  0.81467250  1
  Ta  Ta108  1  0.19830507  0.20140140  0.00484721  1
  Ta  Ta109  1  0.80554233  0.80842780  -0.00409407  1
  Ta  Ta110  1  0.19175064  0.59409019  0.80621696  1
  Ta  Ta111  1  0.39942105  0.80180078  -0.00031327  1
  Ta  Ta112  1  0.30317138  0.10029553  0.50025306  1
  Ta  Ta113  1  0.39751797  0.80689651  0.79903562  1
  Ta  Ta114  1  0.39221039  0.39739311  0.59647630  1
  Ta  Ta115  1  0.80927233  0.80914670  0.19865278  1
  Ta  Ta116  1  0.90194671  0.49119283  0.30380222  1
  Ta  Ta117  1  0.10353584  0.49943064  0.90350217  1
  Ta  Ta118  1  0.90938246  0.89472056  0.09812806  1
  Ta  Ta119  1  0.90445470  0.71233243  0.09627383  1
  Ta  Ta120  1  0.80803193  0.59790522  0.40145534  1
  Ta  Ta121  1  0.70290544  0.50849767  0.49594927  1
  Ta  Ta122  1  0.70356235  0.50121675  0.30379489  1
  Ta  Ta123  1  0.37944310  0.40046771  -0.00508891  1
  Ta  Ta124  1  0.69868890  0.09425265  0.89962299  1
  Ta  Ta125  1  0.29787113  0.69998177  0.09579187  1
  Ta  Ta126  1  0.90591273  0.09888832  0.90444987  1
  Ta  Ta127  1  0.80412770  0.19710218  0.39152195  1
  Ta  Ta128  1  0.50291560  0.90999881  0.70260094  1
  Ta  Ta129  1  0.20087706  0.81327781  0.61127706  1
  Ta  Ta130  1  0.70857317  0.70677030  0.89454993  1
  Ta  Ta131  1  0.70859044  0.89786908  0.49358987  1
  Ta  Ta132  1  0.60228306  0.40334109  0.20154532  1
  Ta  Ta133  1  0.10733434  0.09976715  0.29000577  1
  Ta  Ta134  1  0.70957252  0.69526109  0.70126656  1
  Ta  Ta135  1  0.80452660  0.59961444  0.59520165  1
  Ta  Ta136  1  0.20356092  0.00067524  0.60408479  1
  Ta  Ta137  1  0.69954532  0.89634434  0.90022674  1
  Ta  Ta138  1  0.79751430  0.19293055  0.00314134  1
  Ta  Ta139  1  0.59996478  -0.00146196  0.59368503  1
  Ta  Ta140  1  0.90076737  0.90103787  0.71221270  1
  Ta  Ta141  1  0.38966561  0.40862216  0.19397785  1
  Ta  Ta142  1  0.79467117  0.19627043  0.81567508  1
  Ta  Ta143  1  0.69504546  0.30032810  0.09595931  1
  Ta  Ta144  1  0.29007475  0.49077434  0.70071085  1
  Ta  Ta145  1  0.39626715  0.20460862  -0.00484798  1
  Ta  Ta146  1  0.19841887  0.59929812  0.39343212  1
  Ta  Ta147  1  0.70379921  0.69996272  0.50098238  1
  Ta  Ta148  1  0.89773681  0.70494911  0.89431227  1
  Ta  Ta149  1  0.89605815  0.90497761  0.49245339  1
  Ti  Ti150  1  0.20845371  0.40020435  0.19369737  1
  Ti  Ti151  1  0.00023795  0.80117030  -0.00782955  1
  Ti  Ti152  1  0.01207797  0.19095254  0.00870175  1
  Ti  Ti153  1  0.70073763  0.49971707  0.89996384  1
  Ti  Ti154  1  0.09975407  0.70509392  0.10301938  1
  Ti  Ti155  1  0.11768654  0.31841727  0.69361104  1
  Ti  Ti156  1  0.70477658  0.29299094  0.49245899  1
  Ti  Ti157  1  0.38918411  0.01258630  0.39294633  1
  Ti  Ti158  1  0.20143082  0.59514075  0.00002104  1
  Ti  Ti159  1  0.30486165  0.29403784  0.50270025  1
  Ti  Ti160  1  0.17556660  0.79621975  0.21462738  1
  Ti  Ti161  1  0.19731713  0.80170362  0.80111659  1
  Ti  Ti162  1  0.60477540  0.38162785  0.81748710  1
  Ti  Ti163  1  0.90418301  0.10222879  0.29740935  1
  Ti  Ti164  1  0.20027889  0.00817652  0.79637623  1
  Ti  Ti165  1  0.80293162  0.40015303  0.39750769  1
  Ti  Ti166  1  0.49828502  0.49416020  0.29768353  1
  Ti  Ti167  1  0.90337506  0.30660204  0.48364411  1
  Ti  Ti168  1  0.69298491  0.89894141  0.09924316  1
  Ti  Ti169  1  0.89731342  0.70718170  0.29787045  1
  Ti  Ti170  1  -0.00080718  0.00572821  0.00315554  1
  Ti  Ti171  1  0.00793771  0.39493856  0.00042544  1
  Ti  Ti172  1  0.10467807  0.50516860  0.69706506  1
  Ti  Ti173  1  0.29129122  0.29978586  0.09753354  1
  Ti  Ti174  1  0.30731466  0.10179124  0.90811001  1
  Ti  Ti175  1  0.48860650  0.10184196  0.49963260  1
  Ti  Ti176  1  0.41301947  0.78533342  0.40333060  1
  Ti  Ti177  1  0.40470923  0.79149880  0.19539330  1
  Ti  Ti178  1  0.10446117  0.30054502  0.90882924  1
  Ti  Ti179  1  0.39195399  0.41160559  0.40136716  1
  Ti  Ti180  1  0.70299127  0.29847250  0.30190869  1
  Ti  Ti181  1  0.59372084  0.79731588  0.40374434  1
  Ti  Ti182  1  0.20798809  0.40277835  0.81448047  1
  Ti  Ti183  1  0.00118002  0.00080894  0.39240718  1
  Ti  Ti184  1  0.29015726  0.50479057  0.51178048  1
  Ti  Ti185  1  0.18954912  0.80023378  0.39605351  1
  Ti  Ti186  1  0.80836013  -0.00780312  0.81984828  1
  Ti  Ti187  1  0.39561663  -0.00260202  0.60488657  1
  Ti  Ti188  1  0.49583846  0.69787742  0.08739963  1
  Ti  Ti189  1  -0.00240211  0.81067485  0.60408448  1
  Ti  Ti190  1  0.69384811  0.49374561  0.09820048  1
  Ti  Ti191  1  0.09665166  0.09416844  0.89961350  1
  Ti  Ti192  1  0.81010321  0.00290236  0.39134211  1
  Ti  Ti193  1  0.49956211  0.89695552  0.90155558  1
  Ti  Ti194  1  0.60980952  0.19330673  0.39800762  1
  Ti  Ti195  1  0.60757045  0.59977684  -0.00202009  1
  Ti  Ti196  1  0.00585340  0.19409599  0.19130455  1
  Ti  Ti197  1  0.00017981  0.80418285  0.81420949  1
  Ti  Ti198  1  0.09441873  0.91220964  0.89781516  1
  Ti  Ti199  1  0.20234600  0.39707838  0.00070978  1
  Mo  Mo200  1  0.38993812  0.18967336  0.39657503  1
  Mo  Mo201  1  0.69764527  0.29050026  0.90546969  1
  Mo  Mo202  1  0.10919028  0.09002161  0.70057692  1
  Mo  Mo203  1  0.89766272  0.50287003  0.49489217  1
  Mo  Mo204  1  0.40337737  0.20425748  0.82305053  1
  Mo  Mo205  1  0.91045235  0.10374959  0.09275180  1
  Mo  Mo206  1  -0.00325717  0.59549014  0.60334694  1
  Mo  Mo207  1  0.89957393  0.90097642  0.29906287  1
  Mo  Mo208  1  0.19728078  0.59766825  0.60977470  1
  Mo  Mo209  1  0.00116876  -0.00135301  0.81079143  1
  Mo  Mo210  1  0.29811329  0.90242650  0.70797601  1
  Mo  Mo211  1  0.40023294  0.20069394  0.58746600  1
  Mo  Mo212  1  0.60055332  0.00018468  0.80224794  1
  Mo  Mo213  1  0.39215692  0.39694179  0.80398571  1
  Mo  Mo214  1  0.49465624  0.30165887  0.90209507  1
  Mo  Mo215  1  0.79906172  0.60363360  0.79773135  1
  Mo  Mo216  1  0.29650886  0.10874300  0.09494391  1
  Mo  Mo217  1  0.38937100  0.59973549  0.00505471  1
  Mo  Mo218  1  0.90618975  0.90010900  0.90510461  1
  Mo  Mo219  1  0.49837346  0.10584937  0.90398802  1
  Mo  Mo220  1  0.00543872  0.59842271  0.80224492  1
  Mo  Mo221  1  0.29055697  0.49659630  0.90267386  1
  Mo  Mo222  1  0.29277944  0.10095737  0.29887256  1
  Mo  Mo223  1  0.10544741  0.29875981  0.09847004  1
  Mo  Mo224  1  0.60166318  0.80075215  -0.00376143  1
  Mo  Mo225  1  0.50592150  0.70662454  0.49930688  1
  Mo  Mo226  1  0.90426572  0.09045263  0.48446401  1
  Mo  Mo227  1  -0.00577175  0.39217374  0.19928263  1
  Mo  Mo228  1  0.09610438  0.69562688  0.89280646  1
  Mo  Mo229  1  0.29502825  0.30068650  0.90515364  1
  Mo  Mo230  1  0.61298045  0.60524688  0.59578982  1
  Mo  Mo231  1  0.49778760  0.70528428  0.30043448  1
  Mo  Mo232  1  0.19688845  0.00659055  0.20140981  1
  Mo  Mo233  1  0.10107481  0.10428080  0.10154849  1
  Mo  Mo234  1  0.61080924  0.39986482  0.00258160  1
  Mo  Mo235  1  0.30091477  0.49495900  0.30016718  1
  Mo  Mo236  1  0.59359353  0.00010418  0.19844313  1
  Mo  Mo237  1  0.90065510  0.30177826  0.30014179  1
  Mo  Mo238  1  0.10094468  0.69245648  0.30390087  1
  Mo  Mo239  1  0.29507200  0.50008936  0.09532797  1
  Mo  Mo240  1  0.80399780  0.80307823  0.80462615  1
  Mo  Mo241  1  0.80477546  0.80092777  0.39953341  1
  Mo  Mo242  1  0.19569429  0.19952559  0.19094207  1
  Mo  Mo243  1  -0.00973161  0.40184488  0.39821787  1
  Mo  Mo244  1  0.70169959  0.10298717  0.30513985  1
  Mo  Mo245  1  0.10368364  0.90821320  0.30011629  1
  Mo  Mo246  1  0.39527249  0.00224095  -0.00009996  1
  Mo  Mo247  1  0.20782753  0.40024759  0.59953759  1
  Mo  Mo248  1  0.80664018  -0.00785362  0.58944033  1
  Mo  Mo249  1  -0.00203977  0.80016838  0.19652696  1
