# generated using pymatgen
data_HfZrTaTiMo
_symmetry_space_group_name_H-M   'P 1'
_cell_length_a   16.88653962
_cell_length_b   16.87899606
_cell_length_c   16.87014742
_cell_angle_alpha   89.97769034
_cell_angle_beta   90.05294627
_cell_angle_gamma   89.95350270
_symmetry_Int_Tables_number   1
_chemical_formula_structural   HfZrTaTiMo
_chemical_formula_sum   'Hf50 Zr50 Ta50 Ti50 Mo50'
_cell_volume   4808.45760374
_cell_formula_units_Z   50
loop_
 _symmetry_equiv_pos_site_id
 _symmetry_equiv_pos_as_xyz
  1  'x, y, z'
loop_
 _atom_site_type_symbol
 _atom_site_label
 _atom_site_symmetry_multiplicity
 _atom_site_fract_x
 _atom_site_fract_y
 _atom_site_fract_z
 _atom_site_occupancy
  Hf  Hf0  1  0.50387756  0.29193315  0.89570376  1
  Hf  Hf1  1  0.20063148  0.19939753  0.00309379  1
  Hf  Hf2  1  0.50037734  0.29959587  0.09778099  1
  Hf  Hf3  1  0.21012719  0.38531675  0.62256889  1
  Hf  Hf4  1  0.00773849  -0.00124159  0.78929696  1
  Hf  Hf5  1  0.80096903  0.79443332  0.59920564  1
  Hf  Hf6  1  0.10435348  0.49468897  0.09566655  1
  Hf  Hf7  1  0.50079362  0.10861426  0.70101264  1
  Hf  Hf8  1  0.29002956  0.49406748  0.89814630  1
  Hf  Hf9  1  0.49737080  0.90676695  0.09610728  1
  Hf  Hf10  1  0.30018362  0.91752911  0.90899029  1
  Hf  Hf11  1  0.09869020  0.69614828  0.09941598  1
  Hf  Hf12  1  -0.00651517  0.81130229  0.41041652  1
  Hf  Hf13  1  0.60663892  0.79415078  0.19940157  1
  Hf  Hf14  1  0.70782202  0.89429370  0.50168847  1
  Hf  Hf15  1  0.21154545  0.59752272  0.20611783  1
  Hf  Hf16  1  0.30727719  0.49025534  0.48943921  1
  Hf  Hf17  1  0.50095794  0.09504433  0.89806626  1
  Hf  Hf18  1  0.79734720  0.59842253  0.60176252  1
  Hf  Hf19  1  0.59778293  0.40247229  0.19890292  1
  Hf  Hf20  1  0.18921485  -0.00284741  0.60136653  1
  Hf  Hf21  1  0.09805687  0.69528925  0.30640991  1
  Hf  Hf22  1  0.10404040  0.29814694  0.50588445  1
  Hf  Hf23  1  0.89412079  0.90782198  0.90651788  1
  Hf  Hf24  1  0.70228038  0.09207267  0.69507160  1
  Hf  Hf25  1  0.39825003  0.20648286  0.39693900  1
  Hf  Hf26  1  0.19958974  0.21672557  0.78270433  1
  Hf  Hf27  1  0.09680844  0.69075942  0.50122943  1
  Hf  Hf28  1  0.19888824  0.80494174  0.00407955  1
  Hf  Hf29  1  0.29978152  0.49278953  0.09711421  1
  Hf  Hf30  1  0.19880758  0.19989357  0.20259172  1
  Hf  Hf31  1  0.10198866  0.10459166  0.89503184  1
  Hf  Hf32  1  0.40004822  -0.00456519  0.59767844  1
  Hf  Hf33  1  0.39457702  0.59892417  0.78824842  1
  Hf  Hf34  1  0.40185516  0.79310262  0.59748922  1
  Hf  Hf35  1  0.10669373  0.49545660  0.50283490  1
  Hf  Hf36  1  0.10484703  0.49547934  0.90734011  1
  Hf  Hf37  1  0.09874593  0.30762996  0.09690158  1
  Hf  Hf38  1  0.90059663  0.29760190  0.09615594  1
  Hf  Hf39  1  0.90452900  0.10585151  0.30983863  1
  Hf  Hf40  1  0.60264485  0.79411584  0.39819259  1
  Hf  Hf41  1  0.39906395  0.78988794  0.20329207  1
  Hf  Hf42  1  0.20301596  0.79870716  0.20032880  1
  Hf  Hf43  1  0.20046403  0.80198138  0.59913382  1
  Hf  Hf44  1  0.40509922  0.80346710  -0.00344356  1
  Hf  Hf45  1  0.89222174  0.69597979  0.09082542  1
  Hf  Hf46  1  0.49911650  0.09432573  0.29705375  1
  Hf  Hf47  1  0.50458858  0.69354136  0.09740807  1
  Hf  Hf48  1  0.69453737  0.51247641  0.70675974  1
  Hf  Hf49  1  0.09323686  0.30595878  0.89858671  1
  Zr  Zr50  1  0.89753058  0.50043850  0.30333786  1
  Zr  Zr51  1  0.39739895  0.79789914  0.79783488  1
  Zr  Zr52  1  0.79094790  0.40371703  -0.00143071  1
  Zr  Zr53  1  0.10506586  0.49327887  0.71036696  1
  Zr  Zr54  1  0.89822913  0.49842573  0.50163740  1
  Zr  Zr55  1  0.60560336  0.40504996  0.59131332  1
  Zr  Zr56  1  0.89263493  0.89977115  0.70137939  1
  Zr  Zr57  1  0.60611284  0.20955732  0.59128336  1
  Zr  Zr58  1  0.71009882  0.09468508  0.30240440  1
  Zr  Zr59  1  0.87736416  0.52051496  0.90434564  1
  Zr  Zr60  1  0.50992375  0.89987994  0.70822085  1
  Zr  Zr61  1  0.00321074  -0.00370545  0.19487105  1
  Zr  Zr62  1  0.69015298  0.50431550  0.30561384  1
  Zr  Zr63  1  0.89565423  0.10146207  0.68874333  1
  Zr  Zr64  1  0.49503874  0.10372483  0.49764678  1
  Zr  Zr65  1  0.29419887  0.10460744  0.50147471  1
  Zr  Zr66  1  0.40773108  0.40020420  -0.00719445  1
  Zr  Zr67  1  0.80177888  0.40483778  0.19551207  1
  Zr  Zr68  1  0.20565381  0.61253203  0.79937611  1
  Zr  Zr69  1  0.79403591  0.40051980  0.79972376  1
  Zr  Zr70  1  0.08887804  0.70684267  0.69523277  1
  Zr  Zr71  1  0.50773464  0.69503147  0.89619145  1
  Zr  Zr72  1  0.40764798  0.79496530  0.40634908  1
  Zr  Zr73  1  -0.00212289  0.80758599  0.00128372  1
  Zr  Zr74  1  0.79723663  0.39141046  0.40817597  1
  Zr  Zr75  1  0.30250330  0.90595031  0.30083708  1
  Zr  Zr76  1  0.59876360  -0.00615844  0.59201280  1
  Zr  Zr77  1  0.60348200  0.21002949  0.40027076  1
  Zr  Zr78  1  0.89317515  0.09100002  0.09744819  1
  Zr  Zr79  1  0.11040038  0.49561707  0.31428950  1
  Zr  Zr80  1  0.09476582  0.10297486  0.30784898  1
  Zr  Zr81  1  0.59673601  0.40233764  0.80101762  1
  Zr  Zr82  1  -0.00626754  0.59061100  0.19553833  1
  Zr  Zr83  1  -0.01617739  0.40407274  0.79894290  1
  Zr  Zr84  1  0.20330009  0.79653881  0.40399799  1
  Zr  Zr85  1  0.80111186  0.20378001  0.20136870  1
  Zr  Zr86  1  0.39688030  0.00313005  0.79634648  1
  Zr  Zr87  1  0.90354327  0.09790116  0.90307390  1
  Zr  Zr88  1  0.82009227  -0.01894927  0.40498905  1
  Zr  Zr89  1  -0.00907176  0.60609196  0.80582617  1
  Zr  Zr90  1  0.79306224  0.79826846  0.19618238  1
  Zr  Zr91  1  0.39936098  0.20504951  0.20185722  1
  Zr  Zr92  1  0.19844967  0.80690681  0.79769778  1
  Zr  Zr93  1  0.71868417  0.10025476  0.49545828  1
  Zr  Zr94  1  0.21784794  0.59860492  0.61001847  1
  Zr  Zr95  1  0.89557266  0.70430234  0.30345389  1
  Zr  Zr96  1  0.60707488  -0.00641087  0.20084302  1
  Zr  Zr97  1  0.39493909  0.40130210  0.78912306  1
  Zr  Zr98  1  0.79597887  0.20297147  0.80196637  1
  Zr  Zr99  1  0.30448459  0.09202521  0.09302650  1
  Ta  Ta100  1  0.89480715  0.70085058  0.70598104  1
  Ta  Ta101  1  0.60874070  0.80428099  -0.00498063  1
  Ta  Ta102  1  0.70097748  0.29942290  0.30081991  1
  Ta  Ta103  1  0.29961029  0.30709960  0.10132351  1
  Ta  Ta104  1  0.29737315  0.31366361  0.30849797  1
  Ta  Ta105  1  0.60139763  0.20039040  0.19947110  1
  Ta  Ta106  1  0.59897003  0.79588054  0.59820706  1
  Ta  Ta107  1  0.10444530  0.90966536  0.90079651  1
  Ta  Ta108  1  0.90824534  0.10634036  0.49980089  1
  Ta  Ta109  1  0.90405401  0.28999116  0.90638959  1
  Ta  Ta110  1  -0.00394009  0.39502289  0.20621518  1
  Ta  Ta111  1  0.59847922  0.40024131  0.40668483  1
  Ta  Ta112  1  0.20041413  0.20375155  0.39996148  1
  Ta  Ta113  1  0.19334325  -0.00028990  0.19413089  1
  Ta  Ta114  1  0.40260636  0.59314705  0.20255026  1
  Ta  Ta115  1  0.30287223  0.30178189  0.50289670  1
  Ta  Ta116  1  0.00323850  0.80690939  0.19433203  1
  Ta  Ta117  1  0.50364285  0.50576730  0.09827610  1
  Ta  Ta118  1  0.79057157  0.60640704  0.40221558  1
  Ta  Ta119  1  0.69898610  0.09567870  0.09607112  1
  Ta  Ta120  1  0.60322975  -0.00269951  -0.00800331  1
  Ta  Ta121  1  0.29700404  0.10367518  0.89680966  1
  Ta  Ta122  1  0.60300124  0.40753684  -0.00251433  1
  Ta  Ta123  1  0.30168672  0.90764986  0.09733282  1
  Ta  Ta124  1  0.09926453  0.89924264  0.30121025  1
  Ta  Ta125  1  0.39937356  0.59751522  -0.00091415  1
  Ta  Ta126  1  0.29636030  0.09577038  0.30439461  1
  Ta  Ta127  1  0.69340290  0.29549090  0.09698983  1
  Ta  Ta128  1  0.78789486  0.60331605  0.19405844  1
  Ta  Ta129  1  0.60818813  0.79853657  0.80323278  1
  Ta  Ta130  1  0.70336412  0.89956438  0.70405281  1
  Ta  Ta131  1  0.50231091  0.09882033  0.09387116  1
  Ta  Ta132  1  -0.01051000  0.59380377  0.60792982  1
  Ta  Ta133  1  0.39696202  0.19996497  -0.00471489  1
  Ta  Ta134  1  0.19191182  -0.00176341  0.40411389  1
  Ta  Ta135  1  0.29921732  0.90397536  0.49865743  1
  Ta  Ta136  1  0.78849101  0.79613226  -0.00637093  1
  Ta  Ta137  1  0.50499705  0.68414882  0.30504545  1
  Ta  Ta138  1  -0.00920715  0.39810405  0.60588211  1
  Ta  Ta139  1  0.69376057  0.69306485  0.49984917  1
  Ta  Ta140  1  0.49986273  0.89672472  0.29909034  1
  Ta  Ta141  1  0.50943543  0.69069058  0.69446734  1
  Ta  Ta142  1  0.09569099  0.11182180  0.69011712  1
  Ta  Ta143  1  0.49454575  0.29628919  0.69159879  1
  Ta  Ta144  1  -0.00311601  0.80487564  0.80444459  1
  Ta  Ta145  1  0.59666861  -0.01196195  0.40068708  1
  Ta  Ta146  1  0.19831927  0.00731585  0.78986604  1
  Ta  Ta147  1  -0.00335139  0.38661119  0.40291688  1
  Ta  Ta148  1  0.79018354  0.19524997  -0.00431311  1
  Ta  Ta149  1  0.00282747  -0.01058623  0.59192609  1
  Ti  Ti150  1  0.40338712  -0.00570200  0.40293666  1
  Ti  Ti151  1  0.69864379  0.30093923  0.69661452  1
  Ti  Ti152  1  0.90059771  0.89691204  0.29021854  1
  Ti  Ti153  1  0.30231873  0.70140142  0.90485459  1
  Ti  Ti154  1  0.20068204  0.39822330  0.20724028  1
  Ti  Ti155  1  0.69384211  0.69936704  0.70284047  1
  Ti  Ti156  1  -0.00724385  0.60048116  -0.00232440  1
  Ti  Ti157  1  0.69852747  0.90501175  0.89407683  1
  Ti  Ti158  1  0.00328506  0.19146758  0.00771047  1
  Ti  Ti159  1  0.60362218  0.60225133  0.20059889  1
  Ti  Ti160  1  0.50672946  0.50830385  0.89806389  1
  Ti  Ti161  1  -0.00203439  0.20772762  0.59929287  1
  Ti  Ti162  1  0.29821308  0.11215486  0.69044169  1
  Ti  Ti163  1  -0.01671511  0.41275155  0.00484744  1
  Ti  Ti164  1  0.60847518  0.19714366  0.79881612  1
  Ti  Ti165  1  0.69718910  0.50777030  0.09410313  1
  Ti  Ti166  1  0.79675870  0.79183952  0.80864505  1
  Ti  Ti167  1  0.89988041  0.70140190  0.50270442  1
  Ti  Ti168  1  0.70948274  0.89565895  0.30426511  1
  Ti  Ti169  1  0.39858660  -0.00062198  0.20016141  1
  Ti  Ti170  1  0.49695906  0.50629676  0.49738144  1
  Ti  Ti171  1  0.09898760  0.29981953  0.30661341  1
  Ti  Ti172  1  0.09583838  0.70432989  0.90406561  1
  Ti  Ti173  1  0.00297505  0.20429767  0.20089803  1
  Ti  Ti174  1  0.30577589  0.69637872  0.09613642  1
  Ti  Ti175  1  0.30790398  0.68332374  0.49667576  1
  Ti  Ti176  1  0.88856454  0.90576754  0.09657978  1
  Ti  Ti177  1  0.00557553  -0.00817377  0.41079271  1
  Ti  Ti178  1  0.69531556  0.29634048  0.90483172  1
  Ti  Ti179  1  0.80246746  0.21734780  0.58795406  1
  Ti  Ti180  1  0.02016002  -0.00049149  0.01135707  1
  Ti  Ti181  1  0.90057656  0.29614291  0.70102973  1
  Ti  Ti182  1  0.39162859  0.20343103  0.79892857  1
  Ti  Ti183  1  -0.00594806  0.59640359  0.40577635  1
  Ti  Ti184  1  0.50434151  0.68252809  0.50131823  1
  Ti  Ti185  1  0.79147252  0.00612719  0.80781662  1
  Ti  Ti186  1  0.48609905  0.31187637  0.50281974  1
  Ti  Ti187  1  0.61004898  0.60166139  -0.00587098  1
  Ti  Ti188  1  0.09456112  0.10789326  0.50107415  1
  Ti  Ti189  1  0.30808113  0.67962120  0.31588565  1
  Ti  Ti190  1  0.49492622  0.50274556  0.30902993  1
  Ti  Ti191  1  0.40070731  0.40711322  0.20637377  1
  Ti  Ti192  1  0.50005207  0.30835836  0.30174147  1
  Ti  Ti193  1  0.29851396  0.90096613  0.69807289  1
  Ti  Ti194  1  0.20440720  0.60627828  -0.00012793  1
  Ti  Ti195  1  0.70744399  0.90742561  0.09442140  1
  Ti  Ti196  1  0.60344965  0.19439783  0.00065960  1
  Ti  Ti197  1  0.49823179  0.50650124  0.68480612  1
  Ti  Ti198  1  0.29397762  0.30361468  0.90020640  1
  Ti  Ti199  1  0.80104298  0.39958448  0.60168432  1
  Mo  Mo200  1  0.00255828  0.20552422  0.40766664  1
  Mo  Mo201  1  0.51189360  0.90049863  0.90173231  1
  Mo  Mo202  1  0.30802336  0.49470673  0.69550939  1
  Mo  Mo203  1  0.70056016  0.69993347  0.89568470  1
  Mo  Mo204  1  0.19890331  0.19787446  0.59784010  1
  Mo  Mo205  1  -0.00493853  0.79582301  0.60182590  1
  Mo  Mo206  1  0.31249648  0.70335822  0.69266834  1
  Mo  Mo207  1  0.69606803  0.69479703  0.30294304  1
  Mo  Mo208  1  0.59558408  0.60249006  0.79644587  1
  Mo  Mo209  1  0.19925185  0.39229067  0.40112943  1
  Mo  Mo210  1  0.20321961  0.39201818  0.00040185  1
  Mo  Mo211  1  0.78491482  0.60788765  0.00148704  1
  Mo  Mo212  1  0.80805909  -0.00473007  0.59963068  1
  Mo  Mo213  1  0.60806172  -0.00462569  0.80309106  1
  Mo  Mo214  1  0.90467685  0.89532987  0.51100107  1
  Mo  Mo215  1  0.10895153  0.90133565  0.10178957  1
  Mo  Mo216  1  0.69730747  0.50190954  0.50164335  1
  Mo  Mo217  1  0.68868073  0.51115347  0.89982562  1
  Mo  Mo218  1  0.59937371  0.60203292  0.59713248  1
  Mo  Mo219  1  0.80005631  0.79065508  0.40138808  1
  Mo  Mo220  1  0.70715941  0.30403732  0.49845551  1
  Mo  Mo221  1  0.89669931  0.50370374  0.09904245  1
  Mo  Mo222  1  0.09715390  0.90209754  0.70168148  1
  Mo  Mo223  1  0.40638631  0.00581131  -0.00162651  1
  Mo  Mo224  1  0.10053390  0.89881359  0.49984318  1
  Mo  Mo225  1  0.90416836  0.29763455  0.50599299  1
  Mo  Mo226  1  0.40722232  0.59633711  0.59553429  1
  Mo  Mo227  1  0.40860922  0.39916063  0.39795471  1
  Mo  Mo228  1  0.90715796  0.29661849  0.30286823  1
  Mo  Mo229  1  -0.00115795  0.20331164  0.79263458  1
  Mo  Mo230  1  0.40622472  0.59371724  0.39868182  1
  Mo  Mo231  1  0.80142262  -0.00787069  0.19761888  1
  Mo  Mo232  1  0.59769655  0.59491761  0.40599732  1
  Mo  Mo233  1  0.19650473  0.00379871  -0.00184951  1
  Mo  Mo234  1  0.81044923  0.20935140  0.40254013  1
  Mo  Mo235  1  0.89013156  0.50435889  0.69925938  1
  Mo  Mo236  1  0.40527386  0.40296704  0.59698528  1
  Mo  Mo237  1  0.78617284  -0.00218329  -0.00125219  1
  Mo  Mo238  1  0.39887851  0.20530505  0.59718764  1
  Mo  Mo239  1  0.07868282  0.29633669  0.70008245  1
  Mo  Mo240  1  0.30819165  0.49247329  0.29860507  1
  Mo  Mo241  1  0.49920541  0.89364495  0.49403319  1
  Mo  Mo242  1  0.20265945  0.39218516  0.80225610  1
  Mo  Mo243  1  0.20822534  0.59592589  0.40242237  1
  Mo  Mo244  1  0.79053201  0.61577982  0.80025561  1
  Mo  Mo245  1  0.31848640  0.29289218  0.69342971  1
  Mo  Mo246  1  0.09915990  0.10371428  0.10074575  1
  Mo  Mo247  1  0.69530974  0.69607864  0.09335253  1
  Mo  Mo248  1  0.69470532  0.09830379  0.90117080  1
  Mo  Mo249  1  0.89334101  0.71018284  0.89938685  1
