# generated using pymatgen
data_HfZrTaTiMo
_symmetry_space_group_name_H-M   'P 1'
_cell_length_a   16.90060979
_cell_length_b   16.87903717
_cell_length_c   16.88586148
_cell_angle_alpha   90.00705702
_cell_angle_beta   89.98542931
_cell_angle_gamma   90.00755162
_symmetry_Int_Tables_number   1
_chemical_formula_structural   HfZrTaTiMo
_chemical_formula_sum   'Hf50 Zr50 Ta50 Ti50 Mo50'
_cell_volume   4816.96227870
_cell_formula_units_Z   50
loop_
 _symmetry_equiv_pos_site_id
 _symmetry_equiv_pos_as_xyz
  1  'x, y, z'
loop_
 _atom_site_type_symbol
 _atom_site_label
 _atom_site_symmetry_multiplicity
 _atom_site_fract_x
 _atom_site_fract_y
 _atom_site_fract_z
 _atom_site_occupancy
  Hf  Hf0  1  0.79703484  0.20996258  0.41588017  1
  Hf  Hf1  1  0.89254014  0.69910618  0.10351787  1
  Hf  Hf2  1  0.59637685  -0.00855280  0.20449407  1
  Hf  Hf3  1  0.39807762  0.40536277  0.20493695  1
  Hf  Hf4  1  0.00606869  0.59420937  0.00029065  1
  Hf  Hf5  1  0.70590981  0.10948113  0.10228996  1
  Hf  Hf6  1  0.19860791  0.39908185  0.60323776  1
  Hf  Hf7  1  0.59186509  0.40776390  0.19978813  1
  Hf  Hf8  1  0.01134441  -0.00522449  0.00076051  1
  Hf  Hf9  1  0.70416331  0.70580434  0.69246430  1
  Hf  Hf10  1  0.59375065  0.60108379  0.80157272  1
  Hf  Hf11  1  0.49112248  0.11053553  0.10423209  1
  Hf  Hf12  1  0.10746233  0.30623085  0.89063528  1
  Hf  Hf13  1  0.29280934  0.30394881  0.71059716  1
  Hf  Hf14  1  0.10473639  0.90495944  0.49749386  1
  Hf  Hf15  1  0.00611468  0.19628558  0.19600003  1
  Hf  Hf16  1  0.59502681  0.20768689  0.00357339  1
  Hf  Hf17  1  0.29858470  0.90177686  0.30814611  1
  Hf  Hf18  1  0.00729889  0.59491192  0.20425624  1
  Hf  Hf19  1  0.49342326  0.29800933  0.31282663  1
  Hf  Hf20  1  0.90074397  0.10495016  0.50266093  1
  Hf  Hf21  1  0.20529710  0.79564550  0.40662477  1
  Hf  Hf22  1  0.01423864  0.80551599  0.19446080  1
  Hf  Hf23  1  0.20947567  0.59114119  0.79462332  1
  Hf  Hf24  1  0.59425412  -0.00695574  0.00616666  1
  Hf  Hf25  1  0.49068575  0.50527765  0.49718580  1
  Hf  Hf26  1  0.49422324  0.09986709  0.49385359  1
  Hf  Hf27  1  0.89539174  0.89014644  0.09741056  1
  Hf  Hf28  1  0.59223727  0.41093597  0.60214302  1
  Hf  Hf29  1  0.00638566  0.40492223  0.20270735  1
  Hf  Hf30  1  0.40403622  0.79139692  0.78827542  1
  Hf  Hf31  1  0.58565643  0.19753132  0.79781713  1
  Hf  Hf32  1  0.89428839  0.69999372  0.90294305  1
  Hf  Hf33  1  0.59243609  0.41301181  0.80014451  1
  Hf  Hf34  1  0.79577762  -0.00187228  0.20418619  1
  Hf  Hf35  1  0.10207552  0.10190389  0.49839454  1
  Hf  Hf36  1  0.10555306  0.30355346  0.09326953  1
  Hf  Hf37  1  0.48788456  0.30822504  0.90922635  1
  Hf  Hf38  1  0.89957264  0.10588576  0.30485635  1
  Hf  Hf39  1  0.39468289  0.19677277  0.60926600  1
  Hf  Hf40  1  0.79031949  0.59703438  0.57934094  1
  Hf  Hf41  1  0.11785324  0.09701743  0.88189535  1
  Hf  Hf42  1  0.89569176  0.89279061  0.30415325  1
  Hf  Hf43  1  0.89431643  0.29932097  0.29525966  1
  Hf  Hf44  1  0.48988214  0.30209931  0.49776189  1
  Hf  Hf45  1  0.09639627  0.50151373  0.49631684  1
  Hf  Hf46  1  0.80548990  0.40844814  -0.00157475  1
  Hf  Hf47  1  0.20158393  0.39738093  0.40106670  1
  Hf  Hf48  1  0.69858711  0.30561856  0.90418762  1
  Hf  Hf49  1  0.89280439  0.11198738  0.09292926  1
  Zr  Zr50  1  0.40314498  0.41090088  0.79314546  1
  Zr  Zr51  1  0.69481948  0.29689873  0.69431645  1
  Zr  Zr52  1  0.91165674  0.30464907  0.90264267  1
  Zr  Zr53  1  0.60454571  -0.00756197  0.41046338  1
  Zr  Zr54  1  0.19360342  -0.00186914  0.19659661  1
  Zr  Zr55  1  0.60410234  0.60651808  0.39486475  1
  Zr  Zr56  1  0.79551478  0.39994897  0.58758096  1
  Zr  Zr57  1  0.20513845  0.40682303  0.00105611  1
  Zr  Zr58  1  0.48781440  0.69918568  0.09165919  1
  Zr  Zr59  1  0.09880706  0.29386912  0.30851305  1
  Zr  Zr60  1  0.59802008  0.60629973  0.20274547  1
  Zr  Zr61  1  0.90270966  0.10246229  0.89979345  1
  Zr  Zr62  1  0.30924875  0.69729680  0.90957264  1
  Zr  Zr63  1  0.10450040  0.70073360  0.30082655  1
  Zr  Zr64  1  0.79121182  -0.01230683  -0.00591309  1
  Zr  Zr65  1  0.88482594  0.89002688  0.69208256  1
  Zr  Zr66  1  0.60139543  0.80486897  0.58690256  1
  Zr  Zr67  1  0.30494509  0.10881191  0.09884717  1
  Zr  Zr68  1  0.00561034  0.00081888  0.19932236  1
  Zr  Zr69  1  -0.00026101  0.80053123  0.59641658  1
  Zr  Zr70  1  0.40032710  0.00347831  0.79908126  1
  Zr  Zr71  1  0.59793850  0.79316407  0.20781533  1
  Zr  Zr72  1  0.80056477  0.20018830  0.79885168  1
  Zr  Zr73  1  0.29526537  0.89393209  0.89355222  1
  Zr  Zr74  1  0.90693226  0.50645912  0.69332714  1
  Zr  Zr75  1  -0.00043755  -0.00227197  0.79109228  1
  Zr  Zr76  1  0.59746388  0.79436222  0.39813689  1
  Zr  Zr77  1  0.10836551  0.69855001  0.89381907  1
  Zr  Zr78  1  0.71089160  0.49830928  0.28975191  1
  Zr  Zr79  1  0.40142180  -0.00224383  0.20179739  1
  Zr  Zr80  1  0.20519579  0.59554891  0.60117408  1
  Zr  Zr81  1  0.71769740  0.30548806  0.11057977  1
  Zr  Zr82  1  0.79629816  0.41315653  0.79800099  1
  Zr  Zr83  1  0.69640633  0.10501798  0.90279200  1
  Zr  Zr84  1  0.59597947  0.20830543  0.20569371  1
  Zr  Zr85  1  0.00027005  0.79783848  0.79895182  1
  Zr  Zr86  1  0.89456074  0.69481680  0.69748978  1
  Zr  Zr87  1  0.69624392  0.11174610  0.30965858  1
  Zr  Zr88  1  0.27719913  0.09834757  0.71226249  1
  Zr  Zr89  1  0.78968522  -0.00011790  0.59420948  1
  Zr  Zr90  1  0.60222355  0.79751505  0.00206011  1
  Zr  Zr91  1  0.09425256  0.69378266  0.50141431  1
  Zr  Zr92  1  0.79905714  0.40549104  0.40750351  1
  Zr  Zr93  1  0.49208901  0.89020594  0.90384930  1
  Zr  Zr94  1  0.20373520  0.19900317  0.20740782  1
  Zr  Zr95  1  0.19354772  0.80064679  0.01224189  1
  Zr  Zr96  1  0.79069202  -0.00814569  0.79725481  1
  Zr  Zr97  1  0.29476378  0.09436178  0.50014069  1
  Zr  Zr98  1  0.89812598  0.29853231  0.69229537  1
  Zr  Zr99  1  0.50363148  0.69370185  0.68317152  1
  Ta  Ta100  1  0.40148338  0.59774412  0.20657878  1
  Ta  Ta101  1  0.21028032  0.79902979  0.59917308  1
  Ta  Ta102  1  0.10653663  0.89684793  0.89285411  1
  Ta  Ta103  1  0.70791333  0.50724396  0.10101766  1
  Ta  Ta104  1  0.01073129  0.20054773  -0.00622256  1
  Ta  Ta105  1  0.20631272  -0.00029644  -0.00301734  1
  Ta  Ta106  1  0.30606148  0.89273746  0.09878947  1
  Ta  Ta107  1  -0.00153537  -0.00041034  0.40217551  1
  Ta  Ta108  1  0.89810020  0.49899371  0.10392037  1
  Ta  Ta109  1  0.89726379  0.10578219  0.69021269  1
  Ta  Ta110  1  0.60078721  -0.00808113  0.79693932  1
  Ta  Ta111  1  0.30785792  0.29906171  0.09804591  1
  Ta  Ta112  1  0.60085428  -0.00369773  0.59990375  1
  Ta  Ta113  1  0.48897174  0.10534163  0.31148804  1
  Ta  Ta114  1  0.30661215  0.50006643  0.90252526  1
  Ta  Ta115  1  0.69481409  0.50773144  0.90789282  1
  Ta  Ta116  1  0.48349920  0.30175092  0.09902820  1
  Ta  Ta117  1  0.20881595  0.19978751  -0.01115618  1
  Ta  Ta118  1  0.60346658  0.80285753  0.79890958  1
  Ta  Ta119  1  0.89827662  0.89795522  0.49350868  1
  Ta  Ta120  1  0.39714922  0.80477485  0.59109077  1
  Ta  Ta121  1  0.20492205  0.59466962  0.39621351  1
  Ta  Ta122  1  0.31033862  0.49820860  0.50069517  1
  Ta  Ta123  1  0.89823181  0.70027800  0.29705665  1
  Ta  Ta124  1  0.91343379  0.50343651  0.49666200  1
  Ta  Ta125  1  0.89850928  0.88804797  0.90624663  1
  Ta  Ta126  1  0.69492521  0.10022936  0.69535215  1
  Ta  Ta127  1  0.59748449  0.40913094  0.00893053  1
  Ta  Ta128  1  0.01287232  0.19894050  0.78498821  1
  Ta  Ta129  1  0.00139249  0.00132595  0.60211337  1
  Ta  Ta130  1  0.39511443  0.19672569  0.80697710  1
  Ta  Ta131  1  0.39799447  -0.00298450  0.00270834  1
  Ta  Ta132  1  0.31030360  0.69247898  0.49658610  1
  Ta  Ta133  1  0.67807302  0.29814275  0.49589172  1
  Ta  Ta134  1  0.10448489  0.69894122  0.69743521  1
  Ta  Ta135  1  0.00748052  0.39199528  0.59438996  1
  Ta  Ta136  1  0.30572833  0.49994813  0.30788091  1
  Ta  Ta137  1  0.50034509  0.89941363  0.69405052  1
  Ta  Ta138  1  0.40291493  0.59493279  0.79316105  1
  Ta  Ta139  1  0.59483196  0.19225596  0.59766977  1
  Ta  Ta140  1  0.00616499  0.20494987  0.59776022  1
  Ta  Ta141  1  0.70105891  0.69781554  0.90353274  1
  Ta  Ta142  1  0.70467522  0.88473594  0.10502707  1
  Ta  Ta143  1  0.48774325  0.89835510  0.31430619  1
  Ta  Ta144  1  0.30018407  0.69507543  0.10748324  1
  Ta  Ta145  1  0.80248347  0.60151093  0.39772984  1
  Ta  Ta146  1  0.30423164  0.69736734  0.30200744  1
  Ta  Ta147  1  0.40044346  0.79854037  0.20431712  1
  Ta  Ta148  1  0.11199958  0.89706799  0.70155748  1
  Ta  Ta149  1  0.20526991  0.58897689  0.20309254  1
  Ti  Ti150  1  0.49580222  0.69560670  0.90521432  1
  Ti  Ti151  1  0.30379126  0.69670579  0.69114187  1
  Ti  Ti152  1  0.79829005  0.78536824  0.40252645  1
  Ti  Ti153  1  0.30654631  0.10157945  0.31342926  1
  Ti  Ti154  1  0.90797175  0.50105810  0.89869266  1
  Ti  Ti155  1  0.30145417  0.30536955  0.90054244  1
  Ti  Ti156  1  0.20196308  0.80054183  0.19989375  1
  Ti  Ti157  1  0.90417140  0.69556243  0.49566256  1
  Ti  Ti158  1  0.89949502  0.50022333  0.29855579  1
  Ti  Ti159  1  0.30671764  0.30246576  0.50242034  1
  Ti  Ti160  1  0.00667473  0.39986900  0.78950336  1
  Ti  Ti161  1  0.50003758  0.09323620  0.69793620  1
  Ti  Ti162  1  0.09768497  0.49955952  0.69976209  1
  Ti  Ti163  1  0.79766752  0.60018084  0.00118886  1
  Ti  Ti164  1  0.30804047  0.50356373  0.09700377  1
  Ti  Ti165  1  0.20213624  0.59529296  0.00350872  1
  Ti  Ti166  1  0.10095501  0.49324577  0.89523810  1
  Ti  Ti167  1  0.10700302  0.69203796  0.10363662  1
  Ti  Ti168  1  0.20428927  0.40546007  0.20509254  1
  Ti  Ti169  1  0.70763893  0.88925609  0.30230466  1
  Ti  Ti170  1  0.70102005  0.30296312  0.30179551  1
  Ti  Ti171  1  0.40149918  -0.00673241  0.60074475  1
  Ti  Ti172  1  0.60415761  0.60106426  0.00606779  1
  Ti  Ti173  1  0.49244586  0.50918298  0.91686869  1
  Ti  Ti174  1  0.00511866  0.59838917  0.79851826  1
  Ti  Ti175  1  0.10763846  0.10436713  0.08865068  1
  Ti  Ti176  1  0.79407535  0.59678966  0.80447319  1
  Ti  Ti177  1  0.29765720  0.89707306  0.69884708  1
  Ti  Ti178  1  0.69209645  0.51320506  0.69379325  1
  Ti  Ti179  1  0.10440875  0.90453696  0.30913154  1
  Ti  Ti180  1  0.00010348  0.39256148  0.40380001  1
  Ti  Ti181  1  0.90453589  0.30225602  0.09653830  1
  Ti  Ti182  1  0.00927200  0.79911922  0.00240974  1
  Ti  Ti183  1  0.18669225  0.20930602  0.60775069  1
  Ti  Ti184  1  0.79627854  0.00235825  0.40380858  1
  Ti  Ti185  1  0.71319719  0.88943309  0.49846779  1
  Ti  Ti186  1  0.78581472  0.80616339  0.81087888  1
  Ti  Ti187  1  0.49162137  0.10035553  0.90679497  1
  Ti  Ti188  1  0.30782503  0.29562873  0.30491294  1
  Ti  Ti189  1  0.49281684  0.30215357  0.69584714  1
  Ti  Ti190  1  0.30572098  0.90537531  0.49457882  1
  Ti  Ti191  1  0.49302469  0.50288003  0.09411266  1
  Ti  Ti192  1  0.00009042  0.59561122  0.39038034  1
  Ti  Ti193  1  0.10302037  0.09828984  0.31653451  1
  Ti  Ti194  1  -0.00023114  0.80016519  0.39908876  1
  Ti  Ti195  1  0.59759496  0.40958619  0.39581188  1
  Ti  Ti196  1  0.20352081  0.20538433  0.40806191  1
  Ti  Ti197  1  0.19729822  -0.00472325  0.60454840  1
  Ti  Ti198  1  0.10259946  0.49625949  0.09904196  1
  Ti  Ti199  1  0.48964698  0.69632059  0.49518361  1
  Mo  Mo200  1  0.70634597  0.69357496  0.09720365  1
  Mo  Mo201  1  0.81151348  0.21237552  0.00191167  1
  Mo  Mo202  1  0.68809946  0.49943264  0.49182083  1
  Mo  Mo203  1  0.79981000  0.79333018  0.58029066  1
  Mo  Mo204  1  0.80730313  0.60125783  0.20110022  1
  Mo  Mo205  1  0.39688107  -0.00097704  0.40233759  1
  Mo  Mo206  1  0.39857811  0.79847905  0.40371222  1
  Mo  Mo207  1  0.30707433  0.50031621  0.69631399  1
  Mo  Mo208  1  0.69555376  0.10673557  0.50680931  1
  Mo  Mo209  1  0.69465265  0.89225130  0.90079151  1
  Mo  Mo210  1  0.19740447  0.00102751  0.39781165  1
  Mo  Mo211  1  0.48039428  0.70186453  0.30485878  1
  Mo  Mo212  1  0.80523532  0.20753159  0.20341567  1
  Mo  Mo213  1  0.10037855  0.30137063  0.70066958  1
  Mo  Mo214  1  0.91418475  0.30241930  0.49736279  1
  Mo  Mo215  1  0.70486749  0.69916686  0.49258935  1
  Mo  Mo216  1  0.39661430  0.79969020  0.00948514  1
  Mo  Mo217  1  0.30311781  0.10066140  0.90224329  1
  Mo  Mo218  1  0.20626931  0.79248490  0.78376579  1
  Mo  Mo219  1  0.00115086  0.40628661  0.00276870  1
  Mo  Mo220  1  0.80987366  0.40490311  0.19731394  1
  Mo  Mo221  1  0.20048455  -0.01389345  0.79811133  1
  Mo  Mo222  1  0.00013830  0.19936801  0.40550936  1
  Mo  Mo223  1  0.09705184  0.09805322  0.69252986  1
  Mo  Mo224  1  0.39901614  0.40511486  0.00596525  1
  Mo  Mo225  1  0.49642206  0.90003037  0.10937317  1
  Mo  Mo226  1  0.49807722  0.50817728  0.68904778  1
  Mo  Mo227  1  0.39946078  0.60154192  0.59845764  1
  Mo  Mo228  1  0.20218762  0.21143388  0.80276156  1
  Mo  Mo229  1  0.60135112  0.60151357  0.58980747  1
  Mo  Mo230  1  0.10798420  0.90390333  0.09548439  1
  Mo  Mo231  1  0.00020618  0.59556979  0.60092511  1
  Mo  Mo232  1  0.79004953  0.19990488  0.59571646  1
  Mo  Mo233  1  0.10237755  0.29693759  0.50118215  1
  Mo  Mo234  1  0.39267798  0.40023243  0.40115838  1
  Mo  Mo235  1  0.39539121  0.59680501  0.00334696  1
  Mo  Mo236  1  0.48615710  0.90464442  0.50351306  1
  Mo  Mo237  1  0.69118273  0.89770005  0.69934423  1
  Mo  Mo238  1  0.72205112  0.70044738  0.29547515  1
  Mo  Mo239  1  0.38756103  0.20019035  0.40434988  1
  Mo  Mo240  1  0.39555670  0.20564314  0.21148368  1
  Mo  Mo241  1  0.59883122  0.20220444  0.40361291  1
  Mo  Mo242  1  0.39525317  0.40161651  0.60118254  1
  Mo  Mo243  1  0.39943612  0.60094869  0.39637810  1
  Mo  Mo244  1  0.39518123  0.20162097  -0.00848028  1
  Mo  Mo245  1  0.20045260  0.41087520  0.80122322  1
  Mo  Mo246  1  0.10796659  0.49676278  0.30335154  1
  Mo  Mo247  1  0.49294247  0.50127747  0.30283408  1
  Mo  Mo248  1  0.79331835  0.79168332  0.00050749  1
  Mo  Mo249  1  0.79726962  0.79616142  0.20373494  1
