# generated using pymatgen
data_HfZrTaTiMo
_symmetry_space_group_name_H-M   'P 1'
_cell_length_a   16.88515972
_cell_length_b   16.87599727
_cell_length_c   16.89189626
_cell_angle_alpha   90.03267038
_cell_angle_beta   90.00100742
_cell_angle_gamma   89.97956853
_symmetry_Int_Tables_number   1
_chemical_formula_structural   HfZrTaTiMo
_chemical_formula_sum   'Hf50 Zr50 Ta50 Ti50 Mo50'
_cell_volume   4813.41078525
_cell_formula_units_Z   50
loop_
 _symmetry_equiv_pos_site_id
 _symmetry_equiv_pos_as_xyz
  1  'x, y, z'
loop_
 _atom_site_type_symbol
 _atom_site_label
 _atom_site_symmetry_multiplicity
 _atom_site_fract_x
 _atom_site_fract_y
 _atom_site_fract_z
 _atom_site_occupancy
  Hf  Hf0  1  0.70593395  0.90459121  0.09779501  1
  Hf  Hf1  1  0.20127424  0.19868462  0.40450074  1
  Hf  Hf2  1  0.59867086  0.19990627  0.78871511  1
  Hf  Hf3  1  0.70574795  0.10825074  0.90110549  1
  Hf  Hf4  1  0.08657861  0.10706535  0.69823062  1
  Hf  Hf5  1  0.18650491  -0.01558025  0.80483868  1
  Hf  Hf6  1  0.00194576  0.60144425  0.40173242  1
  Hf  Hf7  1  0.20083368  0.20117599  0.20556176  1
  Hf  Hf8  1  0.10602297  0.70266140  0.70061580  1
  Hf  Hf9  1  0.49598351  0.69891619  0.71502206  1
  Hf  Hf10  1  0.70692014  0.50323854  0.30486450  1
  Hf  Hf11  1  0.59243748  0.01028462  0.60194313  1
  Hf  Hf12  1  0.79863259  0.40730241  -0.00741503  1
  Hf  Hf13  1  0.00497206  0.20487732  0.00313198  1
  Hf  Hf14  1  0.39242846  0.79444983  -0.00100352  1
  Hf  Hf15  1  0.20448137  -0.01185630  0.00522199  1
  Hf  Hf16  1  0.90207793  0.10518670  0.88946106  1
  Hf  Hf17  1  0.60106126  0.21182046  0.40608169  1
  Hf  Hf18  1  0.39601718  0.79474815  0.59577509  1
  Hf  Hf19  1  0.38890221  -0.00362829  0.19952586  1
  Hf  Hf20  1  0.60400829  0.79596281  -0.00282988  1
  Hf  Hf21  1  0.90115617  0.70053826  0.69578262  1
  Hf  Hf22  1  0.61844859  0.37553897  0.21413404  1
  Hf  Hf23  1  0.70264246  0.49508463  0.50968069  1
  Hf  Hf24  1  0.69826791  0.49373904  0.09736454  1
  Hf  Hf25  1  0.61338985  0.01292712  0.20187955  1
  Hf  Hf26  1  0.69277192  0.30050161  0.89878990  1
  Hf  Hf27  1  0.89797561  0.29440451  0.89510621  1
  Hf  Hf28  1  0.49143058  0.49214157  0.50704911  1
  Hf  Hf29  1  0.39684248  0.21019585  -0.01218900  1
  Hf  Hf30  1  0.80084830  0.79853007  -0.00735838  1
  Hf  Hf31  1  0.49245229  0.70030702  0.29704758  1
  Hf  Hf32  1  0.39083031  0.80574539  0.40183515  1
  Hf  Hf33  1  0.80745779  -0.00380994  0.40672692  1
  Hf  Hf34  1  0.09882383  0.48690668  0.29114390  1
  Hf  Hf35  1  0.70764880  0.10900405  0.50601843  1
  Hf  Hf36  1  0.71157781  0.69847268  0.50455350  1
  Hf  Hf37  1  0.49755391  0.90583179  0.30293739  1
  Hf  Hf38  1  0.89934550  0.30981548  0.09966697  1
  Hf  Hf39  1  0.39485117  0.59161412  -0.00354884  1
  Hf  Hf40  1  0.70344620  0.69480383  0.70112938  1
  Hf  Hf41  1  0.59241925  0.60134709  0.40736134  1
  Hf  Hf42  1  0.90754884  0.11290963  0.50736889  1
  Hf  Hf43  1  0.49665820  0.10682707  0.30555994  1
  Hf  Hf44  1  0.19763154  0.80639138  0.40411778  1
  Hf  Hf45  1  0.00045397  0.79981622  0.40683884  1
  Hf  Hf46  1  0.69714852  0.68974887  0.89298425  1
  Hf  Hf47  1  0.20060667  0.80624829  0.19316524  1
  Hf  Hf48  1  0.39440711  0.59540025  0.20051941  1
  Hf  Hf49  1  0.80900929  0.40399487  0.40917914  1
  Zr  Zr50  1  0.71389537  0.69977091  0.30123822  1
  Zr  Zr51  1  0.01088610  0.19971787  0.20558592  1
  Zr  Zr52  1  0.21403128  0.40264952  -0.01037655  1
  Zr  Zr53  1  0.09728932  0.10326676  0.50707582  1
  Zr  Zr54  1  0.09207736  0.50473537  0.09785024  1
  Zr  Zr55  1  0.49012471  0.90281495  0.70389707  1
  Zr  Zr56  1  0.69498541  0.49094414  0.69251534  1
  Zr  Zr57  1  0.39881663  0.20834896  0.19782762  1
  Zr  Zr58  1  0.20578864  0.20825960  -0.00026085  1
  Zr  Zr59  1  0.39413250  0.59126871  0.80190092  1
  Zr  Zr60  1  0.29144546  0.88730931  0.70338170  1
  Zr  Zr61  1  0.51423186  0.11110549  0.09415541  1
  Zr  Zr62  1  0.09957737  0.10231457  0.89262323  1
  Zr  Zr63  1  0.00383285  0.00778166  0.20170397  1
  Zr  Zr64  1  0.21038786  0.21292164  0.79288417  1
  Zr  Zr65  1  0.40039998  0.39809711  0.39603727  1
  Zr  Zr66  1  0.60214759  0.00326698  0.40601594  1
  Zr  Zr67  1  0.10586429  0.50225778  0.88944341  1
  Zr  Zr68  1  0.50533282  0.90119250  0.09801762  1
  Zr  Zr69  1  0.19706114  0.60470593  0.19634044  1
  Zr  Zr70  1  0.59740693  0.79961087  0.40701430  1
  Zr  Zr71  1  0.29567437  0.09046456  0.70083431  1
  Zr  Zr72  1  0.90832748  0.89220425  0.10461482  1
  Zr  Zr73  1  0.39564086  0.00002902  -0.00005952  1
  Zr  Zr74  1  0.90255998  0.29885955  0.30715967  1
  Zr  Zr75  1  0.20269370  0.00273630  0.20146948  1
  Zr  Zr76  1  0.59275480  0.79655119  0.59485950  1
  Zr  Zr77  1  0.50488186  0.49055951  0.09902248  1
  Zr  Zr78  1  0.09472482  0.30459348  0.88976820  1
  Zr  Zr79  1  0.19093159  0.60398377  0.39553516  1
  Zr  Zr80  1  0.00179933  0.80566823  0.80323464  1
  Zr  Zr81  1  0.09094655  0.89598256  0.29377337  1
  Zr  Zr82  1  0.79976190  0.39507767  0.78994546  1
  Zr  Zr83  1  0.89767598  0.11015997  0.31116978  1
  Zr  Zr84  1  0.88993426  0.10826413  0.09571616  1
  Zr  Zr85  1  0.50032891  0.89869531  0.89363071  1
  Zr  Zr86  1  0.29209351  0.69327091  0.50585114  1
  Zr  Zr87  1  0.60560888  0.80061990  0.20007111  1
  Zr  Zr88  1  0.51895946  0.30171480  0.08919167  1
  Zr  Zr89  1  0.00022955  0.59631220  0.79735190  1
  Zr  Zr90  1  0.89967389  0.69264821  0.10189669  1
  Zr  Zr91  1  0.00383308  -0.00537301  -0.00170374  1
  Zr  Zr92  1  0.20608747  0.61084306  -0.01465947  1
  Zr  Zr93  1  0.77354857  0.21440472  0.19491560  1
  Zr  Zr94  1  0.09965371  0.32592838  0.11423008  1
  Zr  Zr95  1  0.69907789  0.89992265  0.69930572  1
  Zr  Zr96  1  0.20347317  -0.00274276  0.40217908  1
  Zr  Zr97  1  0.30186712  0.30225507  0.49899186  1
  Zr  Zr98  1  0.60135510  0.59883729  0.20066437  1
  Zr  Zr99  1  0.58387373  0.59829960  0.60424873  1
  Ta  Ta100  1  0.70611554  0.09988990  0.69837713  1
  Ta  Ta101  1  0.50798658  0.49471817  0.89175945  1
  Ta  Ta102  1  0.10529252  0.49308349  0.50073394  1
  Ta  Ta103  1  0.00200189  -0.00351608  0.40594352  1
  Ta  Ta104  1  0.90138855  0.70256872  0.29650524  1
  Ta  Ta105  1  0.90029539  0.49537688  0.69136449  1
  Ta  Ta106  1  0.80245317  0.80231932  0.80035481  1
  Ta  Ta107  1  0.80417890  0.58904319  -0.01001872  1
  Ta  Ta108  1  0.80977756  0.80749533  0.59691938  1
  Ta  Ta109  1  0.29336532  0.49731230  0.50370889  1
  Ta  Ta110  1  0.30771000  0.10692941  0.31139907  1
  Ta  Ta111  1  0.40007163  0.40134986  -0.01402638  1
  Ta  Ta112  1  0.79959687  0.00311169  -0.00201317  1
  Ta  Ta113  1  0.10265214  0.30821348  0.31014431  1
  Ta  Ta114  1  0.70251686  0.30769209  0.51818654  1
  Ta  Ta115  1  0.89804410  0.89484599  0.29892994  1
  Ta  Ta116  1  0.70515796  0.11227863  0.30930625  1
  Ta  Ta117  1  0.29511007  0.49843949  0.69711690  1
  Ta  Ta118  1  0.80157129  0.40414758  0.20464545  1
  Ta  Ta119  1  0.39081024  0.80283456  0.19628903  1
  Ta  Ta120  1  0.79749202  0.00477956  0.20337474  1
  Ta  Ta121  1  0.60030603  0.39726929  0.40603914  1
  Ta  Ta122  1  0.50219857  0.69289100  0.89868713  1
  Ta  Ta123  1  0.80387201  0.20658487  0.61031070  1
  Ta  Ta124  1  0.39637620  0.59767215  0.39943000  1
  Ta  Ta125  1  0.49235023  0.90800185  0.50197296  1
  Ta  Ta126  1  0.60295837  0.00703147  0.79896032  1
  Ta  Ta127  1  0.19665883  0.39548329  0.60406708  1
  Ta  Ta128  1  0.08980623  0.71238276  0.08972436  1
  Ta  Ta129  1  -0.00459703  -0.01211839  0.59840464  1
  Ta  Ta130  1  0.00390737  0.59388829  0.59501960  1
  Ta  Ta131  1  -0.00179914  0.40421116  0.40691765  1
  Ta  Ta132  1  0.70479437  0.90241162  0.50589610  1
  Ta  Ta133  1  0.50171326  0.49273335  0.30067760  1
  Ta  Ta134  1  0.49962718  0.10389955  0.89309836  1
  Ta  Ta135  1  0.50118591  0.69572194  0.09504910  1
  Ta  Ta136  1  0.81738980  0.59718386  0.40388389  1
  Ta  Ta137  1  -0.00147083  0.39938247  0.78834740  1
  Ta  Ta138  1  0.20124736  0.20840886  0.60360918  1
  Ta  Ta139  1  0.80236508  0.58962024  0.80213903  1
  Ta  Ta140  1  0.89977014  0.69722156  0.89803648  1
  Ta  Ta141  1  0.49323391  0.30100331  0.69827869  1
  Ta  Ta142  1  0.30283846  0.09992326  0.89279825  1
  Ta  Ta143  1  0.81046054  0.00083432  0.60530472  1
  Ta  Ta144  1  0.39353444  0.19853036  0.60377980  1
  Ta  Ta145  1  0.70722446  0.68780988  0.09673836  1
  Ta  Ta146  1  0.19580917  0.59399991  0.60347030  1
  Ta  Ta147  1  0.00258052  0.39942533  0.59800343  1
  Ta  Ta148  1  0.80462047  -0.00174112  0.79583573  1
  Ta  Ta149  1  0.29685593  0.70281836  0.29803519  1
  Ti  Ti150  1  -0.00528335  0.59921273  -0.00964200  1
  Ti  Ti151  1  0.80094723  0.80057568  0.20064703  1
  Ti  Ti152  1  0.60249680  0.59195088  -0.00681727  1
  Ti  Ti153  1  0.90431025  0.70294497  0.50640409  1
  Ti  Ti154  1  0.59510689  0.20243082  0.60482382  1
  Ti  Ti155  1  0.39442776  0.39864505  0.61088357  1
  Ti  Ti156  1  0.48823249  0.10192116  0.70378215  1
  Ti  Ti157  1  0.70300640  0.90629198  0.89555752  1
  Ti  Ti158  1  0.81248664  0.59304161  0.59588077  1
  Ti  Ti159  1  0.40082040  0.39952883  0.20258249  1
  Ti  Ti160  1  0.90275671  0.89632415  0.69734526  1
  Ti  Ti161  1  0.39368605  0.39536476  0.79905388  1
  Ti  Ti162  1  0.48424368  0.10781198  0.49766578  1
  Ti  Ti163  1  0.10036155  0.88767415  0.68536023  1
  Ti  Ti164  1  0.80846830  0.80329127  0.40665055  1
  Ti  Ti165  1  0.90109515  0.50400513  0.11139328  1
  Ti  Ti166  1  0.29692726  0.30389010  0.30336564  1
  Ti  Ti167  1  0.38672983  -0.00046494  0.40925350  1
  Ti  Ti168  1  0.80211688  0.19998875  0.78427595  1
  Ti  Ti169  1  0.10324895  0.49621639  0.69723435  1
  Ti  Ti170  1  0.38918979  0.00186203  0.59137856  1
  Ti  Ti171  1  0.00059067  0.60503109  0.20807535  1
  Ti  Ti172  1  0.90024207  0.90010407  0.89953439  1
  Ti  Ti173  1  0.39571997  -0.00059538  0.80403218  1
  Ti  Ti174  1  0.29446892  0.49490878  0.30412585  1
  Ti  Ti175  1  0.30342157  0.31031181  0.10242992  1
  Ti  Ti176  1  0.91377702  0.29314629  0.69465900  1
  Ti  Ti177  1  0.10571775  0.10057077  0.09618350  1
  Ti  Ti178  1  0.59532425  0.40029697  0.78920781  1
  Ti  Ti179  1  0.09523962  0.30087999  0.50022787  1
  Ti  Ti180  1  0.29697891  0.49148892  0.10444690  1
  Ti  Ti181  1  0.30083166  0.10585561  0.09690773  1
  Ti  Ti182  1  0.09923050  0.70820205  0.51663725  1
  Ti  Ti183  1  -0.00340452  -0.00671273  0.79240375  1
  Ti  Ti184  1  0.29853248  0.70212477  0.09877463  1
  Ti  Ti185  1  0.19835159  -0.00893568  0.59180795  1
  Ti  Ti186  1  0.29246104  0.69718321  0.70644745  1
  Ti  Ti187  1  0.60769291  0.00728523  -0.00557114  1
  Ti  Ti188  1  0.20794384  0.39825640  0.79143720  1
  Ti  Ti189  1  0.70769537  0.90198841  0.30451073  1
  Ti  Ti190  1  0.19980336  0.78264490  0.82081810  1
  Ti  Ti191  1  0.39630656  0.59725459  0.60405582  1
  Ti  Ti192  1  0.29896784  0.89011715  0.89722918  1
  Ti  Ti193  1  0.49776445  0.29622098  0.30311476  1
  Ti  Ti194  1  -0.01105481  0.41499505  -0.01222983  1
  Ti  Ti195  1  0.49663515  0.29968979  0.50894835  1
  Ti  Ti196  1  0.90429085  0.29680555  0.50557471  1
  Ti  Ti197  1  0.50115875  0.30162621  0.89062899  1
  Ti  Ti198  1  0.60348237  0.80208956  0.80305270  1
  Ti  Ti199  1  0.09911363  0.87779135  0.91887490  1
  Mo  Mo200  1  0.30359223  0.49381400  0.88815295  1
  Mo  Mo201  1  0.09743075  0.89977083  0.50873041  1
  Mo  Mo202  1  0.29834373  0.89467456  0.09695511  1
  Mo  Mo203  1  0.90150812  0.49918153  0.89010248  1
  Mo  Mo204  1  0.19905832  0.79663047  0.59932259  1
  Mo  Mo205  1  0.60253120  0.20157532  0.21503218  1
  Mo  Mo206  1  0.69122343  0.29377236  0.69380689  1
  Mo  Mo207  1  0.80643123  0.59610579  0.19860944  1
  Mo  Mo208  1  0.90244200  0.50601622  0.29904626  1
  Mo  Mo209  1  0.58522973  0.38910542  0.60002808  1
  Mo  Mo210  1  0.00978818  0.20743747  0.40566852  1
  Mo  Mo211  1  -0.01593107  0.40682898  0.21241916  1
  Mo  Mo212  1  0.49002207  0.48944317  0.70180264  1
  Mo  Mo213  1  0.30200806  0.10054456  0.50713644  1
  Mo  Mo214  1  0.69258308  0.49956079  0.89325999  1
  Mo  Mo215  1  0.09460258  0.70215334  0.28769827  1
  Mo  Mo216  1  0.10007143  0.10850750  0.31224665  1
  Mo  Mo217  1  0.59788947  0.20089168  -0.01669459  1
  Mo  Mo218  1  0.70081675  0.29889451  0.08090719  1
  Mo  Mo219  1  0.19671209  0.39889069  0.40375762  1
  Mo  Mo220  1  0.70775231  0.30339579  0.32743446  1
  Mo  Mo221  1  0.48610834  0.69387814  0.49712237  1
  Mo  Mo222  1  0.90054587  0.09607174  0.69914999  1
  Mo  Mo223  1  0.20291766  0.59774607  0.79060386  1
  Mo  Mo224  1  0.00036206  0.79912610  0.59913536  1
  Mo  Mo225  1  -0.00428257  0.79352371  -0.00349625  1
  Mo  Mo226  1  0.09966588  0.89202194  0.09356711  1
  Mo  Mo227  1  0.79639373  0.20869889  0.41624345  1
  Mo  Mo228  1  0.22012739  0.39895806  0.20623184  1
  Mo  Mo229  1  -0.00306206  0.20541977  0.79161326  1
  Mo  Mo230  1  0.59940768  0.59120635  0.80199123  1
  Mo  Mo231  1  0.90041568  0.89964101  0.50006261  1
  Mo  Mo232  1  0.09577015  0.69997628  0.90284233  1
  Mo  Mo233  1  -0.00039368  0.79258579  0.20264826  1
  Mo  Mo234  1  0.30429253  0.30629117  0.69551888  1
  Mo  Mo235  1  0.30204123  0.90122788  0.30012956  1
  Mo  Mo236  1  0.40104470  0.20166585  0.40656779  1
  Mo  Mo237  1  0.90850391  0.50066843  0.50440051  1
  Mo  Mo238  1  0.31038353  0.30124982  0.88859553  1
  Mo  Mo239  1  0.00168050  0.21010725  0.60093553  1
  Mo  Mo240  1  0.70142672  0.10201621  0.09283419  1
  Mo  Mo241  1  0.39266968  0.79124167  0.80741116  1
  Mo  Mo242  1  0.20016301  0.79844316  0.00182562  1
  Mo  Mo243  1  0.40473785  0.19821735  0.79557169  1
  Mo  Mo244  1  0.59893104  0.40100753  -0.01593630  1
  Mo  Mo245  1  0.29801569  0.90445537  0.50669164  1
  Mo  Mo246  1  0.09985044  0.30552897  0.69325021  1
  Mo  Mo247  1  0.79508769  0.20335348  0.00256501  1
  Mo  Mo248  1  0.30342256  0.69999936  0.89486370  1
  Mo  Mo249  1  0.81483397  0.39235660  0.60089672  1
