# generated using pymatgen
data_HfZrTaTiMo
_symmetry_space_group_name_H-M   'P 1'
_cell_length_a   16.89043048
_cell_length_b   16.88161980
_cell_length_c   16.88579117
_cell_angle_alpha   89.93843958
_cell_angle_beta   90.02006072
_cell_angle_gamma   89.95374445
_symmetry_Int_Tables_number   1
_chemical_formula_structural   HfZrTaTiMo
_chemical_formula_sum   'Hf50 Zr50 Ta50 Ti50 Mo50'
_cell_volume   4814.77313599
_cell_formula_units_Z   50
loop_
 _symmetry_equiv_pos_site_id
 _symmetry_equiv_pos_as_xyz
  1  'x, y, z'
loop_
 _atom_site_type_symbol
 _atom_site_label
 _atom_site_symmetry_multiplicity
 _atom_site_fract_x
 _atom_site_fract_y
 _atom_site_fract_z
 _atom_site_occupancy
  Hf  Hf0  1  0.20170513  -0.01685171  0.40006536  1
  Hf  Hf1  1  0.00451975  0.60752345  0.20526153  1
  Hf  Hf2  1  0.11601667  0.69447112  0.49652647  1
  Hf  Hf3  1  0.80461949  0.79753327  0.39326025  1
  Hf  Hf4  1  0.59619282  0.00213835  0.59040100  1
  Hf  Hf5  1  0.80892462  0.00339717  -0.00558657  1
  Hf  Hf6  1  0.09459557  0.30259722  0.09509592  1
  Hf  Hf7  1  0.70037898  0.50489895  0.10596841  1
  Hf  Hf8  1  0.60057496  0.40272192  0.80037412  1
  Hf  Hf9  1  0.28706483  0.29719338  0.89449909  1
  Hf  Hf10  1  0.59387651  0.60655949  0.20477155  1
  Hf  Hf11  1  0.19016920  -0.00289242  0.60656272  1
  Hf  Hf12  1  0.69806282  0.10456588  0.90976502  1
  Hf  Hf13  1  0.91720497  0.90598552  0.10594215  1
  Hf  Hf14  1  0.30121724  0.09470408  0.70375453  1
  Hf  Hf15  1  0.39892727  0.60542667  0.00103272  1
  Hf  Hf16  1  0.28944193  0.30290764  0.10267887  1
  Hf  Hf17  1  0.38867649  0.18934663  0.00517890  1
  Hf  Hf18  1  0.90207058  0.71165543  0.51180899  1
  Hf  Hf19  1  0.40151349  0.40060650  0.00208436  1
  Hf  Hf20  1  0.59561041  0.19461563  0.79942566  1
  Hf  Hf21  1  0.48902171  0.90279644  0.68970596  1
  Hf  Hf22  1  0.19554519  0.19609840  0.20064886  1
  Hf  Hf23  1  0.38847970  0.59291032  0.40307331  1
  Hf  Hf24  1  0.59589832  0.59416481  0.59185333  1
  Hf  Hf25  1  0.79831254  0.19282309  0.59578466  1
  Hf  Hf26  1  0.69929303  0.09261882  0.70373381  1
  Hf  Hf27  1  0.40131389  0.19665695  0.80269396  1
  Hf  Hf28  1  0.38874853  0.80312251  0.80169647  1
  Hf  Hf29  1  0.81163641  0.60244733  0.00234776  1
  Hf  Hf30  1  0.81460945  0.60679690  0.21140214  1
  Hf  Hf31  1  0.59431501  0.01581126  0.18782618  1
  Hf  Hf32  1  0.90824346  0.30365174  0.69451705  1
  Hf  Hf33  1  0.19181788  0.60785179  -0.00012943  1
  Hf  Hf34  1  0.69323538  0.90106807  0.90101140  1
  Hf  Hf35  1  0.80661902  0.38949614  0.00859960  1
  Hf  Hf36  1  0.70051558  0.49662498  0.30386681  1
  Hf  Hf37  1  0.70180821  0.70966962  0.09965699  1
  Hf  Hf38  1  0.48561725  0.70778886  0.49830319  1
  Hf  Hf39  1  0.10583788  0.49563294  0.69489719  1
  Hf  Hf40  1  0.58982072  0.80155329  0.20123872  1
  Hf  Hf41  1  0.79817986  0.39927798  0.79912358  1
  Hf  Hf42  1  0.40152194  0.40269636  0.58730656  1
  Hf  Hf43  1  0.69803218  0.50179264  0.90596049  1
  Hf  Hf44  1  0.58437950  0.61425565  0.00383773  1
  Hf  Hf45  1  0.58724777  -0.00438692  0.00354910  1
  Hf  Hf46  1  0.08878232  0.30408652  0.50372981  1
  Hf  Hf47  1  0.91117147  0.29391366  0.90229448  1
  Hf  Hf48  1  0.80473006  0.79961632  0.80124115  1
  Hf  Hf49  1  0.90837523  0.10666646  0.09512894  1
  Zr  Zr50  1  0.69721686  0.30329135  0.68638422  1
  Zr  Zr51  1  0.41177939  0.40411033  0.79488318  1
  Zr  Zr52  1  0.70299687  0.10929669  0.29309280  1
  Zr  Zr53  1  0.58232531  0.79711797  0.81187948  1
  Zr  Zr54  1  0.59700487  0.80513690  0.39947920  1
  Zr  Zr55  1  0.80427991  0.59686851  0.40544901  1
  Zr  Zr56  1  0.70494049  0.91049049  0.29929219  1
  Zr  Zr57  1  0.51212414  0.29063368  0.91468374  1
  Zr  Zr58  1  0.20288018  0.80444311  0.59838707  1
  Zr  Zr59  1  0.18924384  0.61353608  0.20922045  1
  Zr  Zr60  1  0.30252110  0.09079189  0.29934711  1
  Zr  Zr61  1  0.01360545  0.80384205  0.39710618  1
  Zr  Zr62  1  0.80570144  0.59795308  0.79283648  1
  Zr  Zr63  1  0.90000892  0.90422791  0.49947496  1
  Zr  Zr64  1  0.82049470  0.80693441  -0.00841054  1
  Zr  Zr65  1  0.49912275  0.29327449  0.10956312  1
  Zr  Zr66  1  0.00205249  0.60284561  0.39194264  1
  Zr  Zr67  1  0.29020450  0.49354653  0.10662465  1
  Zr  Zr68  1  0.90377861  0.30074247  0.50271805  1
  Zr  Zr69  1  0.40656504  0.20871987  0.40894512  1
  Zr  Zr70  1  0.40450667  0.80304231  -0.00829629  1
  Zr  Zr71  1  0.30824868  0.09394751  0.50562517  1
  Zr  Zr72  1  0.70287274  0.89924901  0.09882260  1
  Zr  Zr73  1  0.09444318  0.10021199  0.49338751  1
  Zr  Zr74  1  0.91271542  0.70701259  0.09745018  1
  Zr  Zr75  1  0.29340369  0.30293790  0.70243728  1
  Zr  Zr76  1  0.69603846  0.70135262  0.90199397  1
  Zr  Zr77  1  0.09128457  0.70434910  0.69590145  1
  Zr  Zr78  1  0.80135009  0.19884052  0.80230119  1
  Zr  Zr79  1  0.50668599  0.29582269  0.68588186  1
  Zr  Zr80  1  0.90378539  0.29992002  0.31846255  1
  Zr  Zr81  1  0.91006630  0.49773767  0.90331939  1
  Zr  Zr82  1  -0.00932119  0.58880734  0.60062247  1
  Zr  Zr83  1  0.01023988  -0.00475896  -0.01450909  1
  Zr  Zr84  1  0.29170439  0.71315109  0.09711356  1
  Zr  Zr85  1  0.69889250  0.89810168  0.70030970  1
  Zr  Zr86  1  0.28932958  0.49620963  0.89259707  1
  Zr  Zr87  1  0.09815289  0.48981509  0.10204544  1
  Zr  Zr88  1  -0.00100186  0.20114351  0.20525369  1
  Zr  Zr89  1  0.59800983  0.00975726  0.40541673  1
  Zr  Zr90  1  0.40444114  0.40017650  0.40318072  1
  Zr  Zr91  1  0.40243227  0.60002998  0.79962136  1
  Zr  Zr92  1  0.20271953  0.20353195  0.40136192  1
  Zr  Zr93  1  0.31804928  0.89728251  0.50419635  1
  Zr  Zr94  1  0.90404079  0.89090363  0.69374728  1
  Zr  Zr95  1  0.21134222  0.39821118  0.40657395  1
  Zr  Zr96  1  0.80962319  0.39494296  0.19894007  1
  Zr  Zr97  1  0.39507401  0.60656384  0.20473943  1
  Zr  Zr98  1  0.49312509  0.70045789  0.68992066  1
  Zr  Zr99  1  0.69811696  0.28096696  0.10535577  1
  Ta  Ta100  1  0.09990197  0.70422865  0.89264918  1
  Ta  Ta101  1  0.10767623  0.50110233  0.50146435  1
  Ta  Ta102  1  0.90376732  0.09922334  0.49453818  1
  Ta  Ta103  1  0.01031887  0.60617357  -0.00098108  1
  Ta  Ta104  1  0.81179669  0.80148913  0.20759754  1
  Ta  Ta105  1  0.00554203  0.18944890  0.61015620  1
  Ta  Ta106  1  0.69585725  0.29787688  0.30187439  1
  Ta  Ta107  1  0.50000083  0.49847225  0.10709490  1
  Ta  Ta108  1  0.89905845  0.70449424  0.69454025  1
  Ta  Ta109  1  0.00829078  -0.00423433  0.79453730  1
  Ta  Ta110  1  0.59399078  0.59498343  0.79348534  1
  Ta  Ta111  1  0.19873073  0.80697186  0.79659584  1
  Ta  Ta112  1  0.19853818  0.60686827  0.79288249  1
  Ta  Ta113  1  0.19200968  0.18995174  -0.00429585  1
  Ta  Ta114  1  0.70105168  0.70200423  0.50326306  1
  Ta  Ta115  1  0.09904364  0.50165294  0.89199888  1
  Ta  Ta116  1  0.59780980  0.80492986  0.59020298  1
  Ta  Ta117  1  0.80942854  0.00757893  0.19846471  1
  Ta  Ta118  1  0.40203725  0.40220975  0.20694362  1
  Ta  Ta119  1  0.28930541  0.70403423  0.89493811  1
  Ta  Ta120  1  0.28699036  0.08696326  0.09854251  1
  Ta  Ta121  1  0.48804496  0.89903844  0.10337199  1
  Ta  Ta122  1  0.49130885  0.70441872  0.30556783  1
  Ta  Ta123  1  0.09480612  0.09075262  0.29813699  1
  Ta  Ta124  1  0.59590311  0.39838961  0.20645661  1
  Ta  Ta125  1  0.29364026  0.50120044  0.69501977  1
  Ta  Ta126  1  0.69758040  0.50194996  0.69434651  1
  Ta  Ta127  1  0.19604272  0.20012864  0.60422102  1
  Ta  Ta128  1  0.79798314  0.59423247  0.59733283  1
  Ta  Ta129  1  0.20119053  0.81054832  0.20610683  1
  Ta  Ta130  1  0.01355149  0.79862887  0.20525293  1
  Ta  Ta131  1  0.00379632  -0.00019729  0.60553381  1
  Ta  Ta132  1  0.69899737  0.70048636  0.69225383  1
  Ta  Ta133  1  0.48746816  0.90995146  0.30051883  1
  Ta  Ta134  1  0.58507665  0.00125984  0.80467843  1
  Ta  Ta135  1  0.59989173  0.20256801  0.40499619  1
  Ta  Ta136  1  0.60156685  0.40365130  0.01026755  1
  Ta  Ta137  1  0.30234309  0.30128805  0.29070080  1
  Ta  Ta138  1  0.49348493  0.10209081  0.29795805  1
  Ta  Ta139  1  0.00226780  0.40219066  0.79382678  1
  Ta  Ta140  1  0.90739440  0.90940553  0.29731048  1
  Ta  Ta141  1  0.59673191  0.39969464  0.40458749  1
  Ta  Ta142  1  0.79400963  0.19514946  0.40546213  1
  Ta  Ta143  1  0.10198476  0.08952038  0.10228942  1
  Ta  Ta144  1  0.39097311  0.80475085  0.20540103  1
  Ta  Ta145  1  0.49032970  0.09367053  0.90689727  1
  Ta  Ta146  1  0.59594689  0.59646930  0.40437982  1
  Ta  Ta147  1  0.80213036  0.00593715  0.59549199  1
  Ta  Ta148  1  0.70977493  0.90159756  0.50044601  1
  Ta  Ta149  1  0.29099591  0.09249585  0.89812131  1
  Ti  Ti150  1  0.91833816  0.70503195  0.89089218  1
  Ti  Ti151  1  0.49167983  0.09544576  0.69390799  1
  Ti  Ti152  1  0.30520055  0.90627819  0.69657489  1
  Ti  Ti153  1  0.20536672  0.39641018  0.59548683  1
  Ti  Ti154  1  0.59454382  0.41247539  0.58688383  1
  Ti  Ti155  1  0.39389552  0.59026355  0.59278971  1
  Ti  Ti156  1  0.81071437  -0.00285069  0.80429654  1
  Ti  Ti157  1  0.79877182  0.41304340  0.59740133  1
  Ti  Ti158  1  0.90659299  0.48741843  0.31024225  1
  Ti  Ti159  1  0.81104685  0.20173484  0.19947901  1
  Ti  Ti160  1  0.90934952  0.10571028  0.89245543  1
  Ti  Ti161  1  0.39873791  -0.00575659  0.81034101  1
  Ti  Ti162  1  0.39764081  0.19298976  0.19687184  1
  Ti  Ti163  1  0.19762655  0.81381170  -0.00755251  1
  Ti  Ti164  1  0.59015348  0.17114821  0.03050408  1
  Ti  Ti165  1  0.59724042  0.18802415  0.58336139  1
  Ti  Ti166  1  0.40220168  0.20273116  0.59322953  1
  Ti  Ti167  1  0.79046997  0.39990601  0.41029539  1
  Ti  Ti168  1  0.38795830  -0.00774872  0.00008351  1
  Ti  Ti169  1  0.18863778  0.19421639  0.79464174  1
  Ti  Ti170  1  0.10406878  0.49195224  0.30683312  1
  Ti  Ti171  1  0.91016042  0.48437413  0.49758180  1
  Ti  Ti172  1  0.10138155  0.10022950  0.89070429  1
  Ti  Ti173  1  0.09705139  0.30317822  0.30756040  1
  Ti  Ti174  1  0.18975833  0.39727885  -0.01062761  1
  Ti  Ti175  1  0.19426126  -0.01098066  0.80110523  1
  Ti  Ti176  1  0.90413746  0.09538977  0.30871960  1
  Ti  Ti177  1  0.38809710  -0.00759378  0.19631207  1
  Ti  Ti178  1  -0.00110102  0.39591827  0.20478958  1
  Ti  Ti179  1  0.28749208  0.70840826  0.31705871  1
  Ti  Ti180  1  0.29811636  0.69586148  0.68838388  1
  Ti  Ti181  1  0.28867730  0.49585391  0.29571412  1
  Ti  Ti182  1  -0.00094317  0.59689072  0.79510604  1
  Ti  Ti183  1  0.50078387  0.50120644  0.30072752  1
  Ti  Ti184  1  0.00960106  0.19802247  -0.00526920  1
  Ti  Ti185  1  0.10284595  0.90565295  0.29464206  1
  Ti  Ti186  1  0.00374889  -0.00393056  0.40034422  1
  Ti  Ti187  1  0.69515491  0.30200304  0.49958549  1
  Ti  Ti188  1  0.09827020  0.30193381  0.70106972  1
  Ti  Ti189  1  0.19984820  -0.00790847  -0.00714646  1
  Ti  Ti190  1  0.50395295  0.29445897  0.29684569  1
  Ti  Ti191  1  0.01559548  0.80594252  -0.00826833  1
  Ti  Ti192  1  0.91403965  0.49438614  0.09764620  1
  Ti  Ti193  1  0.09669725  0.30152505  0.89000997  1
  Ti  Ti194  1  0.69826402  0.29050890  0.91581095  1
  Ti  Ti195  1  0.10740436  0.90580970  0.10630302  1
  Ti  Ti196  1  0.39421909  0.80611154  0.39335954  1
  Ti  Ti197  1  0.69758969  0.70014668  0.30407326  1
  Ti  Ti198  1  0.90584981  0.09813136  0.70412577  1
  Ti  Ti199  1  0.50428495  0.50091261  0.90630644  1
  Mo  Mo200  1  0.29315888  0.90446389  0.89779530  1
  Mo  Mo201  1  0.29405717  0.90392972  0.09840027  1
  Mo  Mo202  1  0.10475155  0.89641814  0.89169244  1
  Mo  Mo203  1  0.00374825  -0.00022314  0.20546588  1
  Mo  Mo204  1  0.19006944  0.40129409  0.79626128  1
  Mo  Mo205  1  0.90968582  0.29718841  0.09354767  1
  Mo  Mo206  1  0.00633269  0.40088428  -0.00914700  1
  Mo  Mo207  1  0.30216242  0.69889981  0.49846244  1
  Mo  Mo208  1  0.01019320  0.40844472  0.40177476  1
  Mo  Mo209  1  0.00903448  0.19623940  0.79652969  1
  Mo  Mo210  1  0.51333968  0.29918885  0.50076694  1
  Mo  Mo211  1  0.19717484  -0.00414739  0.19857892  1
  Mo  Mo212  1  0.30204575  0.89677235  0.29924317  1
  Mo  Mo213  1  0.09846571  0.90088425  0.70191788  1
  Mo  Mo214  1  0.10147973  0.09954422  0.70612568  1
  Mo  Mo215  1  0.10912609  0.70906905  0.30291943  1
  Mo  Mo216  1  0.91024910  0.90166127  0.89076887  1
  Mo  Mo217  1  0.70599064  0.09936851  0.49814448  1
  Mo  Mo218  1  0.10064790  0.71980141  0.09189822  1
  Mo  Mo219  1  0.89707848  0.49714177  0.69698268  1
  Mo  Mo220  1  0.70066502  0.49792355  0.49917626  1
  Mo  Mo221  1  0.49301884  0.70760932  0.11103530  1
  Mo  Mo222  1  0.09462785  0.90019955  0.50411375  1
  Mo  Mo223  1  0.81051291  0.19678790  0.00109347  1
  Mo  Mo224  1  0.00266734  0.79997811  0.80080469  1
  Mo  Mo225  1  0.58919488  0.19865382  0.20836514  1
  Mo  Mo226  1  0.40527561  0.00581136  0.60163578  1
  Mo  Mo227  1  0.50220133  0.50007470  0.69223865  1
  Mo  Mo228  1  -0.00172192  0.19308194  0.40018329  1
  Mo  Mo229  1  0.49135317  0.90786717  0.90276790  1
  Mo  Mo230  1  0.50044024  0.50255295  0.49454764  1
  Mo  Mo231  1  0.29297517  0.29534492  0.51037807  1
  Mo  Mo232  1  0.21052044  0.59891332  0.59963940  1
  Mo  Mo233  1  0.49767647  0.90079592  0.49477342  1
  Mo  Mo234  1  0.00553365  0.39931251  0.60068660  1
  Mo  Mo235  1  0.20338860  0.59501123  0.40114821  1
  Mo  Mo236  1  0.49971044  0.10286399  0.49838173  1
  Mo  Mo237  1  0.58128509  0.80127661  0.00906336  1
  Mo  Mo238  1  0.78955719  0.79746911  0.59977701  1
  Mo  Mo239  1  0.40822884  -0.00155186  0.40021255  1
  Mo  Mo240  1  0.29365640  0.50381755  0.50692280  1
  Mo  Mo241  1  0.39742016  0.79893828  0.60218071  1
  Mo  Mo242  1  0.90718409  0.71186100  0.29901363  1
  Mo  Mo243  1  0.49207068  0.69432588  0.89349379  1
  Mo  Mo244  1  0.00966342  0.80605514  0.59947289  1
  Mo  Mo245  1  0.47227281  0.09142045  0.10521197  1
  Mo  Mo246  1  0.20402285  0.80333039  0.39734020  1
  Mo  Mo247  1  0.80761867  0.00528761  0.39836323  1
  Mo  Mo248  1  0.71862658  0.10191436  0.10123709  1
  Mo  Mo249  1  0.19603183  0.39247168  0.21314801  1
