# generated using pymatgen
data_HfZrTaTiMo
_symmetry_space_group_name_H-M   'P 1'
_cell_length_a   16.88746262
_cell_length_b   16.88658673
_cell_length_c   16.88741015
_cell_angle_alpha   89.98678094
_cell_angle_beta   89.99255485
_cell_angle_gamma   90.02659206
_symmetry_Int_Tables_number   1
_chemical_formula_structural   HfZrTaTiMo
_chemical_formula_sum   'Hf50 Zr50 Ta50 Ti50 Mo50'
_cell_volume   4815.80912230
_cell_formula_units_Z   50
loop_
 _symmetry_equiv_pos_site_id
 _symmetry_equiv_pos_as_xyz
  1  'x, y, z'
loop_
 _atom_site_type_symbol
 _atom_site_label
 _atom_site_symmetry_multiplicity
 _atom_site_fract_x
 _atom_site_fract_y
 _atom_site_fract_z
 _atom_site_occupancy
  Hf  Hf0  1  0.09068266  0.69332518  0.50265529  1
  Hf  Hf1  1  0.89382147  0.50180688  0.10103664  1
  Hf  Hf2  1  0.49020746  0.49933532  0.70344971  1
  Hf  Hf3  1  0.69091364  0.29382150  0.70996433  1
  Hf  Hf4  1  -0.00762978  0.00279523  0.80031995  1
  Hf  Hf5  1  0.31075785  0.69435596  0.50536937  1
  Hf  Hf6  1  0.69342090  0.29203629  0.49924398  1
  Hf  Hf7  1  0.60685586  0.79740595  -0.00740954  1
  Hf  Hf8  1  0.40044396  0.20218953  0.60381343  1
  Hf  Hf9  1  0.60108856  -0.00472276  0.60435367  1
  Hf  Hf10  1  0.40007017  0.58588489  0.19557497  1
  Hf  Hf11  1  0.10182136  0.30506535  0.70490241  1
  Hf  Hf12  1  0.70659150  0.91202483  0.89446995  1
  Hf  Hf13  1  0.19979312  0.59246709  0.40441771  1
  Hf  Hf14  1  0.90668665  0.10521652  0.09159966  1
  Hf  Hf15  1  0.40058128  0.39277348  0.40407045  1
  Hf  Hf16  1  0.49169881  0.29347875  0.08764660  1
  Hf  Hf17  1  0.39624897  0.60679406  0.80397044  1
  Hf  Hf18  1  0.80608204  0.39573274  0.79622574  1
  Hf  Hf19  1  0.69776144  0.48988726  0.90378086  1
  Hf  Hf20  1  0.00933786  0.39534978  0.39768487  1
  Hf  Hf21  1  0.89591137  0.29595781  0.08815482  1
  Hf  Hf22  1  0.79237584  -0.00369253  0.40651340  1
  Hf  Hf23  1  0.29211764  0.89934660  0.88950470  1
  Hf  Hf24  1  0.90480735  0.29605693  0.49953235  1
  Hf  Hf25  1  0.38931554  0.00265822  0.38281155  1
  Hf  Hf26  1  0.19296493  0.00064237  0.59906317  1
  Hf  Hf27  1  0.89223345  0.89884329  0.70530816  1
  Hf  Hf28  1  0.11571725  0.30180546  0.09448292  1
  Hf  Hf29  1  0.09741615  0.90105364  0.89361641  1
  Hf  Hf30  1  0.59827974  0.59237864  0.20257889  1
  Hf  Hf31  1  0.79677101  0.39127263  0.20128827  1
  Hf  Hf32  1  0.38392848  0.81249711  0.19625117  1
  Hf  Hf33  1  0.10199584  0.09564379  0.70712494  1
  Hf  Hf34  1  0.10053142  0.10867639  0.10027437  1
  Hf  Hf35  1  0.50755187  0.90506650  0.48783553  1
  Hf  Hf36  1  0.19842426  0.78964380  0.00404682  1
  Hf  Hf37  1  0.09656729  0.70422374  0.87449298  1
  Hf  Hf38  1  0.20280926  0.80228712  0.39642770  1
  Hf  Hf39  1  0.21483272  0.00522350  0.20653764  1
  Hf  Hf40  1  0.59001875  0.39497962  0.40435253  1
  Hf  Hf41  1  0.69136607  0.10110258  0.49469458  1
  Hf  Hf42  1  0.79761815  0.59686836  0.79794605  1
  Hf  Hf43  1  0.30052902  0.68996420  0.30144766  1
  Hf  Hf44  1  0.00535043  0.39837926  0.20224296  1
  Hf  Hf45  1  0.79965073  0.39819994  0.40230223  1
  Hf  Hf46  1  0.09325567  0.89615442  0.50052231  1
  Hf  Hf47  1  0.49909630  0.69975767  0.09822061  1
  Hf  Hf48  1  0.89706757  0.10563623  0.30475103  1
  Hf  Hf49  1  0.40562104  -0.00009390  0.60334940  1
  Zr  Zr50  1  0.89626026  0.91068037  0.10087649  1
  Zr  Zr51  1  0.00394855  0.20018806  0.60411670  1
  Zr  Zr52  1  0.79926250  0.79408462  -0.00243759  1
  Zr  Zr53  1  0.91147663  0.50436779  0.69811762  1
  Zr  Zr54  1  0.40942644  0.80215231  0.79861380  1
  Zr  Zr55  1  0.90135706  0.68781178  0.30437454  1
  Zr  Zr56  1  0.19774967  0.80392505  0.19287997  1
  Zr  Zr57  1  0.39393174  0.60139580  -0.00163475  1
  Zr  Zr58  1  0.00347804  0.79176257  0.19466293  1
  Zr  Zr59  1  0.80356436  0.20431814  0.60619872  1
  Zr  Zr60  1  0.21501230  0.00293901  0.00482456  1
  Zr  Zr61  1  0.29481742  0.10463963  0.49796159  1
  Zr  Zr62  1  0.01113863  0.41050521  -0.00427411  1
  Zr  Zr63  1  0.70322286  0.68397109  0.10105539  1
  Zr  Zr64  1  0.50607411  0.91059757  0.10469864  1
  Zr  Zr65  1  0.70101246  0.70023489  0.69667203  1
  Zr  Zr66  1  0.49832476  0.69696295  0.50187330  1
  Zr  Zr67  1  0.69711453  0.91437926  0.10214393  1
  Zr  Zr68  1  0.20624718  0.19792349  0.80654616  1
  Zr  Zr69  1  0.29474206  0.47789420  0.09484085  1
  Zr  Zr70  1  0.38845563  0.79878057  0.00112085  1
  Zr  Zr71  1  0.89997995  0.89353503  0.49798544  1
  Zr  Zr72  1  0.90794448  0.51392589  0.49708344  1
  Zr  Zr73  1  0.62006252  0.79785706  0.39658202  1
  Zr  Zr74  1  0.29113800  0.90198167  0.70095172  1
  Zr  Zr75  1  0.60191517  0.60129658  0.80177773  1
  Zr  Zr76  1  0.29150773  0.29888006  0.50024595  1
  Zr  Zr77  1  0.70172353  0.48679220  0.08908826  1
  Zr  Zr78  1  0.29911627  0.49334791  0.89283398  1
  Zr  Zr79  1  0.39649911  0.19660339  0.80738930  1
  Zr  Zr80  1  0.29280051  0.70352949  0.70070595  1
  Zr  Zr81  1  -0.00048063  0.79285278  0.00372758  1
  Zr  Zr82  1  0.19790812  0.00342966  0.39506848  1
  Zr  Zr83  1  0.70145450  0.50303881  0.50409473  1
  Zr  Zr84  1  0.50493387  0.90904380  0.29218802  1
  Zr  Zr85  1  0.09504466  0.10058959  0.91037340  1
  Zr  Zr86  1  0.40218887  0.20206749  0.39168574  1
  Zr  Zr87  1  0.69779052  0.29647700  0.91512480  1
  Zr  Zr88  1  0.70689533  0.69794267  0.50124009  1
  Zr  Zr89  1  0.59327897  0.40039866  0.60040966  1
  Zr  Zr90  1  0.78944607  0.78901448  0.21255055  1
  Zr  Zr91  1  0.69270063  0.91668713  0.29531210  1
  Zr  Zr92  1  0.08813430  0.91988857  0.09513903  1
  Zr  Zr93  1  0.01208475  0.20724079  0.21144590  1
  Zr  Zr94  1  0.49328078  0.69938054  0.30505465  1
  Zr  Zr95  1  0.90007294  0.90165038  0.30094033  1
  Zr  Zr96  1  0.00776815  0.60042433  -0.00427904  1
  Zr  Zr97  1  0.70183143  0.09841079  0.71171247  1
  Zr  Zr98  1  0.59340496  0.39544688  0.19436216  1
  Zr  Zr99  1  0.40446948  0.01060761  -0.00338506  1
  Ta  Ta100  1  0.30343253  0.50163412  0.50574750  1
  Ta  Ta101  1  0.90298440  0.70196054  0.88665556  1
  Ta  Ta102  1  0.89564938  0.68468954  0.10424483  1
  Ta  Ta103  1  0.30064512  0.31391897  0.70741099  1
  Ta  Ta104  1  0.69595920  0.29185041  0.30104527  1
  Ta  Ta105  1  0.69095666  0.10879907  0.29858940  1
  Ta  Ta106  1  0.90325335  0.09797059  0.50048913  1
  Ta  Ta107  1  0.19854290  0.39867588  0.39972842  1
  Ta  Ta108  1  0.09545737  0.90084848  0.30143023  1
  Ta  Ta109  1  0.69938966  0.10716463  0.90121752  1
  Ta  Ta110  1  0.89734674  0.29710718  0.30382387  1
  Ta  Ta111  1  0.89600466  0.09760759  0.70191114  1
  Ta  Ta112  1  0.90194842  0.50170223  0.29941392  1
  Ta  Ta113  1  0.21843489  0.20077361  0.00145474  1
  Ta  Ta114  1  -0.00697802  0.20533312  0.80129808  1
  Ta  Ta115  1  0.59236757  0.00096552  0.80539116  1
  Ta  Ta116  1  0.50591673  0.69935502  0.90068320  1
  Ta  Ta117  1  0.50478470  0.10355357  0.70588712  1
  Ta  Ta118  1  0.00478674  0.39928746  0.60058165  1
  Ta  Ta119  1  0.41100025  0.80848238  0.60242677  1
  Ta  Ta120  1  0.30644473  0.30961746  0.90987753  1
  Ta  Ta121  1  0.49768149  0.48964242  0.90689691  1
  Ta  Ta122  1  0.20209994  0.20319399  0.60939122  1
  Ta  Ta123  1  0.10336965  0.50150704  0.29914886  1
  Ta  Ta124  1  0.60033081  0.80496550  0.79799553  1
  Ta  Ta125  1  0.30020853  0.49353153  0.30291139  1
  Ta  Ta126  1  0.19603791  0.59476978  0.60394874  1
  Ta  Ta127  1  0.50040781  0.30421193  0.90135480  1
  Ta  Ta128  1  0.10155290  0.68951269  0.29832007  1
  Ta  Ta129  1  0.90895185  0.70049056  0.69882193  1
  Ta  Ta130  1  0.19348033  0.59697521  -0.01009227  1
  Ta  Ta131  1  0.69843994  0.11276112  0.09144016  1
  Ta  Ta132  1  0.40632785  0.00450820  0.80282592  1
  Ta  Ta133  1  0.50570378  0.10177643  0.49191869  1
  Ta  Ta134  1  0.90398270  0.29935779  0.90477455  1
  Ta  Ta135  1  0.49712207  0.29880615  0.71078345  1
  Ta  Ta136  1  0.29970247  0.49791985  0.69593615  1
  Ta  Ta137  1  0.40012685  0.39661588  0.59920098  1
  Ta  Ta138  1  0.59786929  0.59339355  0.39680490  1
  Ta  Ta139  1  0.00162684  0.79251248  0.39500709  1
  Ta  Ta140  1  0.80297504  0.60104047  -0.01442244  1
  Ta  Ta141  1  0.70064748  0.49721681  0.30107405  1
  Ta  Ta142  1  0.10436096  0.30084570  0.90345170  1
  Ta  Ta143  1  0.19582773  0.40520139  0.59974056  1
  Ta  Ta144  1  0.49410484  0.49593257  0.30386409  1
  Ta  Ta145  1  0.89843920  0.90053263  0.89744544  1
  Ta  Ta146  1  0.80340957  0.39879259  0.60850488  1
  Ta  Ta147  1  0.79732591  0.80328815  0.59852703  1
  Ta  Ta148  1  0.60046098  0.80985527  0.60664698  1
  Ta  Ta149  1  -0.00238704  0.00131648  0.60129646  1
  Ti  Ti150  1  0.19374361  0.79586768  0.60098008  1
  Ti  Ti151  1  0.90508569  0.50058598  0.89751633  1
  Ti  Ti152  1  0.89600065  0.10641416  0.90362401  1
  Ti  Ti153  1  0.39940368  0.39114551  0.20121633  1
  Ti  Ti154  1  0.50351626  0.90070882  0.90201787  1
  Ti  Ti155  1  0.19458755  0.40521658  0.80155720  1
  Ti  Ti156  1  0.29803652  0.09388314  0.70661394  1
  Ti  Ti157  1  0.28483628  0.68057745  0.10650427  1
  Ti  Ti158  1  0.79331405  0.60138390  0.39299193  1
  Ti  Ti159  1  0.79851124  0.19981314  0.39943204  1
  Ti  Ti160  1  0.11630894  0.50087308  0.10703113  1
  Ti  Ti161  1  0.80206107  0.59794570  0.60629231  1
  Ti  Ti162  1  0.50593562  0.10020048  0.29078071  1
  Ti  Ti163  1  0.19559139  0.20434270  0.37675774  1
  Ti  Ti164  1  0.09917344  0.10662083  0.49889997  1
  Ti  Ti165  1  0.50006266  0.69978425  0.69419063  1
  Ti  Ti166  1  0.00603356  0.01134555  0.21349524  1
  Ti  Ti167  1  0.30101276  0.89696821  0.50387210  1
  Ti  Ti168  1  0.00284405  0.40087771  0.80178495  1
  Ti  Ti169  1  0.31356239  0.10916121  0.10412300  1
  Ti  Ti170  1  0.50314524  0.29381392  0.29526067  1
  Ti  Ti171  1  0.00833397  0.59531080  0.19739997  1
  Ti  Ti172  1  0.59785254  0.40196791  0.79894957  1
  Ti  Ti173  1  0.10587972  0.29467183  0.49997660  1
  Ti  Ti174  1  0.59757050  0.01398771  0.00012440  1
  Ti  Ti175  1  0.00419728  0.00674186  0.40064830  1
  Ti  Ti176  1  0.79486895  0.79399788  0.80164749  1
  Ti  Ti177  1  0.01015980  0.19865371  0.39599937  1
  Ti  Ti178  1  0.80177403  0.01031380  -0.00496419  1
  Ti  Ti179  1  0.48713036  0.51262806  0.50250435  1
  Ti  Ti180  1  0.80915022  0.20277161  0.80323852  1
  Ti  Ti181  1  -0.00159951  0.79744001  0.60545364  1
  Ti  Ti182  1  0.59985514  0.59564535  0.60446015  1
  Ti  Ti183  1  0.09680888  0.50143830  0.50388224  1
  Ti  Ti184  1  0.70460760  0.90395470  0.70705941  1
  Ti  Ti185  1  0.39316128  0.20229587  0.20314236  1
  Ti  Ti186  1  0.39315228  0.80921690  0.39687879  1
  Ti  Ti187  1  0.79419746  0.20328072  0.19613737  1
  Ti  Ti188  1  0.60499924  0.78940170  0.20260272  1
  Ti  Ti189  1  0.09664620  0.50792178  0.70229347  1
  Ti  Ti190  1  0.59983236  0.20138778  0.19041334  1
  Ti  Ti191  1  0.58930703  0.20037561  0.60141006  1
  Ti  Ti192  1  0.19645988  0.59968331  0.79562550  1
  Ti  Ti193  1  0.79581311  0.01645315  0.19908545  1
  Ti  Ti194  1  0.09794149  0.88957216  0.70840373  1
  Ti  Ti195  1  0.90105803  0.69801592  0.50034429  1
  Ti  Ti196  1  0.50789627  0.11590619  0.90584237  1
  Ti  Ti197  1  0.79891605  -0.00274304  0.59804922  1
  Ti  Ti198  1  0.20480781  0.38554433  0.21364452  1
  Ti  Ti199  1  0.59655092  0.59494944  -0.00241325  1
  Mo  Mo200  1  0.21177603  0.20170957  0.19979524  1
  Mo  Mo201  1  0.00413532  0.20433751  -0.00834928  1
  Mo  Mo202  1  -0.00719977  0.80441801  0.79217806  1
  Mo  Mo203  1  0.10268123  0.50005045  0.88323445  1
  Mo  Mo204  1  0.79938302  0.00688625  0.80621531  1
  Mo  Mo205  1  -0.01403600  0.00432416  -0.00842567  1
  Mo  Mo206  1  0.79888162  0.58808220  0.20653610  1
  Mo  Mo207  1  0.10202525  0.10123794  0.30309998  1
  Mo  Mo208  1  0.20123504  0.58926158  0.20296895  1
  Mo  Mo209  1  0.30478394  0.10020215  0.89806168  1
  Mo  Mo210  1  0.49706375  0.49112960  0.09447848  1
  Mo  Mo211  1  0.30032381  0.11068031  0.29190668  1
  Mo  Mo212  1  -0.00104428  0.59862350  0.79615805  1
  Mo  Mo213  1  0.39816009  0.20041547  -0.00135335  1
  Mo  Mo214  1  0.90707258  0.30270650  0.70523212  1
  Mo  Mo215  1  0.59944632  0.02484911  0.19330708  1
  Mo  Mo216  1  0.69942681  0.69765438  0.89733945  1
  Mo  Mo217  1  0.40073310  0.01253679  0.19581044  1
  Mo  Mo218  1  0.09603150  0.69714220  0.69219964  1
  Mo  Mo219  1  0.59843180  0.20020041  0.00020478  1
  Mo  Mo220  1  0.39928791  0.58789222  0.39969823  1
  Mo  Mo221  1  0.00511646  0.60292471  0.60080411  1
  Mo  Mo222  1  0.70133106  0.49327979  0.69695961  1
  Mo  Mo223  1  0.00481911  0.59550392  0.39767957  1
  Mo  Mo224  1  0.70160406  0.89926636  0.50889657  1
  Mo  Mo225  1  0.59380105  0.20231541  0.39091228  1
  Mo  Mo226  1  0.80967441  0.40243840  -0.00612282  1
  Mo  Mo227  1  0.30111936  0.30286686  0.29584846  1
  Mo  Mo228  1  0.30254831  0.29456627  0.10262567  1
  Mo  Mo229  1  0.19919570  0.39923618  -0.00741493  1
  Mo  Mo230  1  0.29863606  0.89849862  0.29851775  1
  Mo  Mo231  1  0.50479160  0.90534246  0.70499841  1
  Mo  Mo232  1  0.80071973  0.19937513  -0.00360789  1
  Mo  Mo233  1  0.49853962  0.29032165  0.51036051  1
  Mo  Mo234  1  0.40191681  0.39830621  0.79872393  1
  Mo  Mo235  1  0.20087797  -0.00233750  0.79732104  1
  Mo  Mo236  1  0.80761099  0.79615333  0.40829633  1
  Mo  Mo237  1  0.59051342  0.39843513  0.00001961  1
  Mo  Mo238  1  0.30618471  0.91220524  0.10047710  1
  Mo  Mo239  1  0.69882886  0.29092367  0.10154351  1
  Mo  Mo240  1  0.40003663  0.39747994  -0.00054205  1
  Mo  Mo241  1  0.59363389  0.19847837  0.80525465  1
  Mo  Mo242  1  0.28770667  0.69804840  0.89763615  1
  Mo  Mo243  1  0.50180769  0.10836938  0.10408790  1
  Mo  Mo244  1  0.10568671  0.30331263  0.30296110  1
  Mo  Mo245  1  0.39605033  0.59754002  0.60394872  1
  Mo  Mo246  1  0.19306476  0.79878475  0.79304232  1
  Mo  Mo247  1  0.70083738  0.68469446  0.30264664  1
  Mo  Mo248  1  0.59773504  0.01121143  0.39777307  1
  Mo  Mo249  1  0.10552813  0.67861881  0.10699165  1
