# generated using pymatgen
data_HfZrTaTiMo
_symmetry_space_group_name_H-M   'P 1'
_cell_length_a   16.88133335
_cell_length_b   16.88806314
_cell_length_c   16.89382756
_cell_angle_alpha   89.98819137
_cell_angle_beta   89.96824083
_cell_angle_gamma   90.03527399
_symmetry_Int_Tables_number   1
_chemical_formula_structural   HfZrTaTiMo
_chemical_formula_sum   'Hf50 Zr50 Ta50 Ti50 Mo50'
_cell_volume   4816.31062130
_cell_formula_units_Z   50
loop_
 _symmetry_equiv_pos_site_id
 _symmetry_equiv_pos_as_xyz
  1  'x, y, z'
loop_
 _atom_site_type_symbol
 _atom_site_label
 _atom_site_symmetry_multiplicity
 _atom_site_fract_x
 _atom_site_fract_y
 _atom_site_fract_z
 _atom_site_occupancy
  Hf  Hf0  1  0.39723699  0.20253789  0.20105101  1
  Hf  Hf1  1  0.50987215  0.30722187  0.90755886  1
  Hf  Hf2  1  0.90617052  0.09132079  0.70408025  1
  Hf  Hf3  1  0.50462060  0.30910928  0.10827285  1
  Hf  Hf4  1  0.30934793  0.08757225  0.29458557  1
  Hf  Hf5  1  0.49928107  0.91468946  0.28374364  1
  Hf  Hf6  1  0.00614497  0.80786325  0.19649174  1
  Hf  Hf7  1  0.39188007  -0.00683641  0.01737915  1
  Hf  Hf8  1  0.70504989  0.70245288  0.50041351  1
  Hf  Hf9  1  0.10222704  0.89662549  0.89961961  1
  Hf  Hf10  1  0.18703576  -0.00342165  0.19365897  1
  Hf  Hf11  1  0.90120826  0.50826899  0.50044681  1
  Hf  Hf12  1  0.50068968  0.50320838  0.89669995  1
  Hf  Hf13  1  0.40209926  0.79733489  0.39349344  1
  Hf  Hf14  1  0.20522302  0.60290858  0.20432460  1
  Hf  Hf15  1  0.40047045  0.79526845  0.00492410  1
  Hf  Hf16  1  0.40572484  0.20426539  0.80115809  1
  Hf  Hf17  1  0.60922374  0.59922790  0.60689020  1
  Hf  Hf18  1  0.10852854  0.89560078  0.49167408  1
  Hf  Hf19  1  0.70571105  0.68977711  0.09731323  1
  Hf  Hf20  1  0.70570211  0.30035366  0.10067966  1
  Hf  Hf21  1  0.88536295  0.91386998  0.09695322  1
  Hf  Hf22  1  0.19763738  0.60304513  0.79630795  1
  Hf  Hf23  1  0.09338221  0.30768073  0.49836835  1
  Hf  Hf24  1  -0.00157138  0.80058973  0.00291148  1
  Hf  Hf25  1  0.79818267  0.41348004  0.60793895  1
  Hf  Hf26  1  0.59694780  0.39922139  0.60406386  1
  Hf  Hf27  1  0.59735099  0.19846322  0.79862959  1
  Hf  Hf28  1  0.51027340  0.10010435  0.50545184  1
  Hf  Hf29  1  0.60156764  0.19413729  0.00435570  1
  Hf  Hf30  1  0.31160762  0.50828794  0.50196273  1
  Hf  Hf31  1  0.89505730  0.08869579  0.90329917  1
  Hf  Hf32  1  0.39727611  0.19422734  0.00792756  1
  Hf  Hf33  1  -0.00210625  -0.00159574  0.20922706  1
  Hf  Hf34  1  0.39868037  0.79081579  0.19589822  1
  Hf  Hf35  1  0.90259591  0.68622620  0.10037608  1
  Hf  Hf36  1  0.69923909  0.29793988  0.69901685  1
  Hf  Hf37  1  0.09920305  0.50588143  0.09579759  1
  Hf  Hf38  1  0.29286094  0.70218701  0.49594429  1
  Hf  Hf39  1  0.49838243  0.07917172  0.12451149  1
  Hf  Hf40  1  0.09927908  0.31105473  0.10240271  1
  Hf  Hf41  1  0.10195647  0.50889536  0.49772048  1
  Hf  Hf42  1  0.50018832  0.49668124  0.09635386  1
  Hf  Hf43  1  0.48615219  0.48341369  0.30286626  1
  Hf  Hf44  1  0.20006171  0.40743190  0.60534728  1
  Hf  Hf45  1  0.80167296  0.40169356  -0.01142307  1
  Hf  Hf46  1  0.60537714  0.19506348  0.20990018  1
  Hf  Hf47  1  0.69466516  0.90264558  0.29677026  1
  Hf  Hf48  1  0.28678979  0.89082609  0.29880832  1
  Hf  Hf49  1  0.59843665  0.59632757  0.39211313  1
  Zr  Zr50  1  0.40125751  0.20509956  0.60242791  1
  Zr  Zr51  1  0.00772941  0.19941473  -0.00308053  1
  Zr  Zr52  1  0.59702647  -0.00994936  0.00217075  1
  Zr  Zr53  1  0.19555876  0.19651107  0.59624527  1
  Zr  Zr54  1  -0.00253728  0.79737617  0.60453412  1
  Zr  Zr55  1  0.30473034  0.50187246  0.70246262  1
  Zr  Zr56  1  0.90190267  0.30245466  0.10991752  1
  Zr  Zr57  1  0.79956001  0.80695164  0.40355274  1
  Zr  Zr58  1  0.00085457  0.60386461  0.61662598  1
  Zr  Zr59  1  0.39555457  0.40013837  -0.00358471  1
  Zr  Zr60  1  -0.00824684  0.39865417  -0.01478292  1
  Zr  Zr61  1  0.89294483  0.10101345  0.09950493  1
  Zr  Zr62  1  0.80022582  0.79897622  -0.00976620  1
  Zr  Zr63  1  0.20815661  0.41026539  0.39339943  1
  Zr  Zr64  1  0.00158338  0.20442013  0.80732291  1
  Zr  Zr65  1  0.61202053  0.79676649  0.79412635  1
  Zr  Zr66  1  0.80238614  0.80155173  0.20135925  1
  Zr  Zr67  1  0.09254804  0.31111496  0.29611631  1
  Zr  Zr68  1  -0.00609570  0.80968100  0.38852045  1
  Zr  Zr69  1  0.50531475  0.30196310  0.49237630  1
  Zr  Zr70  1  0.70428787  0.30126186  0.31748488  1
  Zr  Zr71  1  0.40104336  0.00457151  0.79934791  1
  Zr  Zr72  1  0.90422038  0.50519776  0.10231511  1
  Zr  Zr73  1  0.49940639  0.69565205  0.50458640  1
  Zr  Zr74  1  0.20594144  0.20095014  0.39820568  1
  Zr  Zr75  1  0.90199536  0.30308329  0.69882650  1
  Zr  Zr76  1  0.69746518  0.09996629  0.69043444  1
  Zr  Zr77  1  0.10556827  0.50299953  0.90437358  1
  Zr  Zr78  1  0.20083713  0.00527355  0.59632546  1
  Zr  Zr79  1  0.60054036  0.79558021  0.00427482  1
  Zr  Zr80  1  0.19851620  0.19550137  0.19909417  1
  Zr  Zr81  1  0.39157062  0.80487235  0.59828242  1
  Zr  Zr82  1  0.29274193  0.10598287  0.89934639  1
  Zr  Zr83  1  0.49528636  0.89159913  0.89483342  1
  Zr  Zr84  1  0.10239250  0.70243126  0.49506751  1
  Zr  Zr85  1  0.71279249  0.08895623  0.10260386  1
  Zr  Zr86  1  0.90006152  0.30793089  0.49270533  1
  Zr  Zr87  1  0.19428520  0.00807789  0.01060389  1
  Zr  Zr88  1  0.79512183  -0.01314858  0.79173405  1
  Zr  Zr89  1  0.59632413  0.60077695  0.20267917  1
  Zr  Zr90  1  0.00777609  0.00095802  0.59933380  1
  Zr  Zr91  1  0.39641906  -0.00716540  0.41208780  1
  Zr  Zr92  1  0.80833625  0.19617801  0.59428475  1
  Zr  Zr93  1  -0.00643444  0.78955327  0.79757366  1
  Zr  Zr94  1  0.61551786  0.40825993  0.21049782  1
  Zr  Zr95  1  0.50019610  0.89961902  0.69730844  1
  Zr  Zr96  1  0.29246530  0.89380635  0.89957531  1
  Zr  Zr97  1  0.49064984  0.50778141  0.69668428  1
  Zr  Zr98  1  -0.00517716  0.19269400  0.39629251  1
  Zr  Zr99  1  0.10232908  0.30684787  0.70626343  1
  Ta  Ta100  1  0.19986407  0.79070304  0.79560131  1
  Ta  Ta101  1  0.20359568  0.41205261  0.20383142  1
  Ta  Ta102  1  0.80201393  0.59267258  0.79013589  1
  Ta  Ta103  1  0.60366842  0.59681442  -0.00831696  1
  Ta  Ta104  1  0.69786604  0.49706350  0.49452383  1
  Ta  Ta105  1  0.79604579  -0.01357401  0.58999361  1
  Ta  Ta106  1  0.00954285  0.18779191  0.59646698  1
  Ta  Ta107  1  0.49482295  0.69759902  0.70230054  1
  Ta  Ta108  1  0.10832009  0.70965674  0.29995727  1
  Ta  Ta109  1  0.00621788  -0.00228351  0.00572244  1
  Ta  Ta110  1  0.49862690  0.30249376  0.30707933  1
  Ta  Ta111  1  0.39544633  0.60268437  0.20098016  1
  Ta  Ta112  1  0.39470910  -0.00095546  0.59904819  1
  Ta  Ta113  1  -0.00553016  0.59787062  0.79940150  1
  Ta  Ta114  1  0.00006149  0.19107340  0.20592720  1
  Ta  Ta115  1  0.50499644  0.09922548  0.69181205  1
  Ta  Ta116  1  0.39763349  0.60536696  0.38609200  1
  Ta  Ta117  1  0.29207081  0.30819936  0.09866988  1
  Ta  Ta118  1  0.70483741  0.69066317  0.89422119  1
  Ta  Ta119  1  0.70389612  0.10070980  0.49393966  1
  Ta  Ta120  1  0.29901215  0.50149963  0.09724253  1
  Ta  Ta121  1  0.29671746  0.30077308  0.70900527  1
  Ta  Ta122  1  0.89845472  0.69524217  0.29671505  1
  Ta  Ta123  1  0.10122495  0.90149987  0.70888153  1
  Ta  Ta124  1  0.70331094  0.09611998  0.90104326  1
  Ta  Ta125  1  0.51005423  0.89871286  0.50177797  1
  Ta  Ta126  1  0.80571513  -0.00296183  0.39921823  1
  Ta  Ta127  1  0.29317433  0.90137850  0.70217310  1
  Ta  Ta128  1  0.50059657  0.69274014  0.89423357  1
  Ta  Ta129  1  0.80117004  0.60102945  0.39733435  1
  Ta  Ta130  1  0.39707419  0.60359738  -0.00054732  1
  Ta  Ta131  1  0.19962856  0.60934157  0.61257923  1
  Ta  Ta132  1  0.49496362  0.49907991  0.49738482  1
  Ta  Ta133  1  0.89548652  0.69932884  0.50156893  1
  Ta  Ta134  1  0.40041300  0.39374145  0.80019676  1
  Ta  Ta135  1  0.80786278  0.19727935  0.21939913  1
  Ta  Ta136  1  0.60875542  0.60013240  0.79476180  1
  Ta  Ta137  1  0.69992371  0.29843356  0.49845075  1
  Ta  Ta138  1  0.60380224  -0.00058773  0.79712767  1
  Ta  Ta139  1  0.10120673  0.69517332  0.90842230  1
  Ta  Ta140  1  -0.00089274  0.60548325  0.39171104  1
  Ta  Ta141  1  0.60208708  0.40382636  0.79471220  1
  Ta  Ta142  1  0.80421750  0.40548628  0.20936166  1
  Ta  Ta143  1  -0.00919820  0.41335961  0.79937274  1
  Ta  Ta144  1  0.69922833  0.70121915  0.30040825  1
  Ta  Ta145  1  0.61305814  0.80154011  0.60216893  1
  Ta  Ta146  1  0.79940110  0.20283180  0.80709006  1
  Ta  Ta147  1  0.90131685  0.09180024  0.49466381  1
  Ta  Ta148  1  0.29990792  0.10249780  0.70098589  1
  Ta  Ta149  1  0.28800511  0.30343947  0.90011506  1
  Ti  Ti150  1  0.01129509  0.60190656  0.20982709  1
  Ti  Ti151  1  0.90168079  0.30522381  0.30233367  1
  Ti  Ti152  1  0.39159028  0.60708906  0.80450209  1
  Ti  Ti153  1  0.79114613  0.59025184  0.21124219  1
  Ti  Ti154  1  0.19443367  0.19778981  0.00540818  1
  Ti  Ti155  1  0.89803026  0.68894495  0.89863932  1
  Ti  Ti156  1  0.11537056  0.31251560  0.89820246  1
  Ti  Ti157  1  0.19995478  0.79862989  0.61069930  1
  Ti  Ti158  1  0.70308055  0.89887898  0.89810852  1
  Ti  Ti159  1  0.28143040  0.88291594  0.10161879  1
  Ti  Ti160  1  0.69953149  0.49638497  0.89127182  1
  Ti  Ti161  1  0.38843864  0.78879877  0.79649863  1
  Ti  Ti162  1  0.19592228  0.00397328  0.79364036  1
  Ti  Ti163  1  0.90377820  0.50493370  0.29614418  1
  Ti  Ti164  1  0.69792722  0.90675053  0.10832327  1
  Ti  Ti165  1  0.39893457  0.20126232  0.39730234  1
  Ti  Ti166  1  0.70209894  0.49774226  0.09238237  1
  Ti  Ti167  1  0.09863813  0.09060210  0.31118934  1
  Ti  Ti168  1  0.09464337  0.09109977  0.89254039  1
  Ti  Ti169  1  0.89917230  0.89632542  0.69692828  1
  Ti  Ti170  1  0.20458522  0.60111474  0.38655518  1
  Ti  Ti171  1  0.49991057  0.09517458  0.30516396  1
  Ti  Ti172  1  0.70738390  0.09473284  0.30692047  1
  Ti  Ti173  1  0.69899801  0.30322796  0.89725334  1
  Ti  Ti174  1  0.60349516  0.19435714  0.39985431  1
  Ti  Ti175  1  0.00114633  0.41730085  0.38851032  1
  Ti  Ti176  1  0.40240463  0.39272235  0.60535230  1
  Ti  Ti177  1  0.29207217  0.69768459  0.90881870  1
  Ti  Ti178  1  0.80173933  0.59086390  -0.01312176  1
  Ti  Ti179  1  0.50150246  0.69150338  0.09505023  1
  Ti  Ti180  1  0.90147292  0.90140329  0.50036649  1
  Ti  Ti181  1  0.79923819  0.79002499  0.78557374  1
  Ti  Ti182  1  0.80271983  0.20710662  -0.00984741  1
  Ti  Ti183  1  0.90206765  0.90398219  0.89556094  1
  Ti  Ti184  1  0.60527188  -0.00249845  0.40368418  1
  Ti  Ti185  1  0.19976769  -0.00148489  0.40311384  1
  Ti  Ti186  1  0.79877018  0.60384329  0.60882450  1
  Ti  Ti187  1  0.00185448  0.41402531  0.61078983  1
  Ti  Ti188  1  0.59308798  0.79657982  0.19603862  1
  Ti  Ti189  1  0.19437265  0.19627020  0.79794765  1
  Ti  Ti190  1  0.50323964  0.09416977  0.90226907  1
  Ti  Ti191  1  0.80072234  0.41230104  0.39657396  1
  Ti  Ti192  1  0.29379138  0.49669488  0.90352676  1
  Ti  Ti193  1  0.30494590  0.30646642  0.49774460  1
  Ti  Ti194  1  0.60877630  -0.00858047  0.59779317  1
  Ti  Ti195  1  0.31511198  0.31692290  0.29801698  1
  Ti  Ti196  1  0.59490764  0.79870083  0.39713787  1
  Ti  Ti197  1  0.30227272  0.10184035  0.49896230  1
  Ti  Ti198  1  0.28897266  0.69799243  0.09415102  1
  Ti  Ti199  1  0.10686705  0.69947697  0.09247682  1
  Mo  Mo200  1  0.69340777  0.90225640  0.49555873  1
  Mo  Mo201  1  0.89054819  0.69935692  0.69966251  1
  Mo  Mo202  1  0.09755477  0.50385688  0.70429868  1
  Mo  Mo203  1  0.10228457  0.09726748  0.71365296  1
  Mo  Mo204  1  0.39913207  0.60768416  0.59458421  1
  Mo  Mo205  1  0.60409607  0.19872690  0.59371185  1
  Mo  Mo206  1  0.29473007  0.89754364  0.50380599  1
  Mo  Mo207  1  0.60079196  0.40301115  0.40802407  1
  Mo  Mo208  1  -0.00044399  -0.00181778  0.40132681  1
  Mo  Mo209  1  0.20218996  0.40147432  0.00234481  1
  Mo  Mo210  1  0.61275033  0.40864095  -0.00606728  1
  Mo  Mo211  1  0.19368924  0.79439989  0.19364349  1
  Mo  Mo212  1  0.79555430  -0.01013997  -0.01377524  1
  Mo  Mo213  1  0.70362946  0.89566313  0.69176526  1
  Mo  Mo214  1  0.09157828  0.10536010  0.10166650  1
  Mo  Mo215  1  0.20433438  0.40153130  0.80380233  1
  Mo  Mo216  1  0.89591648  0.90441197  0.30011072  1
  Mo  Mo217  1  0.80054745  0.00285751  0.21674047  1
  Mo  Mo218  1  0.20814025  0.60142259  0.00131470  1
  Mo  Mo219  1  0.80080527  0.19383617  0.40137000  1
  Mo  Mo220  1  0.60988297  0.00201112  0.20907534  1
  Mo  Mo221  1  0.70581892  0.69909633  0.69880589  1
  Mo  Mo222  1  0.39961494  0.39837609  0.40443348  1
  Mo  Mo223  1  0.49854627  0.30240967  0.70495364  1
  Mo  Mo224  1  0.10300719  0.90068531  0.30156502  1
  Mo  Mo225  1  0.89561147  0.50765299  0.89379854  1
  Mo  Mo226  1  -0.00126561  0.40878393  0.21108460  1
  Mo  Mo227  1  0.80308795  0.80428719  0.60096169  1
  Mo  Mo228  1  0.79654445  0.40030305  0.80094653  1
  Mo  Mo229  1  0.19613903  0.79296531  -0.00091279  1
  Mo  Mo230  1  0.50205125  0.70124582  0.29532074  1
  Mo  Mo231  1  0.70091893  0.49946368  0.70173078  1
  Mo  Mo232  1  0.29604039  0.11170456  0.10236841  1
  Mo  Mo233  1  0.37976049  -0.00959052  0.19200198  1
  Mo  Mo234  1  0.00190185  -0.00901881  0.80397438  1
  Mo  Mo235  1  0.39090842  0.40006775  0.19666540  1
  Mo  Mo236  1  0.30328738  0.50352422  0.29601630  1
  Mo  Mo237  1  0.10234071  0.70374156  0.70827479  1
  Mo  Mo238  1  0.20121529  0.79996692  0.39420992  1
  Mo  Mo239  1  -0.00097704  0.60779517  -0.00612020  1
  Mo  Mo240  1  0.70967065  0.50312096  0.30869737  1
  Mo  Mo241  1  0.09610796  0.89682258  0.09720981  1
  Mo  Mo242  1  0.89775404  0.50288180  0.70127462  1
  Mo  Mo243  1  0.89562589  0.09634262  0.30439655  1
  Mo  Mo244  1  0.88728932  0.30558437  0.89022334  1
  Mo  Mo245  1  0.50384397  0.89100288  0.10873494  1
  Mo  Mo246  1  0.30117922  0.70258022  0.70114160  1
  Mo  Mo247  1  0.29893256  0.69958779  0.29717742  1
  Mo  Mo248  1  0.09882105  0.51137054  0.29930013  1
  Mo  Mo249  1  0.09724393  0.09708484  0.48560153  1
