# generated using pymatgen
data_HfZrTaTiMo
_symmetry_space_group_name_H-M   'P 1'
_cell_length_a   16.87900857
_cell_length_b   16.89030382
_cell_length_c   16.88029248
_cell_angle_alpha   90.00569600
_cell_angle_beta   90.00045231
_cell_angle_gamma   90.00170554
_symmetry_Int_Tables_number   1
_chemical_formula_structural   HfZrTaTiMo
_chemical_formula_sum   'Hf50 Zr50 Ta50 Ti50 Mo50'
_cell_volume   4812.42927943
_cell_formula_units_Z   50
loop_
 _symmetry_equiv_pos_site_id
 _symmetry_equiv_pos_as_xyz
  1  'x, y, z'
loop_
 _atom_site_type_symbol
 _atom_site_label
 _atom_site_symmetry_multiplicity
 _atom_site_fract_x
 _atom_site_fract_y
 _atom_site_fract_z
 _atom_site_occupancy
  Hf  Hf0  1  0.30879128  0.49065284  0.89588047  1
  Hf  Hf1  1  0.79958095  0.39837302  0.19942130  1
  Hf  Hf2  1  0.19232905  0.59675337  0.60625300  1
  Hf  Hf3  1  0.10347475  0.10324772  0.30782806  1
  Hf  Hf4  1  0.00395651  0.79743688  0.80032023  1
  Hf  Hf5  1  0.68607799  0.30295568  0.90866107  1
  Hf  Hf6  1  0.30214454  0.49427544  0.50615303  1
  Hf  Hf7  1  0.20601208  -0.00098442  0.19722118  1
  Hf  Hf8  1  0.50175590  0.48799813  0.28871708  1
  Hf  Hf9  1  0.10080674  0.29592318  0.49822167  1
  Hf  Hf10  1  0.00069886  0.19551121  0.00167547  1
  Hf  Hf11  1  0.70129541  0.89731014  0.09863138  1
  Hf  Hf12  1  0.80699826  0.59768268  -0.00122382  1
  Hf  Hf13  1  0.50432839  0.30072277  0.29523300  1
  Hf  Hf14  1  0.70331259  0.90098080  0.89710285  1
  Hf  Hf15  1  0.40402717  0.80041123  0.80264725  1
  Hf  Hf16  1  0.49677441  0.90217837  0.09196651  1
  Hf  Hf17  1  0.90437902  0.09227430  0.69808974  1
  Hf  Hf18  1  0.08954682  0.50071784  0.29790180  1
  Hf  Hf19  1  0.68818614  0.50420550  0.89483771  1
  Hf  Hf20  1  0.59808318  0.60563212  0.19526903  1
  Hf  Hf21  1  0.30131480  0.70360621  0.50544946  1
  Hf  Hf22  1  0.60646034  0.59550503  0.59914897  1
  Hf  Hf23  1  0.69806412  0.30884107  0.69640679  1
  Hf  Hf24  1  0.08872330  0.70383609  0.31229815  1
  Hf  Hf25  1  0.30655081  0.30409511  0.09745846  1
  Hf  Hf26  1  0.89728181  0.89630381  0.90283355  1
  Hf  Hf27  1  0.89719136  0.09000244  0.11625986  1
  Hf  Hf28  1  0.21053830  0.00096530  0.40952561  1
  Hf  Hf29  1  0.00025336  0.40915409  0.00161975  1
  Hf  Hf30  1  -0.00059451  0.79527252  0.60998275  1
  Hf  Hf31  1  0.09578909  0.49812970  0.49597996  1
  Hf  Hf32  1  0.89781891  0.90352332  0.70405303  1
  Hf  Hf33  1  0.30610146  0.49519516  0.29281570  1
  Hf  Hf34  1  0.79579649  0.20050017  0.79875449  1
  Hf  Hf35  1  0.59178962  0.00587246  0.39835122  1
  Hf  Hf36  1  0.20347992  0.00683456  0.60224097  1
  Hf  Hf37  1  0.50364065  0.69708534  0.70219349  1
  Hf  Hf38  1  0.40287005  0.00808783  0.80513443  1
  Hf  Hf39  1  0.69525715  0.09626987  0.89859246  1
  Hf  Hf40  1  0.30543417  0.10682671  0.31339568  1
  Hf  Hf41  1  0.69148004  0.09035216  0.69768482  1
  Hf  Hf42  1  0.40471504  0.59940023  0.40108269  1
  Hf  Hf43  1  0.89823094  0.08865513  0.89983452  1
  Hf  Hf44  1  0.70667625  0.10198140  0.49074050  1
  Hf  Hf45  1  -0.00049910  0.20736185  0.21059892  1
  Hf  Hf46  1  0.59934307  0.18790006  0.19768326  1
  Hf  Hf47  1  0.70055222  0.30606184  0.49160587  1
  Hf  Hf48  1  0.50068409  0.30513651  0.09589622  1
  Hf  Hf49  1  0.69121853  0.49762285  0.09692983  1
  Zr  Zr50  1  0.80075653  0.59759194  0.39856634  1
  Zr  Zr51  1  0.40117508  0.00762958  0.20196442  1
  Zr  Zr52  1  0.49610397  0.50160596  0.71313268  1
  Zr  Zr53  1  0.09749941  0.69854492  0.49304878  1
  Zr  Zr54  1  0.40218603  0.38818828  0.40681581  1
  Zr  Zr55  1  0.00439691  0.20026730  0.79847157  1
  Zr  Zr56  1  0.70911103  0.91064436  0.30033531  1
  Zr  Zr57  1  0.60871432  0.80487690  0.59746326  1
  Zr  Zr58  1  0.80802762  0.80637603  0.39974737  1
  Zr  Zr59  1  0.19813375  0.60119363  0.00437451  1
  Zr  Zr60  1  0.10907362  0.30558818  0.89542037  1
  Zr  Zr61  1  0.79942553  -0.00327141  0.59471004  1
  Zr  Zr62  1  0.58665593  0.20298496  0.59277302  1
  Zr  Zr63  1  0.20475990  0.20351685  0.60542791  1
  Zr  Zr64  1  0.81259227  0.79623909  0.19224939  1
  Zr  Zr65  1  0.20186636  0.80065304  0.19028940  1
  Zr  Zr66  1  0.19379203  0.60092391  0.79859284  1
  Zr  Zr67  1  0.00372648  0.80898906  0.18530754  1
  Zr  Zr68  1  0.29022383  0.90267771  0.89524462  1
  Zr  Zr69  1  0.40131879  0.61431443  0.18924734  1
  Zr  Zr70  1  -0.00227353  0.00431526  0.40426866  1
  Zr  Zr71  1  0.20065886  0.38803454  0.39575863  1
  Zr  Zr72  1  0.00016177  0.60283732  0.18378439  1
  Zr  Zr73  1  0.50489269  0.71049460  0.08380868  1
  Zr  Zr74  1  0.89000179  0.49589370  0.69654254  1
  Zr  Zr75  1  0.09681944  0.89692977  0.50564817  1
  Zr  Zr76  1  0.59823060  0.60201334  0.40131874  1
  Zr  Zr77  1  0.50567056  0.89681270  0.90929801  1
  Zr  Zr78  1  0.88963641  0.30413375  0.50223517  1
  Zr  Zr79  1  0.19047844  0.39809653  0.19882592  1
  Zr  Zr80  1  0.30602460  0.70067974  0.70227487  1
  Zr  Zr81  1  0.31438086  0.49357438  0.09519907  1
  Zr  Zr82  1  0.50270581  0.91023585  0.68655440  1
  Zr  Zr83  1  0.30728667  0.49235678  0.70577124  1
  Zr  Zr84  1  0.57992907  0.20469675  0.79621157  1
  Zr  Zr85  1  0.20472266  0.19696343  0.00463809  1
  Zr  Zr86  1  0.70174634  0.70402816  0.29579112  1
  Zr  Zr87  1  0.69650280  0.48645403  0.30241368  1
  Zr  Zr88  1  0.19556096  0.60812884  0.18880096  1
  Zr  Zr89  1  0.59688406  0.00635423  0.19997508  1
  Zr  Zr90  1  0.29962125  0.90004976  0.69999927  1
  Zr  Zr91  1  0.68970959  0.30208506  0.10114613  1
  Zr  Zr92  1  0.89596574  0.30562467  0.69529917  1
  Zr  Zr93  1  0.79222274  0.19343230  0.01124218  1
  Zr  Zr94  1  0.09388205  0.70491957  0.90326018  1
  Zr  Zr95  1  0.29953290  0.70683781  0.30774983  1
  Zr  Zr96  1  0.31010626  0.88944371  0.50837332  1
  Zr  Zr97  1  0.89850740  0.30262832  0.90272906  1
  Zr  Zr98  1  0.90902643  0.69711590  0.49391863  1
  Zr  Zr99  1  0.09746437  0.09704784  0.10741144  1
  Ta  Ta100  1  0.89063816  0.10170888  0.30436043  1
  Ta  Ta101  1  0.90103840  0.49579094  0.30009910  1
  Ta  Ta102  1  0.50790410  0.69417258  0.89466273  1
  Ta  Ta103  1  -0.00032861  0.59518808  0.60876007  1
  Ta  Ta104  1  0.79511825  0.40534702  0.80723738  1
  Ta  Ta105  1  0.71440775  0.10536269  0.29896305  1
  Ta  Ta106  1  0.30597042  0.10805211  0.70639604  1
  Ta  Ta107  1  0.09722556  0.90440588  0.29895415  1
  Ta  Ta108  1  0.59322311  0.40001219  0.59963232  1
  Ta  Ta109  1  0.90477213  0.90233714  0.50230681  1
  Ta  Ta110  1  0.39709403  0.80448218  0.19609796  1
  Ta  Ta111  1  0.49269262  0.90021907  0.30413865  1
  Ta  Ta112  1  0.59456083  0.19774780  0.39626345  1
  Ta  Ta113  1  0.20297703  0.39272421  0.60894526  1
  Ta  Ta114  1  0.60227099  0.00952191  0.00573179  1
  Ta  Ta115  1  0.39858207  0.19480922  0.19653545  1
  Ta  Ta116  1  0.10899871  0.09301041  0.89536601  1
  Ta  Ta117  1  0.00252332  0.19837237  0.60068859  1
  Ta  Ta118  1  0.70041450  0.70440941  0.49963792  1
  Ta  Ta119  1  0.50416880  0.49154486  0.50015853  1
  Ta  Ta120  1  0.70146970  0.90432632  0.70549778  1
  Ta  Ta121  1  0.00784510  -0.01363964  0.00504371  1
  Ta  Ta122  1  0.50026466  0.70639050  0.50227175  1
  Ta  Ta123  1  0.00806426  -0.00482176  0.80585096  1
  Ta  Ta124  1  0.80289088  0.40688161  -0.00240763  1
  Ta  Ta125  1  0.88947220  0.29821845  0.30365067  1
  Ta  Ta126  1  0.40204864  0.37390772  0.80411341  1
  Ta  Ta127  1  0.09457246  0.30469211  0.10441786  1
  Ta  Ta128  1  0.10047812  0.10496223  0.50396847  1
  Ta  Ta129  1  0.79545652  0.60191423  0.59827408  1
  Ta  Ta130  1  -0.00346844  0.39188313  0.39408557  1
  Ta  Ta131  1  0.40809041  0.59738641  0.59560798  1
  Ta  Ta132  1  0.00767137  0.39904020  0.60163966  1
  Ta  Ta133  1  0.79910023  0.79672792  0.60222810  1
  Ta  Ta134  1  0.89959278  0.30191833  0.10599338  1
  Ta  Ta135  1  0.10390437  0.09721619  0.70443281  1
  Ta  Ta136  1  0.30641067  0.90537819  0.08977212  1
  Ta  Ta137  1  0.10713721  0.90431532  0.71013897  1
  Ta  Ta138  1  -0.00282925  0.20257592  0.40230597  1
  Ta  Ta139  1  0.59740401  0.80614453  0.40035717  1
  Ta  Ta140  1  0.19930964  -0.00097669  0.00196524  1
  Ta  Ta141  1  0.59378940  0.80368260  0.20223282  1
  Ta  Ta142  1  0.80639168  0.60268509  0.19196726  1
  Ta  Ta143  1  0.89829712  0.49285730  0.49952182  1
  Ta  Ta144  1  -0.00480950  0.59477959  0.80037046  1
  Ta  Ta145  1  0.69466511  0.70088896  0.89964411  1
  Ta  Ta146  1  0.19187854  0.80542011  0.00378757  1
  Ta  Ta147  1  0.39509601  0.19896244  -0.00739714  1
  Ta  Ta148  1  0.20304496  0.20500132  0.20515905  1
  Ta  Ta149  1  0.89387324  0.69307193  0.70298986  1
  Ti  Ti150  1  0.18813909  0.79113310  0.61673040  1
  Ti  Ti151  1  0.49177692  0.09773619  0.49989990  1
  Ti  Ti152  1  0.38966116  0.79557865  -0.00397723  1
  Ti  Ti153  1  0.10352670  0.49467604  0.89360746  1
  Ti  Ti154  1  0.09968193  0.48961590  0.70627432  1
  Ti  Ti155  1  0.90102310  0.10167886  0.50012653  1
  Ti  Ti156  1  0.70222987  0.69635153  0.70589886  1
  Ti  Ti157  1  0.40624017  0.38316283  0.60451602  1
  Ti  Ti158  1  0.30494153  0.28804063  0.50437440  1
  Ti  Ti159  1  0.49194832  0.10258829  0.69291249  1
  Ti  Ti160  1  0.49828899  0.10345024  0.90662654  1
  Ti  Ti161  1  0.79935767  -0.00146172  0.00922311  1
  Ti  Ti162  1  -0.00524513  0.40614330  0.80221318  1
  Ti  Ti163  1  0.39382096  0.01462381  0.59185681  1
  Ti  Ti164  1  0.91040747  0.69419716  0.30361092  1
  Ti  Ti165  1  0.59307387  0.59718146  -0.00458460  1
  Ti  Ti166  1  0.80245712  0.79616390  0.00004305  1
  Ti  Ti167  1  0.69704524  0.70277696  0.09119086  1
  Ti  Ti168  1  0.21331414  0.20779443  0.80097812  1
  Ti  Ti169  1  0.10323920  0.30455716  0.70615920  1
  Ti  Ti170  1  0.00064393  0.59129285  -0.00535488  1
  Ti  Ti171  1  0.40655295  0.80340958  0.40141339  1
  Ti  Ti172  1  0.79826493  0.79384801  0.79655386  1
  Ti  Ti173  1  0.89854037  0.69932238  0.89828358  1
  Ti  Ti174  1  0.19802989  0.40197508  0.00010252  1
  Ti  Ti175  1  0.29781833  0.70082753  0.89708570  1
  Ti  Ti176  1  0.79930629  0.59900905  0.80325548  1
  Ti  Ti177  1  0.30708472  0.90135268  0.30472948  1
  Ti  Ti178  1  0.59236301  0.00087167  0.80067081  1
  Ti  Ti179  1  0.69765985  0.49854872  0.70440725  1
  Ti  Ti180  1  0.30523116  0.29347333  0.29900457  1
  Ti  Ti181  1  0.60471996  0.80012439  0.79874882  1
  Ti  Ti182  1  0.19838726  0.80825881  0.39808362  1
  Ti  Ti183  1  0.20284775  0.59557029  0.39834500  1
  Ti  Ti184  1  0.79973613  0.19669692  0.60141725  1
  Ti  Ti185  1  0.40328998  0.60219943  -0.00984732  1
  Ti  Ti186  1  0.70072691  0.90529702  0.49795706  1
  Ti  Ti187  1  0.40779285  0.19819530  0.40932174  1
  Ti  Ti188  1  0.49588132  0.90395003  0.50142456  1
  Ti  Ti189  1  0.49146271  0.10289767  0.08648440  1
  Ti  Ti190  1  0.58850391  0.39806985  0.80164329  1
  Ti  Ti191  1  0.90369510  0.91615266  0.29203044  1
  Ti  Ti192  1  0.90185220  0.49556702  0.10413396  1
  Ti  Ti193  1  0.49919448  0.30060326  0.91374777  1
  Ti  Ti194  1  0.91142717  0.70573820  0.08093020  1
  Ti  Ti195  1  0.70303099  0.49013434  0.49802540  1
  Ti  Ti196  1  0.49976283  0.71019396  0.30149412  1
  Ti  Ti197  1  0.49916533  0.48612429  0.09234524  1
  Ti  Ti198  1  0.29948493  0.10101830  0.89967868  1
  Ti  Ti199  1  0.70125235  0.29668910  0.30474630  1
  Mo  Mo200  1  0.80161783  -0.00077399  0.20045203  1
  Mo  Mo201  1  0.30425939  0.29620218  0.70415908  1
  Mo  Mo202  1  0.10373262  0.90286511  0.09865917  1
  Mo  Mo203  1  0.79820977  0.20266702  0.20581851  1
  Mo  Mo204  1  0.49675059  0.50004303  0.90091576  1
  Mo  Mo205  1  0.79855747  -0.00352896  0.80073837  1
  Mo  Mo206  1  0.09401398  0.49609743  0.09314866  1
  Mo  Mo207  1  0.59274011  0.41090772  -0.00562267  1
  Mo  Mo208  1  0.40406797  0.60752902  0.81225240  1
  Mo  Mo209  1  0.59043985  0.18837504  0.00030069  1
  Mo  Mo210  1  0.20159724  0.00951576  0.80090812  1
  Mo  Mo211  1  0.09471373  0.29612542  0.30184218  1
  Mo  Mo212  1  0.00584518  0.00476057  0.60493754  1
  Mo  Mo213  1  0.30359068  0.71083955  0.08502650  1
  Mo  Mo214  1  0.78744327  0.41338840  0.60068542  1
  Mo  Mo215  1  0.19655366  0.80219245  0.80345536  1
  Mo  Mo216  1  0.09499142  0.70225954  0.08608858  1
  Mo  Mo217  1  0.39520518  0.01066165  -0.00204518  1
  Mo  Mo218  1  0.80654775  0.00198864  0.40126138  1
  Mo  Mo219  1  0.60558892  0.60478634  0.79869856  1
  Mo  Mo220  1  0.60135064  0.39327659  0.40388979  1
  Mo  Mo221  1  0.60061707  0.39759736  0.19810037  1
  Mo  Mo222  1  0.10185872  0.90277634  0.90118963  1
  Mo  Mo223  1  0.41060865  0.79235396  0.59735759  1
  Mo  Mo224  1  0.30286758  0.10255282  0.09871550  1
  Mo  Mo225  1  -0.00275754  0.81371300  0.38951085  1
  Mo  Mo226  1  0.30600407  0.10839357  0.50365682  1
  Mo  Mo227  1  0.30225258  0.29793839  0.90099196  1
  Mo  Mo228  1  0.39966786  0.19914591  0.60122614  1
  Mo  Mo229  1  -0.00691630  0.39738074  0.19929598  1
  Mo  Mo230  1  0.40043891  0.38960143  0.19701572  1
  Mo  Mo231  1  -0.00140465  0.80397396  -0.00274873  1
  Mo  Mo232  1  0.49702862  0.30218451  0.69637978  1
  Mo  Mo233  1  0.39892941  0.19788267  0.80404487  1
  Mo  Mo234  1  0.59569187  0.00150354  0.59231355  1
  Mo  Mo235  1  0.20407271  0.39530591  0.79579683  1
  Mo  Mo236  1  0.50183449  0.29958847  0.49902858  1
  Mo  Mo237  1  0.49490392  0.10606742  0.30930922  1
  Mo  Mo238  1  0.40376895  -0.00196014  0.40575871  1
  Mo  Mo239  1  0.80177322  0.19942549  0.39939168  1
  Mo  Mo240  1  0.20405246  0.20016826  0.40215978  1
  Mo  Mo241  1  0.09153122  0.69576182  0.70420425  1
  Mo  Mo242  1  0.80230732  0.39887206  0.39791499  1
  Mo  Mo243  1  0.61031396  0.79874332  -0.00247947  1
  Mo  Mo244  1  0.70330735  0.09433462  0.10272730  1
  Mo  Mo245  1  0.89894113  0.90253314  0.09306747  1
  Mo  Mo246  1  0.00015432  -0.00138744  0.20380869  1
  Mo  Mo247  1  0.40420552  0.39659405  -0.00944255  1
  Mo  Mo248  1  -0.00500454  0.58421264  0.40069237  1
  Mo  Mo249  1  0.89681045  0.50376269  0.89568951  1
