# generated using pymatgen
data_HfZrTaTiMo
_symmetry_space_group_name_H-M   'P 1'
_cell_length_a   16.89385208
_cell_length_b   16.87764204
_cell_length_c   16.88030664
_cell_angle_alpha   90.04496528
_cell_angle_beta   90.02292587
_cell_angle_gamma   89.95255056
_symmetry_Int_Tables_number   1
_chemical_formula_structural   HfZrTaTiMo
_chemical_formula_sum   'Hf50 Zr50 Ta50 Ti50 Mo50'
_cell_volume   4813.05110719
_cell_formula_units_Z   50
loop_
 _symmetry_equiv_pos_site_id
 _symmetry_equiv_pos_as_xyz
  1  'x, y, z'
loop_
 _atom_site_type_symbol
 _atom_site_label
 _atom_site_symmetry_multiplicity
 _atom_site_fract_x
 _atom_site_fract_y
 _atom_site_fract_z
 _atom_site_occupancy
  Hf  Hf0  1  0.28918799  0.31135182  0.90212652  1
  Hf  Hf1  1  0.70526531  0.88450489  0.70951167  1
  Hf  Hf2  1  0.80432447  0.00650414  0.18500568  1
  Hf  Hf3  1  0.00858801  0.40865794  0.59577643  1
  Hf  Hf4  1  0.50472354  0.09896635  0.70853955  1
  Hf  Hf5  1  0.71333068  0.67741524  0.50090449  1
  Hf  Hf6  1  0.61596698  -0.00027868  0.61018715  1
  Hf  Hf7  1  0.30076674  0.69476510  0.50047283  1
  Hf  Hf8  1  0.69931823  0.52172431  0.30292682  1
  Hf  Hf9  1  0.59285977  0.21276123  0.39399352  1
  Hf  Hf10  1  0.39425180  -0.00111828  0.60529508  1
  Hf  Hf11  1  0.69922040  0.29352540  0.50567679  1
  Hf  Hf12  1  0.69377945  0.29945742  0.09298066  1
  Hf  Hf13  1  0.30246224  0.89508696  0.29475338  1
  Hf  Hf14  1  0.29533779  0.09824933  0.50092057  1
  Hf  Hf15  1  0.39428203  0.20342567  0.61303322  1
  Hf  Hf16  1  0.01336606  0.58931914  0.40438018  1
  Hf  Hf17  1  0.90122587  0.30122426  0.30044639  1
  Hf  Hf18  1  0.80059506  -0.00127524  0.80331296  1
  Hf  Hf19  1  0.40311975  0.58596563  0.59583633  1
  Hf  Hf20  1  0.60451386  -0.00329587  -0.00164789  1
  Hf  Hf21  1  0.40662819  0.79360808  0.40127865  1
  Hf  Hf22  1  0.38873595  0.21267708  0.19682112  1
  Hf  Hf23  1  0.00722996  0.80644001  0.19369694  1
  Hf  Hf24  1  0.80296394  0.80133464  0.41121268  1
  Hf  Hf25  1  0.79897897  0.18992014  -0.00247097  1
  Hf  Hf26  1  0.00355727  0.19437658  0.20257282  1
  Hf  Hf27  1  0.38841935  0.41256650  0.41271085  1
  Hf  Hf28  1  0.89997789  0.50755604  0.71121847  1
  Hf  Hf29  1  0.69778490  0.09469734  0.29902455  1
  Hf  Hf30  1  0.19223288  -0.00345285  0.19945126  1
  Hf  Hf31  1  0.81408538  0.80986848  -0.00694419  1
  Hf  Hf32  1  0.69187955  0.49777353  0.89794196  1
  Hf  Hf33  1  -0.00236777  0.19519309  -0.00474361  1
  Hf  Hf34  1  0.59205737  0.20438352  0.19869492  1
  Hf  Hf35  1  0.90259691  0.69785730  0.30303804  1
  Hf  Hf36  1  0.81344660  0.79954422  0.60170237  1
  Hf  Hf37  1  0.10287637  0.90527889  0.50202364  1
  Hf  Hf38  1  0.09374143  0.90929255  0.90572459  1
  Hf  Hf39  1  -0.00872073  0.80560246  0.79386840  1
  Hf  Hf40  1  0.90082893  0.29771608  0.70452296  1
  Hf  Hf41  1  0.20223928  0.80065450  0.39415145  1
  Hf  Hf42  1  0.39233065  0.21596378  0.40132151  1
  Hf  Hf43  1  0.19771207  0.79718340  0.61186652  1
  Hf  Hf44  1  0.49324508  0.50064400  0.08961782  1
  Hf  Hf45  1  0.01240940  0.19834842  0.40048949  1
  Hf  Hf46  1  0.90254245  0.49793908  0.30305526  1
  Hf  Hf47  1  0.69618373  0.89139206  0.09662479  1
  Hf  Hf48  1  0.80120602  0.40135784  0.00309199  1
  Hf  Hf49  1  0.09668526  0.09305321  0.09224904  1
  Zr  Zr50  1  0.19098317  0.58788407  0.60920909  1
  Zr  Zr51  1  0.59605674  0.41031085  0.40676164  1
  Zr  Zr52  1  0.19284019  0.20750337  0.39646856  1
  Zr  Zr53  1  0.59968147  0.79197542  0.40320953  1
  Zr  Zr54  1  0.69940035  0.09041527  0.49033679  1
  Zr  Zr55  1  0.49647030  0.09385974  0.30470503  1
  Zr  Zr56  1  0.70122143  0.50555246  0.69704969  1
  Zr  Zr57  1  0.00333051  0.00692997  0.60422448  1
  Zr  Zr58  1  -0.00311442  0.79748488  0.60532154  1
  Zr  Zr59  1  0.39741294  -0.00676891  0.81190520  1
  Zr  Zr60  1  0.90358731  0.30345929  0.89701472  1
  Zr  Zr61  1  0.19721192  0.39696757  0.39956833  1
  Zr  Zr62  1  0.49824535  0.31580014  0.52835012  1
  Zr  Zr63  1  0.50751637  0.47448599  0.69221870  1
  Zr  Zr64  1  0.51420722  0.90697086  0.49828896  1
  Zr  Zr65  1  0.10150578  0.70006056  0.49774067  1
  Zr  Zr66  1  0.00521751  0.39615916  0.19561384  1
  Zr  Zr67  1  0.68997599  0.30677436  0.70318899  1
  Zr  Zr68  1  0.48825306  0.69182399  0.89824361  1
  Zr  Zr69  1  0.69238920  0.50892704  0.10099447  1
  Zr  Zr70  1  0.50609094  0.89344454  0.70622768  1
  Zr  Zr71  1  0.89894016  0.29395290  0.50033217  1
  Zr  Zr72  1  0.30044019  0.09694406  0.29845080  1
  Zr  Zr73  1  0.50196078  0.10417866  0.90956523  1
  Zr  Zr74  1  0.50246832  0.10089182  0.49933665  1
  Zr  Zr75  1  0.00966106  0.59875649  0.19537569  1
  Zr  Zr76  1  0.69884749  0.90464510  0.30362728  1
  Zr  Zr77  1  0.90039415  0.90633097  0.30275559  1
  Zr  Zr78  1  0.90277947  0.50259421  0.89488740  1
  Zr  Zr79  1  0.30481338  0.68549286  0.71706599  1
  Zr  Zr80  1  0.69880348  0.70239597  0.09792148  1
  Zr  Zr81  1  0.21069905  0.58540947  0.39562725  1
  Zr  Zr82  1  0.79287239  0.40582369  0.40099328  1
  Zr  Zr83  1  0.20439125  0.60543947  -0.01253668  1
  Zr  Zr84  1  0.49338314  0.50988990  0.29147657  1
  Zr  Zr85  1  0.69959840  0.69967349  0.29113974  1
  Zr  Zr86  1  0.70082164  0.69467815  0.70245145  1
  Zr  Zr87  1  0.39758585  0.20479613  0.80309640  1
  Zr  Zr88  1  0.10835482  0.30429025  0.08959345  1
  Zr  Zr89  1  0.01057061  0.19859342  0.59844826  1
  Zr  Zr90  1  0.89585217  0.68905730  0.88935521  1
  Zr  Zr91  1  0.19749697  0.79360569  0.80988793  1
  Zr  Zr92  1  0.00352614  0.80095555  -0.00410026  1
  Zr  Zr93  1  0.39133366  0.21245871  0.00511277  1
  Zr  Zr94  1  0.20429545  0.59882294  0.19624045  1
  Zr  Zr95  1  0.49475809  0.10046494  0.09744353  1
  Zr  Zr96  1  0.69947565  0.70147306  0.89717210  1
  Zr  Zr97  1  0.80345773  0.40790939  0.59464121  1
  Zr  Zr98  1  0.40286839  0.79714640  0.60239764  1
  Zr  Zr99  1  0.60031193  0.40197298  0.20221719  1
  Ta  Ta100  1  0.10584546  0.30121613  0.70938906  1
  Ta  Ta101  1  0.80290693  0.19919125  0.19629535  1
  Ta  Ta102  1  0.80103688  0.40215052  0.19632148  1
  Ta  Ta103  1  0.89382420  0.09851806  0.49689850  1
  Ta  Ta104  1  0.19505030  0.19802409  0.60593072  1
  Ta  Ta105  1  0.30337604  0.49034513  0.08586677  1
  Ta  Ta106  1  0.48438169  0.31636017  0.29368091  1
  Ta  Ta107  1  0.29446184  0.09619998  0.09704076  1
  Ta  Ta108  1  0.79863029  0.19759607  0.39299430  1
  Ta  Ta109  1  0.28704175  0.30529312  0.70746980  1
  Ta  Ta110  1  0.58857542  0.59320401  0.79918809  1
  Ta  Ta111  1  0.30843995  0.69977749  0.29017241  1
  Ta  Ta112  1  0.19790618  -0.00363077  0.00040518  1
  Ta  Ta113  1  0.30149588  0.70668882  0.09341110  1
  Ta  Ta114  1  0.61142990  0.00251757  0.80870110  1
  Ta  Ta115  1  0.80334713  0.00245355  -0.00479701  1
  Ta  Ta116  1  0.19692206  0.00353982  0.80733012  1
  Ta  Ta117  1  0.29289895  0.90325990  0.70810514  1
  Ta  Ta118  1  0.89789878  0.10340336  0.70354544  1
  Ta  Ta119  1  0.40012965  -0.00992936  0.19185709  1
  Ta  Ta120  1  0.39526912  0.80102049  0.80659913  1
  Ta  Ta121  1  0.89698347  0.09773664  0.30303788  1
  Ta  Ta122  1  0.00331519  0.60045590  0.60587664  1
  Ta  Ta123  1  0.89887497  0.29942210  0.09918959  1
  Ta  Ta124  1  0.29248080  0.30493337  0.51785896  1
  Ta  Ta125  1  0.39588921  0.80200636  -0.00299497  1
  Ta  Ta126  1  0.39604086  0.60456086  0.18589649  1
  Ta  Ta127  1  0.58352734  0.80305213  0.19317341  1
  Ta  Ta128  1  0.29154473  0.09894065  0.90617939  1
  Ta  Ta129  1  0.59165839  -0.00759991  0.19419543  1
  Ta  Ta130  1  0.29482090  0.89504051  0.09602929  1
  Ta  Ta131  1  0.11124571  0.49636001  0.08901839  1
  Ta  Ta132  1  0.79516342  0.19307192  0.80514055  1
  Ta  Ta133  1  0.10736389  0.70450927  0.09157118  1
  Ta  Ta134  1  0.10493603  0.30073805  0.89387713  1
  Ta  Ta135  1  0.80238030  -0.00335873  0.60473094  1
  Ta  Ta136  1  0.90577394  0.69521955  0.09536932  1
  Ta  Ta137  1  0.59168251  0.60286356  -0.00435386  1
  Ta  Ta138  1  0.40116449  0.39567022  0.79854533  1
  Ta  Ta139  1  0.39688114  -0.01043341  0.40100646  1
  Ta  Ta140  1  0.60727923  0.19771073  0.80697248  1
  Ta  Ta141  1  0.90157052  0.91175553  0.49751082  1
  Ta  Ta142  1  0.81228618  0.59750551  0.19403433  1
  Ta  Ta143  1  0.19845896  0.20668477  0.20196309  1
  Ta  Ta144  1  0.30948425  0.50676374  0.89385352  1
  Ta  Ta145  1  0.00889198  0.59712497  -0.00272425  1
  Ta  Ta146  1  0.00442142  0.19410987  0.80243682  1
  Ta  Ta147  1  0.10234396  0.90716430  0.70673612  1
  Ta  Ta148  1  0.00721189  0.01083917  0.39990431  1
  Ta  Ta149  1  0.50861955  0.30941610  0.90361974  1
  Ti  Ti150  1  0.79323076  0.18749385  0.60877727  1
  Ti  Ti151  1  0.19256791  0.40390091  0.60232025  1
  Ti  Ti152  1  0.19276554  0.41651496  0.80234787  1
  Ti  Ti153  1  0.69946593  0.88982601  0.89891435  1
  Ti  Ti154  1  0.69044928  0.30093107  0.90582607  1
  Ti  Ti155  1  0.00190025  0.00295536  0.20088676  1
  Ti  Ti156  1  0.79403604  0.39573498  0.80376289  1
  Ti  Ti157  1  0.00660305  0.40487078  -0.00616013  1
  Ti  Ti158  1  0.49425290  0.49382256  0.90202127  1
  Ti  Ti159  1  0.40476280  0.80104448  0.19104689  1
  Ti  Ti160  1  0.10764377  0.48682251  0.28859776  1
  Ti  Ti161  1  0.19827161  0.00559231  0.60810074  1
  Ti  Ti162  1  0.49723023  0.70180777  0.09080530  1
  Ti  Ti163  1  0.59148469  0.79441160  0.80693315  1
  Ti  Ti164  1  0.01593275  0.39470869  0.40710395  1
  Ti  Ti165  1  0.30786026  0.48988013  0.27864989  1
  Ti  Ti166  1  0.19309017  0.00473948  0.39694103  1
  Ti  Ti167  1  0.01129688  0.40385212  0.79900830  1
  Ti  Ti168  1  0.19851771  0.19628414  -0.00256681  1
  Ti  Ti169  1  0.50394677  0.89345347  0.90798058  1
  Ti  Ti170  1  0.40098920  0.59825848  0.40316664  1
  Ti  Ti171  1  0.39437087  -0.00816985  0.00385336  1
  Ti  Ti172  1  -0.00213679  0.00374701  0.80003406  1
  Ti  Ti173  1  0.89486891  0.68762077  0.70826152  1
  Ti  Ti174  1  0.09674507  0.90138495  0.30258298  1
  Ti  Ti175  1  0.60148105  0.19657469  0.61213546  1
  Ti  Ti176  1  0.29161438  0.10096865  0.71195102  1
  Ti  Ti177  1  0.60378594  0.79021629  0.59089644  1
  Ti  Ti178  1  0.30072803  0.49403059  0.70729909  1
  Ti  Ti179  1  0.90608038  0.09221119  0.90019630  1
  Ti  Ti180  1  0.70294843  0.30115938  0.29532392  1
  Ti  Ti181  1  0.81212695  0.80131471  0.19197426  1
  Ti  Ti182  1  0.29438993  0.90182460  0.50351952  1
  Ti  Ti183  1  0.69212222  0.10318859  0.09683652  1
  Ti  Ti184  1  0.49985693  0.69374291  0.70220778  1
  Ti  Ti185  1  -0.00009283  0.80172142  0.40357516  1
  Ti  Ti186  1  0.10516042  0.10212117  0.71204280  1
  Ti  Ti187  1  0.58228284  0.60203981  0.41213636  1
  Ti  Ti188  1  0.29348339  0.89688327  0.90678923  1
  Ti  Ti189  1  0.50028543  0.90095784  0.29864849  1
  Ti  Ti190  1  0.90750161  0.49975690  0.09689309  1
  Ti  Ti191  1  0.80322760  0.59796112  0.00289968  1
  Ti  Ti192  1  0.89283764  0.51736152  0.49930057  1
  Ti  Ti193  1  0.19569096  0.80140302  0.19419298  1
  Ti  Ti194  1  0.49910872  0.31330711  0.08944466  1
  Ti  Ti195  1  0.09790132  0.69344985  0.89312392  1
  Ti  Ti196  1  0.91393220  0.91351481  0.09002476  1
  Ti  Ti197  1  0.59027511  0.59359958  0.59139808  1
  Ti  Ti198  1  0.10457283  0.70177356  0.29690054  1
  Ti  Ti199  1  0.49738165  0.69437395  0.28969585  1
  Mo  Mo200  1  0.61470128  0.40611743  0.59162580  1
  Mo  Mo201  1  0.19607580  0.19533502  0.80122838  1
  Mo  Mo202  1  0.09946929  0.49715818  0.50404529  1
  Mo  Mo203  1  0.09510698  0.69567685  0.70902646  1
  Mo  Mo204  1  0.49336252  0.89558310  0.09540473  1
  Mo  Mo205  1  0.20695655  0.39725699  0.19289590  1
  Mo  Mo206  1  0.39723645  0.40311335  -0.00804257  1
  Mo  Mo207  1  0.60157580  0.20551999  -0.00079496  1
  Mo  Mo208  1  0.29697098  0.49608550  0.51143309  1
  Mo  Mo209  1  0.78639273  0.59802983  0.79883815  1
  Mo  Mo210  1  0.50214687  0.29583567  0.71051727  1
  Mo  Mo211  1  0.70125485  0.10047748  0.90314558  1
  Mo  Mo212  1  0.39693422  0.60272726  -0.00259184  1
  Mo  Mo213  1  0.81459609  0.60334740  0.39637009  1
  Mo  Mo214  1  0.59627361  0.39599654  0.80657252  1
  Mo  Mo215  1  0.10155631  0.89961442  0.10008745  1
  Mo  Mo216  1  0.81686197  0.60431776  0.59997746  1
  Mo  Mo217  1  0.10176699  0.30235961  0.29252861  1
  Mo  Mo218  1  0.90034611  0.10028066  0.10257279  1
  Mo  Mo219  1  0.10694410  0.30089442  0.51378293  1
  Mo  Mo220  1  0.59793537  -0.00782616  0.39151679  1
  Mo  Mo221  1  0.10143071  0.10074062  0.89799074  1
  Mo  Mo222  1  0.29108000  0.30335815  0.09503122  1
  Mo  Mo223  1  0.09714721  0.09677741  0.29525681  1
  Mo  Mo224  1  0.30526618  0.69918342  0.90311697  1
  Mo  Mo225  1  0.37840112  0.39856361  0.61033588  1
  Mo  Mo226  1  0.90299580  0.91245568  0.70023616  1
  Mo  Mo227  1  0.29908974  0.31123644  0.28833687  1
  Mo  Mo228  1  0.69653386  0.50833494  0.49991520  1
  Mo  Mo229  1  -0.00338419  0.00348292  -0.00192260  1
  Mo  Mo230  1  0.90683444  0.69406681  0.49854200  1
  Mo  Mo231  1  0.58471947  0.61535948  0.18849094  1
  Mo  Mo232  1  0.58959487  0.80026088  -0.00249790  1
  Mo  Mo233  1  0.80398576  0.00205962  0.40472255  1
  Mo  Mo234  1  0.40468495  0.58730134  0.79610939  1
  Mo  Mo235  1  0.50088351  0.69468902  0.50541979  1
  Mo  Mo236  1  0.20171811  0.80162763  0.00031876  1
  Mo  Mo237  1  0.90049352  0.91105316  0.89777735  1
  Mo  Mo238  1  0.01827996  0.60118247  0.79684154  1
  Mo  Mo239  1  0.80665775  0.80296228  0.79898168  1
  Mo  Mo240  1  0.49759763  0.50162370  0.50160384  1
  Mo  Mo241  1  0.10225354  0.49706504  0.89871854  1
  Mo  Mo242  1  0.70438377  0.10348308  0.70676731  1
  Mo  Mo243  1  0.09780292  0.49755005  0.70730134  1
  Mo  Mo244  1  0.59605176  0.40389281  -0.00283183  1
  Mo  Mo245  1  0.19977966  0.40706923  -0.00944967  1
  Mo  Mo246  1  0.70866155  0.89639485  0.50888639  1
  Mo  Mo247  1  0.10848939  0.09587513  0.49930402  1
  Mo  Mo248  1  0.39501698  0.40048045  0.18644499  1
  Mo  Mo249  1  0.19987343  0.59318887  0.80258640  1
