# generated using pymatgen
data_HfZrTaTiMo
_symmetry_space_group_name_H-M   'P 1'
_cell_length_a   16.89497675
_cell_length_b   16.88476407
_cell_length_c   16.89853482
_cell_angle_alpha   89.96067695
_cell_angle_beta   89.98622153
_cell_angle_gamma   89.99046571
_symmetry_Int_Tables_number   1
_chemical_formula_structural   HfZrTaTiMo
_chemical_formula_sum   'Hf50 Zr50 Ta50 Ti50 Mo50'
_cell_volume   4820.60475931
_cell_formula_units_Z   50
loop_
 _symmetry_equiv_pos_site_id
 _symmetry_equiv_pos_as_xyz
  1  'x, y, z'
loop_
 _atom_site_type_symbol
 _atom_site_label
 _atom_site_symmetry_multiplicity
 _atom_site_fract_x
 _atom_site_fract_y
 _atom_site_fract_z
 _atom_site_occupancy
  Hf  Hf0  1  0.10442049  0.69315347  0.90792374  1
  Hf  Hf1  1  0.80861399  0.20159944  0.19843230  1
  Hf  Hf2  1  0.60121686  0.59759235  -0.00340671  1
  Hf  Hf3  1  0.90820915  0.90339151  0.09445419  1
  Hf  Hf4  1  0.80652490  -0.00553869  0.59087909  1
  Hf  Hf5  1  -0.00334255  0.19564987  -0.01509790  1
  Hf  Hf6  1  0.70305155  0.89841517  0.89949153  1
  Hf  Hf7  1  0.89990859  0.48963321  0.71677449  1
  Hf  Hf8  1  0.39092281  0.19958000  0.20388416  1
  Hf  Hf9  1  0.70165790  0.70179409  0.89813179  1
  Hf  Hf10  1  0.19731387  0.00030924  -0.00335949  1
  Hf  Hf11  1  0.80499392  0.19767215  0.80784938  1
  Hf  Hf12  1  0.40367661  0.40722091  0.79248625  1
  Hf  Hf13  1  0.71227512  0.31052285  0.71242309  1
  Hf  Hf14  1  0.60078354  0.41235716  0.61066533  1
  Hf  Hf15  1  0.09121532  0.50747546  0.50112773  1
  Hf  Hf16  1  0.29630865  0.90400705  0.71148168  1
  Hf  Hf17  1  0.38824384  0.19557391  0.39582828  1
  Hf  Hf18  1  0.70727308  0.10010856  0.30018074  1
  Hf  Hf19  1  0.60242190  0.19959526  -0.00439123  1
  Hf  Hf20  1  0.39519874  0.40901095  0.39342652  1
  Hf  Hf21  1  0.29555398  0.29795184  0.70742223  1
  Hf  Hf22  1  0.59631181  -0.00569421  0.00091388  1
  Hf  Hf23  1  0.40407213  0.80272566  0.39313497  1
  Hf  Hf24  1  0.59649920  0.60327965  0.19614486  1
  Hf  Hf25  1  0.60496519  -0.02278275  0.20876338  1
  Hf  Hf26  1  0.49914257  0.09222875  0.10902623  1
  Hf  Hf27  1  0.20159772  0.00351618  0.20473216  1
  Hf  Hf28  1  0.41071709  0.80394820  0.61145500  1
  Hf  Hf29  1  0.40380620  -0.00949855  0.00400796  1
  Hf  Hf30  1  0.80685359  -0.01062067  0.40354134  1
  Hf  Hf31  1  -0.00025680  0.00169950  0.20394878  1
  Hf  Hf32  1  0.80001190  0.40819864  0.59268210  1
  Hf  Hf33  1  0.50385155  0.50568383  0.49457008  1
  Hf  Hf34  1  0.29382698  0.70102073  0.29901944  1
  Hf  Hf35  1  0.91150889  0.49526887  0.09655734  1
  Hf  Hf36  1  -0.00745893  0.40262294  0.39859472  1
  Hf  Hf37  1  0.50991482  0.89918716  0.50413747  1
  Hf  Hf38  1  0.19725275  0.60388943  0.60244800  1
  Hf  Hf39  1  0.50389959  0.10532140  0.70657703  1
  Hf  Hf40  1  0.79346609  0.78192132  0.60085120  1
  Hf  Hf41  1  0.80420768  0.79208198  0.40461055  1
  Hf  Hf42  1  0.60802480  0.80905997  0.37455127  1
  Hf  Hf43  1  0.19019678  0.79272573  0.60578818  1
  Hf  Hf44  1  -0.00524727  0.79066329  -0.00644997  1
  Hf  Hf45  1  0.10101830  0.89431430  0.30393453  1
  Hf  Hf46  1  0.70809508  0.09607219  0.09916267  1
  Hf  Hf47  1  0.90225132  0.31403768  0.89208172  1
  Hf  Hf48  1  0.51289452  0.70476005  0.49562945  1
  Hf  Hf49  1  0.90673321  0.10559783  0.68726417  1
  Zr  Zr50  1  0.09980087  0.89977332  0.89890747  1
  Zr  Zr51  1  0.19309078  0.20471043  0.59577181  1
  Zr  Zr52  1  0.49239636  0.30450556  0.09485447  1
  Zr  Zr53  1  0.30197613  0.30573740  0.50456373  1
  Zr  Zr54  1  0.59888632  0.80187899  0.78580713  1
  Zr  Zr55  1  0.61738642  0.60673342  0.60357064  1
  Zr  Zr56  1  0.69970497  0.30135770  0.49607569  1
  Zr  Zr57  1  0.40286818  0.19285475  -0.00708764  1
  Zr  Zr58  1  0.79730410  0.00141073  0.78902366  1
  Zr  Zr59  1  0.08148752  0.70563671  0.30478800  1
  Zr  Zr60  1  0.60666728  -0.00574321  0.39464848  1
  Zr  Zr61  1  0.30134268  0.88673484  0.89720198  1
  Zr  Zr62  1  0.19270369  0.40217347  0.39843210  1
  Zr  Zr63  1  0.39448678  0.60609201  0.19839405  1
  Zr  Zr64  1  0.09117869  0.09614525  0.09455621  1
  Zr  Zr65  1  0.61060378  0.00214558  0.61423647  1
  Zr  Zr66  1  0.59313961  0.80386948  0.01422204  1
  Zr  Zr67  1  0.70871577  0.69814684  0.09720146  1
  Zr  Zr68  1  0.29861943  0.09136012  0.88857295  1
  Zr  Zr69  1  0.50631592  0.11004165  0.49952089  1
  Zr  Zr70  1  0.29608121  0.89938108  0.50808284  1
  Zr  Zr71  1  0.07601023  0.10745604  0.51463832  1
  Zr  Zr72  1  0.38913800  0.40553223  0.20439038  1
  Zr  Zr73  1  0.61167138  0.39755845  -0.00810317  1
  Zr  Zr74  1  0.50412028  0.30352948  0.49854183  1
  Zr  Zr75  1  0.49328379  0.49523299  0.09120679  1
  Zr  Zr76  1  0.49130797  0.70628374  0.89637984  1
  Zr  Zr77  1  0.20035933  0.59974156  0.80018952  1
  Zr  Zr78  1  0.29543450  0.10346735  0.70766218  1
  Zr  Zr79  1  0.80414882  0.40335341  -0.00477111  1
  Zr  Zr80  1  0.39898919  0.00885087  0.59954202  1
  Zr  Zr81  1  0.70528773  0.10967794  0.50105634  1
  Zr  Zr82  1  0.29587465  0.30545446  0.89872123  1
  Zr  Zr83  1  -0.00423205  0.39534573  0.59785441  1
  Zr  Zr84  1  0.79676711  0.59296862  0.59478345  1
  Zr  Zr85  1  -0.00919955  -0.00232665  0.41252719  1
  Zr  Zr86  1  0.19483205  0.79361953  0.41481241  1
  Zr  Zr87  1  0.39364653  0.60796164  0.00244917  1
  Zr  Zr88  1  0.91751691  0.87678822  0.30119991  1
  Zr  Zr89  1  0.71382905  0.69332058  0.28749779  1
  Zr  Zr90  1  0.60758329  0.40421236  0.20324424  1
  Zr  Zr91  1  0.19293229  0.20325582  -0.00156173  1
  Zr  Zr92  1  0.60081851  0.20507106  0.20265799  1
  Zr  Zr93  1  0.19248761  0.20170453  0.39878330  1
  Zr  Zr94  1  0.39250915  0.00511042  0.39348718  1
  Zr  Zr95  1  0.09974681  0.49960588  0.09783467  1
  Zr  Zr96  1  0.40947935  0.59479482  0.60971909  1
  Zr  Zr97  1  0.59925407  0.20870996  0.81045888  1
  Zr  Zr98  1  0.20339784  0.01560338  0.40738470  1
  Zr  Zr99  1  0.19765944  0.59762685  0.39949876  1
  Ta  Ta100  1  0.80687274  0.00120079  -0.00637711  1
  Ta  Ta101  1  0.90821618  0.30022299  0.09804850  1
  Ta  Ta102  1  0.60945722  0.60073068  0.38971109  1
  Ta  Ta103  1  0.09835160  0.89138279  0.09675736  1
  Ta  Ta104  1  0.30316770  0.50411367  0.50342652  1
  Ta  Ta105  1  0.91061898  0.68901163  0.49400241  1
  Ta  Ta106  1  0.80928533  0.79797334  -0.00414760  1
  Ta  Ta107  1  0.19517934  0.20189709  0.19671349  1
  Ta  Ta108  1  0.28645331  0.30521018  0.29273745  1
  Ta  Ta109  1  0.19554140  0.40536201  0.60365190  1
  Ta  Ta110  1  -0.00136625  0.20005154  0.79887016  1
  Ta  Ta111  1  0.49953806  0.09644414  0.29708573  1
  Ta  Ta112  1  0.09474190  0.30184525  0.70532781  1
  Ta  Ta113  1  -0.00156264  0.79789316  0.79462215  1
  Ta  Ta114  1  0.49356868  0.49944563  0.89896424  1
  Ta  Ta115  1  -0.00487601  0.00296953  0.80106285  1
  Ta  Ta116  1  0.59938238  0.59253887  0.79563367  1
  Ta  Ta117  1  0.19404545  0.79697890  0.19457401  1
  Ta  Ta118  1  0.19111444  0.79511732  0.79424261  1
  Ta  Ta119  1  0.30522979  0.70451570  0.70710352  1
  Ta  Ta120  1  0.09228861  0.49865850  0.70858550  1
  Ta  Ta121  1  0.40364907  0.40396729  0.60867208  1
  Ta  Ta122  1  0.81563683  0.60143567  -0.01089374  1
  Ta  Ta123  1  0.80379047  0.40767258  0.39698294  1
  Ta  Ta124  1  0.71069336  0.30319667  0.30076428  1
  Ta  Ta125  1  0.09862298  0.69329379  0.09853285  1
  Ta  Ta126  1  0.80010274  0.60031244  0.80205589  1
  Ta  Ta127  1  0.31239752  0.69449278  0.50666369  1
  Ta  Ta128  1  -0.00634712  0.59776647  0.20623017  1
  Ta  Ta129  1  0.71512623  0.29975757  0.09790320  1
  Ta  Ta130  1  0.90110685  0.89978732  0.89495964  1
  Ta  Ta131  1  0.09203287  0.49729243  0.90610366  1
  Ta  Ta132  1  0.80763811  0.79384431  0.79769062  1
  Ta  Ta133  1  0.60636339  0.20960109  0.61726574  1
  Ta  Ta134  1  0.28652062  0.49762814  0.09666796  1
  Ta  Ta135  1  0.29863959  0.09828000  0.10091056  1
  Ta  Ta136  1  0.71511460  0.50673875  0.10255149  1
  Ta  Ta137  1  0.81346651  0.79508939  0.19434410  1
  Ta  Ta138  1  0.09409789  0.09774161  0.70284015  1
  Ta  Ta139  1  0.29482741  0.50056107  0.90612053  1
  Ta  Ta140  1  0.60971137  0.41011249  0.39071736  1
  Ta  Ta141  1  0.90465840  0.30198748  0.29531600  1
  Ta  Ta142  1  0.90611481  0.10877659  0.30389227  1
  Ta  Ta143  1  0.39961616  0.59811488  0.79899300  1
  Ta  Ta144  1  0.80713362  0.40471678  0.20414920  1
  Ta  Ta145  1  0.49540058  0.89453465  0.89200802  1
  Ta  Ta146  1  0.89921663  0.10067899  0.09305944  1
  Ta  Ta147  1  0.80539196  0.59044471  0.39421644  1
  Ta  Ta148  1  0.70461192  0.09956814  0.90341201  1
  Ta  Ta149  1  0.90289754  0.69334326  0.70174548  1
  Ti  Ti150  1  0.09316831  0.89769992  0.50582810  1
  Ti  Ti151  1  0.09300438  0.10643469  0.30204527  1
  Ti  Ti152  1  0.18097929  0.19283055  0.80843728  1
  Ti  Ti153  1  0.90054199  0.29195111  0.50242087  1
  Ti  Ti154  1  -0.00835276  0.60169387  0.81318672  1
  Ti  Ti155  1  0.69493671  0.88474292  0.50711421  1
  Ti  Ti156  1  0.09340504  0.49583992  0.29117939  1
  Ti  Ti157  1  0.09477941  0.30582177  0.28755010  1
  Ti  Ti158  1  0.49923406  0.72177346  0.27470411  1
  Ti  Ti159  1  0.40075900  0.60212752  0.39282986  1
  Ti  Ti160  1  0.19610934  0.59587567  0.20365363  1
  Ti  Ti161  1  0.19523275  0.00549139  0.60086582  1
  Ti  Ti162  1  0.29569660  0.89336147  0.29621830  1
  Ti  Ti163  1  0.48865373  0.88046031  0.12679236  1
  Ti  Ti164  1  0.49944635  0.30221198  0.30205615  1
  Ti  Ti165  1  0.49248338  0.31573072  0.90514596  1
  Ti  Ti166  1  0.00007423  0.20128403  0.19737524  1
  Ti  Ti167  1  -0.00959947  -0.01215187  0.59925775  1
  Ti  Ti168  1  0.60193452  0.00328173  0.80186836  1
  Ti  Ti169  1  0.71508708  0.89671203  0.10243661  1
  Ti  Ti170  1  0.29156880  0.89352450  0.10129469  1
  Ti  Ti171  1  0.90154903  0.89122120  0.69860290  1
  Ti  Ti172  1  0.50328011  0.69957574  0.70175974  1
  Ti  Ti173  1  0.19544194  0.39893318  -0.00006816  1
  Ti  Ti174  1  0.70212055  0.89148920  0.69603191  1
  Ti  Ti175  1  0.39791641  0.79727238  0.01283033  1
  Ti  Ti176  1  0.19421295  0.40606624  0.79842052  1
  Ti  Ti177  1  0.39179452  -0.00497436  0.20585016  1
  Ti  Ti178  1  0.09444611  0.31162937  0.89496493  1
  Ti  Ti179  1  0.70647406  0.49803005  0.89246599  1
  Ti  Ti180  1  0.29488850  0.50125699  0.69933936  1
  Ti  Ti181  1  0.09688330  0.90693962  0.70124082  1
  Ti  Ti182  1  0.41494932  -0.00363294  0.80061278  1
  Ti  Ti183  1  0.81003128  -0.00431955  0.20513812  1
  Ti  Ti184  1  0.50017917  0.50545690  0.29912889  1
  Ti  Ti185  1  -0.00780306  0.59501965  0.60253784  1
  Ti  Ti186  1  0.09123318  0.31004037  0.10246951  1
  Ti  Ti187  1  0.80153220  0.20414302  0.60528032  1
  Ti  Ti188  1  0.08815400  0.69138897  0.70323079  1
  Ti  Ti189  1  0.29306458  0.30572028  0.09960381  1
  Ti  Ti190  1  0.81014296  0.20370758  0.39940028  1
  Ti  Ti191  1  0.60041768  0.20570640  0.39088414  1
  Ti  Ti192  1  0.41247223  0.20440891  0.80623554  1
  Ti  Ti193  1  -0.00014840  0.79400610  0.60094322  1
  Ti  Ti194  1  0.40573268  0.20872623  0.60589879  1
  Ti  Ti195  1  0.90619511  0.69223163  0.10220120  1
  Ti  Ti196  1  0.29565521  0.70470108  0.89975016  1
  Ti  Ti197  1  0.59838161  0.40343963  0.80110560  1
  Ti  Ti198  1  0.28304123  0.70060176  0.09428879  1
  Ti  Ti199  1  0.00073750  0.21068798  0.40410038  1
  Mo  Mo200  1  0.70517794  0.29953982  0.90383340  1
  Mo  Mo201  1  0.30281536  0.10541434  0.51597778  1
  Mo  Mo202  1  0.90345246  0.69075018  0.29934347  1
  Mo  Mo203  1  0.90335782  0.88004845  0.51328713  1
  Mo  Mo204  1  0.79828166  0.40524723  0.80502986  1
  Mo  Mo205  1  0.89556704  0.11898167  0.49741160  1
  Mo  Mo206  1  0.50027039  0.30328510  0.70256670  1
  Mo  Mo207  1  0.09442418  0.09479984  0.89012914  1
  Mo  Mo208  1  0.38469587  0.40463003  -0.00418435  1
  Mo  Mo209  1  0.50697885  0.08485858  0.89715244  1
  Mo  Mo210  1  0.39848854  0.79538923  0.79608640  1
  Mo  Mo211  1  0.50330180  0.90580195  0.70560307  1
  Mo  Mo212  1  0.09356978  0.30678948  0.50655417  1
  Mo  Mo213  1  0.19966176  0.79608812  0.00496189  1
  Mo  Mo214  1  0.89867619  0.50434979  0.49313730  1
  Mo  Mo215  1  -0.00514638  0.21275743  0.60750555  1
  Mo  Mo216  1  0.37572801  0.80138691  0.19520115  1
  Mo  Mo217  1  0.90733195  0.50617178  0.90146930  1
  Mo  Mo218  1  0.29450511  0.10715048  0.28587262  1
  Mo  Mo219  1  0.00289282  0.79101954  0.18307536  1
  Mo  Mo220  1  0.49710614  0.70985465  0.10343889  1
  Mo  Mo221  1  0.00035977  0.39534136  0.20197003  1
  Mo  Mo222  1  0.90107963  0.09384531  0.89901932  1
  Mo  Mo223  1  0.19441598  0.39669897  0.19861913  1
  Mo  Mo224  1  0.70263345  0.10962309  0.70322281  1
  Mo  Mo225  1  -0.00074875  0.59760800  0.00002924  1
  Mo  Mo226  1  0.00691853  0.39996306  0.80189326  1
  Mo  Mo227  1  0.70074440  0.69636450  0.48112644  1
  Mo  Mo228  1  0.70589271  0.49855438  0.29144872  1
  Mo  Mo229  1  0.90165053  0.29786094  0.70170480  1
  Mo  Mo230  1  0.08653314  0.69397052  0.51110242  1
  Mo  Mo231  1  0.70690543  0.69589767  0.71140298  1
  Mo  Mo232  1  0.81351339  0.59632161  0.19412923  1
  Mo  Mo233  1  0.61562394  0.80347648  0.19800178  1
  Mo  Mo234  1  0.70290371  0.49914480  0.71841852  1
  Mo  Mo235  1  0.50532237  0.50196851  0.70653532  1
  Mo  Mo236  1  0.00113176  0.79472121  0.42533800  1
  Mo  Mo237  1  0.60594325  0.79811235  0.60417583  1
  Mo  Mo238  1  0.90267067  0.70102705  0.89438661  1
  Mo  Mo239  1  0.90049206  0.49838817  0.29541103  1
  Mo  Mo240  1  0.29174828  0.50455664  0.29734179  1
  Mo  Mo241  1  -0.00590206  0.59460785  0.39388371  1
  Mo  Mo242  1  -0.00585037  -0.00061060  -0.00734710  1
  Mo  Mo243  1  0.18328198  -0.00362134  0.79416736  1
  Mo  Mo244  1  0.20100391  0.59821747  -0.00044698  1
  Mo  Mo245  1  0.72737043  0.89589667  0.28694216  1
  Mo  Mo246  1  0.00707038  0.39339352  -0.00142365  1
  Mo  Mo247  1  0.80381842  0.19788274  0.00100826  1
  Mo  Mo248  1  0.48244522  0.90152617  0.29380340  1
  Mo  Mo249  1  0.70028100  0.50171358  0.48198626  1
