# generated using pymatgen
data_HfZrTaTiMo
_symmetry_space_group_name_H-M   'P 1'
_cell_length_a   16.88726479
_cell_length_b   16.88938208
_cell_length_c   16.89112746
_cell_angle_alpha   90.02522508
_cell_angle_beta   89.96709732
_cell_angle_gamma   90.06199627
_symmetry_Int_Tables_number   1
_chemical_formula_structural   HfZrTaTiMo
_chemical_formula_sum   'Hf50 Zr50 Ta50 Ti50 Mo50'
_cell_volume   4817.60673289
_cell_formula_units_Z   50
loop_
 _symmetry_equiv_pos_site_id
 _symmetry_equiv_pos_as_xyz
  1  'x, y, z'
loop_
 _atom_site_type_symbol
 _atom_site_label
 _atom_site_symmetry_multiplicity
 _atom_site_fract_x
 _atom_site_fract_y
 _atom_site_fract_z
 _atom_site_occupancy
  Hf  Hf0  1  0.69791460  0.70441518  0.70474175  1
  Hf  Hf1  1  0.29917003  0.70080810  0.91722404  1
  Hf  Hf2  1  0.70950769  0.10043668  0.29294549  1
  Hf  Hf3  1  0.91138134  0.91499741  0.49921145  1
  Hf  Hf4  1  0.70714009  0.89962068  0.49834148  1
  Hf  Hf5  1  0.71431581  0.29246643  0.29345927  1
  Hf  Hf6  1  0.39824782  0.20213571  0.60457225  1
  Hf  Hf7  1  0.50552406  0.50163721  0.69876973  1
  Hf  Hf8  1  -0.00134836  0.79309350  0.00985699  1
  Hf  Hf9  1  -0.00212420  0.39469721  0.59658025  1
  Hf  Hf10  1  0.09369280  0.50798103  0.69449450  1
  Hf  Hf11  1  0.19517663  -0.00272367  0.40355155  1
  Hf  Hf12  1  -0.00930709  0.60820494  0.59144109  1
  Hf  Hf13  1  0.50012853  0.51412201  0.90331189  1
  Hf  Hf14  1  0.50550891  0.09506224  0.69737647  1
  Hf  Hf15  1  0.60203371  0.20064847  0.00318246  1
  Hf  Hf16  1  0.90436773  0.10038894  0.69525621  1
  Hf  Hf17  1  0.70297972  0.49744411  0.50143032  1
  Hf  Hf18  1  0.79922832  -0.01155255  -0.02445570  1
  Hf  Hf19  1  0.50056067  0.69532886  0.30180590  1
  Hf  Hf20  1  0.39661695  0.40418273  0.39508528  1
  Hf  Hf21  1  0.19880296  -0.00273116  0.00078397  1
  Hf  Hf22  1  0.09831172  0.09609600  0.69279786  1
  Hf  Hf23  1  0.20002672  0.40057399  0.39632257  1
  Hf  Hf24  1  0.60572490  0.20297939  0.59254079  1
  Hf  Hf25  1  0.30246409  0.09529050  0.89725589  1
  Hf  Hf26  1  0.29405152  0.50636072  0.91263842  1
  Hf  Hf27  1  0.59994243  0.39188048  0.40172324  1
  Hf  Hf28  1  0.40064124  0.19957672  0.79718587  1
  Hf  Hf29  1  0.49544306  0.50423939  0.10157631  1
  Hf  Hf30  1  0.49686502  0.49848924  0.50399442  1
  Hf  Hf31  1  0.30436613  0.90201770  0.50466727  1
  Hf  Hf32  1  0.80373861  0.60474790  0.59724641  1
  Hf  Hf33  1  0.19272147  0.19711529  0.39832956  1
  Hf  Hf34  1  0.00967611  0.21005770  0.20102030  1
  Hf  Hf35  1  -0.00948296  0.40433949  0.80391665  1
  Hf  Hf36  1  0.30723810  0.29081646  0.29579759  1
  Hf  Hf37  1  0.19495009  0.20217349  0.01027150  1
  Hf  Hf38  1  0.10354370  0.50821437  0.49775654  1
  Hf  Hf39  1  0.19359114  0.39650544  0.79603271  1
  Hf  Hf40  1  0.70720399  0.70825991  0.31589858  1
  Hf  Hf41  1  0.10161389  0.09209293  0.29566187  1
  Hf  Hf42  1  0.50571947  0.70165795  0.70922887  1
  Hf  Hf43  1  0.30511328  0.09542264  0.49809747  1
  Hf  Hf44  1  0.59569019  0.20178859  0.39619891  1
  Hf  Hf45  1  0.29376899  0.08841100  0.69550990  1
  Hf  Hf46  1  0.29500129  0.50611613  0.69085659  1
  Hf  Hf47  1  0.28874525  0.69309060  0.30267386  1
  Hf  Hf48  1  0.89796204  0.10489408  0.30302825  1
  Hf  Hf49  1  0.19588176  0.40062859  0.20084777  1
  Zr  Zr50  1  0.69034281  0.70102644  0.89392657  1
  Zr  Zr51  1  0.30222395  0.90124098  0.10087341  1
  Zr  Zr52  1  0.19617892  0.80259952  0.79687307  1
  Zr  Zr53  1  0.29857307  0.09390873  0.11150421  1
  Zr  Zr54  1  0.59861924  -0.00005171  0.20276998  1
  Zr  Zr55  1  0.81597417  0.59991724  0.39783066  1
  Zr  Zr56  1  -0.00338652  -0.01515784  0.80174962  1
  Zr  Zr57  1  0.39373047  0.40008410  0.79664681  1
  Zr  Zr58  1  0.19839860  0.60185162  0.80265933  1
  Zr  Zr59  1  0.80377454  0.79458675  0.20044776  1
  Zr  Zr60  1  0.08258396  0.50814612  0.91453927  1
  Zr  Zr61  1  0.90314785  0.30142027  0.09912260  1
  Zr  Zr62  1  0.80617001  0.60394577  0.19407292  1
  Zr  Zr63  1  0.89810609  0.90493874  0.09447451  1
  Zr  Zr64  1  0.38936365  0.59975096  0.19795429  1
  Zr  Zr65  1  0.90672437  0.68880465  0.89804196  1
  Zr  Zr66  1  0.70185399  0.90811058  0.09720821  1
  Zr  Zr67  1  0.49327884  0.90240788  0.30505987  1
  Zr  Zr68  1  0.61310568  0.60281404  0.19424720  1
  Zr  Zr69  1  0.10360782  0.51304354  0.29786836  1
  Zr  Zr70  1  -0.00766458  0.60978587  0.20026210  1
  Zr  Zr71  1  0.30225714  0.29502581  0.49820853  1
  Zr  Zr72  1  0.29299119  0.90337700  0.29613521  1
  Zr  Zr73  1  0.39801949  0.40073353  0.00684448  1
  Zr  Zr74  1  0.79872819  0.20132394  0.59458962  1
  Zr  Zr75  1  0.60848974  0.39285832  0.00691214  1
  Zr  Zr76  1  0.89207479  0.09882218  0.09996122  1
  Zr  Zr77  1  -0.00498131  -0.00709793  0.20471930  1
  Zr  Zr78  1  0.01050634  0.80745249  0.59918802  1
  Zr  Zr79  1  0.60374160  0.39463626  0.19478043  1
  Zr  Zr80  1  0.49520239  0.08593153  0.09540895  1
  Zr  Zr81  1  0.59834330  -0.00041183  0.40088941  1
  Zr  Zr82  1  0.29407434  0.29777824  0.90331165  1
  Zr  Zr83  1  0.70564877  0.31046410  0.69813641  1
  Zr  Zr84  1  0.30298051  0.89803355  0.90064905  1
  Zr  Zr85  1  0.30712825  0.29732720  0.10842250  1
  Zr  Zr86  1  -0.00278652  0.78968636  0.20355561  1
  Zr  Zr87  1  0.10035376  0.10184850  0.89731012  1
  Zr  Zr88  1  0.60217375  0.19676441  0.80085818  1
  Zr  Zr89  1  -0.00253534  0.21171155  0.79636463  1
  Zr  Zr90  1  0.50001238  0.69847163  0.50131671  1
  Zr  Zr91  1  0.69888095  0.50640672  0.89631841  1
  Zr  Zr92  1  0.91286697  0.49934202  0.08200260  1
  Zr  Zr93  1  0.60117929  0.80108369  0.19554435  1
  Zr  Zr94  1  0.90633361  0.10168169  0.90547361  1
  Zr  Zr95  1  0.80129267  0.81941740  0.80722841  1
  Zr  Zr96  1  0.60178813  0.39531209  0.80555022  1
  Zr  Zr97  1  0.39877042  0.80112771  0.40593236  1
  Zr  Zr98  1  0.70511653  0.49661276  0.30286268  1
  Zr  Zr99  1  0.79477184  0.00593732  0.60492312  1
  Ta  Ta100  1  0.30083577  0.70292854  0.69592353  1
  Ta  Ta101  1  0.19337174  0.79953024  0.40825399  1
  Ta  Ta102  1  0.79631800  0.39794759  -0.00355099  1
  Ta  Ta103  1  0.60066583  0.80793824  0.60002760  1
  Ta  Ta104  1  0.69601602  0.09758649  0.89968680  1
  Ta  Ta105  1  0.49750514  0.49981683  0.29850999  1
  Ta  Ta106  1  0.50230757  0.89685001  0.70320278  1
  Ta  Ta107  1  0.09748285  0.69682770  0.70063700  1
  Ta  Ta108  1  0.29452630  0.69435609  0.50523704  1
  Ta  Ta109  1  0.89506813  0.50079343  0.69956792  1
  Ta  Ta110  1  0.60532720  -0.00535636  0.79902817  1
  Ta  Ta111  1  0.09725513  0.89179148  0.91084791  1
  Ta  Ta112  1  0.90337248  0.29975182  0.49026272  1
  Ta  Ta113  1  0.79581512  0.19947054  0.80449476  1
  Ta  Ta114  1  0.40730357  0.19176462  -0.00331940  1
  Ta  Ta115  1  0.00364586  0.39552927  0.38998132  1
  Ta  Ta116  1  0.09613366  0.30413681  0.90719579  1
  Ta  Ta117  1  0.49743359  0.69816421  0.09094387  1
  Ta  Ta118  1  0.40042299  0.79606919  0.19176174  1
  Ta  Ta119  1  0.09869420  0.89560763  0.30238104  1
  Ta  Ta120  1  0.09436188  0.09018228  0.10049839  1
  Ta  Ta121  1  0.59647146  0.80460407  -0.00017794  1
  Ta  Ta122  1  0.10033215  0.69806538  0.90686352  1
  Ta  Ta123  1  0.39905802  0.60377090  0.60203613  1
  Ta  Ta124  1  0.70105301  0.70520542  0.50244725  1
  Ta  Ta125  1  0.19926268  0.39348297  0.59946854  1
  Ta  Ta126  1  0.70197515  0.50204881  0.69747372  1
  Ta  Ta127  1  0.89527965  0.89974279  0.31331031  1
  Ta  Ta128  1  0.90249367  0.70246197  0.70465102  1
  Ta  Ta129  1  0.60015302  0.19920793  0.19438845  1
  Ta  Ta130  1  0.49963550  0.69943162  0.90111108  1
  Ta  Ta131  1  0.39703281  0.60586508  0.80061793  1
  Ta  Ta132  1  0.79136237  0.00197057  0.79473224  1
  Ta  Ta133  1  0.80086478  0.80409758  0.60559253  1
  Ta  Ta134  1  0.19943638  0.79991238  0.60010585  1
  Ta  Ta135  1  0.40302677  0.80100973  0.60335619  1
  Ta  Ta136  1  0.78978417  0.20593111  -0.00422655  1
  Ta  Ta137  1  0.49826520  0.29581294  0.90223160  1
  Ta  Ta138  1  0.40946832  -0.00253489  0.80068086  1
  Ta  Ta139  1  0.80361152  0.40441953  0.19072101  1
  Ta  Ta140  1  0.10605402  0.89848626  0.10501334  1
  Ta  Ta141  1  0.40748730  0.80283457  0.00518775  1
  Ta  Ta142  1  0.60394903  0.60270981  0.59879036  1
  Ta  Ta143  1  0.49910853  0.30561249  0.69451487  1
  Ta  Ta144  1  0.60057179  0.59845980  0.40447508  1
  Ta  Ta145  1  0.60224434  0.80563708  0.40555520  1
  Ta  Ta146  1  0.80393376  0.59482001  0.79659450  1
  Ta  Ta147  1  0.90058905  0.30110353  0.29649423  1
  Ta  Ta148  1  0.49391674  0.09575277  0.49555791  1
  Ta  Ta149  1  0.30506192  0.89997943  0.69807182  1
  Ti  Ti150  1  0.10832480  0.69332234  0.49764258  1
  Ti  Ti151  1  0.70778682  0.09665981  0.10029861  1
  Ti  Ti152  1  0.79755201  0.59959353  0.00180605  1
  Ti  Ti153  1  0.19335730  0.19962554  0.20110639  1
  Ti  Ti154  1  0.69794720  0.09953441  0.49658593  1
  Ti  Ti155  1  0.80365076  0.40043199  0.80915715  1
  Ti  Ti156  1  0.80307166  0.00573229  0.40224110  1
  Ti  Ti157  1  0.90042221  0.30279802  0.90755058  1
  Ti  Ti158  1  0.08148474  0.08706995  0.50190547  1
  Ti  Ti159  1  -0.00721983  0.60590627  0.39570090  1
  Ti  Ti160  1  0.10498366  0.69864629  0.30640277  1
  Ti  Ti161  1  0.90608397  0.49182965  0.49306680  1
  Ti  Ti162  1  -0.00455993  0.20089502  0.58941649  1
  Ti  Ti163  1  0.80904366  0.39687455  0.39696243  1
  Ti  Ti164  1  0.90310391  0.90056200  0.69492199  1
  Ti  Ti165  1  0.89455418  0.30258433  0.69690844  1
  Ti  Ti166  1  0.00219320  0.20211513  0.39984069  1
  Ti  Ti167  1  0.59401452  -0.00420509  -0.00917231  1
  Ti  Ti168  1  0.00761768  0.80127854  0.40304168  1
  Ti  Ti169  1  0.18400137  -0.01721826  0.59939723  1
  Ti  Ti170  1  0.18955063  0.39825744  0.01057697  1
  Ti  Ti171  1  0.19913342  0.79410775  0.19814633  1
  Ti  Ti172  1  0.28725125  0.51417231  0.09965289  1
  Ti  Ti173  1  0.80415132  0.39803266  0.59070486  1
  Ti  Ti174  1  0.40080489  0.79995852  0.80179991  1
  Ti  Ti175  1  0.11710246  0.69210023  0.09668972  1
  Ti  Ti176  1  0.41252767  -0.00844247  0.59911054  1
  Ti  Ti177  1  0.89323359  0.71943232  0.49401698  1
  Ti  Ti178  1  0.60854498  0.60465186  0.00982894  1
  Ti  Ti179  1  0.60427044  -0.00327529  0.60285766  1
  Ti  Ti180  1  0.09646000  0.50326784  0.10004387  1
  Ti  Ti181  1  0.80214763  0.20159190  0.41068126  1
  Ti  Ti182  1  0.20150007  0.20789013  0.79044314  1
  Ti  Ti183  1  0.79512072  0.79768118  -0.00426931  1
  Ti  Ti184  1  0.39371303  0.59341721  0.40052177  1
  Ti  Ti185  1  0.29168755  0.50981719  0.50248568  1
  Ti  Ti186  1  0.40013652  0.00308862  0.21323133  1
  Ti  Ti187  1  0.49206603  0.29711192  0.49955052  1
  Ti  Ti188  1  0.40926299  0.18507813  0.20868277  1
  Ti  Ti189  1  0.50160877  0.89736305  0.89772348  1
  Ti  Ti190  1  0.19461403  -0.01061549  0.79708937  1
  Ti  Ti191  1  0.39131682  0.39778418  0.60082244  1
  Ti  Ti192  1  0.60312751  0.39419349  0.59287070  1
  Ti  Ti193  1  0.00348680  0.79986144  0.79944184  1
  Ti  Ti194  1  0.19681066  0.20335902  0.59832011  1
  Ti  Ti195  1  0.09870883  0.29731302  0.69400168  1
  Ti  Ti196  1  0.49105811  0.29648171  0.10744780  1
  Ti  Ti197  1  0.00649739  0.20599527  0.00546156  1
  Ti  Ti198  1  0.49382693  0.29974302  0.29251484  1
  Ti  Ti199  1  0.09709543  0.29905585  0.49774586  1
  Mo  Mo200  1  0.80153554  0.80768046  0.40864877  1
  Mo  Mo201  1  0.20305043  0.60400256  0.40269029  1
  Mo  Mo202  1  0.69321829  0.90044590  0.69861154  1
  Mo  Mo203  1  0.19486562  -0.00319824  0.20261113  1
  Mo  Mo204  1  0.39798088  0.60738927  0.00216977  1
  Mo  Mo205  1  0.49634733  0.89701922  0.09481657  1
  Mo  Mo206  1  0.10304694  0.89750399  0.49779959  1
  Mo  Mo207  1  0.71295397  0.90352318  0.30605612  1
  Mo  Mo208  1  0.79812914  -0.00340074  0.21394002  1
  Mo  Mo209  1  -0.00586006  0.60296304  0.79304739  1
  Mo  Mo210  1  0.00552487  -0.00905022  0.00147366  1
  Mo  Mo211  1  0.30250592  0.10015082  0.30178117  1
  Mo  Mo212  1  0.88799325  0.69753284  0.08421863  1
  Mo  Mo213  1  0.39824394  0.40720580  0.20568996  1
  Mo  Mo214  1  0.39795760  0.00764950  0.40093919  1
  Mo  Mo215  1  0.90755542  0.10708407  0.49431196  1
  Mo  Mo216  1  0.49803813  0.10508021  0.30222463  1
  Mo  Mo217  1  0.40665856  -0.00322262  -0.01307964  1
  Mo  Mo218  1  0.30146557  0.49977832  0.29872329  1
  Mo  Mo219  1  0.69878581  0.70422724  0.08596508  1
  Mo  Mo220  1  0.90772597  0.48427588  0.29599373  1
  Mo  Mo221  1  0.29268019  0.29885682  0.69427557  1
  Mo  Mo222  1  0.69947398  0.09732869  0.70545002  1
  Mo  Mo223  1  0.50160336  0.09378166  0.89926631  1
  Mo  Mo224  1  0.19687992  0.60006768  0.00764300  1
  Mo  Mo225  1  0.70953447  0.49876128  0.09415642  1
  Mo  Mo226  1  0.70706134  0.29563419  0.10226825  1
  Mo  Mo227  1  0.09889438  0.29765384  0.30032357  1
  Mo  Mo228  1  0.40699979  0.19577905  0.39509763  1
  Mo  Mo229  1  0.19605745  0.79797611  0.00747779  1
  Mo  Mo230  1  0.90721996  0.71406895  0.32050341  1
  Mo  Mo231  1  0.00311142  0.60889180  0.00713848  1
  Mo  Mo232  1  0.89288945  0.49790858  0.89626096  1
  Mo  Mo233  1  0.00185996  -0.00046899  0.39977491  1
  Mo  Mo234  1  0.59947407  0.60048948  0.79286088  1
  Mo  Mo235  1  0.19601844  0.60090048  0.19788585  1
  Mo  Mo236  1  0.50358621  0.90344825  0.50974690  1
  Mo  Mo237  1  0.59268413  0.80694948  0.80389271  1
  Mo  Mo238  1  0.29741146  0.70541501  0.10163943  1
  Mo  Mo239  1  0.19955630  0.60742289  0.59892625  1
  Mo  Mo240  1  0.79903402  0.20217973  0.19040854  1
  Mo  Mo241  1  0.90997473  0.89169448  0.89868524  1
  Mo  Mo242  1  0.00341841  0.00176651  0.60133067  1
  Mo  Mo243  1  0.00165804  0.39277353  0.00010437  1
  Mo  Mo244  1  0.70534917  0.29556856  0.90077424  1
  Mo  Mo245  1  0.68569092  0.90097358  0.89788682  1
  Mo  Mo246  1  0.10049841  0.30486798  0.10022064  1
  Mo  Mo247  1  0.10539785  0.89559108  0.70148491  1
  Mo  Mo248  1  0.00071140  0.40217643  0.20308032  1
  Mo  Mo249  1  0.70980910  0.30347050  0.49304253  1
