# generated using pymatgen
data_HfZrTaTiMo
_symmetry_space_group_name_H-M   'P 1'
_cell_length_a   16.87237883
_cell_length_b   16.88676035
_cell_length_c   16.88195203
_cell_angle_alpha   89.97422797
_cell_angle_beta   90.02102376
_cell_angle_gamma   89.96504584
_symmetry_Int_Tables_number   1
_chemical_formula_structural   HfZrTaTiMo
_chemical_formula_sum   'Hf50 Zr50 Ta50 Ti50 Mo50'
_cell_volume   4810.00099197
_cell_formula_units_Z   50
loop_
 _symmetry_equiv_pos_site_id
 _symmetry_equiv_pos_as_xyz
  1  'x, y, z'
loop_
 _atom_site_type_symbol
 _atom_site_label
 _atom_site_symmetry_multiplicity
 _atom_site_fract_x
 _atom_site_fract_y
 _atom_site_fract_z
 _atom_site_occupancy
  Hf  Hf0  1  0.09839009  0.50309182  0.09668003  1
  Hf  Hf1  1  0.60636940  0.39104133  0.19569966  1
  Hf  Hf2  1  0.09867463  0.89489048  0.90562958  1
  Hf  Hf3  1  0.59831079  0.80181686  0.80506865  1
  Hf  Hf4  1  0.58840615  -0.00671472  0.39921107  1
  Hf  Hf5  1  -0.00594790  0.79232634  0.81071868  1
  Hf  Hf6  1  0.51354690  0.49636969  0.49200748  1
  Hf  Hf7  1  0.78983313  0.20709810  0.20246996  1
  Hf  Hf8  1  0.09724379  0.10612822  0.69455364  1
  Hf  Hf9  1  0.59969254  0.80333347  0.59531941  1
  Hf  Hf10  1  0.81105917  0.59862261  0.61036465  1
  Hf  Hf11  1  -0.00699937  0.00944533  0.81406277  1
  Hf  Hf12  1  0.09419414  0.49732876  0.49389231  1
  Hf  Hf13  1  0.80151209  0.18368468  0.80914078  1
  Hf  Hf14  1  0.49864682  0.69906602  0.09685226  1
  Hf  Hf15  1  -0.00525073  0.79642651  0.59925886  1
  Hf  Hf16  1  0.90881230  0.09959582  0.10644839  1
  Hf  Hf17  1  0.09599104  0.30462058  0.49904595  1
  Hf  Hf18  1  0.59769158  0.80397056  0.40253670  1
  Hf  Hf19  1  0.59443843  0.39284035  0.80181832  1
  Hf  Hf20  1  0.70179297  0.49784156  0.69692817  1
  Hf  Hf21  1  0.09998528  0.29232831  0.69553612  1
  Hf  Hf22  1  0.90260974  0.29236275  0.69650726  1
  Hf  Hf23  1  0.81183949  0.40753201  0.80061584  1
  Hf  Hf24  1  0.48767188  0.09094616  0.50711035  1
  Hf  Hf25  1  0.40319933  0.39371495  0.18923831  1
  Hf  Hf26  1  0.30244706  0.70882223  0.69715695  1
  Hf  Hf27  1  0.69627943  0.50498900  0.09346952  1
  Hf  Hf28  1  0.49846596  0.50496697  0.08959938  1
  Hf  Hf29  1  0.70461557  0.69429251  0.49265907  1
  Hf  Hf30  1  0.60190110  0.18915962  0.60105358  1
  Hf  Hf31  1  0.91500089  0.30179265  0.11337571  1
  Hf  Hf32  1  0.40482206  -0.00026728  0.20792119  1
  Hf  Hf33  1  0.60380714  -0.00725620  0.59838508  1
  Hf  Hf34  1  0.30063449  0.11516575  0.70652224  1
  Hf  Hf35  1  0.30554223  0.49730716  0.91045456  1
  Hf  Hf36  1  0.09748434  0.50230820  0.69500072  1
  Hf  Hf37  1  0.19621148  0.00844439  0.20068338  1
  Hf  Hf38  1  0.50527356  0.50238188  0.30186660  1
  Hf  Hf39  1  0.89975356  0.10061428  0.29665666  1
  Hf  Hf40  1  0.19928587  0.60527636  0.80579805  1
  Hf  Hf41  1  0.19742311  0.39775072  0.80396122  1
  Hf  Hf42  1  0.09777480  0.91333381  0.51038698  1
  Hf  Hf43  1  0.20269086  0.00824174  0.80702156  1
  Hf  Hf44  1  0.59881271  0.19920590  0.19795083  1
  Hf  Hf45  1  0.80407658  0.80031953  0.60003342  1
  Hf  Hf46  1  0.09708896  0.10931221  0.50839278  1
  Hf  Hf47  1  0.79944987  -0.00693984  0.19054205  1
  Hf  Hf48  1  0.80649936  0.39599296  0.39668212  1
  Hf  Hf49  1  0.70350082  0.89089794  0.90722022  1
  Zr  Zr50  1  0.30073073  0.90760493  0.50441932  1
  Zr  Zr51  1  0.28897813  0.29898893  0.29400267  1
  Zr  Zr52  1  0.28804369  0.29462783  0.49788552  1
  Zr  Zr53  1  0.20030488  0.01307391  0.00218048  1
  Zr  Zr54  1  0.90094986  0.90203531  0.30142967  1
  Zr  Zr55  1  -0.01111971  0.79631202  0.18499643  1
  Zr  Zr56  1  0.89549653  0.69603599  0.30146437  1
  Zr  Zr57  1  0.00217409  0.79942694  0.40858799  1
  Zr  Zr58  1  -0.00950033  0.20421678  0.39259998  1
  Zr  Zr59  1  0.30445207  0.70688542  0.29671696  1
  Zr  Zr60  1  0.50319036  0.69430188  0.29895245  1
  Zr  Zr61  1  0.60503113  0.20191394  0.00251564  1
  Zr  Zr62  1  0.69686377  0.29617144  0.49698260  1
  Zr  Zr63  1  0.09729915  0.90062563  0.29767984  1
  Zr  Zr64  1  0.09458411  0.90080940  0.09866185  1
  Zr  Zr65  1  0.89325924  0.29614067  0.50641080  1
  Zr  Zr66  1  0.40556968  0.21655321  -0.00051541  1
  Zr  Zr67  1  0.60686038  0.19569390  0.80247248  1
  Zr  Zr68  1  0.09917565  0.50515853  0.91122905  1
  Zr  Zr69  1  0.20438309  0.00897476  0.39473162  1
  Zr  Zr70  1  0.48465168  0.28690482  0.69724133  1
  Zr  Zr71  1  0.10437011  0.90770431  0.69781349  1
  Zr  Zr72  1  0.50168977  0.29638415  0.30637270  1
  Zr  Zr73  1  -0.01408386  0.60186531  0.79628583  1
  Zr  Zr74  1  0.90831096  0.29562893  0.90644503  1
  Zr  Zr75  1  0.39984392  0.00369549  -0.00058350  1
  Zr  Zr76  1  0.90032333  0.90748302  0.70197762  1
  Zr  Zr77  1  0.79848853  0.39932356  0.20159678  1
  Zr  Zr78  1  0.39987208  0.59841043  0.80053455  1
  Zr  Zr79  1  0.20082961  0.60664349  0.40034943  1
  Zr  Zr80  1  0.70957214  0.89427741  0.30710345  1
  Zr  Zr81  1  0.71118267  0.30050591  0.69365233  1
  Zr  Zr82  1  0.69635380  0.50388117  0.90465991  1
  Zr  Zr83  1  0.39473823  0.39974692  0.40137895  1
  Zr  Zr84  1  0.49950758  0.50255000  0.90939858  1
  Zr  Zr85  1  0.08737750  0.31553412  0.29328251  1
  Zr  Zr86  1  0.49287015  0.90513901  0.70699641  1
  Zr  Zr87  1  0.41016218  0.81401364  0.39892551  1
  Zr  Zr88  1  0.69693263  0.70260793  0.09031919  1
  Zr  Zr89  1  0.79660909  0.19529460  0.00341263  1
  Zr  Zr90  1  0.91594151  0.49490754  0.29755865  1
  Zr  Zr91  1  0.30387874  0.89283910  0.89730803  1
  Zr  Zr92  1  0.59880873  -0.00120170  0.20387807  1
  Zr  Zr93  1  0.09926085  0.69826558  0.69228691  1
  Zr  Zr94  1  0.49844027  0.49358472  0.69485197  1
  Zr  Zr95  1  0.49880157  0.10083471  0.89529372  1
  Zr  Zr96  1  0.39707122  0.59587299  0.58957947  1
  Zr  Zr97  1  0.49743366  0.70259335  0.70122545  1
  Zr  Zr98  1  0.10285939  0.29934860  0.09596990  1
  Zr  Zr99  1  0.30352631  0.89213609  0.10518456  1
  Ta  Ta100  1  0.70332617  0.69597703  0.30092612  1
  Ta  Ta101  1  0.39229180  0.59890832  0.19458749  1
  Ta  Ta102  1  0.80647469  -0.00152804  -0.00521164  1
  Ta  Ta103  1  0.90141522  0.69281841  0.49945298  1
  Ta  Ta104  1  0.59944492  0.80358886  0.20202027  1
  Ta  Ta105  1  0.39677834  0.38840543  0.80773607  1
  Ta  Ta106  1  0.90511636  0.50543522  0.09622890  1
  Ta  Ta107  1  0.09882342  0.69651594  0.29408239  1
  Ta  Ta108  1  0.19886452  0.79374755  0.80549007  1
  Ta  Ta109  1  0.40217475  0.79754950  -0.00052170  1
  Ta  Ta110  1  0.50171192  0.70140988  0.90617397  1
  Ta  Ta111  1  0.70337246  0.10015451  0.31112778  1
  Ta  Ta112  1  0.69406697  0.50539051  0.30868038  1
  Ta  Ta113  1  0.29996140  0.70660383  0.49950459  1
  Ta  Ta114  1  0.40410619  0.80609193  0.59351369  1
  Ta  Ta115  1  0.70666247  0.09535985  0.49323476  1
  Ta  Ta116  1  0.09807457  0.69650786  0.09525194  1
  Ta  Ta117  1  0.20166198  0.60057144  0.59288127  1
  Ta  Ta118  1  0.20246301  0.60273082  0.19381737  1
  Ta  Ta119  1  0.70657211  0.90110205  0.70755037  1
  Ta  Ta120  1  0.80337405  0.59369844  0.40051183  1
  Ta  Ta121  1  0.30055737  0.11660498  0.10383125  1
  Ta  Ta122  1  0.80705009  0.60404144  -0.00295755  1
  Ta  Ta123  1  0.10276900  0.50156594  0.29843814  1
  Ta  Ta124  1  0.49535485  0.10297719  0.10433487  1
  Ta  Ta125  1  0.19993154  0.78749621  -0.00055010  1
  Ta  Ta126  1  0.69844045  0.89329763  0.09085420  1
  Ta  Ta127  1  0.39865203  0.19100695  0.39699173  1
  Ta  Ta128  1  0.30082558  0.89907243  0.70086724  1
  Ta  Ta129  1  0.00006932  0.40130400  0.80089490  1
  Ta  Ta130  1  -0.00712005  -0.00219726  0.00030655  1
  Ta  Ta131  1  0.19952395  0.78943976  0.19474600  1
  Ta  Ta132  1  0.70293890  0.49583142  0.50009895  1
  Ta  Ta133  1  0.60583507  0.60307079  0.59994827  1
  Ta  Ta134  1  0.79809935  0.79684642  0.19032211  1
  Ta  Ta135  1  0.50421087  0.89488979  0.09658142  1
  Ta  Ta136  1  -0.00882354  0.40729119  0.60450706  1
  Ta  Ta137  1  0.30277569  0.10997607  0.29286360  1
  Ta  Ta138  1  0.70483176  0.30696447  0.90339313  1
  Ta  Ta139  1  0.80340251  0.40082881  0.00562449  1
  Ta  Ta140  1  0.29495152  0.49974544  0.29468068  1
  Ta  Ta141  1  0.19994668  0.40323748  0.59873041  1
  Ta  Ta142  1  0.39461879  0.00337699  0.80477126  1
  Ta  Ta143  1  0.29799174  0.49238294  0.69807120  1
  Ta  Ta144  1  0.60541461  0.60705987  0.79914705  1
  Ta  Ta145  1  0.50010340  0.29609507  0.49961228  1
  Ta  Ta146  1  0.49056154  0.09566966  0.70142218  1
  Ta  Ta147  1  0.80199476  0.00104603  0.81150973  1
  Ta  Ta148  1  0.30087330  0.50021556  0.09433295  1
  Ta  Ta149  1  0.29391683  0.29825145  0.70049829  1
  Ti  Ti150  1  0.10252654  0.29393927  0.90167696  1
  Ti  Ti151  1  0.59993410  0.39469266  0.59796336  1
  Ti  Ti152  1  0.71398749  0.89967263  0.49696296  1
  Ti  Ti153  1  0.00316764  0.60466187  0.40428425  1
  Ti  Ti154  1  0.80887931  -0.00054657  0.40755876  1
  Ti  Ti155  1  0.80752368  0.79436097  0.80287841  1
  Ti  Ti156  1  0.90310553  0.50061885  0.50247313  1
  Ti  Ti157  1  0.50066531  0.69260501  0.49663665  1
  Ti  Ti158  1  0.40040771  0.00267315  0.39213309  1
  Ti  Ti159  1  0.19493576  0.79970575  0.40135935  1
  Ti  Ti160  1  0.69574445  0.08925160  0.09611353  1
  Ti  Ti161  1  -0.00926068  0.62157929  -0.00601923  1
  Ti  Ti162  1  0.70079263  0.70237089  0.90570547  1
  Ti  Ti163  1  0.29634730  0.29652809  0.10194412  1
  Ti  Ti164  1  0.80395547  0.60688301  0.80197620  1
  Ti  Ti165  1  0.19439842  0.19314120  0.39187899  1
  Ti  Ti166  1  0.70290004  0.70320795  0.70405789  1
  Ti  Ti167  1  0.80086563  0.60047625  0.19654980  1
  Ti  Ti168  1  0.90191369  0.50343846  0.90696529  1
  Ti  Ti169  1  0.10720192  0.11366022  0.90451223  1
  Ti  Ti170  1  0.38839325  0.19514218  0.58918318  1
  Ti  Ti171  1  0.29549395  0.28853676  0.89425273  1
  Ti  Ti172  1  0.00208700  0.60317893  0.19417039  1
  Ti  Ti173  1  0.20102918  0.40818038  0.19480131  1
  Ti  Ti174  1  0.39529641  0.59843147  0.39946361  1
  Ti  Ti175  1  -0.00019103  0.19653725  0.80629575  1
  Ti  Ti176  1  0.00874516  0.18962711  0.00329147  1
  Ti  Ti177  1  0.29894664  0.89550201  0.29509977  1
  Ti  Ti178  1  0.59811593  -0.00365007  -0.00415165  1
  Ti  Ti179  1  0.82567099  0.79960742  0.00441149  1
  Ti  Ti180  1  -0.00100875  0.00505565  0.40316201  1
  Ti  Ti181  1  0.30986769  0.70127933  0.90217859  1
  Ti  Ti182  1  0.70275090  0.08562962  0.70235136  1
  Ti  Ti183  1  0.21593252  0.01652961  0.59889279  1
  Ti  Ti184  1  0.60362211  0.60233984  0.19991291  1
  Ti  Ti185  1  0.69637305  0.29487808  0.31536473  1
  Ti  Ti186  1  0.19877487  0.79702099  0.59344036  1
  Ti  Ti187  1  0.59250872  0.38355069  0.00316829  1
  Ti  Ti188  1  0.90689619  0.10017236  0.69196823  1
  Ti  Ti189  1  0.59243054  0.18719889  0.40143259  1
  Ti  Ti190  1  0.29207564  0.49604791  0.49573260  1
  Ti  Ti191  1  -0.00073069  0.40085862  -0.00236696  1
  Ti  Ti192  1  0.39329208  0.39669401  0.59653863  1
  Ti  Ti193  1  0.90065074  0.09944612  0.50407313  1
  Ti  Ti194  1  0.20799548  0.61140715  0.00326253  1
  Ti  Ti195  1  0.20771503  0.39041941  -0.00105063  1
  Ti  Ti196  1  0.80403802  -0.00159729  0.59798632  1
  Ti  Ti197  1  0.60341133  -0.00224484  0.80720246  1
  Ti  Ti198  1  0.79656024  0.18357326  0.59956504  1
  Ti  Ti199  1  0.18509173  0.19295296  0.19844771  1
  Mo  Mo200  1  0.19667985  0.40955245  0.39633391  1
  Mo  Mo201  1  -0.01220224  0.00622735  0.59516323  1
  Mo  Mo202  1  0.89785384  0.89754205  0.90444745  1
  Mo  Mo203  1  0.29880526  0.10330597  0.49200489  1
  Mo  Mo204  1  0.89602801  0.90141987  0.09624616  1
  Mo  Mo205  1  0.60861733  0.59953128  0.40263279  1
  Mo  Mo206  1  0.10120460  0.70093044  0.90816063  1
  Mo  Mo207  1  -0.00342303  0.40464538  0.40240982  1
  Mo  Mo208  1  0.29942503  0.11315925  0.90031990  1
  Mo  Mo209  1  0.19572676  0.20465480  0.80806240  1
  Mo  Mo210  1  0.09832982  0.10300375  0.09858125  1
  Mo  Mo211  1  -0.00156073  0.59938213  0.59201377  1
  Mo  Mo212  1  0.40128946  0.19915297  0.19797640  1
  Mo  Mo213  1  0.39496787  0.20207388  0.80457108  1
  Mo  Mo214  1  0.80261703  0.79290272  0.40301379  1
  Mo  Mo215  1  0.70060365  0.30692499  0.09205010  1
  Mo  Mo216  1  0.40229612  0.80192540  0.19581974  1
  Mo  Mo217  1  0.49336058  0.90559772  0.50466785  1
  Mo  Mo218  1  0.50175493  0.89928840  0.90349463  1
  Mo  Mo219  1  0.39551976  0.60776375  0.00378342  1
  Mo  Mo220  1  0.89824434  0.69284001  0.09840476  1
  Mo  Mo221  1  0.89850032  0.29846916  0.29844076  1
  Mo  Mo222  1  0.10215748  0.69813244  0.49782578  1
  Mo  Mo223  1  0.89076164  0.70089133  0.90179005  1
  Mo  Mo224  1  0.90153947  0.49759301  0.70176168  1
  Mo  Mo225  1  0.80531351  0.41043447  0.59771241  1
  Mo  Mo226  1  0.60629532  0.39778907  0.40207639  1
  Mo  Mo227  1  0.49721305  0.10095850  0.30280383  1
  Mo  Mo228  1  0.20078700  0.20613565  0.59899734  1
  Mo  Mo229  1  0.00483321  0.41369472  0.19218892  1
  Mo  Mo230  1  0.49845251  0.89727167  0.29137135  1
  Mo  Mo231  1  0.50020268  0.30094061  0.09975953  1
  Mo  Mo232  1  0.39244989  0.00170421  0.61096310  1
  Mo  Mo233  1  0.59212309  0.80501195  -0.00276793  1
  Mo  Mo234  1  0.09510957  0.10100845  0.29633884  1
  Mo  Mo235  1  0.89682724  0.90750877  0.49980469  1
  Mo  Mo236  1  0.79653553  0.19277938  0.39891874  1
  Mo  Mo237  1  0.90596078  0.09955735  0.90870518  1
  Mo  Mo238  1  -0.00038560  0.79657243  -0.00267303  1
  Mo  Mo239  1  0.39698073  0.80321623  0.80482465  1
  Mo  Mo240  1  0.89425126  0.69907769  0.70146143  1
  Mo  Mo241  1  0.20397805  0.20358792  0.00035037  1
  Mo  Mo242  1  -0.00734679  0.20016523  0.60040425  1
  Mo  Mo243  1  0.00068440  0.00122225  0.19612958  1
  Mo  Mo244  1  0.30055518  0.69632142  0.09707852  1
  Mo  Mo245  1  0.50206980  0.30411310  0.89833677  1
  Mo  Mo246  1  0.39170044  0.39424526  -0.00009393  1
  Mo  Mo247  1  0.69955236  0.08507189  0.90324137  1
  Mo  Mo248  1  0.00931324  0.19134656  0.20176965  1
  Mo  Mo249  1  0.60627800  0.61155254  -0.00749426  1
