# generated using pymatgen
data_HfZrTaTiMo
_symmetry_space_group_name_H-M   'P 1'
_cell_length_a   16.88048118
_cell_length_b   16.87502430
_cell_length_c   16.88502445
_cell_angle_alpha   89.96881458
_cell_angle_beta   89.95383322
_cell_angle_gamma   90.02553855
_symmetry_Int_Tables_number   1
_chemical_formula_structural   HfZrTaTiMo
_chemical_formula_sum   'Hf50 Zr50 Ta50 Ti50 Mo50'
_cell_volume   4809.84049390
_cell_formula_units_Z   50
loop_
 _symmetry_equiv_pos_site_id
 _symmetry_equiv_pos_as_xyz
  1  'x, y, z'
loop_
 _atom_site_type_symbol
 _atom_site_label
 _atom_site_symmetry_multiplicity
 _atom_site_fract_x
 _atom_site_fract_y
 _atom_site_fract_z
 _atom_site_occupancy
  Hf  Hf0  1  0.59974315  0.80857934  0.80282911  1
  Hf  Hf1  1  0.69768599  0.09884335  0.10276382  1
  Hf  Hf2  1  0.29598574  0.69522825  0.90652746  1
  Hf  Hf3  1  0.39437131  0.60065862  0.19636998  1
  Hf  Hf4  1  0.00465502  0.00227654  0.79379262  1
  Hf  Hf5  1  0.71141943  0.49834153  0.30549308  1
  Hf  Hf6  1  0.81104067  0.40303607  0.79260239  1
  Hf  Hf7  1  0.09753972  0.48857448  0.90336419  1
  Hf  Hf8  1  0.49695845  0.09253878  0.69373337  1
  Hf  Hf9  1  0.30208711  0.89533970  0.30028733  1
  Hf  Hf10  1  0.39018756  0.59323128  0.79596853  1
  Hf  Hf11  1  0.89760155  0.89473246  0.50293795  1
  Hf  Hf12  1  0.08981714  0.90314875  0.50059243  1
  Hf  Hf13  1  0.39856076  0.59518033  0.59480829  1
  Hf  Hf14  1  0.60089987  0.20075776  0.59418909  1
  Hf  Hf15  1  0.59843631  0.19581097  -0.01022386  1
  Hf  Hf16  1  0.92362659  0.30663179  0.89564590  1
  Hf  Hf17  1  0.00280961  0.18523009  0.39376989  1
  Hf  Hf18  1  0.10665286  0.10731960  0.89650248  1
  Hf  Hf19  1  0.49715108  0.70830811  0.10570456  1
  Hf  Hf20  1  -0.00637473  0.00775242  0.20870241  1
  Hf  Hf21  1  0.79273821  0.80174502  0.38777826  1
  Hf  Hf22  1  0.49040781  0.09932432  0.30887159  1
  Hf  Hf23  1  0.70394773  0.51165335  0.69458015  1
  Hf  Hf24  1  0.39665346  0.82173416  0.58920304  1
  Hf  Hf25  1  0.49286478  0.49816480  0.90559018  1
  Hf  Hf26  1  0.50501099  0.70913817  0.69111340  1
  Hf  Hf27  1  0.19749463  0.80613363  0.80144594  1
  Hf  Hf28  1  0.29155458  0.29339131  0.88960792  1
  Hf  Hf29  1  0.60206662  0.60342473  0.00438152  1
  Hf  Hf30  1  0.48265759  0.30101114  0.49449049  1
  Hf  Hf31  1  0.19403270  0.80858419  0.60431130  1
  Hf  Hf32  1  0.40075542  0.60193056  0.40376872  1
  Hf  Hf33  1  0.80367637  -0.00133005  0.00319668  1
  Hf  Hf34  1  0.89766923  0.69250355  0.30392407  1
  Hf  Hf35  1  0.59523108  0.39151478  0.79920707  1
  Hf  Hf36  1  0.48658381  0.28552475  0.70119337  1
  Hf  Hf37  1  0.71398404  0.30654941  0.48869861  1
  Hf  Hf38  1  0.00125048  0.58800742  0.19818612  1
  Hf  Hf39  1  0.39689972  0.20195365  -0.00324053  1
  Hf  Hf40  1  0.70340191  0.28694354  0.88694740  1
  Hf  Hf41  1  0.80600201  0.40029464  0.00060434  1
  Hf  Hf42  1  0.69937167  0.89995459  0.50783721  1
  Hf  Hf43  1  0.80386280  -0.00324542  0.20217891  1
  Hf  Hf44  1  0.69571679  0.49948104  0.10936435  1
  Hf  Hf45  1  0.49298937  0.30123367  0.09807767  1
  Hf  Hf46  1  0.10811183  0.68951596  0.09780068  1
  Hf  Hf47  1  0.29644144  0.09837181  0.89365264  1
  Hf  Hf48  1  0.70389827  0.70391508  0.50223126  1
  Hf  Hf49  1  0.11324104  0.68685904  0.30008079  1
  Zr  Zr50  1  0.01787072  0.21419280  0.00689022  1
  Zr  Zr51  1  0.09890166  0.90101626  0.30172371  1
  Zr  Zr52  1  0.49687690  0.10637339  0.88495369  1
  Zr  Zr53  1  -0.00234695  -0.00403014  0.00400210  1
  Zr  Zr54  1  0.59699657  0.39236270  -0.00388252  1
  Zr  Zr55  1  0.71038156  0.29859664  0.10857421  1
  Zr  Zr56  1  0.09619416  0.49150656  0.69502034  1
  Zr  Zr57  1  0.49822742  0.70103417  0.90335438  1
  Zr  Zr58  1  0.82223092  0.19653132  0.78742577  1
  Zr  Zr59  1  0.39940506  0.81434472  0.80384517  1
  Zr  Zr60  1  0.00383689  0.19248340  0.61341439  1
  Zr  Zr61  1  0.30361160  0.10482365  0.70159927  1
  Zr  Zr62  1  -0.00678394  0.60111183  0.79969052  1
  Zr  Zr63  1  0.79861247  0.00422291  0.80587945  1
  Zr  Zr64  1  0.19997389  0.80019149  0.40518795  1
  Zr  Zr65  1  0.27992248  0.51497100  0.30642008  1
  Zr  Zr66  1  0.81203183  0.40682263  0.60234864  1
  Zr  Zr67  1  0.20013809  0.39195700  0.19589551  1
  Zr  Zr68  1  0.38555451  -0.00348044  0.41726142  1
  Zr  Zr69  1  0.38941798  0.20103267  0.20469000  1
  Zr  Zr70  1  -0.00078302  0.79506628  0.80102650  1
  Zr  Zr71  1  0.89722629  0.88919303  0.69568703  1
  Zr  Zr72  1  0.38813012  0.39999258  0.79725481  1
  Zr  Zr73  1  0.70189915  0.50447198  0.89725166  1
  Zr  Zr74  1  0.49188975  0.89225565  0.30459210  1
  Zr  Zr75  1  -0.00083145  0.59798018  0.40298914  1
  Zr  Zr76  1  0.91212331  0.30306415  0.49338425  1
  Zr  Zr77  1  0.30120630  0.70447682  0.69712786  1
  Zr  Zr78  1  -0.01353505  0.59354673  0.59835364  1
  Zr  Zr79  1  0.50327399  0.71791418  0.49132713  1
  Zr  Zr80  1  0.11115583  0.09567419  0.10146178  1
  Zr  Zr81  1  0.59286378  0.38949208  0.21287857  1
  Zr  Zr82  1  0.30017656  0.90133816  0.10459943  1
  Zr  Zr83  1  0.50344598  0.50160564  0.69593643  1
  Zr  Zr84  1  -0.00510333  0.79599448  0.00237817  1
  Zr  Zr85  1  0.60113901  0.40030876  0.59113399  1
  Zr  Zr86  1  0.81110723  0.19893738  0.60222881  1
  Zr  Zr87  1  0.20234831  0.18733339  0.40337216  1
  Zr  Zr88  1  0.59556295  0.19973436  0.20702102  1
  Zr  Zr89  1  0.80226650  0.80742137  0.19799394  1
  Zr  Zr90  1  0.70245763  0.70612483  0.69274178  1
  Zr  Zr91  1  0.70387355  0.09722209  0.49651818  1
  Zr  Zr92  1  0.38909232  0.39823094  0.20288040  1
  Zr  Zr93  1  0.10455074  0.89850995  0.10730848  1
  Zr  Zr94  1  0.80784570  0.19665359  -0.00301466  1
  Zr  Zr95  1  0.59646808  0.20845577  0.39455383  1
  Zr  Zr96  1  0.09618279  0.30700654  0.30851580  1
  Zr  Zr97  1  0.80254795  0.59885856  0.19802307  1
  Zr  Zr98  1  0.10367979  0.49000606  0.49953080  1
  Zr  Zr99  1  0.50468926  0.50560732  0.29955779  1
  Ta  Ta100  1  0.69261592  0.10218471  0.70424511  1
  Ta  Ta101  1  0.59827550  -0.00355662  0.20389505  1
  Ta  Ta102  1  0.69576979  0.90269940  0.69592015  1
  Ta  Ta103  1  0.72230820  0.30217902  0.30209604  1
  Ta  Ta104  1  0.60394152  -0.00091169  0.39582670  1
  Ta  Ta105  1  0.59943201  0.59966122  0.58590566  1
  Ta  Ta106  1  0.40057214  -0.00230621  -0.00131611  1
  Ta  Ta107  1  0.80861930  0.60796776  0.80379992  1
  Ta  Ta108  1  0.10432515  0.69050482  0.90265987  1
  Ta  Ta109  1  0.79934798  0.79625202  0.80847333  1
  Ta  Ta110  1  0.20237010  0.59946524  0.60096119  1
  Ta  Ta111  1  0.60212718  -0.00184725  0.80158035  1
  Ta  Ta112  1  0.09645895  0.70000975  0.69491114  1
  Ta  Ta113  1  0.70527695  0.10034562  0.30029819  1
  Ta  Ta114  1  0.20197631  0.19957795  0.20463781  1
  Ta  Ta115  1  0.89701328  0.89637778  0.90202870  1
  Ta  Ta116  1  0.49476175  0.50159381  0.09970701  1
  Ta  Ta117  1  0.79922042  0.79879828  0.00188822  1
  Ta  Ta118  1  0.00457145  0.19915644  0.20774421  1
  Ta  Ta119  1  0.60668779  0.60757050  0.39470080  1
  Ta  Ta120  1  0.29983272  0.09728940  0.09814467  1
  Ta  Ta121  1  0.29392158  0.29936232  0.50536105  1
  Ta  Ta122  1  0.49923331  0.70550641  0.29611986  1
  Ta  Ta123  1  0.69962743  0.89985755  0.90509242  1
  Ta  Ta124  1  0.90655639  0.49828811  0.90270760  1
  Ta  Ta125  1  -0.00144022  0.79181996  0.40334116  1
  Ta  Ta126  1  0.69844659  0.29469979  0.69913674  1
  Ta  Ta127  1  0.69694032  0.70355405  0.10247904  1
  Ta  Ta128  1  0.30698995  0.70507376  0.30048299  1
  Ta  Ta129  1  0.40009235  0.00292126  0.19828296  1
  Ta  Ta130  1  0.39463722  0.80864161  0.00114588  1
  Ta  Ta131  1  0.28949622  0.50203721  0.08757850  1
  Ta  Ta132  1  0.69313928  0.90002182  0.09695088  1
  Ta  Ta133  1  0.60556777  0.80402029  0.20414665  1
  Ta  Ta134  1  0.00445849  -0.00070378  0.60777646  1
  Ta  Ta135  1  0.20579760  0.79042190  0.19794680  1
  Ta  Ta136  1  0.91281069  0.30753112  0.11065277  1
  Ta  Ta137  1  0.20201464  0.80050471  -0.00336688  1
  Ta  Ta138  1  0.80771026  0.60485904  0.00093448  1
  Ta  Ta139  1  0.20015908  0.00409231  0.60015827  1
  Ta  Ta140  1  0.49676958  0.09555460  0.50332675  1
  Ta  Ta141  1  0.80238738  0.00593051  0.60969905  1
  Ta  Ta142  1  0.90478062  0.08480748  0.49801617  1
  Ta  Ta143  1  -0.00459757  0.59642207  0.00131851  1
  Ta  Ta144  1  0.81666648  0.19563507  0.20795061  1
  Ta  Ta145  1  0.91434757  0.10388603  0.89837297  1
  Ta  Ta146  1  0.19874586  0.59499481  0.79532784  1
  Ta  Ta147  1  0.29757561  0.70325412  0.49662932  1
  Ta  Ta148  1  0.19561238  -0.00866444  0.79255140  1
  Ta  Ta149  1  0.49776821  0.09249713  0.09874879  1
  Ti  Ti150  1  0.89218672  0.70236490  0.68695551  1
  Ti  Ti151  1  0.10186089  0.49422888  0.09473494  1
  Ti  Ti152  1  0.90056394  0.69989159  0.10136648  1
  Ti  Ti153  1  0.60081796  0.60520652  0.80068944  1
  Ti  Ti154  1  0.18767782  0.20131598  0.78241467  1
  Ti  Ti155  1  0.81393764  0.19361462  0.39190158  1
  Ti  Ti156  1  0.88639116  0.50449180  0.48846013  1
  Ti  Ti157  1  0.90217972  0.31325974  0.29604881  1
  Ti  Ti158  1  0.38887548  0.40662466  0.60099388  1
  Ti  Ti159  1  0.50198388  0.90467181  0.90767341  1
  Ti  Ti160  1  0.39563710  0.59807073  0.00392839  1
  Ti  Ti161  1  0.10486810  0.30292127  0.51094952  1
  Ti  Ti162  1  0.38816635  0.19068039  0.58766985  1
  Ti  Ti163  1  0.29112837  0.49710668  0.50257917  1
  Ti  Ti164  1  0.09845350  0.89794162  0.90225456  1
  Ti  Ti165  1  0.80139951  -0.00129082  0.39208828  1
  Ti  Ti166  1  0.51340616  0.91082601  0.50854690  1
  Ti  Ti167  1  0.70280970  0.70325606  0.90497547  1
  Ti  Ti168  1  0.91057748  0.90013984  0.30987671  1
  Ti  Ti169  1  0.10379106  0.49969364  0.30082971  1
  Ti  Ti170  1  0.59999466  0.00310328  -0.00416481  1
  Ti  Ti171  1  0.19856532  0.00560912  0.40256797  1
  Ti  Ti172  1  0.20281368  0.39574920  0.40493401  1
  Ti  Ti173  1  0.09788652  0.69806353  0.50708244  1
  Ti  Ti174  1  0.20720316  -0.00966167  -0.00953086  1
  Ti  Ti175  1  0.90565751  0.48865893  0.10120973  1
  Ti  Ti176  1  0.29608510  0.69671916  0.09769792  1
  Ti  Ti177  1  -0.00564094  0.41000641  0.39590959  1
  Ti  Ti178  1  0.60081109  0.80460664  0.00218408  1
  Ti  Ti179  1  0.18966672  0.38208959  0.00351908  1
  Ti  Ti180  1  0.09584648  0.30620428  0.69777542  1
  Ti  Ti181  1  0.50379711  0.49785617  0.49343565  1
  Ti  Ti182  1  0.28575026  0.49948913  0.90890614  1
  Ti  Ti183  1  0.60807667  0.80540746  0.38944662  1
  Ti  Ti184  1  0.29087474  0.29734848  0.68735919  1
  Ti  Ti185  1  0.30256402  0.91178881  0.69574225  1
  Ti  Ti186  1  0.20601944  0.01134276  0.21481414  1
  Ti  Ti187  1  0.39361092  0.40546610  0.39958555  1
  Ti  Ti188  1  0.09975629  0.09477327  0.50511603  1
  Ti  Ti189  1  0.40120524  -0.00998313  0.80151251  1
  Ti  Ti190  1  0.90603897  0.10794809  0.09976593  1
  Ti  Ti191  1  0.59990427  0.39812911  0.39692042  1
  Ti  Ti192  1  -0.00119697  0.79817783  0.20232509  1
  Ti  Ti193  1  0.20224495  0.21013136  0.01043832  1
  Ti  Ti194  1  0.38896995  0.39423811  -0.00108189  1
  Ti  Ti195  1  0.50056931  0.90127519  0.10154299  1
  Ti  Ti196  1  0.88859179  0.70315281  0.50455329  1
  Ti  Ti197  1  0.20033466  0.40039041  0.79107290  1
  Ti  Ti198  1  0.30453266  0.29330326  0.31774987  1
  Ti  Ti199  1  0.70799123  0.50677812  0.49179574  1
  Mo  Mo200  1  0.39879856  0.79820549  0.19551225  1
  Mo  Mo201  1  0.69943664  0.09347009  0.89554395  1
  Mo  Mo202  1  0.10142639  0.29926570  0.11412013  1
  Mo  Mo203  1  -0.00124192  -0.00211792  0.40635215  1
  Mo  Mo204  1  0.29519224  0.29959140  0.09095960  1
  Mo  Mo205  1  0.10639625  0.09630593  0.69932382  1
  Mo  Mo206  1  0.39986459  -0.00091249  0.60012659  1
  Mo  Mo207  1  0.00247169  0.40016698  0.79430483  1
  Mo  Mo208  1  0.39003642  0.20421709  0.79451106  1
  Mo  Mo209  1  0.10252580  0.09774869  0.29981884  1
  Mo  Mo210  1  0.89904481  0.09512728  0.30570560  1
  Mo  Mo211  1  0.59982755  0.61024586  0.20156036  1
  Mo  Mo212  1  0.10024301  0.89905035  0.69661536  1
  Mo  Mo213  1  0.19474230  0.20143898  0.59902532  1
  Mo  Mo214  1  0.60173603  0.00284191  0.60035361  1
  Mo  Mo215  1  0.39236844  0.19707375  0.40846724  1
  Mo  Mo216  1  0.29834170  0.09630319  0.29948605  1
  Mo  Mo217  1  0.20218355  0.60347787  0.41677774  1
  Mo  Mo218  1  0.10932794  0.30232565  0.88382108  1
  Mo  Mo219  1  0.89672986  0.89225203  0.10068216  1
  Mo  Mo220  1  0.01299998  0.20183440  0.79819936  1
  Mo  Mo221  1  0.00329976  0.40390897  0.20181915  1
  Mo  Mo222  1  0.69439003  0.90768723  0.29883114  1
  Mo  Mo223  1  0.29085640  0.49666088  0.69125760  1
  Mo  Mo224  1  0.39889970  0.80024556  0.40153121  1
  Mo  Mo225  1  0.79906436  0.80326869  0.60419228  1
  Mo  Mo226  1  0.79917376  0.60158518  0.59669698  1
  Mo  Mo227  1  0.59749196  0.80947490  0.60428965  1
  Mo  Mo228  1  0.20276569  0.39298543  0.59993953  1
  Mo  Mo229  1  0.91971422  0.31347859  0.69897054  1
  Mo  Mo230  1  0.69267055  0.69812963  0.29668135  1
  Mo  Mo231  1  0.20177062  0.59672705  0.18764903  1
  Mo  Mo232  1  0.28614696  0.90451064  0.50330069  1
  Mo  Mo233  1  -0.00066306  0.79055805  0.59619954  1
  Mo  Mo234  1  0.00656266  0.40466835  0.00783275  1
  Mo  Mo235  1  0.19726537  0.59582873  -0.00519439  1
  Mo  Mo236  1  0.89845087  0.50642629  0.70473081  1
  Mo  Mo237  1  0.29374620  0.09978649  0.50652303  1
  Mo  Mo238  1  0.90170488  0.49314297  0.30068733  1
  Mo  Mo239  1  0.80870578  0.40537470  0.39705202  1
  Mo  Mo240  1  0.90560091  0.09100811  0.69981525  1
  Mo  Mo241  1  -0.00229636  0.39771475  0.59833438  1
  Mo  Mo242  1  0.89649363  0.69777144  0.90833584  1
  Mo  Mo243  1  0.47920473  0.30484020  0.31451107  1
  Mo  Mo244  1  0.81134134  0.39748230  0.20148198  1
  Mo  Mo245  1  0.50485031  0.90892804  0.69651028  1
  Mo  Mo246  1  0.29890858  0.90403704  0.90178402  1
  Mo  Mo247  1  0.59864216  0.19648516  0.79373098  1
  Mo  Mo248  1  0.49084605  0.30034687  0.89616196  1
  Mo  Mo249  1  0.79760786  0.60166442  0.40262481  1
