# generated using pymatgen
data_HfZrTaTiMo
_symmetry_space_group_name_H-M   'P 1'
_cell_length_a   16.89106885
_cell_length_b   16.87942929
_cell_length_c   16.88173065
_cell_angle_alpha   89.99451499
_cell_angle_beta   89.99869486
_cell_angle_gamma   89.88241169
_symmetry_Int_Tables_number   1
_chemical_formula_structural   HfZrTaTiMo
_chemical_formula_sum   'Hf50 Zr50 Ta50 Ti50 Mo50'
_cell_volume   4813.16711335
_cell_formula_units_Z   50
loop_
 _symmetry_equiv_pos_site_id
 _symmetry_equiv_pos_as_xyz
  1  'x, y, z'
loop_
 _atom_site_type_symbol
 _atom_site_label
 _atom_site_symmetry_multiplicity
 _atom_site_fract_x
 _atom_site_fract_y
 _atom_site_fract_z
 _atom_site_occupancy
  Hf  Hf0  1  0.29795319  0.69902037  0.10068183  1
  Hf  Hf1  1  0.89903651  0.49699953  0.69420960  1
  Hf  Hf2  1  0.39661672  0.00591700  -0.00075396  1
  Hf  Hf3  1  0.10448444  0.09590653  0.10392165  1
  Hf  Hf4  1  0.90009845  0.49929963  0.10713852  1
  Hf  Hf5  1  0.89895078  0.70613738  0.69728279  1
  Hf  Hf6  1  -0.00728384  0.00566483  -0.01298286  1
  Hf  Hf7  1  0.49125517  0.30340114  0.70825548  1
  Hf  Hf8  1  0.49234982  0.10703749  0.49850166  1
  Hf  Hf9  1  0.40639290  0.79723607  0.00076591  1
  Hf  Hf10  1  0.31056747  0.27382621  0.28644773  1
  Hf  Hf11  1  0.30250291  0.49963852  0.88942249  1
  Hf  Hf12  1  0.40826199  0.40367679  -0.00731817  1
  Hf  Hf13  1  0.60650760  0.59311497  0.79896310  1
  Hf  Hf14  1  0.89690981  0.30658064  0.70290560  1
  Hf  Hf15  1  0.00174640  0.40270781  0.58600800  1
  Hf  Hf16  1  0.10776324  0.09901080  0.29193344  1
  Hf  Hf17  1  0.29984210  0.30385782  0.89857427  1
  Hf  Hf18  1  0.29900078  0.70393296  0.30825457  1
  Hf  Hf19  1  0.89494128  0.30218847  0.90088377  1
  Hf  Hf20  1  0.00214843  0.79889785  0.59377679  1
  Hf  Hf21  1  0.47695724  0.11872359  0.29660346  1
  Hf  Hf22  1  0.49734242  0.89840950  0.70433212  1
  Hf  Hf23  1  0.60104843  0.59834697  0.60393689  1
  Hf  Hf24  1  0.90429734  0.29431913  0.29521103  1
  Hf  Hf25  1  0.49142143  0.50290369  0.30903523  1
  Hf  Hf26  1  0.30075271  0.89621080  0.89787187  1
  Hf  Hf27  1  0.89806379  0.89568444  0.29700064  1
  Hf  Hf28  1  0.79717021  0.00255835  -0.00031553  1
  Hf  Hf29  1  0.19310942  0.00319734  0.80223415  1
  Hf  Hf30  1  0.79462106  0.38259002  0.02163207  1
  Hf  Hf31  1  0.89106538  0.69851099  0.10022040  1
  Hf  Hf32  1  0.81181118  0.80370033  0.81230514  1
  Hf  Hf33  1  -0.00511286  0.60247455  0.80469862  1
  Hf  Hf34  1  0.59873036  0.80173551  0.00645829  1
  Hf  Hf35  1  0.80060571  0.59603260  0.59711818  1
  Hf  Hf36  1  0.29419748  0.30069171  0.09453754  1
  Hf  Hf37  1  0.01293077  0.39892035  0.39469032  1
  Hf  Hf38  1  0.80854695  -0.00571527  0.80911634  1
  Hf  Hf39  1  0.60601421  -0.00412345  0.59464958  1
  Hf  Hf40  1  0.80246768  0.19068843  0.61001395  1
  Hf  Hf41  1  0.09718862  0.89840144  0.10065510  1
  Hf  Hf42  1  0.39344629  0.79127625  0.58884763  1
  Hf  Hf43  1  0.40996304  0.79281930  0.19951852  1
  Hf  Hf44  1  0.39104149  0.00397040  0.19714689  1
  Hf  Hf45  1  0.71313142  0.68520235  0.91390180  1
  Hf  Hf46  1  0.58690020  0.21533597  0.39617227  1
  Hf  Hf47  1  0.70546820  0.71175782  0.50415896  1
  Hf  Hf48  1  0.10636088  0.89892887  0.29579921  1
  Hf  Hf49  1  0.59456465  0.61004027  0.20951265  1
  Zr  Zr50  1  0.79617572  0.01187797  0.20617716  1
  Zr  Zr51  1  0.59940745  0.19621800  0.80500789  1
  Zr  Zr52  1  0.60858058  0.00308649  0.81597808  1
  Zr  Zr53  1  0.60635222  0.00926810  0.38915302  1
  Zr  Zr54  1  0.50273234  0.50286553  0.10344456  1
  Zr  Zr55  1  0.48775267  0.29159999  0.10251234  1
  Zr  Zr56  1  0.88230468  0.50385870  0.91039807  1
  Zr  Zr57  1  0.49603804  0.90343265  0.49350703  1
  Zr  Zr58  1  0.59294126  0.40242022  0.80979667  1
  Zr  Zr59  1  0.01002547  0.78560950  0.39579176  1
  Zr  Zr60  1  -0.00139488  0.59637392  0.40361614  1
  Zr  Zr61  1  0.40366351  0.60087574  0.00256268  1
  Zr  Zr62  1  0.00101417  0.59620982  -0.00110260  1
  Zr  Zr63  1  0.38403456  0.00040849  0.59234398  1
  Zr  Zr64  1  0.49294617  0.09689808  0.70115933  1
  Zr  Zr65  1  0.30575038  0.50612886  0.48175649  1
  Zr  Zr66  1  0.00589893  0.18688068  0.80629106  1
  Zr  Zr67  1  0.10109130  0.69875200  0.69575783  1
  Zr  Zr68  1  0.01100819  0.60350536  0.21551315  1
  Zr  Zr69  1  0.90621227  0.09540337  0.49578160  1
  Zr  Zr70  1  0.10111984  0.09156357  0.50149026  1
  Zr  Zr71  1  -0.00058025  0.20372785  -0.00099533  1
  Zr  Zr72  1  0.59947691  0.40065127  0.40411685  1
  Zr  Zr73  1  0.18966082  0.19651320  0.80114845  1
  Zr  Zr74  1  0.11792489  0.49572427  0.49947882  1
  Zr  Zr75  1  0.29627891  0.31216294  0.70978056  1
  Zr  Zr76  1  0.60735756  0.79948086  0.81462995  1
  Zr  Zr77  1  0.00267968  0.40645940  0.81003959  1
  Zr  Zr78  1  0.10117385  0.70104255  0.89816735  1
  Zr  Zr79  1  0.80557237  0.40884718  0.39831895  1
  Zr  Zr80  1  0.80008167  0.20740059  0.18514578  1
  Zr  Zr81  1  0.89938338  0.29279726  0.49458678  1
  Zr  Zr82  1  0.79930293  0.18555587  0.80682530  1
  Zr  Zr83  1  0.70127628  0.10374583  0.49876380  1
  Zr  Zr84  1  0.70741739  0.29952939  0.50452008  1
  Zr  Zr85  1  0.49154266  0.90601662  0.30307385  1
  Zr  Zr86  1  0.39774085  0.40323113  0.59432390  1
  Zr  Zr87  1  0.40934521  0.37584623  0.39915911  1
  Zr  Zr88  1  0.00621282  0.20292205  0.60445955  1
  Zr  Zr89  1  0.29255816  0.89647661  0.69755512  1
  Zr  Zr90  1  0.60318884  0.60589687  0.40423124  1
  Zr  Zr91  1  0.70732640  0.88838611  0.69160509  1
  Zr  Zr92  1  0.79468883  0.81279154  0.00190716  1
  Zr  Zr93  1  0.60120153  0.39575679  0.20658895  1
  Zr  Zr94  1  0.09919778  0.70371257  0.09842679  1
  Zr  Zr95  1  0.59312235  0.19605486  -0.00817394  1
  Zr  Zr96  1  0.49749100  0.70104109  0.70096683  1
  Zr  Zr97  1  0.01070453  0.40188430  0.20548648  1
  Zr  Zr98  1  0.09292990  0.89471203  0.89385646  1
  Zr  Zr99  1  0.19746795  0.20359463  0.59773554  1
  Ta  Ta100  1  0.11128980  0.30264682  0.10039604  1
  Ta  Ta101  1  0.10892031  0.50175544  0.69701863  1
  Ta  Ta102  1  0.20543459  0.19659230  0.40079851  1
  Ta  Ta103  1  0.59810532  0.00373628  0.19665618  1
  Ta  Ta104  1  0.90518817  0.89986593  0.10388275  1
  Ta  Ta105  1  0.20159628  0.00055036  -0.00073981  1
  Ta  Ta106  1  0.20540949  0.59229940  0.20581332  1
  Ta  Ta107  1  0.89986504  0.89678806  0.49666697  1
  Ta  Ta108  1  0.20348515  0.00184162  0.39943818  1
  Ta  Ta109  1  0.11359366  0.49333691  0.09926834  1
  Ta  Ta110  1  0.10580192  0.89902057  0.49840918  1
  Ta  Ta111  1  0.29262716  0.89830715  0.10454988  1
  Ta  Ta112  1  0.19984346  0.79587758  0.79656789  1
  Ta  Ta113  1  0.19553571  0.19487853  -0.00445809  1
  Ta  Ta114  1  0.20621114  0.59456229  0.00276834  1
  Ta  Ta115  1  0.29634653  0.10051519  0.69762337  1
  Ta  Ta116  1  0.60109679  0.40471049  0.60872412  1
  Ta  Ta117  1  0.80039234  0.18251686  0.37887678  1
  Ta  Ta118  1  0.70192922  0.30036702  0.90229916  1
  Ta  Ta119  1  0.69925477  0.89918994  0.29891916  1
  Ta  Ta120  1  0.59925115  0.39417007  -0.00061211  1
  Ta  Ta121  1  0.79940421  0.60001056  0.39808968  1
  Ta  Ta122  1  0.69975199  0.49768644  0.91364098  1
  Ta  Ta123  1  0.59737678  0.20693289  0.60646735  1
  Ta  Ta124  1  0.21013450  0.60363396  0.59559285  1
  Ta  Ta125  1  0.69800029  0.50382204  0.10141960  1
  Ta  Ta126  1  0.70257941  0.29645064  0.29841681  1
  Ta  Ta127  1  0.80157684  -0.00113044  0.39612206  1
  Ta  Ta128  1  0.69887114  0.69625639  0.10529416  1
  Ta  Ta129  1  0.59813140  0.79920374  0.39584257  1
  Ta  Ta130  1  0.59848139  0.19766175  0.20093597  1
  Ta  Ta131  1  -0.00035083  -0.00477810  0.39386342  1
  Ta  Ta132  1  0.20473687  0.79931609  -0.00280076  1
  Ta  Ta133  1  0.79375137  0.40067908  0.20295634  1
  Ta  Ta134  1  0.70313479  0.30560475  0.70193540  1
  Ta  Ta135  1  0.30123234  0.69351775  0.70382108  1
  Ta  Ta136  1  0.10521090  0.32003179  0.69861986  1
  Ta  Ta137  1  0.48603566  0.50380009  0.70729618  1
  Ta  Ta138  1  0.59983549  0.80422994  0.19891978  1
  Ta  Ta139  1  0.49952891  0.90626651  0.10020884  1
  Ta  Ta140  1  0.39628990  0.60065837  0.20568937  1
  Ta  Ta141  1  0.80533396  -0.01014860  0.59738364  1
  Ta  Ta142  1  0.38986602  0.40847797  0.20403438  1
  Ta  Ta143  1  0.70485516  0.49645262  0.50616478  1
  Ta  Ta144  1  0.29869122  0.69652319  0.89319004  1
  Ta  Ta145  1  0.69154437  0.10166534  0.09808231  1
  Ta  Ta146  1  0.29465861  0.89871967  0.30074724  1
  Ta  Ta147  1  0.79118226  0.59556736  0.20938321  1
  Ta  Ta148  1  0.39196932  0.20582872  0.59529605  1
  Ta  Ta149  1  0.70435099  0.70899304  0.30018382  1
  Ti  Ti150  1  0.00426244  0.39791606  0.00630816  1
  Ti  Ti151  1  -0.00280538  -0.01297584  0.59923397  1
  Ti  Ti152  1  0.28874907  0.89644372  0.49140156  1
  Ti  Ti153  1  0.59486779  0.59943785  0.00252788  1
  Ti  Ti154  1  0.49643706  0.10025208  0.09589446  1
  Ti  Ti155  1  0.01107845  0.19996015  0.39642120  1
  Ti  Ti156  1  0.89766306  0.50220632  0.29836419  1
  Ti  Ti157  1  0.29165159  0.10603875  0.10480155  1
  Ti  Ti158  1  0.90995138  0.08432733  0.70184382  1
  Ti  Ti159  1  0.28604129  0.30518741  0.49902297  1
  Ti  Ti160  1  0.09886584  0.08327036  0.69208798  1
  Ti  Ti161  1  0.89471022  0.70264028  0.49857184  1
  Ti  Ti162  1  0.39819064  0.60541720  0.59287606  1
  Ti  Ti163  1  0.11040315  0.31266176  0.90399609  1
  Ti  Ti164  1  -0.00710717  0.00249007  0.20244624  1
  Ti  Ti165  1  0.19778548  0.79369412  0.20310251  1
  Ti  Ti166  1  0.70619369  0.70625183  0.69674252  1
  Ti  Ti167  1  0.20951974  0.40833488  0.20576594  1
  Ti  Ti168  1  0.29769618  0.10364116  0.90080497  1
  Ti  Ti169  1  0.40164440  0.79438283  0.40545149  1
  Ti  Ti170  1  0.09709683  0.89808886  0.69746760  1
  Ti  Ti171  1  0.00451923  0.60002987  0.58829272  1
  Ti  Ti172  1  -0.00089256  0.79355131  0.20323584  1
  Ti  Ti173  1  -0.01783876  0.79854943  -0.01501023  1
  Ti  Ti174  1  0.29957148  0.50269559  0.70185238  1
  Ti  Ti175  1  0.49719041  0.68962930  0.89458444  1
  Ti  Ti176  1  0.69927805  0.09417453  0.69846415  1
  Ti  Ti177  1  0.39656427  0.00522771  0.80421307  1
  Ti  Ti178  1  0.60196110  -0.00109526  -0.00035829  1
  Ti  Ti179  1  0.11388837  0.29054883  0.29098963  1
  Ti  Ti180  1  0.79668623  0.59774704  0.79538569  1
  Ti  Ti181  1  0.78793997  0.40857414  0.79847314  1
  Ti  Ti182  1  0.79027239  0.80666260  0.19385515  1
  Ti  Ti183  1  0.19185062  0.61354087  0.39727582  1
  Ti  Ti184  1  0.40236391  0.19477821  0.81046915  1
  Ti  Ti185  1  0.49818626  0.90464041  0.90065715  1
  Ti  Ti186  1  0.20565777  0.39608693  0.38196456  1
  Ti  Ti187  1  0.19976750  0.59986870  0.79713552  1
  Ti  Ti188  1  0.79868831  0.19505615  0.00130885  1
  Ti  Ti189  1  0.11253398  0.49488950  0.90331006  1
  Ti  Ti190  1  0.41044026  0.61830877  0.40602425  1
  Ti  Ti191  1  0.20078239  0.79042821  0.58952910  1
  Ti  Ti192  1  0.59682050  0.80250132  0.58903839  1
  Ti  Ti193  1  0.38022201  0.01343343  0.40039130  1
  Ti  Ti194  1  0.90235083  0.10152060  0.10104232  1
  Ti  Ti195  1  0.88726918  0.70375285  0.29763345  1
  Ti  Ti196  1  0.79623269  0.80703305  0.40269782  1
  Ti  Ti197  1  0.00205059  0.20175843  0.19463618  1
  Ti  Ti198  1  0.50126086  0.50237852  0.50418212  1
  Ti  Ti199  1  0.39905596  0.79465270  0.80308868  1
  Mo  Mo200  1  0.19867728  0.19830369  0.19419389  1
  Mo  Mo201  1  0.50564072  0.70327687  0.10460743  1
  Mo  Mo202  1  0.80780091  0.80153431  0.59311235  1
  Mo  Mo203  1  0.29999450  0.69850063  0.49922922  1
  Mo  Mo204  1  0.48703114  0.09588811  0.90369811  1
  Mo  Mo205  1  0.70745948  0.89967188  0.49127214  1
  Mo  Mo206  1  0.19877302  0.40192303  -0.00135693  1
  Mo  Mo207  1  0.50287558  0.70182648  0.50009733  1
  Mo  Mo208  1  0.40139274  0.40854169  0.80159374  1
  Mo  Mo209  1  0.91814273  0.30107365  0.10222550  1
  Mo  Mo210  1  0.50030589  0.70511931  0.30471948  1
  Mo  Mo211  1  0.79700091  0.40245678  0.60247370  1
  Mo  Mo212  1  0.49304191  0.29878497  0.28689891  1
  Mo  Mo213  1  0.29525254  0.10250800  0.50006119  1
  Mo  Mo214  1  0.20312561  0.40759214  0.60212188  1
  Mo  Mo215  1  0.19440817  -0.00658521  0.59870456  1
  Mo  Mo216  1  0.10459896  0.09432088  0.90486404  1
  Mo  Mo217  1  0.89917869  0.50779665  0.49807361  1
  Mo  Mo218  1  0.11779563  0.49952421  0.30149036  1
  Mo  Mo219  1  0.69607076  0.90329768  0.90840126  1
  Mo  Mo220  1  0.39003094  0.20080097  0.42043249  1
  Mo  Mo221  1  0.39607305  0.19105044  0.17936576  1
  Mo  Mo222  1  0.50425173  0.29897541  0.52060977  1
  Mo  Mo223  1  0.39191915  0.19090992  -0.00788517  1
  Mo  Mo224  1  0.10972107  0.69972370  0.50024348  1
  Mo  Mo225  1  0.39957670  0.60207586  0.79725483  1
  Mo  Mo226  1  -0.00077508  0.80401440  0.79386693  1
  Mo  Mo227  1  0.20378598  0.80452738  0.40209053  1
  Mo  Mo228  1  0.90352910  0.90067034  0.90001633  1
  Mo  Mo229  1  0.29401035  0.09582748  0.30114178  1
  Mo  Mo230  1  0.30365847  0.50941789  0.30398584  1
  Mo  Mo231  1  0.70355479  0.50205774  0.30193055  1
  Mo  Mo232  1  0.70492532  0.10130368  0.91128826  1
  Mo  Mo233  1  0.20495831  -0.00475874  0.19785752  1
  Mo  Mo234  1  0.11168887  0.30114199  0.48891893  1
  Mo  Mo235  1  0.91653229  0.10041923  0.29834212  1
  Mo  Mo236  1  0.69091849  0.90607708  0.10786766  1
  Mo  Mo237  1  0.49401486  0.29668905  0.90000304  1
  Mo  Mo238  1  0.89838234  0.69925047  0.89787749  1
  Mo  Mo239  1  0.68835118  0.29590018  0.10066258  1
  Mo  Mo240  1  0.79460085  0.59582130  0.01552890  1
  Mo  Mo241  1  0.50637703  0.50478221  0.89988356  1
  Mo  Mo242  1  0.90105924  0.10077838  0.90055023  1
  Mo  Mo243  1  0.90929406  0.90154044  0.69709348  1
  Mo  Mo244  1  0.29867079  0.50002349  0.10446512  1
  Mo  Mo245  1  0.19694885  0.41011675  0.79969175  1
  Mo  Mo246  1  0.70179020  0.49516275  0.70044606  1
  Mo  Mo247  1  -0.00089564  -0.00411609  0.79139810  1
  Mo  Mo248  1  0.11000429  0.70137302  0.29845754  1
  Mo  Mo249  1  0.69003047  0.10419024  0.29437236  1
