# generated using pymatgen
data_HfZrTaTiMo
_symmetry_space_group_name_H-M   'P 1'
_cell_length_a   16.87522746
_cell_length_b   16.87737903
_cell_length_c   16.89560418
_cell_angle_alpha   90.01848269
_cell_angle_beta   90.00471353
_cell_angle_gamma   90.03305483
_symmetry_Int_Tables_number   1
_chemical_formula_structural   HfZrTaTiMo
_chemical_formula_sum   'Hf50 Zr50 Ta50 Ti50 Mo50'
_cell_volume   4812.02937388
_cell_formula_units_Z   50
loop_
 _symmetry_equiv_pos_site_id
 _symmetry_equiv_pos_as_xyz
  1  'x, y, z'
loop_
 _atom_site_type_symbol
 _atom_site_label
 _atom_site_symmetry_multiplicity
 _atom_site_fract_x
 _atom_site_fract_y
 _atom_site_fract_z
 _atom_site_occupancy
  Hf  Hf0  1  0.50699371  0.49985042  0.09763593  1
  Hf  Hf1  1  0.38660557  0.40194315  0.00720832  1
  Hf  Hf2  1  0.90178425  0.51587064  0.29761164  1
  Hf  Hf3  1  0.89711158  0.30188765  0.30730272  1
  Hf  Hf4  1  0.19774265  0.19465218  0.00462093  1
  Hf  Hf5  1  0.71988427  0.31689248  0.49922298  1
  Hf  Hf6  1  0.29937706  0.89764139  0.10059480  1
  Hf  Hf7  1  0.39505566  0.19164948  0.80816414  1
  Hf  Hf8  1  -0.00016944  -0.00258699  0.59022459  1
  Hf  Hf9  1  0.90458777  0.30479778  0.10002208  1
  Hf  Hf10  1  0.09431687  0.31039818  0.91427276  1
  Hf  Hf11  1  0.50040090  0.89625270  0.69889592  1
  Hf  Hf12  1  0.59449654  0.40540478  0.59585119  1
  Hf  Hf13  1  0.79228491  0.19515980  0.80205726  1
  Hf  Hf14  1  0.28929852  0.09318339  0.49899085  1
  Hf  Hf15  1  0.19418463  0.39924913  0.59343895  1
  Hf  Hf16  1  0.60365828  0.79083055  0.80809186  1
  Hf  Hf17  1  0.91159895  0.49833846  0.91548491  1
  Hf  Hf18  1  0.29365212  0.29758741  0.70180817  1
  Hf  Hf19  1  0.91382145  0.89094546  0.71710434  1
  Hf  Hf20  1  0.39176311  0.59687651  0.19960569  1
  Hf  Hf21  1  0.79731616  0.40093112  0.80965733  1
  Hf  Hf22  1  0.01552802  0.00014253  0.81246181  1
  Hf  Hf23  1  0.70247584  0.88812060  0.48818737  1
  Hf  Hf24  1  0.90166341  0.50396892  0.69626030  1
  Hf  Hf25  1  0.20018472  0.40773128  0.80576710  1
  Hf  Hf26  1  0.00779803  0.40771332  0.20259554  1
  Hf  Hf27  1  0.20312064  0.79798943  0.38579527  1
  Hf  Hf28  1  0.90781211  0.70613952  0.90505557  1
  Hf  Hf29  1  0.49528869  0.29838804  0.49576263  1
  Hf  Hf30  1  0.39493093  0.00642418  -0.00576343  1
  Hf  Hf31  1  -0.00218338  0.19063680  0.58894246  1
  Hf  Hf32  1  0.00875191  0.40383740  0.39259428  1
  Hf  Hf33  1  0.01712268  0.20634689  0.21128431  1
  Hf  Hf34  1  0.60400828  0.19078552  0.59828969  1
  Hf  Hf35  1  0.79690981  0.79414701  0.80729272  1
  Hf  Hf36  1  0.60147447  0.60401190  0.21097675  1
  Hf  Hf37  1  0.19637318  0.59974219  0.20590404  1
  Hf  Hf38  1  0.50377588  0.49776498  0.90447265  1
  Hf  Hf39  1  0.48973484  0.50576351  0.49258864  1
  Hf  Hf40  1  0.79983490  0.79970851  0.20185230  1
  Hf  Hf41  1  0.39757736  0.40131120  0.80286930  1
  Hf  Hf42  1  0.70252999  0.69830971  0.69177934  1
  Hf  Hf43  1  0.90170908  0.70214147  0.48334715  1
  Hf  Hf44  1  0.29991637  0.70023189  0.70178231  1
  Hf  Hf45  1  0.89691792  0.09066713  0.91459025  1
  Hf  Hf46  1  0.89239577  0.49966746  0.49288665  1
  Hf  Hf47  1  0.19089463  0.18895932  0.81043883  1
  Hf  Hf48  1  0.39067173  -0.01428065  0.60192580  1
  Hf  Hf49  1  0.29308765  0.50799421  0.49366776  1
  Zr  Zr50  1  0.79855106  0.18281938  0.59724085  1
  Zr  Zr51  1  0.70565388  0.09940878  0.09952272  1
  Zr  Zr52  1  0.39068334  -0.00398171  0.38877529  1
  Zr  Zr53  1  0.19277066  0.79423574  0.19726528  1
  Zr  Zr54  1  0.49972151  0.90003552  0.90284901  1
  Zr  Zr55  1  0.00923496  0.80170900  0.59555518  1
  Zr  Zr56  1  0.39880467  0.79807228  0.79842007  1
  Zr  Zr57  1  0.60701526  0.41299757  0.39835474  1
  Zr  Zr58  1  0.90579390  0.10172002  0.29487697  1
  Zr  Zr59  1  0.70343655  0.49726675  0.68923466  1
  Zr  Zr60  1  0.49510625  0.88586089  0.29333723  1
  Zr  Zr61  1  0.89965019  0.69155499  0.10670887  1
  Zr  Zr62  1  0.79624960  0.00251014  0.79738333  1
  Zr  Zr63  1  0.80676238  -0.00185554  0.59385056  1
  Zr  Zr64  1  0.60261498  0.01175492  0.79806118  1
  Zr  Zr65  1  0.10459108  0.08388713  0.12269039  1
  Zr  Zr66  1  0.38708396  0.19533756  0.38830704  1
  Zr  Zr67  1  0.89762319  0.30625348  0.69117346  1
  Zr  Zr68  1  0.90171913  0.30095116  0.90848742  1
  Zr  Zr69  1  0.00369917  0.19396492  0.80407839  1
  Zr  Zr70  1  0.28682946  0.08824598  0.69845453  1
  Zr  Zr71  1  0.49830181  0.10527525  0.10540078  1
  Zr  Zr72  1  0.39930681  0.19987729  0.60047505  1
  Zr  Zr73  1  0.50986197  0.29875085  0.90704143  1
  Zr  Zr74  1  0.09565309  0.50755144  0.69767800  1
  Zr  Zr75  1  0.09816959  0.51166622  0.49267545  1
  Zr  Zr76  1  0.50207778  0.30092086  0.29434345  1
  Zr  Zr77  1  0.20505579  0.80477540  0.59984408  1
  Zr  Zr78  1  0.71079185  0.89961684  0.91706493  1
  Zr  Zr79  1  0.59213263  0.78813527  0.59083324  1
  Zr  Zr80  1  0.90081057  0.89575481  0.30308304  1
  Zr  Zr81  1  0.59715480  0.00284835  0.00470568  1
  Zr  Zr82  1  0.69780833  0.30221485  0.70020916  1
  Zr  Zr83  1  0.60352460  0.00157906  0.59445013  1
  Zr  Zr84  1  0.71333818  0.29686488  0.30140861  1
  Zr  Zr85  1  0.81159400  0.80248003  0.59463050  1
  Zr  Zr86  1  0.60166482  0.60047642  0.80482134  1
  Zr  Zr87  1  0.18695579  0.19908303  0.59162444  1
  Zr  Zr88  1  0.29634035  0.70135483  0.09327114  1
  Zr  Zr89  1  0.29449794  0.09724555  0.10873777  1
  Zr  Zr90  1  0.60685615  0.40402187  0.20146423  1
  Zr  Zr91  1  0.10250115  0.49733016  0.09259402  1
  Zr  Zr92  1  0.38186481  0.39902592  0.38585296  1
  Zr  Zr93  1  0.30379637  0.50670383  0.69369210  1
  Zr  Zr94  1  0.60128521  0.00152398  0.39350489  1
  Zr  Zr95  1  0.18632714  0.20001546  0.38255079  1
  Zr  Zr96  1  0.69914735  0.70139874  0.10507908  1
  Zr  Zr97  1  0.60789527  0.19090984  0.40315412  1
  Zr  Zr98  1  0.79642042  0.59942020  0.81065476  1
  Zr  Zr99  1  0.01496758  0.80181833  0.01316335  1
  Ta  Ta100  1  0.38921066  0.40209093  0.19484824  1
  Ta  Ta101  1  0.10749946  0.69894911  0.90435990  1
  Ta  Ta102  1  0.39315054  0.20533632  0.00336589  1
  Ta  Ta103  1  0.09606808  0.90875552  0.29070156  1
  Ta  Ta104  1  0.29647786  0.70111234  0.90267460  1
  Ta  Ta105  1  0.20012632  0.60266234  0.80456729  1
  Ta  Ta106  1  -0.00036643  0.61118741  0.59571885  1
  Ta  Ta107  1  0.90134070  0.69565913  0.30029172  1
  Ta  Ta108  1  0.39836709  0.79512046  0.59119279  1
  Ta  Ta109  1  0.10538479  0.90461205  0.48847336  1
  Ta  Ta110  1  0.49252695  0.88983410  0.48937409  1
  Ta  Ta111  1  0.19875753  0.00162698  0.38691841  1
  Ta  Ta112  1  0.40353171  0.79565550  0.00074149  1
  Ta  Ta113  1  0.10035773  0.50313183  0.90568028  1
  Ta  Ta114  1  0.90081158  0.30255952  0.49337354  1
  Ta  Ta115  1  0.00398683  0.00817190  0.40014623  1
  Ta  Ta116  1  0.79879411  -0.00150172  0.20168072  1
  Ta  Ta117  1  0.90345728  0.89687148  0.91184526  1
  Ta  Ta118  1  0.00656668  0.79701929  0.19863445  1
  Ta  Ta119  1  0.00478321  -0.00288358  0.00983961  1
  Ta  Ta120  1  0.19528357  0.61480607  0.59833707  1
  Ta  Ta121  1  0.39663545  0.59795334  -0.00101464  1
  Ta  Ta122  1  0.38925933  0.21345873  0.19618090  1
  Ta  Ta123  1  0.59735389  0.79420079  0.00575244  1
  Ta  Ta124  1  0.90939981  0.69739353  0.70586701  1
  Ta  Ta125  1  0.60294238  -0.00224198  0.20462974  1
  Ta  Ta126  1  0.79454945  0.60051680  0.00058262  1
  Ta  Ta127  1  0.39107376  0.00138927  0.80412462  1
  Ta  Ta128  1  0.40253134  0.61155709  0.59189821  1
  Ta  Ta129  1  0.29255214  0.29984353  0.90571740  1
  Ta  Ta130  1  0.09376124  0.30207388  0.70108647  1
  Ta  Ta131  1  0.89598726  0.90492185  0.09935742  1
  Ta  Ta132  1  0.49229303  0.09229978  0.49749263  1
  Ta  Ta133  1  0.29524790  0.89482151  0.90486244  1
  Ta  Ta134  1  0.80083563  0.60440525  0.59149823  1
  Ta  Ta135  1  0.69843502  0.89727118  0.10564550  1
  Ta  Ta136  1  0.59718615  0.60107254  0.58588512  1
  Ta  Ta137  1  0.80238393  0.19943724  0.00603468  1
  Ta  Ta138  1  0.60353446  0.19812047  0.19890669  1
  Ta  Ta139  1  0.49316746  0.50557569  0.30069894  1
  Ta  Ta140  1  0.00371509  0.18892379  0.01330335  1
  Ta  Ta141  1  0.70082204  0.30054607  0.09693782  1
  Ta  Ta142  1  0.20736497  0.40422962  0.20838248  1
  Ta  Ta143  1  0.80366856  -0.00086299  0.40228965  1
  Ta  Ta144  1  0.69904306  0.89551509  0.69798438  1
  Ta  Ta145  1  0.00254661  0.40402664  0.80124685  1
  Ta  Ta146  1  0.49582570  0.50614443  0.69578090  1
  Ta  Ta147  1  0.19756133  0.80248797  0.80178751  1
  Ta  Ta148  1  0.49947016  0.89208963  0.10805907  1
  Ta  Ta149  1  0.80052191  0.40881539  0.19775809  1
  Ti  Ti150  1  0.70631790  0.69588335  0.48813341  1
  Ti  Ti151  1  0.69654320  0.89178186  0.29880582  1
  Ti  Ti152  1  0.59867084  0.60500369  0.39975624  1
  Ti  Ti153  1  0.00812567  0.80291460  0.39320852  1
  Ti  Ti154  1  0.29160723  0.30120512  0.49318659  1
  Ti  Ti155  1  0.39545336  0.59672463  0.80760999  1
  Ti  Ti156  1  0.09501276  0.70534611  0.70980439  1
  Ti  Ti157  1  0.10869818  0.30659686  0.10076008  1
  Ti  Ti158  1  0.10062045  0.70061414  0.48845983  1
  Ti  Ti159  1  0.69888474  0.10602600  0.91190861  1
  Ti  Ti160  1  0.71401085  0.50991041  0.30847761  1
  Ti  Ti161  1  0.60252165  0.60728775  0.00110845  1
  Ti  Ti162  1  0.60022214  0.40175629  0.79875750  1
  Ti  Ti163  1  0.50855006  0.30054573  0.09607484  1
  Ti  Ti164  1  0.00110419  0.40036157  0.59618961  1
  Ti  Ti165  1  0.19309489  -0.00380652  -0.00250297  1
  Ti  Ti166  1  0.70719962  0.09924787  0.29662351  1
  Ti  Ti167  1  0.10393743  0.08983128  0.69194988  1
  Ti  Ti168  1  0.69183459  0.29824281  0.91356919  1
  Ti  Ti169  1  0.29727446  0.89632109  0.49012966  1
  Ti  Ti170  1  0.49136555  0.70453936  0.29816245  1
  Ti  Ti171  1  0.60274133  0.19535539  0.79696712  1
  Ti  Ti172  1  0.69271206  0.49438556  0.91471867  1
  Ti  Ti173  1  0.49719321  0.69142129  0.69825842  1
  Ti  Ti174  1  0.79701832  0.40272436  0.00706943  1
  Ti  Ti175  1  0.49828892  0.70576908  0.10737593  1
  Ti  Ti176  1  0.90572552  0.09447876  0.70536699  1
  Ti  Ti177  1  0.09330657  0.29995482  0.49085134  1
  Ti  Ti178  1  0.80540681  0.19907398  0.19295748  1
  Ti  Ti179  1  0.11165521  0.90529157  0.70105835  1
  Ti  Ti180  1  0.49548299  0.09735759  0.69830800  1
  Ti  Ti181  1  0.59534467  0.78690293  0.39598618  1
  Ti  Ti182  1  0.39262731  0.60881707  0.39075746  1
  Ti  Ti183  1  0.19875894  0.60559317  0.38502205  1
  Ti  Ti184  1  0.00553733  0.60217396  0.80457970  1
  Ti  Ti185  1  0.10454503  0.89239298  0.90511150  1
  Ti  Ti186  1  0.70334389  0.50341861  0.10059665  1
  Ti  Ti187  1  0.20259595  -0.00176799  0.81397410  1
  Ti  Ti188  1  0.89985256  0.50647327  0.10330928  1
  Ti  Ti189  1  0.80504548  0.18407216  0.41054160  1
  Ti  Ti190  1  0.39472520  -0.00031022  0.20601318  1
  Ti  Ti191  1  0.49962206  0.30147490  0.70222251  1
  Ti  Ti192  1  0.39701705  0.39977758  0.59845741  1
  Ti  Ti193  1  0.50353520  0.10959204  0.90617835  1
  Ti  Ti194  1  0.70983730  0.70010351  0.30586740  1
  Ti  Ti195  1  0.49633614  0.10334620  0.29279315  1
  Ti  Ti196  1  0.30162641  0.70114852  0.49148081  1
  Ti  Ti197  1  0.20767177  0.59285844  -0.00330893  1
  Ti  Ti198  1  0.00738224  0.60474490  0.00750666  1
  Ti  Ti199  1  0.49568252  0.69511535  0.90705638  1
  Mo  Mo200  1  0.79552018  0.60635720  0.39761643  1
  Mo  Mo201  1  0.10388552  0.50725958  0.30017710  1
  Mo  Mo202  1  0.19387079  -0.00926216  0.58812843  1
  Mo  Mo203  1  0.80592601  0.40840278  0.59375522  1
  Mo  Mo204  1  0.60298661  0.20572766  0.00377186  1
  Mo  Mo205  1  0.09904230  0.09318846  0.49295210  1
  Mo  Mo206  1  0.20246311  0.40182666  0.00180174  1
  Mo  Mo207  1  0.29822711  0.50655489  0.90231025  1
  Mo  Mo208  1  0.29912167  0.89612871  0.29375786  1
  Mo  Mo209  1  0.20818008  -0.01220178  0.21138159  1
  Mo  Mo210  1  0.29037032  0.30143260  0.09891459  1
  Mo  Mo211  1  0.09885560  0.09103100  0.91581001  1
  Mo  Mo212  1  0.79464953  0.59612660  0.20013516  1
  Mo  Mo213  1  0.90901055  0.89953749  0.48448482  1
  Mo  Mo214  1  0.69689021  0.09641494  0.70242267  1
  Mo  Mo215  1  0.29506809  0.10178918  0.28747722  1
  Mo  Mo216  1  0.79583286  0.79996414  0.39282325  1
  Mo  Mo217  1  0.10049549  0.69183663  0.09631861  1
  Mo  Mo218  1  0.00605020  0.60573385  0.19954397  1
  Mo  Mo219  1  0.01218864  0.80092364  0.80543435  1
  Mo  Mo220  1  0.10087295  0.09244031  0.29943967  1
  Mo  Mo221  1  0.29652057  0.09565495  0.90605045  1
  Mo  Mo222  1  0.39312558  0.79325767  0.39829505  1
  Mo  Mo223  1  0.00140628  0.40364381  0.00596156  1
  Mo  Mo224  1  0.70224059  0.08982717  0.49288401  1
  Mo  Mo225  1  0.80208558  0.80195621  0.00515470  1
  Mo  Mo226  1  0.20225945  0.80109471  -0.00592858  1
  Mo  Mo227  1  0.59970580  0.79860707  0.20316853  1
  Mo  Mo228  1  -0.00550594  -0.00768873  0.20039027  1
  Mo  Mo229  1  0.69838334  0.69684056  0.91539569  1
  Mo  Mo230  1  0.00492733  0.60814576  0.39653557  1
  Mo  Mo231  1  0.29782529  0.49933764  0.09905475  1
  Mo  Mo232  1  0.40001705  0.79310153  0.19671548  1
  Mo  Mo233  1  0.49462831  0.69820810  0.48637572  1
  Mo  Mo234  1  0.10122333  0.90158886  0.10280774  1
  Mo  Mo235  1  0.60990370  0.40078079  0.00492991  1
  Mo  Mo236  1  0.29750618  0.50348948  0.29981428  1
  Mo  Mo237  1  0.19544973  0.39928910  0.39610644  1
  Mo  Mo238  1  0.29480149  0.89823832  0.71222276  1
  Mo  Mo239  1  0.00051327  0.20236427  0.40314230  1
  Mo  Mo240  1  0.20149492  0.21518997  0.19928680  1
  Mo  Mo241  1  0.08856342  0.69976896  0.29997590  1
  Mo  Mo242  1  0.90361887  0.09973288  0.48984944  1
  Mo  Mo243  1  0.29280073  0.30210268  0.29075106  1
  Mo  Mo244  1  0.90271948  0.09954213  0.10476254  1
  Mo  Mo245  1  0.69967795  0.51245947  0.49504086  1
  Mo  Mo246  1  0.10317139  0.31236215  0.29984044  1
  Mo  Mo247  1  0.80585564  0.40962575  0.39463218  1
  Mo  Mo248  1  0.80615021  0.00049192  0.00933186  1
  Mo  Mo249  1  0.30620127  0.70142913  0.30013273  1
