# generated using pymatgen
data_HfZrTaTiMo
_symmetry_space_group_name_H-M   'P 1'
_cell_length_a   16.88568288
_cell_length_b   16.87963376
_cell_length_c   16.87773238
_cell_angle_alpha   89.98568458
_cell_angle_beta   90.00161392
_cell_angle_gamma   90.00006888
_symmetry_Int_Tables_number   1
_chemical_formula_structural   HfZrTaTiMo
_chemical_formula_sum   'Hf50 Zr50 Ta50 Ti50 Mo50'
_cell_volume   4810.56105173
_cell_formula_units_Z   50
loop_
 _symmetry_equiv_pos_site_id
 _symmetry_equiv_pos_as_xyz
  1  'x, y, z'
loop_
 _atom_site_type_symbol
 _atom_site_label
 _atom_site_symmetry_multiplicity
 _atom_site_fract_x
 _atom_site_fract_y
 _atom_site_fract_z
 _atom_site_occupancy
  Hf  Hf0  1  0.70934916  0.90399890  0.69819688  1
  Hf  Hf1  1  0.28647238  0.90033588  0.89551478  1
  Hf  Hf2  1  0.49485831  0.50095658  0.90262922  1
  Hf  Hf3  1  0.00052108  0.58763876  0.20366268  1
  Hf  Hf4  1  0.10645367  0.69383878  0.30003552  1
  Hf  Hf5  1  0.60017353  0.20412223  0.59339350  1
  Hf  Hf6  1  0.69974527  0.70018675  0.10864420  1
  Hf  Hf7  1  0.10433723  0.50428958  0.49204279  1
  Hf  Hf8  1  0.60386251  -0.00971156  0.40782842  1
  Hf  Hf9  1  0.29892784  0.09411140  0.49453538  1
  Hf  Hf10  1  0.49484947  0.71471361  0.10267388  1
  Hf  Hf11  1  0.90824968  0.69952535  0.09588715  1
  Hf  Hf12  1  0.10286322  0.09910155  0.71500643  1
  Hf  Hf13  1  0.00500988  0.40615557  0.60686948  1
  Hf  Hf14  1  0.90095722  0.29399469  0.49681720  1
  Hf  Hf15  1  0.59426811  0.59993962  0.59506448  1
  Hf  Hf16  1  0.29882009  0.90015330  0.48721886  1
  Hf  Hf17  1  0.00144009  0.80053504  0.40251730  1
  Hf  Hf18  1  0.49074945  0.69697999  0.49416287  1
  Hf  Hf19  1  0.70861061  0.09646458  0.89852262  1
  Hf  Hf20  1  0.40377439  0.80095154  0.61097313  1
  Hf  Hf21  1  0.60779332  0.20985806  -0.00676624  1
  Hf  Hf22  1  0.10407439  0.09505907  0.49814098  1
  Hf  Hf23  1  -0.00792712  0.39129264  0.20233045  1
  Hf  Hf24  1  0.50141324  0.30413038  0.70021080  1
  Hf  Hf25  1  0.59219066  0.60565418  0.79755879  1
  Hf  Hf26  1  0.70436182  0.09953313  0.70359236  1
  Hf  Hf27  1  0.59075205  0.40758926  0.39699060  1
  Hf  Hf28  1  0.09970270  0.70014453  0.90680960  1
  Hf  Hf29  1  0.39838281  0.21214296  0.59726017  1
  Hf  Hf30  1  0.79514553  0.78789118  0.41167806  1
  Hf  Hf31  1  0.90228490  0.09622497  0.49983003  1
  Hf  Hf32  1  0.29346873  0.09811206  0.70868028  1
  Hf  Hf33  1  0.40263541  0.40052567  0.20224104  1
  Hf  Hf34  1  0.69913431  0.29394372  0.29266278  1
  Hf  Hf35  1  0.80601739  0.79812470  0.80451362  1
  Hf  Hf36  1  0.80510164  0.59959587  -0.00900081  1
  Hf  Hf37  1  0.49478563  0.08988995  0.49604079  1
  Hf  Hf38  1  0.10069220  0.90053713  0.90609853  1
  Hf  Hf39  1  0.00057139  0.39921539  0.80598073  1
  Hf  Hf40  1  0.89482851  0.69095963  0.29782712  1
  Hf  Hf41  1  0.39259438  0.20235729  0.19816372  1
  Hf  Hf42  1  0.49789589  0.09445909  0.29120150  1
  Hf  Hf43  1  0.59344270  0.60570928  -0.00251379  1
  Hf  Hf44  1  0.50637787  0.10046838  0.90047618  1
  Hf  Hf45  1  0.19635403  0.19470645  0.20109218  1
  Hf  Hf46  1  0.79999349  0.60290247  0.59046599  1
  Hf  Hf47  1  0.10351156  0.69832214  0.49860360  1
  Hf  Hf48  1  0.50679699  0.09997812  0.70364699  1
  Hf  Hf49  1  0.20908934  0.80202001  0.60621480  1
  Zr  Zr50  1  0.60223115  0.19642313  0.40010911  1
  Zr  Zr51  1  0.61554415  -0.00162414  0.18993275  1
  Zr  Zr52  1  0.20426904  0.20627690  0.60544771  1
  Zr  Zr53  1  0.39123757  0.59975749  0.19847873  1
  Zr  Zr54  1  0.59327110  0.40309118  0.58881574  1
  Zr  Zr55  1  0.89671313  0.29708602  0.70646773  1
  Zr  Zr56  1  0.09752224  0.70113608  0.70183094  1
  Zr  Zr57  1  0.09728150  0.30196079  0.09958896  1
  Zr  Zr58  1  0.49770678  0.70933263  0.29660632  1
  Zr  Zr59  1  0.80921089  0.81010994  0.00303276  1
  Zr  Zr60  1  0.50332950  0.10305214  0.09710816  1
  Zr  Zr61  1  0.10690753  0.30578372  0.49076913  1
  Zr  Zr62  1  0.90203852  0.09383722  0.29062861  1
  Zr  Zr63  1  0.40080662  -0.00957354  0.80034236  1
  Zr  Zr64  1  0.69765230  0.70414841  0.90128757  1
  Zr  Zr65  1  0.70488497  0.70421005  0.69217606  1
  Zr  Zr66  1  0.70723138  0.50817203  0.29020965  1
  Zr  Zr67  1  0.29975542  0.90251290  0.09257930  1
  Zr  Zr68  1  0.39643557  0.20447013  0.39406232  1
  Zr  Zr69  1  0.20472055  0.59742604  0.00669790  1
  Zr  Zr70  1  0.40275419  -0.01512403  0.60557276  1
  Zr  Zr71  1  0.29929054  0.09945408  0.09162822  1
  Zr  Zr72  1  0.30025922  0.69657635  0.49179395  1
  Zr  Zr73  1  -0.00593439  0.59432029  0.80475604  1
  Zr  Zr74  1  0.89240936  0.09998824  0.71229786  1
  Zr  Zr75  1  0.70437699  0.89690849  0.29508667  1
  Zr  Zr76  1  0.10751038  0.89817232  0.71588270  1
  Zr  Zr77  1  -0.00073929  0.80728126  0.20025770  1
  Zr  Zr78  1  0.80351956  0.40726574  0.59325996  1
  Zr  Zr79  1  0.59376762  0.59944496  0.20522524  1
  Zr  Zr80  1  0.20675793  0.40455273  0.61994393  1
  Zr  Zr81  1  -0.00362889  0.19779702  0.01017934  1
  Zr  Zr82  1  0.70222628  0.30397651  0.09477614  1
  Zr  Zr83  1  0.00393064  0.19912972  0.60473461  1
  Zr  Zr84  1  0.89942382  0.49287638  0.09107428  1
  Zr  Zr85  1  -0.01330213  0.79956082  0.81207333  1
  Zr  Zr86  1  0.38612538  0.39916527  0.79443322  1
  Zr  Zr87  1  0.30190975  0.50029104  0.49512397  1
  Zr  Zr88  1  -0.00751324  0.40735949  0.39028862  1
  Zr  Zr89  1  0.80663414  0.40318614  0.39482902  1
  Zr  Zr90  1  0.89714409  0.90526214  0.30271799  1
  Zr  Zr91  1  0.39000295  0.20849079  0.80774885  1
  Zr  Zr92  1  0.60329247  0.39881296  0.80230108  1
  Zr  Zr93  1  0.39527343  0.39423091  0.00055903  1
  Zr  Zr94  1  0.58658947  0.80293029  0.80001871  1
  Zr  Zr95  1  0.59302029  0.80615621  0.59190480  1
  Zr  Zr96  1  0.49156082  0.90580218  0.10127734  1
  Zr  Zr97  1  0.49371838  0.90247090  0.29425309  1
  Zr  Zr98  1  -0.00923592  0.00242528  0.01403754  1
  Zr  Zr99  1  0.19914521  -0.00287155  0.20195390  1
  Ta  Ta100  1  0.70564061  0.30344113  0.69872050  1
  Ta  Ta101  1  0.19911929  0.39765369  -0.00413261  1
  Ta  Ta102  1  0.89085254  0.10153717  0.90456551  1
  Ta  Ta103  1  0.19903393  0.39746853  0.80594344  1
  Ta  Ta104  1  0.00479707  -0.00681769  0.60483298  1
  Ta  Ta105  1  0.89972714  0.69995325  0.69249090  1
  Ta  Ta106  1  0.40046408  0.79688870  0.79968783  1
  Ta  Ta107  1  0.70244981  0.50013872  0.70334306  1
  Ta  Ta108  1  0.20204653  0.59414172  0.61200062  1
  Ta  Ta109  1  0.80765584  0.39760434  0.19965231  1
  Ta  Ta110  1  0.29800333  0.50233501  0.90038003  1
  Ta  Ta111  1  0.71251986  0.10465233  0.09243462  1
  Ta  Ta112  1  0.50206055  0.49689730  0.09568881  1
  Ta  Ta113  1  0.81184724  0.20382512  0.19098589  1
  Ta  Ta114  1  0.80369570  0.59696305  0.80251435  1
  Ta  Ta115  1  0.09481172  0.09626496  0.29743897  1
  Ta  Ta116  1  0.60556681  0.79581718  0.40161818  1
  Ta  Ta117  1  0.80123123  0.19523869  0.39491544  1
  Ta  Ta118  1  0.29200644  0.29955124  0.09700187  1
  Ta  Ta119  1  0.70017354  0.49453544  0.90318373  1
  Ta  Ta120  1  0.59725039  0.40156071  0.19625582  1
  Ta  Ta121  1  0.79928063  0.80013539  0.19689553  1
  Ta  Ta122  1  0.20038497  0.58865155  0.79798733  1
  Ta  Ta123  1  0.70673809  0.09560486  0.50496872  1
  Ta  Ta124  1  0.29854212  0.69668313  0.70862186  1
  Ta  Ta125  1  0.49416446  0.50351367  0.69709367  1
  Ta  Ta126  1  0.09988029  0.49425281  0.90607264  1
  Ta  Ta127  1  0.29753596  0.30858098  0.49136180  1
  Ta  Ta128  1  0.80341194  0.59893270  0.40423657  1
  Ta  Ta129  1  0.20166688  0.19782772  0.38872426  1
  Ta  Ta130  1  0.40670231  0.39883000  0.39658924  1
  Ta  Ta131  1  0.29337170  0.49737291  0.29855998  1
  Ta  Ta132  1  0.10991439  0.49895870  0.29885278  1
  Ta  Ta133  1  0.60177717  -0.00792274  0.80148438  1
  Ta  Ta134  1  0.70400539  0.29704234  0.49543171  1
  Ta  Ta135  1  -0.00401223  0.00426245  0.80964920  1
  Ta  Ta136  1  0.89647678  0.50436823  0.69960660  1
  Ta  Ta137  1  0.09808488  0.89528292  0.09851244  1
  Ta  Ta138  1  0.60041514  0.80973184  0.00217264  1
  Ta  Ta139  1  0.20179724  -0.00824337  0.60795918  1
  Ta  Ta140  1  0.60401666  0.60314121  0.40130256  1
  Ta  Ta141  1  0.20050112  0.79440846  0.00499246  1
  Ta  Ta142  1  0.90239499  0.90119734  0.50589098  1
  Ta  Ta143  1  0.39407729  0.20730910  -0.00547105  1
  Ta  Ta144  1  0.10483924  0.90002208  0.49865038  1
  Ta  Ta145  1  0.00544602  -0.00359221  0.40187639  1
  Ta  Ta146  1  0.69977623  0.49696327  0.09489192  1
  Ta  Ta147  1  0.10047946  0.70012641  0.10184365  1
  Ta  Ta148  1  0.00095985  0.19975825  0.38918559  1
  Ta  Ta149  1  0.50683323  0.29566604  0.29056717  1
  Ti  Ti150  1  0.40116273  0.60581667  0.79963141  1
  Ti  Ti151  1  0.39693144  0.00670557  -0.00940694  1
  Ti  Ti152  1  0.10039624  0.29902838  0.29903066  1
  Ti  Ti153  1  0.71119622  0.89829498  0.50845109  1
  Ti  Ti154  1  0.18405578  0.01394057  0.00075665  1
  Ti  Ti155  1  0.39625259  0.59621828  0.60747844  1
  Ti  Ti156  1  0.29746877  0.69724795  0.89692462  1
  Ti  Ti157  1  0.80736842  -0.00093265  0.60046219  1
  Ti  Ti158  1  0.59613008  -0.00876444  0.59932930  1
  Ti  Ti159  1  0.39828209  0.80741980  0.39521166  1
  Ti  Ti160  1  0.69966424  0.50254949  0.49517668  1
  Ti  Ti161  1  0.80325781  0.40553630  0.80658652  1
  Ti  Ti162  1  0.20170136  -0.00052415  0.39016275  1
  Ti  Ti163  1  0.91160500  0.69620348  0.50455130  1
  Ti  Ti164  1  0.10434282  0.89916032  0.30396269  1
  Ti  Ti165  1  0.89477964  0.91386690  0.90454978  1
  Ti  Ti166  1  0.39760320  0.60672990  0.00065136  1
  Ti  Ti167  1  -0.00037737  0.80634668  0.60075561  1
  Ti  Ti168  1  0.79614346  0.20086778  0.59657614  1
  Ti  Ti169  1  0.10568530  0.29400278  0.71629673  1
  Ti  Ti170  1  0.70670585  0.10093929  0.29048467  1
  Ti  Ti171  1  0.29265834  0.30784008  0.29972590  1
  Ti  Ti172  1  0.80177250  0.39489100  -0.00734550  1
  Ti  Ti173  1  0.60935549  -0.00545866  0.00049008  1
  Ti  Ti174  1  0.79507013  0.21706114  0.81426291  1
  Ti  Ti175  1  -0.00113041  0.59291245  -0.00542124  1
  Ti  Ti176  1  0.20483267  0.59821712  0.39427878  1
  Ti  Ti177  1  0.50424962  0.30508201  0.90364267  1
  Ti  Ti178  1  0.19100366  0.20174143  -0.00886794  1
  Ti  Ti179  1  0.39641582  0.79475003  -0.01012922  1
  Ti  Ti180  1  0.89923203  0.90133480  0.69831275  1
  Ti  Ti181  1  0.28478659  0.10137873  0.89678129  1
  Ti  Ti182  1  0.10129058  0.49770064  0.09797527  1
  Ti  Ti183  1  0.29735865  0.49672247  0.10145877  1
  Ti  Ti184  1  0.41122320  0.58510015  0.38851733  1
  Ti  Ti185  1  0.49880481  0.90028893  0.90671023  1
  Ti  Ti186  1  0.00669182  0.20039156  0.81991961  1
  Ti  Ti187  1  0.60850081  0.20799783  0.80260675  1
  Ti  Ti188  1  0.50507988  0.29961260  0.10017565  1
  Ti  Ti189  1  0.70603992  0.90786773  0.90173084  1
  Ti  Ti190  1  0.38029068  0.80731645  0.20562219  1
  Ti  Ti191  1  0.29371969  0.70192767  0.10489260  1
  Ti  Ti192  1  0.19877831  0.40199485  0.19737504  1
  Ti  Ti193  1  0.90182748  0.30253407  0.91211475  1
  Ti  Ti194  1  0.20133815  0.80106266  0.20267352  1
  Ti  Ti195  1  0.80941346  -0.00544234  0.17719022  1
  Ti  Ti196  1  0.00268860  0.59194344  0.60214220  1
  Ti  Ti197  1  0.40029738  0.40259664  0.59484238  1
  Ti  Ti198  1  0.79815270  0.00153673  0.40455894  1
  Ti  Ti199  1  0.29421230  0.70063250  0.30266760  1
  Mo  Mo200  1  0.29561949  0.89368537  0.70990125  1
  Mo  Mo201  1  0.00702792  -0.00054566  0.20112487  1
  Mo  Mo202  1  0.80349168  -0.00759607  0.80293686  1
  Mo  Mo203  1  0.28620269  0.29958271  0.90463770  1
  Mo  Mo204  1  0.89813397  0.50543257  0.29704659  1
  Mo  Mo205  1  0.49647093  0.49548433  0.29628378  1
  Mo  Mo206  1  0.19416613  0.00862073  0.80832347  1
  Mo  Mo207  1  0.29544555  0.89503997  0.30168302  1
  Mo  Mo208  1  0.61258298  0.80055262  0.19916701  1
  Mo  Mo209  1  0.19959831  0.59575097  0.19844224  1
  Mo  Mo210  1  0.20354040  0.39755820  0.38731652  1
  Mo  Mo211  1  0.29912020  0.09118439  0.30127386  1
  Mo  Mo212  1  0.89628833  0.29977146  0.09696991  1
  Mo  Mo213  1  0.20719214  0.78496169  0.80934853  1
  Mo  Mo214  1  0.19881575  0.80090974  0.39430071  1
  Mo  Mo215  1  0.30505517  0.50602746  0.70464953  1
  Mo  Mo216  1  0.09482184  0.09795249  0.10714787  1
  Mo  Mo217  1  0.60868494  0.20134084  0.19377502  1
  Mo  Mo218  1  0.00360544  0.40018757  -0.00368711  1
  Mo  Mo219  1  0.09404755  0.10088826  0.90391233  1
  Mo  Mo220  1  0.70696673  0.30726298  0.89757195  1
  Mo  Mo221  1  0.89641951  0.10056394  0.10265347  1
  Mo  Mo222  1  0.49478829  0.30533418  0.49364642  1
  Mo  Mo223  1  -0.00035798  0.19811162  0.20389658  1
  Mo  Mo224  1  0.70239574  0.70079715  0.30098133  1
  Mo  Mo225  1  0.90149037  0.90009041  0.10262215  1
  Mo  Mo226  1  0.59834551  0.40447420  0.00232910  1
  Mo  Mo227  1  0.89684443  0.49329199  0.89753439  1
  Mo  Mo228  1  0.49183679  0.50555596  0.49790603  1
  Mo  Mo229  1  0.09843886  0.29942594  0.90251639  1
  Mo  Mo230  1  0.89908390  0.28994837  0.29626264  1
  Mo  Mo231  1  0.29800728  0.30262613  0.70016052  1
  Mo  Mo232  1  0.80011519  0.00293663  0.00128060  1
  Mo  Mo233  1  0.38908803  0.00395891  0.20577705  1
  Mo  Mo234  1  0.69490125  0.69632977  0.49471314  1
  Mo  Mo235  1  0.70338701  0.90013378  0.09471251  1
  Mo  Mo236  1  0.90302377  0.69300327  0.90100094  1
  Mo  Mo237  1  0.48702614  0.70444792  0.90647070  1
  Mo  Mo238  1  0.50473350  0.90031472  0.70728024  1
  Mo  Mo239  1  0.49893796  0.89560418  0.49085781  1
  Mo  Mo240  1  0.39702268  -0.00357264  0.39303254  1
  Mo  Mo241  1  0.19502264  0.20709021  0.81163486  1
  Mo  Mo242  1  0.80534920  0.20317546  -0.00158865  1
  Mo  Mo243  1  0.48666749  0.69415814  0.70170977  1
  Mo  Mo244  1  0.90976690  0.51478838  0.49952026  1
  Mo  Mo245  1  0.09925874  0.50101600  0.70834832  1
  Mo  Mo246  1  0.81458861  0.80046159  0.59739746  1
  Mo  Mo247  1  -0.00018451  0.59929154  0.40091631  1
  Mo  Mo248  1  0.00475213  0.80199601  0.00450671  1
  Mo  Mo249  1  0.80284822  0.59677652  0.19684469  1
