# generated using pymatgen
data_HfZrTaTiMo
_symmetry_space_group_name_H-M   'P 1'
_cell_length_a   16.88377940
_cell_length_b   16.86977538
_cell_length_c   16.87435404
_cell_angle_alpha   89.99482613
_cell_angle_beta   90.00774842
_cell_angle_gamma   90.05976728
_symmetry_Int_Tables_number   1
_chemical_formula_structural   HfZrTaTiMo
_chemical_formula_sum   'Hf50 Zr50 Ta50 Ti50 Mo50'
_cell_volume   4806.24476314
_cell_formula_units_Z   50
loop_
 _symmetry_equiv_pos_site_id
 _symmetry_equiv_pos_as_xyz
  1  'x, y, z'
loop_
 _atom_site_type_symbol
 _atom_site_label
 _atom_site_symmetry_multiplicity
 _atom_site_fract_x
 _atom_site_fract_y
 _atom_site_fract_z
 _atom_site_occupancy
  Hf  Hf0  1  0.40094283  0.81157289  0.79006732  1
  Hf  Hf1  1  0.00862885  0.20227365  0.40730995  1
  Hf  Hf2  1  0.69574708  0.89151040  0.30143106  1
  Hf  Hf3  1  0.90905439  0.50250181  0.10233079  1
  Hf  Hf4  1  0.80800937  0.61569983  0.00534016  1
  Hf  Hf5  1  0.90624038  0.29811528  0.89976443  1
  Hf  Hf6  1  0.68696161  0.09560944  0.50447178  1
  Hf  Hf7  1  0.20674147  0.80303370  0.21442747  1
  Hf  Hf8  1  0.00104934  0.00326972  0.00234919  1
  Hf  Hf9  1  0.90195386  0.09893247  0.50028883  1
  Hf  Hf10  1  0.00612209  0.39677083  0.79772092  1
  Hf  Hf11  1  0.78809942  0.58486862  0.58956533  1
  Hf  Hf12  1  0.00906667  0.40330728  0.20831011  1
  Hf  Hf13  1  0.48181401  0.50749564  0.49388952  1
  Hf  Hf14  1  0.79147978  0.40005025  0.79810004  1
  Hf  Hf15  1  0.80836637  0.61233872  0.20085848  1
  Hf  Hf16  1  0.00679826  0.60218864  -0.00299243  1
  Hf  Hf17  1  0.40335959  0.19997291  0.20481950  1
  Hf  Hf18  1  0.90450059  0.71064943  0.88667237  1
  Hf  Hf19  1  0.69108816  0.89941830  0.10584069  1
  Hf  Hf20  1  0.59644648  0.39690158  0.20761071  1
  Hf  Hf21  1  0.69961693  0.50343787  0.90373104  1
  Hf  Hf22  1  0.19514190  0.59363969  0.39547265  1
  Hf  Hf23  1  0.00788375  0.20294743  0.20619876  1
  Hf  Hf24  1  0.20240155  0.39049331  0.79860118  1
  Hf  Hf25  1  0.09949493  0.69462036  0.11630477  1
  Hf  Hf26  1  0.78934639  -0.00497544  0.60808996  1
  Hf  Hf27  1  0.90132498  0.49504275  0.69180278  1
  Hf  Hf28  1  0.19550144  0.59468985  0.59780618  1
  Hf  Hf29  1  0.10058060  0.70148479  0.49841479  1
  Hf  Hf30  1  0.38885885  -0.00484469  0.60532405  1
  Hf  Hf31  1  0.89987571  0.29938837  0.69389976  1
  Hf  Hf32  1  0.10091219  0.89601234  0.69920559  1
  Hf  Hf33  1  0.59765725  0.39445209  0.79705266  1
  Hf  Hf34  1  0.59768236  0.59799205  0.79083596  1
  Hf  Hf35  1  0.79960559  0.39256916  0.00341922  1
  Hf  Hf36  1  -0.00199317  0.79545122  0.00211499  1
  Hf  Hf37  1  0.20011911  0.79794419  0.00338196  1
  Hf  Hf38  1  0.40453975  -0.00016407  0.79743799  1
  Hf  Hf39  1  0.80120469  0.19674781  0.59974663  1
  Hf  Hf40  1  0.01544120  0.00662734  0.59164517  1
  Hf  Hf41  1  0.29505990  0.09783068  0.31001255  1
  Hf  Hf42  1  0.00985487  0.59924857  0.79857106  1
  Hf  Hf43  1  0.69864559  0.70883232  0.89740723  1
  Hf  Hf44  1  0.70336414  0.50118787  0.10488175  1
  Hf  Hf45  1  0.30175930  0.48684133  0.69393338  1
  Hf  Hf46  1  0.70952874  0.30527830  0.49942930  1
  Hf  Hf47  1  0.59452641  0.59661794  0.20740542  1
  Hf  Hf48  1  0.21268184  -0.00212101  0.78728224  1
  Hf  Hf49  1  0.30040846  0.70076606  0.90357789  1
  Zr  Zr50  1  0.79593457  0.20406725  0.19566358  1
  Zr  Zr51  1  0.40342028  0.39389908  0.38651136  1
  Zr  Zr52  1  0.10652514  0.10353334  0.89361440  1
  Zr  Zr53  1  0.40229506  0.60018916  0.79614018  1
  Zr  Zr54  1  0.78694356  0.20601669  0.00539660  1
  Zr  Zr55  1  0.29922501  0.70108798  0.69628590  1
  Zr  Zr56  1  0.41221935  0.37862009  0.59721163  1
  Zr  Zr57  1  0.89974696  0.50997818  0.30499090  1
  Zr  Zr58  1  0.59421885  0.59964792  0.00823946  1
  Zr  Zr59  1  0.59624975  0.80739825  0.00347446  1
  Zr  Zr60  1  0.09561930  0.89336788  0.89059254  1
  Zr  Zr61  1  0.59620328  0.40277746  0.39575730  1
  Zr  Zr62  1  0.79153047  0.19526963  0.79809499  1
  Zr  Zr63  1  0.40335101  0.58859995  0.01626567  1
  Zr  Zr64  1  0.89529947  0.69456451  0.48531478  1
  Zr  Zr65  1  0.49386317  0.71609747  0.11836730  1
  Zr  Zr66  1  0.50135962  0.10283214  0.70049813  1
  Zr  Zr67  1  0.49577138  0.70459462  0.90048158  1
  Zr  Zr68  1  0.79400311  0.00570846  0.00741444  1
  Zr  Zr69  1  0.10943661  0.30739117  0.10357965  1
  Zr  Zr70  1  0.79449826  0.59974960  0.78915602  1
  Zr  Zr71  1  0.30924193  0.10283541  0.89954958  1
  Zr  Zr72  1  0.89782289  0.09670712  0.89498606  1
  Zr  Zr73  1  0.30018761  0.89900012  0.49388168  1
  Zr  Zr74  1  0.89673617  0.30289133  0.30905302  1
  Zr  Zr75  1  0.20317553  0.80537898  0.59789443  1
  Zr  Zr76  1  0.30582246  0.48791397  0.89904730  1
  Zr  Zr77  1  0.59562349  0.59962101  0.59607538  1
  Zr  Zr78  1  0.79817228  0.00475277  0.19735121  1
  Zr  Zr79  1  0.90682470  0.70237913  0.68620984  1
  Zr  Zr80  1  0.68007320  0.09558581  0.90159213  1
  Zr  Zr81  1  0.09671886  0.90035957  0.11398249  1
  Zr  Zr82  1  0.69392020  0.09880020  0.29871512  1
  Zr  Zr83  1  0.79192474  0.81362375  0.58963185  1
  Zr  Zr84  1  0.59239600  0.20511585  0.39643849  1
  Zr  Zr85  1  0.00667186  0.80298942  0.39440931  1
  Zr  Zr86  1  0.60530363  0.40930543  0.59740518  1
  Zr  Zr87  1  0.29351367  0.29396447  0.49807316  1
  Zr  Zr88  1  0.20487600  0.20057225  0.00128211  1
  Zr  Zr89  1  0.59458690  0.60028154  0.39671758  1
  Zr  Zr90  1  0.79059496  0.81241196  0.78829120  1
  Zr  Zr91  1  0.90943082  0.90536867  0.70570414  1
  Zr  Zr92  1  0.40751187  0.40143828  0.19693440  1
  Zr  Zr93  1  0.69799708  0.70977674  0.48856378  1
  Zr  Zr94  1  0.58246657  0.21530398  0.59879936  1
  Zr  Zr95  1  0.01159786  0.40765104  0.40668836  1
  Zr  Zr96  1  0.19803008  0.59464970  0.00075994  1
  Zr  Zr97  1  0.20657192  -0.00326839  0.00669051  1
  Zr  Zr98  1  0.79577994  -0.00861756  0.40688936  1
  Zr  Zr99  1  0.60260326  0.38730814  0.00537711  1
  Ta  Ta100  1  0.79748134  0.39676140  0.19995977  1
  Ta  Ta101  1  0.39739636  0.81026920  0.00777398  1
  Ta  Ta102  1  0.49413113  0.89318502  0.29528888  1
  Ta  Ta103  1  0.00422596  0.20208010  0.00294696  1
  Ta  Ta104  1  0.49444854  0.48688609  0.89986870  1
  Ta  Ta105  1  0.30658339  0.69442465  0.49299037  1
  Ta  Ta106  1  0.00906217  0.40281650  -0.00154128  1
  Ta  Ta107  1  0.39802458  -0.00456137  0.20187211  1
  Ta  Ta108  1  0.20398513  0.19878573  0.20327206  1
  Ta  Ta109  1  0.11193276  0.30151914  0.50288141  1
  Ta  Ta110  1  0.49627417  0.09389938  0.30054975  1
  Ta  Ta111  1  0.30471821  0.10020982  0.10638085  1
  Ta  Ta112  1  0.39438300  0.80003482  0.39324462  1
  Ta  Ta113  1  0.49643693  0.89562303  0.50011602  1
  Ta  Ta114  1  0.70706213  0.70810866  0.30215630  1
  Ta  Ta115  1  0.49618326  0.29415040  0.90228871  1
  Ta  Ta116  1  0.59430961  0.80945427  0.79322843  1
  Ta  Ta117  1  0.68822343  0.71058529  0.69007150  1
  Ta  Ta118  1  0.40741213  0.19666509  0.00569065  1
  Ta  Ta119  1  0.39887969  0.59287833  0.20856943  1
  Ta  Ta120  1  0.00214739  0.39557619  0.59079871  1
  Ta  Ta121  1  0.30020291  0.28804177  0.69847648  1
  Ta  Ta122  1  0.69753315  0.90868264  0.89661918  1
  Ta  Ta123  1  0.58888062  -0.00682698  0.40033999  1
  Ta  Ta124  1  0.80363631  0.80569370  0.00615763  1
  Ta  Ta125  1  0.30623342  0.89995886  0.90254476  1
  Ta  Ta126  1  0.90515782  0.89951646  0.29661881  1
  Ta  Ta127  1  0.81035218  0.79779782  0.19848219  1
  Ta  Ta128  1  0.80339924  0.19916369  0.40275436  1
  Ta  Ta129  1  0.50201919  0.91097756  0.90727947  1
  Ta  Ta130  1  0.30076140  0.69842135  0.11250945  1
  Ta  Ta131  1  0.00929667  0.20139096  0.79189611  1
  Ta  Ta132  1  0.58452860  -0.00162973  0.19647448  1
  Ta  Ta133  1  0.29528326  0.49381722  0.49689040  1
  Ta  Ta134  1  0.10395592  0.90933113  0.30258574  1
  Ta  Ta135  1  0.90444408  0.90070036  0.10511184  1
  Ta  Ta136  1  0.00742373  0.00105132  0.40149901  1
  Ta  Ta137  1  0.49130289  0.49314922  0.70278511  1
  Ta  Ta138  1  0.39985920  0.19725272  0.40314978  1
  Ta  Ta139  1  0.10578719  0.09931554  0.30388744  1
  Ta  Ta140  1  0.30129754  0.30106007  0.10155352  1
  Ta  Ta141  1  0.90283536  0.49888113  0.90139172  1
  Ta  Ta142  1  0.90536084  0.09720566  0.30342834  1
  Ta  Ta143  1  0.69960924  0.30041908  0.69646901  1
  Ta  Ta144  1  0.48973484  0.09328101  0.50076672  1
  Ta  Ta145  1  0.89482114  0.90420638  0.89617597  1
  Ta  Ta146  1  0.91127717  0.10391526  0.10503474  1
  Ta  Ta147  1  0.10386495  0.29670240  0.89861122  1
  Ta  Ta148  1  0.10298611  0.49055093  0.69205311  1
  Ta  Ta149  1  0.00708699  0.20177321  0.59867395  1
  Ti  Ti150  1  0.00500117  0.59473873  0.39848639  1
  Ti  Ti151  1  0.30613119  0.29748595  0.90017039  1
  Ti  Ti152  1  0.39951994  -0.00347770  0.39747267  1
  Ti  Ti153  1  0.30443629  0.69508012  0.30109105  1
  Ti  Ti154  1  0.59666914  0.20623791  0.80451129  1
  Ti  Ti155  1  0.20178502  0.79713824  0.80047194  1
  Ti  Ti156  1  0.19254459  0.00481934  0.41340766  1
  Ti  Ti157  1  0.29174320  0.29966841  0.29985245  1
  Ti  Ti158  1  0.19437392  0.59895969  0.79837025  1
  Ti  Ti159  1  0.20696667  -0.00074330  0.20440362  1
  Ti  Ti160  1  0.00149371  0.00404868  0.20630120  1
  Ti  Ti161  1  0.48659577  0.70732370  0.49909231  1
  Ti  Ti162  1  0.29155473  0.49427444  0.11087087  1
  Ti  Ti163  1  0.20197614  0.39969507  0.00053907  1
  Ti  Ti164  1  0.90457519  0.89979272  0.49371688  1
  Ti  Ti165  1  0.90217512  0.09726673  0.70280916  1
  Ti  Ti166  1  0.67252648  0.10970621  0.10133709  1
  Ti  Ti167  1  0.50604220  0.89727587  0.68382710  1
  Ti  Ti168  1  0.09488558  0.69272888  0.29374998  1
  Ti  Ti169  1  0.30694235  0.89833346  0.10756604  1
  Ti  Ti170  1  0.20021852  0.18735449  0.58924024  1
  Ti  Ti171  1  0.11159976  0.29546782  0.69115054  1
  Ti  Ti172  1  0.58940803  0.80236238  0.40010892  1
  Ti  Ti173  1  0.71163149  0.50470134  0.30801344  1
  Ti  Ti174  1  0.40585897  0.39219793  0.00820035  1
  Ti  Ti175  1  0.10959601  0.50369804  0.11690910  1
  Ti  Ti176  1  0.40508221  0.20351948  0.80029124  1
  Ti  Ti177  1  0.39614549  0.60196935  0.59965660  1
  Ti  Ti178  1  0.80889758  0.40978247  0.41531497  1
  Ti  Ti179  1  0.09475728  0.70394137  0.70005648  1
  Ti  Ti180  1  0.51000772  0.28488130  0.10263295  1
  Ti  Ti181  1  0.20181972  0.00416541  0.59572176  1
  Ti  Ti182  1  0.20098890  0.80172629  0.39536849  1
  Ti  Ti183  1  0.10373978  0.49409840  0.89728756  1
  Ti  Ti184  1  0.10896178  0.10816067  0.69941436  1
  Ti  Ti185  1  0.41034305  0.00287230  0.01032845  1
  Ti  Ti186  1  0.29250004  0.49571551  0.29926578  1
  Ti  Ti187  1  0.00377912  0.80747998  0.59052876  1
  Ti  Ti188  1  0.49204364  0.70396244  0.30290883  1
  Ti  Ti189  1  0.59562140  -0.00654953  0.79556422  1
  Ti  Ti190  1  0.10429980  0.10022340  0.10809973  1
  Ti  Ti191  1  0.70385131  0.30012108  0.30078832  1
  Ti  Ti192  1  0.12053746  0.30497903  0.30898479  1
  Ti  Ti193  1  0.90749213  0.30139761  0.10137026  1
  Ti  Ti194  1  0.68813080  0.09520487  0.70070836  1
  Ti  Ti195  1  0.30060004  0.11348357  0.69526429  1
  Ti  Ti196  1  0.69664597  0.71005178  0.10975507  1
  Ti  Ti197  1  0.49960259  0.70898337  0.68592570  1
  Ti  Ti198  1  0.00434237  0.58592193  0.58611212  1
  Ti  Ti199  1  0.00488494  0.00716596  0.79700357  1
  Mo  Mo200  1  0.00505843  0.60152037  0.20529109  1
  Mo  Mo201  1  0.10670764  0.10448227  0.49881812  1
  Mo  Mo202  1  0.69535054  0.29868747  0.10928612  1
  Mo  Mo203  1  0.20769758  0.40008036  0.20491115  1
  Mo  Mo204  1  0.49905227  0.10160654  0.90304634  1
  Mo  Mo205  1  0.70689645  0.49849723  0.48749898  1
  Mo  Mo206  1  0.10443478  0.90379046  0.49472977  1
  Mo  Mo207  1  0.10550925  0.50513073  0.29536884  1
  Mo  Mo208  1  0.59286396  -0.00383698  0.59550960  1
  Mo  Mo209  1  0.40279063  0.79658607  0.59262902  1
  Mo  Mo210  1  0.10285703  0.49784456  0.50176908  1
  Mo  Mo211  1  0.80769645  0.80250607  0.39075450  1
  Mo  Mo212  1  0.49301751  0.51085881  0.29978270  1
  Mo  Mo213  1  0.30108023  0.09770352  0.49909689  1
  Mo  Mo214  1  0.79757191  0.60090130  0.39579576  1
  Mo  Mo215  1  0.49499360  0.29738754  0.71196871  1
  Mo  Mo216  1  0.20338683  0.40253347  0.39852445  1
  Mo  Mo217  1  0.39280014  0.80206601  0.20713009  1
  Mo  Mo218  1  0.20706364  0.59781235  0.20617743  1
  Mo  Mo219  1  0.29782911  0.89909499  0.70160069  1
  Mo  Mo220  1  0.59230991  0.80122736  0.59482710  1
  Mo  Mo221  1  0.59825708  0.79966899  0.21060882  1
  Mo  Mo222  1  0.20361703  0.20328497  0.79240382  1
  Mo  Mo223  1  0.49993917  0.28676079  0.29617719  1
  Mo  Mo224  1  0.80382963  0.39723399  0.59524414  1
  Mo  Mo225  1  0.49853013  0.49582255  0.10293014  1
  Mo  Mo226  1  0.49402731  0.29378549  0.48999708  1
  Mo  Mo227  1  0.69148538  0.29430315  0.89528919  1
  Mo  Mo228  1  0.10768046  0.69693310  0.88928362  1
  Mo  Mo229  1  0.90542704  0.70512985  0.29716993  1
  Mo  Mo230  1  0.39032647  0.60427123  0.39535050  1
  Mo  Mo231  1  0.19837117  0.39612296  0.59915551  1
  Mo  Mo232  1  0.90508497  0.49970050  0.49964699  1
  Mo  Mo233  1  0.58913564  0.00226174  0.00517655  1
  Mo  Mo234  1  0.68149572  0.90534773  0.69815864  1
  Mo  Mo235  1  0.29761816  0.90753135  0.30548408  1
  Mo  Mo236  1  0.40151431  0.38690022  0.80052310  1
  Mo  Mo237  1  0.49312428  0.90578402  0.10394856  1
  Mo  Mo238  1  -0.00135988  0.80006970  0.20594021  1
  Mo  Mo239  1  0.68129966  0.90023383  0.49774996  1
  Mo  Mo240  1  0.69483215  0.49654956  0.69589465  1
  Mo  Mo241  1  0.49547730  0.09767141  0.10191305  1
  Mo  Mo242  1  0.78887126  0.00053161  0.79638960  1
  Mo  Mo243  1  0.90709905  0.70795165  0.10208379  1
  Mo  Mo244  1  0.58952886  0.19778604  0.00144070  1
  Mo  Mo245  1  0.59555181  0.19850246  0.20124919  1
  Mo  Mo246  1  0.39325775  0.19113996  0.59655436  1
  Mo  Mo247  1  0.90341168  0.29954628  0.50435310  1
  Mo  Mo248  1  0.20055777  0.19966189  0.39686164  1
  Mo  Mo249  1  0.00409466  0.79647543  0.79864631  1
