# generated using pymatgen
data_HfZrTaTiMo
_symmetry_space_group_name_H-M   'P 1'
_cell_length_a   16.88528502
_cell_length_b   16.88945288
_cell_length_c   16.88632218
_cell_angle_alpha   89.98401955
_cell_angle_beta   89.98203015
_cell_angle_gamma   90.02307754
_symmetry_Int_Tables_number   1
_chemical_formula_structural   HfZrTaTiMo
_chemical_formula_sum   'Hf50 Zr50 Ta50 Ti50 Mo50'
_cell_volume   4815.69501523
_cell_formula_units_Z   50
loop_
 _symmetry_equiv_pos_site_id
 _symmetry_equiv_pos_as_xyz
  1  'x, y, z'
loop_
 _atom_site_type_symbol
 _atom_site_label
 _atom_site_symmetry_multiplicity
 _atom_site_fract_x
 _atom_site_fract_y
 _atom_site_fract_z
 _atom_site_occupancy
  Hf  Hf0  1  -0.00930680  0.20005950  0.80371876  1
  Hf  Hf1  1  0.09347045  0.29389494  0.09489847  1
  Hf  Hf2  1  0.10196223  0.30305118  0.69990618  1
  Hf  Hf3  1  0.49675880  0.09875947  0.70199277  1
  Hf  Hf4  1  0.60317364  0.40629537  0.19264245  1
  Hf  Hf5  1  -0.00577713  -0.00304010  -0.00387870  1
  Hf  Hf6  1  0.20385329  0.19882246  0.80595542  1
  Hf  Hf7  1  0.01288303  0.20047975  0.39964031  1
  Hf  Hf8  1  0.40647086  0.40055120  -0.00271644  1
  Hf  Hf9  1  0.80293875  0.79997952  -0.00186766  1
  Hf  Hf10  1  0.20971667  0.60666237  0.79438466  1
  Hf  Hf11  1  0.29807401  0.69994928  0.29519142  1
  Hf  Hf12  1  0.09658898  0.49684913  0.69531961  1
  Hf  Hf13  1  0.30284809  0.48367704  0.69673184  1
  Hf  Hf14  1  0.89244370  0.89969906  0.89130635  1
  Hf  Hf15  1  0.60772873  0.80362866  0.60904495  1
  Hf  Hf16  1  0.69338680  0.69927012  0.09382945  1
  Hf  Hf17  1  0.79763392  0.58269468  0.19033718  1
  Hf  Hf18  1  0.20266047  0.80100871  0.39820028  1
  Hf  Hf19  1  0.29235253  0.88816022  0.10521181  1
  Hf  Hf20  1  0.41099854  0.39626901  0.80595107  1
  Hf  Hf21  1  0.89314525  0.09893680  0.48832687  1
  Hf  Hf22  1  0.80581735  0.00200733  0.61432108  1
  Hf  Hf23  1  0.39726122  0.59446368  0.60263540  1
  Hf  Hf24  1  0.10373477  0.49790177  0.31345515  1
  Hf  Hf25  1  0.59819704  0.39457362  0.41059247  1
  Hf  Hf26  1  0.40145841  0.00534629  0.40488506  1
  Hf  Hf27  1  0.69649217  0.90716333  0.50255392  1
  Hf  Hf28  1  0.21136796  0.59602385  0.59309738  1
  Hf  Hf29  1  0.00237080  0.79780520  0.39422329  1
  Hf  Hf30  1  0.30295462  0.29709173  0.68882833  1
  Hf  Hf31  1  0.10716856  0.10352392  0.69897129  1
  Hf  Hf32  1  0.50699942  0.09827615  0.09980710  1
  Hf  Hf33  1  0.19731054  0.00550955  -0.00496193  1
  Hf  Hf34  1  -0.00807461  0.80770123  0.60324941  1
  Hf  Hf35  1  0.30538589  0.31074119  0.30818433  1
  Hf  Hf36  1  0.69644047  0.10524370  0.09527501  1
  Hf  Hf37  1  0.69836203  0.10777189  0.70661560  1
  Hf  Hf38  1  0.60201009  0.39301090  0.59917294  1
  Hf  Hf39  1  0.09947602  0.69810450  0.69332714  1
  Hf  Hf40  1  0.79415020  0.40024174  0.40738464  1
  Hf  Hf41  1  0.40304373  0.20744838  0.20265894  1
  Hf  Hf42  1  0.89356248  0.49335887  0.88964529  1
  Hf  Hf43  1  0.69626314  0.49389649  0.89142543  1
  Hf  Hf44  1  -0.00918165  0.39643515  0.60031924  1
  Hf  Hf45  1  0.49807746  0.69872150  0.69492149  1
  Hf  Hf46  1  0.19754527  -0.00100739  0.19696876  1
  Hf  Hf47  1  0.90123368  0.11386371  0.09132217  1
  Hf  Hf48  1  0.30155470  0.49788388  0.30582919  1
  Hf  Hf49  1  0.69843856  0.10360849  0.90038662  1
  Zr  Zr50  1  0.69584669  0.29957736  0.29617756  1
  Zr  Zr51  1  0.19677564  0.59156914  0.00740033  1
  Zr  Zr52  1  0.80155075  0.79896854  0.60853996  1
  Zr  Zr53  1  0.40969720  0.79358421  0.00195958  1
  Zr  Zr54  1  0.49417442  0.49674730  0.30480775  1
  Zr  Zr55  1  0.80193111  0.59195298  -0.00279765  1
  Zr  Zr56  1  0.50893110  0.70174223  0.50109235  1
  Zr  Zr57  1  -0.00321316  0.19747026  0.60019389  1
  Zr  Zr58  1  0.90302947  0.69847703  0.10155293  1
  Zr  Zr59  1  0.90005193  0.91024930  0.48693013  1
  Zr  Zr60  1  0.10143797  0.69440369  0.50126224  1
  Zr  Zr61  1  0.41247374  0.79681154  0.19483943  1
  Zr  Zr62  1  0.10441111  0.90934081  0.49609113  1
  Zr  Zr63  1  0.39801820  0.78734512  0.80052453  1
  Zr  Zr64  1  0.19764050  0.59570851  0.19532323  1
  Zr  Zr65  1  0.89767331  0.49603615  0.30733076  1
  Zr  Zr66  1  0.59768075  0.59721205  0.19246054  1
  Zr  Zr67  1  0.29860378  0.89915880  0.89753970  1
  Zr  Zr68  1  0.69241520  0.90578854  0.10045832  1
  Zr  Zr69  1  0.31005398  0.90498116  0.69836980  1
  Zr  Zr70  1  0.19300357  0.40575065  0.19270495  1
  Zr  Zr71  1  0.59769946  -0.00733924  0.80204036  1
  Zr  Zr72  1  0.19805335  0.20157718  -0.01247611  1
  Zr  Zr73  1  0.79724091  0.00419448  0.20259696  1
  Zr  Zr74  1  0.88963698  0.28915089  0.49622868  1
  Zr  Zr75  1  0.59352206  0.19891557  0.59491762  1
  Zr  Zr76  1  -0.00343280  0.40150962  0.00028211  1
  Zr  Zr77  1  0.30600386  0.50313580  0.90431820  1
  Zr  Zr78  1  0.89587604  0.29737413  0.29739276  1
  Zr  Zr79  1  -0.00299469  -0.00428876  0.19188383  1
  Zr  Zr80  1  0.40377464  0.80713290  0.40170385  1
  Zr  Zr81  1  0.79620062  0.80269124  0.39633173  1
  Zr  Zr82  1  -0.00086224  0.00660860  0.60363913  1
  Zr  Zr83  1  0.40014680  0.00092605  -0.00005927  1
  Zr  Zr84  1  0.79519443  0.39444475  0.60528943  1
  Zr  Zr85  1  0.69848512  0.69453807  0.30302843  1
  Zr  Zr86  1  0.50956779  0.90795078  0.29251035  1
  Zr  Zr87  1  0.69645387  0.09745714  0.50051788  1
  Zr  Zr88  1  0.10243228  0.09197191  0.30362864  1
  Zr  Zr89  1  0.29754560  0.10699240  0.10557197  1
  Zr  Zr90  1  -0.01069302  0.60582298  0.79980423  1
  Zr  Zr91  1  0.10937530  0.90537401  0.70477412  1
  Zr  Zr92  1  0.20484970  0.20743769  0.40316337  1
  Zr  Zr93  1  0.89834576  0.69244546  0.30060495  1
  Zr  Zr94  1  0.09311670  0.50057847  0.89227435  1
  Zr  Zr95  1  0.59674382  0.79587423  0.80628899  1
  Zr  Zr96  1  -0.00798927  0.80015979  0.79831730  1
  Zr  Zr97  1  0.39176669  0.59865921  0.41357655  1
  Zr  Zr98  1  0.30172419  0.30512236  0.10315474  1
  Zr  Zr99  1  0.50060222  0.10493615  0.30062460  1
  Ta  Ta100  1  0.70071998  0.29721961  0.09376312  1
  Ta  Ta101  1  0.80253985  0.81091310  0.20007060  1
  Ta  Ta102  1  0.50794206  0.90977359  0.50948123  1
  Ta  Ta103  1  0.89897779  0.68911375  0.50288066  1
  Ta  Ta104  1  0.50181991  0.29673295  0.70542808  1
  Ta  Ta105  1  0.10075244  0.89879370  0.89709350  1
  Ta  Ta106  1  0.09975042  0.70423235  0.09997774  1
  Ta  Ta107  1  0.00461553  0.58997297  0.19386521  1
  Ta  Ta108  1  0.90497162  0.90493974  0.29820913  1
  Ta  Ta109  1  0.69849429  0.69769907  0.89812225  1
  Ta  Ta110  1  0.10053829  0.89037811  0.09470431  1
  Ta  Ta111  1  0.59863035  0.39869975  -0.00804692  1
  Ta  Ta112  1  0.40590792  0.20491604  -0.00744498  1
  Ta  Ta113  1  0.11477508  0.30678073  0.50715364  1
  Ta  Ta114  1  0.90091534  0.50588368  0.50270529  1
  Ta  Ta115  1  0.50129750  0.50724396  0.08452143  1
  Ta  Ta116  1  0.50536290  0.69441722  0.30271062  1
  Ta  Ta117  1  0.69811867  0.49898390  0.70408398  1
  Ta  Ta118  1  -0.00335872  0.79999701  -0.00212081  1
  Ta  Ta119  1  0.89331887  0.29833391  0.09898607  1
  Ta  Ta120  1  0.59197625  0.80038997  -0.00181006  1
  Ta  Ta121  1  0.50432255  0.30400949  0.09939708  1
  Ta  Ta122  1  0.10204941  0.49650701  0.50090952  1
  Ta  Ta123  1  0.50647893  0.49328485  0.70094203  1
  Ta  Ta124  1  0.29620473  0.90384121  0.29695500  1
  Ta  Ta125  1  0.70177487  0.69233126  0.49988336  1
  Ta  Ta126  1  0.19544990  0.40126707  -0.00222859  1
  Ta  Ta127  1  0.30296642  0.10128301  0.30232531  1
  Ta  Ta128  1  0.71287656  0.89791831  0.71686931  1
  Ta  Ta129  1  0.29998371  0.69675296  0.09855431  1
  Ta  Ta130  1  0.20633053  0.01077716  0.80673677  1
  Ta  Ta131  1  0.00108748  0.80096774  0.19840251  1
  Ta  Ta132  1  0.89655465  0.29960454  0.90094851  1
  Ta  Ta133  1  0.19678301  0.39164776  0.80874907  1
  Ta  Ta134  1  0.00242538  0.59776781  0.40318498  1
  Ta  Ta135  1  0.50157085  0.10420717  0.89555351  1
  Ta  Ta136  1  0.40551461  0.59701916  0.80062358  1
  Ta  Ta137  1  0.69728023  0.50456091  0.31327068  1
  Ta  Ta138  1  0.60285211  0.80452839  0.39750784  1
  Ta  Ta139  1  0.09734973  0.70321457  0.90468734  1
  Ta  Ta140  1  0.09427116  0.10743234  0.09739448  1
  Ta  Ta141  1  0.00141208  0.20531148  0.20361214  1
  Ta  Ta142  1  0.69901009  0.51133488  0.50112156  1
  Ta  Ta143  1  0.59737844  0.59765816  0.79927095  1
  Ta  Ta144  1  0.21008133  0.01241092  0.59513154  1
  Ta  Ta145  1  0.59587221  0.20955303  -0.00646370  1
  Ta  Ta146  1  -0.00138710  0.40066529  0.19796939  1
  Ta  Ta147  1  0.30647178  0.11145304  0.49964203  1
  Ta  Ta148  1  0.20223909  0.79298233  0.80224202  1
  Ta  Ta149  1  0.79798188  0.59857127  0.60714877  1
  Ti  Ti150  1  0.80490093  -0.00095321  -0.00079268  1
  Ti  Ti151  1  0.20722167  0.00380946  0.40510872  1
  Ti  Ti152  1  0.78613584  0.18551354  0.38096359  1
  Ti  Ti153  1  0.79751110  0.19639310  0.20294869  1
  Ti  Ti154  1  0.30076063  0.69454641  0.90854798  1
  Ti  Ti155  1  0.50557166  0.50191033  0.50768393  1
  Ti  Ti156  1  0.79941830  0.20571626  -0.00982864  1
  Ti  Ti157  1  0.08716282  0.10135339  0.90205279  1
  Ti  Ti158  1  0.40397708  0.00763523  0.59349433  1
  Ti  Ti159  1  0.10380444  0.69512044  0.29656026  1
  Ti  Ti160  1  0.89640032  0.49859379  0.70113032  1
  Ti  Ti161  1  0.19564436  0.79454823  -0.00345187  1
  Ti  Ti162  1  0.10250322  0.89981447  0.29705408  1
  Ti  Ti163  1  0.79472562  0.39938719  0.00529071  1
  Ti  Ti164  1  0.59339366  -0.00782897  -0.00388225  1
  Ti  Ti165  1  0.30712922  0.10279772  0.69909598  1
  Ti  Ti166  1  0.40206699  0.19960256  0.59273398  1
  Ti  Ti167  1  0.50301738  0.67867864  0.91244910  1
  Ti  Ti168  1  0.78655584  0.00095748  0.38152445  1
  Ti  Ti169  1  0.49163482  0.90476659  0.89497956  1
  Ti  Ti170  1  0.69739399  0.29925835  0.89208888  1
  Ti  Ti171  1  0.60321688  0.00401834  0.39457701  1
  Ti  Ti172  1  0.48675718  0.29297910  0.49873725  1
  Ti  Ti173  1  0.59225953  0.19918495  0.40182222  1
  Ti  Ti174  1  0.30458088  0.71160016  0.50699847  1
  Ti  Ti175  1  0.40046754  0.20028651  0.80747089  1
  Ti  Ti176  1  0.40336422  0.59874687  0.18879912  1
  Ti  Ti177  1  0.70765550  0.28258917  0.50237003  1
  Ti  Ti178  1  0.69714859  0.29260952  0.71011585  1
  Ti  Ti179  1  0.49293097  0.30803599  0.30275908  1
  Ti  Ti180  1  0.90706845  0.09561397  0.30210424  1
  Ti  Ti181  1  0.79443618  0.61070840  0.79484315  1
  Ti  Ti182  1  0.81002416  0.01494128  0.80226860  1
  Ti  Ti183  1  0.60776308  0.59933080  0.60812585  1
  Ti  Ti184  1  0.40059258  -0.00284621  0.19635951  1
  Ti  Ti185  1  0.79621433  0.40387559  0.19068133  1
  Ti  Ti186  1  0.59957346  0.80184570  0.19749489  1
  Ti  Ti187  1  0.19227115  0.20566502  0.21049947  1
  Ti  Ti188  1  0.00512573  0.39259987  0.40312470  1
  Ti  Ti189  1  0.39461579  0.40074856  0.42497757  1
  Ti  Ti190  1  0.70431086  0.89731224  0.89814477  1
  Ti  Ti191  1  -0.00761681  0.00661539  0.79707608  1
  Ti  Ti192  1  -0.00506590  0.59956331  0.00240312  1
  Ti  Ti193  1  0.49509585  0.90487937  0.69486026  1
  Ti  Ti194  1  0.21081681  0.80170755  0.60661594  1
  Ti  Ti195  1  0.59990725  0.20428925  0.19969044  1
  Ti  Ti196  1  0.30232279  0.30161363  0.90057059  1
  Ti  Ti197  1  0.30610048  0.90135414  0.50555291  1
  Ti  Ti198  1  0.80224136  0.38736716  0.79261892  1
  Ti  Ti199  1  0.89513311  0.69699427  0.69787024  1
  Mo  Mo200  1  0.20246854  0.40289719  0.40966285  1
  Mo  Mo201  1  0.59558059  0.20593853  0.80539543  1
  Mo  Mo202  1  0.40864462  0.40673472  0.19004822  1
  Mo  Mo203  1  0.50634147  0.50245701  0.89531890  1
  Mo  Mo204  1  0.79704945  0.20729795  0.80751601  1
  Mo  Mo205  1  0.31767560  0.50179015  0.10292270  1
  Mo  Mo206  1  0.20008621  0.39976520  0.59982187  1
  Mo  Mo207  1  0.30627887  0.30160238  0.50616519  1
  Mo  Mo208  1  0.31324430  0.10345381  0.89237444  1
  Mo  Mo209  1  0.50419527  0.29743795  0.89851816  1
  Mo  Mo210  1  0.41218752  0.39662174  0.59841156  1
  Mo  Mo211  1  0.80072867  0.59751131  0.40999409  1
  Mo  Mo212  1  0.89335841  0.10098180  0.90144699  1
  Mo  Mo213  1  0.19684445  0.60291197  0.40588047  1
  Mo  Mo214  1  0.09592781  0.30307016  0.89774662  1
  Mo  Mo215  1  0.68779499  0.10205411  0.29437829  1
  Mo  Mo216  1  0.40176997  0.80907701  0.59681693  1
  Mo  Mo217  1  0.79671657  0.78744744  0.80325018  1
  Mo  Mo218  1  0.60372399  0.39717191  0.79591351  1
  Mo  Mo219  1  0.50726126  0.90240159  0.09667385  1
  Mo  Mo220  1  0.20871767  0.19841163  0.59881858  1
  Mo  Mo221  1  0.40208255  0.60115504  0.00209292  1
  Mo  Mo222  1  0.69952581  0.69323288  0.70381801  1
  Mo  Mo223  1  0.89350332  0.29874353  0.70754108  1
  Mo  Mo224  1  0.50356490  0.69762438  0.09933261  1
  Mo  Mo225  1  -0.00993202  0.59403406  0.59896757  1
  Mo  Mo226  1  0.30337807  0.70249098  0.69562828  1
  Mo  Mo227  1  0.80193016  0.19837041  0.61724830  1
  Mo  Mo228  1  0.89376558  0.10659956  0.70648430  1
  Mo  Mo229  1  0.29272724  0.48757873  0.50250823  1
  Mo  Mo230  1  0.59985314  -0.00622455  0.60908758  1
  Mo  Mo231  1  0.00515231  0.00205438  0.39332216  1
  Mo  Mo232  1  0.59941480  0.59930020  0.40498234  1
  Mo  Mo233  1  -0.00858928  0.39298232  0.79568297  1
  Mo  Mo234  1  0.09776513  0.30772428  0.30168500  1
  Mo  Mo235  1  0.08686295  0.50060486  0.09622135  1
  Mo  Mo236  1  0.89509590  0.90735393  0.71235310  1
  Mo  Mo237  1  0.19155335  0.79840044  0.20199819  1
  Mo  Mo238  1  -0.00637669  0.20234840  -0.00235890  1
  Mo  Mo239  1  0.39918221  0.00844092  0.79897676  1
  Mo  Mo240  1  0.60022440  0.59710647  -0.00692607  1
  Mo  Mo241  1  0.89772765  0.69855382  0.90059953  1
  Mo  Mo242  1  0.40199033  0.20444573  0.40147702  1
  Mo  Mo243  1  0.11543406  0.10465735  0.50303238  1
  Mo  Mo244  1  0.69841257  0.90055008  0.29837605  1
  Mo  Mo245  1  0.69651289  0.48840273  0.08787245  1
  Mo  Mo246  1  0.49799216  0.09685770  0.50000060  1
  Mo  Mo247  1  0.90235014  0.89630786  0.09928801  1
  Mo  Mo248  1  0.89844306  0.49117869  0.10145418  1
  Mo  Mo249  1  0.60236366  0.00536187  0.19830642  1
