# generated using pymatgen
data_HfZrTaTiMo
_symmetry_space_group_name_H-M   'P 1'
_cell_length_a   16.88832549
_cell_length_b   16.88944326
_cell_length_c   16.87902841
_cell_angle_alpha   89.97634728
_cell_angle_beta   89.97637747
_cell_angle_gamma   89.98346811
_symmetry_Int_Tables_number   1
_chemical_formula_structural   HfZrTaTiMo
_chemical_formula_sum   'Hf50 Zr50 Ta50 Ti50 Mo50'
_cell_volume   4814.47877862
_cell_formula_units_Z   50
loop_
 _symmetry_equiv_pos_site_id
 _symmetry_equiv_pos_as_xyz
  1  'x, y, z'
loop_
 _atom_site_type_symbol
 _atom_site_label
 _atom_site_symmetry_multiplicity
 _atom_site_fract_x
 _atom_site_fract_y
 _atom_site_fract_z
 _atom_site_occupancy
  Hf  Hf0  1  0.69385360  0.29900870  0.08932278  1
  Hf  Hf1  1  0.09682906  0.50176478  0.70062556  1
  Hf  Hf2  1  0.89255464  0.09994332  0.10557039  1
  Hf  Hf3  1  0.41294184  0.79214784  0.79960225  1
  Hf  Hf4  1  0.69283741  0.49931045  0.09578747  1
  Hf  Hf5  1  -0.00552619  -0.00637936  0.00520348  1
  Hf  Hf6  1  0.20623635  0.40512442  0.60351287  1
  Hf  Hf7  1  0.41041024  0.60273111  -0.00491697  1
  Hf  Hf8  1  0.00772754  0.19307383  0.60955143  1
  Hf  Hf9  1  0.60348044  0.60933898  0.39800266  1
  Hf  Hf10  1  0.09632536  0.31353786  0.71083839  1
  Hf  Hf11  1  -0.01158630  0.60608788  0.78725724  1
  Hf  Hf12  1  0.39473889  0.20304328  0.60599637  1
  Hf  Hf13  1  0.80995248  -0.00545504  0.80590437  1
  Hf  Hf14  1  0.20082147  0.19749479  0.20475544  1
  Hf  Hf15  1  0.71544354  0.87592958  0.69971437  1
  Hf  Hf16  1  0.51222504  0.29568270  0.48921054  1
  Hf  Hf17  1  0.90277111  0.30580222  0.89496125  1
  Hf  Hf18  1  0.80245654  0.60368914  0.60745914  1
  Hf  Hf19  1  0.61372932  0.00469460  0.39942301  1
  Hf  Hf20  1  0.89536524  0.70194605  0.90370055  1
  Hf  Hf21  1  0.60565708  -0.00144217  0.18835085  1
  Hf  Hf22  1  0.11787341  0.88679517  0.30473254  1
  Hf  Hf23  1  0.29708868  0.88868481  0.49171261  1
  Hf  Hf24  1  0.40752849  0.19861127  0.19023121  1
  Hf  Hf25  1  -0.01035937  0.40873492  0.00665316  1
  Hf  Hf26  1  0.19839126  0.18136834  0.39300844  1
  Hf  Hf27  1  0.80054013  0.40131514  0.59997589  1
  Hf  Hf28  1  0.60127394  -0.01134477  0.79806416  1
  Hf  Hf29  1  0.20056276  0.19670465  0.60996673  1
  Hf  Hf30  1  0.19051674  0.80574774  0.00283497  1
  Hf  Hf31  1  0.30312253  0.08879258  0.50427817  1
  Hf  Hf32  1  0.29385336  0.30780958  0.89830051  1
  Hf  Hf33  1  0.40263839  0.40723965  0.39392741  1
  Hf  Hf34  1  0.79170892  0.39107354  0.40272076  1
  Hf  Hf35  1  0.90295500  0.28837741  0.50092597  1
  Hf  Hf36  1  0.09596529  0.09345043  0.90190819  1
  Hf  Hf37  1  0.09974707  0.50896226  0.09673253  1
  Hf  Hf38  1  0.40741987  0.20224030  -0.00220681  1
  Hf  Hf39  1  -0.01374038  0.60821876  0.59464966  1
  Hf  Hf40  1  0.40901592  0.80158171  0.00127811  1
  Hf  Hf41  1  0.09623527  0.50968215  0.30448920  1
  Hf  Hf42  1  0.89686357  0.88680088  0.91137418  1
  Hf  Hf43  1  0.79759141  0.20648947  0.21022581  1
  Hf  Hf44  1  0.09925528  0.30291178  0.09972297  1
  Hf  Hf45  1  0.29752634  0.69879893  0.10179809  1
  Hf  Hf46  1  -0.01507238  0.39456655  0.20123078  1
  Hf  Hf47  1  0.40007465  0.00022266  0.39372679  1
  Hf  Hf48  1  -0.00703671  0.60253040  0.19385479  1
  Hf  Hf49  1  0.40196396  0.40664203  0.19309712  1
  Zr  Zr50  1  0.80123295  0.39359665  0.20032826  1
  Zr  Zr51  1  0.49660541  0.70391751  0.29750527  1
  Zr  Zr52  1  0.00135311  -0.00588678  0.20294408  1
  Zr  Zr53  1  0.90516131  0.89280323  0.50159210  1
  Zr  Zr54  1  0.41547466  -0.00166715  0.00797654  1
  Zr  Zr55  1  0.00786817  -0.00262830  0.39299123  1
  Zr  Zr56  1  0.29881089  0.29502184  0.49403568  1
  Zr  Zr57  1  0.50918404  0.10723306  0.29939605  1
  Zr  Zr58  1  0.69656704  0.09971826  0.90708305  1
  Zr  Zr59  1  0.29287723  0.90128076  0.11232189  1
  Zr  Zr60  1  0.50275572  0.50549668  0.49503789  1
  Zr  Zr61  1  0.89284178  0.50503702  0.30429261  1
  Zr  Zr62  1  0.29909209  0.09164584  0.89996222  1
  Zr  Zr63  1  0.29725276  0.09850289  0.09801807  1
  Zr  Zr64  1  0.19931834  0.19713473  0.79541538  1
  Zr  Zr65  1  0.10442388  0.70807567  0.68403255  1
  Zr  Zr66  1  0.51268331  0.30135638  0.69693282  1
  Zr  Zr67  1  0.60245195  -0.01131275  0.60057827  1
  Zr  Zr68  1  0.20033309  0.40934069  0.40369947  1
  Zr  Zr69  1  0.50302675  0.10086486  0.69662599  1
  Zr  Zr70  1  0.59449363  0.40067299  0.19700428  1
  Zr  Zr71  1  0.19242929  0.79943619  0.80432439  1
  Zr  Zr72  1  0.70041697  0.71278724  0.51228086  1
  Zr  Zr73  1  0.30618247  0.29753439  0.29773088  1
  Zr  Zr74  1  -0.00233481  0.18997098  0.80490640  1
  Zr  Zr75  1  0.69935875  0.50761376  0.71054439  1
  Zr  Zr76  1  0.29734519  0.50351529  0.89452848  1
  Zr  Zr77  1  0.29722966  0.89062935  0.69829482  1
  Zr  Zr78  1  0.39368673  0.40341526  0.60295899  1
  Zr  Zr79  1  0.10167335  0.09687291  0.10215278  1
  Zr  Zr80  1  -0.00361279  0.81035209  0.78987219  1
  Zr  Zr81  1  0.50092298  0.89631435  0.29309461  1
  Zr  Zr82  1  0.90456450  0.09418564  0.50440389  1
  Zr  Zr83  1  0.20134076  0.40682244  0.20504959  1
  Zr  Zr84  1  0.70357289  0.10217194  0.70213920  1
  Zr  Zr85  1  0.40985567  0.79530681  0.60251889  1
  Zr  Zr86  1  0.19061102  -0.00718537  0.60424765  1
  Zr  Zr87  1  0.89496233  0.51027982  0.89553375  1
  Zr  Zr88  1  -0.00363942  0.39714537  0.40335157  1
  Zr  Zr89  1  0.77857858  0.18724900  0.40833824  1
  Zr  Zr90  1  0.50064118  0.50330769  0.70600316  1
  Zr  Zr91  1  0.79070863  -0.00594132  0.00986189  1
  Zr  Zr92  1  0.79783466  0.60889784  0.40472289  1
  Zr  Zr93  1  0.10552738  0.70800212  0.49120297  1
  Zr  Zr94  1  0.40288877  0.20414075  0.80104020  1
  Zr  Zr95  1  0.89715650  0.70896974  0.29570434  1
  Zr  Zr96  1  0.90028927  0.70680987  0.08981158  1
  Zr  Zr97  1  0.29987499  0.69762934  0.89844182  1
  Zr  Zr98  1  0.60292814  0.60889949  -0.01043836  1
  Zr  Zr99  1  -0.00588768  0.20242962  0.21481276  1
  Ta  Ta100  1  0.20135454  0.60824282  0.20605474  1
  Ta  Ta101  1  0.20968835  0.59654229  0.59661225  1
  Ta  Ta102  1  0.88966183  0.89833036  0.29313854  1
  Ta  Ta103  1  0.50995871  0.89315759  0.90246028  1
  Ta  Ta104  1  0.29881325  0.30685350  0.09104742  1
  Ta  Ta105  1  0.40082653  0.60372136  0.60166670  1
  Ta  Ta106  1  0.80205945  -0.00450610  0.60026407  1
  Ta  Ta107  1  0.10005009  0.70127701  0.09990254  1
  Ta  Ta108  1  -0.00465996  0.40373769  0.59946805  1
  Ta  Ta109  1  0.30228622  0.89191356  0.30078861  1
  Ta  Ta110  1  0.09901890  0.09332802  0.49996336  1
  Ta  Ta111  1  0.09836641  0.29320844  0.50079519  1
  Ta  Ta112  1  0.50395100  0.89303808  0.49241872  1
  Ta  Ta113  1  0.89867341  0.30019502  0.70240385  1
  Ta  Ta114  1  0.19379253  0.20769246  -0.00349476  1
  Ta  Ta115  1  0.30347420  0.08415740  0.70463068  1
  Ta  Ta116  1  0.69194306  0.50114687  0.30128694  1
  Ta  Ta117  1  0.69881174  0.30558919  0.90020326  1
  Ta  Ta118  1  0.79419520  0.80478716  0.39573047  1
  Ta  Ta119  1  0.30251475  0.90317548  0.89933032  1
  Ta  Ta120  1  0.59542588  0.60993240  0.60414104  1
  Ta  Ta121  1  0.30149591  0.69262263  0.69876612  1
  Ta  Ta122  1  0.30423291  0.69964748  0.49336444  1
  Ta  Ta123  1  0.60283271  0.20440186  0.80852659  1
  Ta  Ta124  1  0.61172619  0.40083674  0.59420972  1
  Ta  Ta125  1  0.80602660  0.20360715  -0.00381662  1
  Ta  Ta126  1  0.19580634  0.60038277  0.79577888  1
  Ta  Ta127  1  0.01025839  0.80459291  0.19613878  1
  Ta  Ta128  1  0.51106057  0.70790703  0.10257447  1
  Ta  Ta129  1  0.60855437  0.80336491  0.39206323  1
  Ta  Ta130  1  0.29830852  0.50601414  0.09542028  1
  Ta  Ta131  1  0.40416035  0.40587434  -0.00104709  1
  Ta  Ta132  1  0.50375150  0.09857305  0.50152276  1
  Ta  Ta133  1  0.70395941  0.29754763  0.70352978  1
  Ta  Ta134  1  0.40186904  0.60142399  0.19626973  1
  Ta  Ta135  1  0.09689865  0.31361356  0.89933970  1
  Ta  Ta136  1  0.90169563  0.09305752  0.70380084  1
  Ta  Ta137  1  0.80226237  0.20003552  0.80464969  1
  Ta  Ta138  1  0.39442845  0.40114646  0.79669790  1
  Ta  Ta139  1  0.80062564  0.40088568  0.79837234  1
  Ta  Ta140  1  0.19803753  0.40604311  -0.00117861  1
  Ta  Ta141  1  0.50253200  0.50805822  0.29786142  1
  Ta  Ta142  1  0.79409777  -0.00290575  0.39745489  1
  Ta  Ta143  1  0.50462748  0.30027316  0.30447744  1
  Ta  Ta144  1  0.79927196  0.40223753  -0.00025264  1
  Ta  Ta145  1  0.18859371  -0.00801101  0.79740772  1
  Ta  Ta146  1  0.40906183  -0.01236228  0.79862854  1
  Ta  Ta147  1  -0.00623595  0.20249354  0.00088441  1
  Ta  Ta148  1  0.67799395  0.29623869  0.31387595  1
  Ta  Ta149  1  0.78968295  0.60300142  0.19455859  1
  Ti  Ti150  1  0.89413056  0.09648603  0.30681528  1
  Ti  Ti151  1  0.50590501  0.09285469  0.89930400  1
  Ti  Ti152  1  0.60030451  0.19882260  0.19514028  1
  Ti  Ti153  1  0.10477574  0.88897656  0.50192368  1
  Ti  Ti154  1  0.60458070  0.39754178  0.80187134  1
  Ti  Ti155  1  0.59497755  0.19691339  -0.00192230  1
  Ti  Ti156  1  0.77776938  0.79412369  0.00855115  1
  Ti  Ti157  1  0.70236282  0.89568280  0.50256912  1
  Ti  Ti158  1  0.79805733  0.19675283  0.60314722  1
  Ti  Ti159  1  0.00332935  -0.01119024  0.61605507  1
  Ti  Ti160  1  0.61707341  0.19854555  0.58637082  1
  Ti  Ti161  1  0.89899196  0.50137815  0.49802421  1
  Ti  Ti162  1  0.59897269  0.79072906  0.79867742  1
  Ti  Ti163  1  0.50460364  0.30600991  0.09009939  1
  Ti  Ti164  1  0.30677597  0.51655193  0.29944453  1
  Ti  Ti165  1  0.08447348  0.69603175  0.90874258  1
  Ti  Ti166  1  0.60554061  0.61067583  0.19925387  1
  Ti  Ti167  1  0.70534689  0.90097532  0.28866868  1
  Ti  Ti168  1  0.41028275  -0.01061022  0.60436528  1
  Ti  Ti169  1  0.19468147  -0.00754554  -0.00021916  1
  Ti  Ti170  1  0.69566107  0.88854175  0.90413386  1
  Ti  Ti171  1  -0.00113786  0.79692920  0.39271999  1
  Ti  Ti172  1  0.40059864  0.19165232  0.39679722  1
  Ti  Ti173  1  0.19331304  0.60126578  -0.00521395  1
  Ti  Ti174  1  0.09356774  0.50095508  0.89400143  1
  Ti  Ti175  1  0.30109195  0.70953699  0.30397552  1
  Ti  Ti176  1  0.40308058  0.80056787  0.19360785  1
  Ti  Ti177  1  0.50699294  0.31231076  0.90290641  1
  Ti  Ti178  1  0.87766496  0.72529457  0.69914550  1
  Ti  Ti179  1  0.50455543  0.50613163  0.09693168  1
  Ti  Ti180  1  0.78308759  0.79419910  0.19693639  1
  Ti  Ti181  1  0.69593904  0.50244167  0.49861582  1
  Ti  Ti182  1  -0.00477173  0.61119554  0.40248895  1
  Ti  Ti183  1  0.70191048  0.10463724  0.10196494  1
  Ti  Ti184  1  0.50245870  0.49857196  0.89286132  1
  Ti  Ti185  1  0.59095663  0.79509022  0.60926428  1
  Ti  Ti186  1  0.20219086  0.00885824  0.21915561  1
  Ti  Ti187  1  0.49542849  0.70444633  0.49081892  1
  Ti  Ti188  1  0.79585188  0.59819562  0.00494829  1
  Ti  Ti189  1  0.09721818  0.50661525  0.50053369  1
  Ti  Ti190  1  0.09136228  0.90104458  0.90165790  1
  Ti  Ti191  1  0.70061967  0.50058604  0.89605213  1
  Ti  Ti192  1  0.20292207  0.60784845  0.39490608  1
  Ti  Ti193  1  0.09514720  0.29591362  0.31195564  1
  Ti  Ti194  1  0.40820020  0.00443833  0.19504415  1
  Ti  Ti195  1  0.59988670  -0.01018397  0.00830760  1
  Ti  Ti196  1  0.30656719  0.51525549  0.49167563  1
  Ti  Ti197  1  0.59398305  0.61423539  0.79940017  1
  Ti  Ti198  1  0.88895565  0.89257156  0.10893636  1
  Ti  Ti199  1  0.70790120  0.70051138  0.88781780  1
  Mo  Mo200  1  0.20821797  0.79420532  0.39706561  1
  Mo  Mo201  1  0.59623168  0.40577066  -0.01090875  1
  Mo  Mo202  1  0.00856241  0.80446781  0.01045165  1
  Mo  Mo203  1  0.60688745  0.80131874  0.19431871  1
  Mo  Mo204  1  0.88769216  0.50688000  0.09572741  1
  Mo  Mo205  1  0.40204665  0.59809889  0.79629190  1
  Mo  Mo206  1  0.90206504  0.70730519  0.49587662  1
  Mo  Mo207  1  0.20184827  0.78938629  0.20361536  1
  Mo  Mo208  1  0.69765154  0.69754331  0.10099662  1
  Mo  Mo209  1  0.69830625  0.70501949  0.29530734  1
  Mo  Mo210  1  0.51283388  0.10473166  0.09439414  1
  Mo  Mo211  1  0.50812426  0.70186053  0.89795020  1
  Mo  Mo212  1  -0.00610105  0.40720277  0.79689073  1
  Mo  Mo213  1  0.00410947  0.60326805  -0.00291774  1
  Mo  Mo214  1  0.89467263  0.29721927  0.08974970  1
  Mo  Mo215  1  0.60443142  0.80030177  -0.00337064  1
  Mo  Mo216  1  0.09986480  0.69862483  0.29669100  1
  Mo  Mo217  1  0.29929439  0.50951195  0.70315128  1
  Mo  Mo218  1  0.79718656  0.79997560  0.81167725  1
  Mo  Mo219  1  0.09628435  0.08731306  0.70333328  1
  Mo  Mo220  1  0.39642155  0.60404142  0.39485839  1
  Mo  Mo221  1  0.69710758  0.70018799  0.70494629  1
  Mo  Mo222  1  0.09526730  0.89713450  0.69537059  1
  Mo  Mo223  1  0.10355624  0.09191397  0.30538997  1
  Mo  Mo224  1  0.00788738  0.19412200  0.40350035  1
  Mo  Mo225  1  0.50225695  0.69434183  0.70162537  1
  Mo  Mo226  1  0.70258315  0.09947581  0.28963263  1
  Mo  Mo227  1  0.19643705  0.41051214  0.80458137  1
  Mo  Mo228  1  0.89968650  0.49173709  0.69957152  1
  Mo  Mo229  1  0.69765815  0.88985003  0.10142954  1
  Mo  Mo230  1  0.20405305  0.79254674  0.59389395  1
  Mo  Mo231  1  0.69861323  0.30061788  0.50766589  1
  Mo  Mo232  1  -0.00119304  -0.00326429  0.80026456  1
  Mo  Mo233  1  0.90026700  0.10082982  0.90367100  1
  Mo  Mo234  1  0.30694713  0.08890014  0.29808621  1
  Mo  Mo235  1  0.50859319  0.89272460  0.70258940  1
  Mo  Mo236  1  0.50628280  0.89358116  0.09902562  1
  Mo  Mo237  1  0.79501589  0.60599645  0.79850216  1
  Mo  Mo238  1  0.80603063  0.80158923  0.59056814  1
  Mo  Mo239  1  0.59802686  0.19279347  0.40524412  1
  Mo  Mo240  1  0.40487890  0.79948187  0.39774673  1
  Mo  Mo241  1  0.10486581  0.89724204  0.10749006  1
  Mo  Mo242  1  0.29374800  0.31312965  0.70753064  1
  Mo  Mo243  1  0.79621677  0.00009637  0.20599056  1
  Mo  Mo244  1  0.90203623  0.28723168  0.31789206  1
  Mo  Mo245  1  0.20285840  -0.00551120  0.40176097  1
  Mo  Mo246  1  0.70194891  0.08968820  0.50987357  1
  Mo  Mo247  1  0.90000833  0.90243999  0.69730221  1
  Mo  Mo248  1  0.60114342  0.40936251  0.39895625  1
  Mo  Mo249  1  -0.00303819  0.80386523  0.59657125  1
