# generated using pymatgen
data_HfZrTaTiMo
_symmetry_space_group_name_H-M   'P 1'
_cell_length_a   16.87689485
_cell_length_b   16.88364902
_cell_length_c   16.88725494
_cell_angle_alpha   90.02666708
_cell_angle_beta   90.01145453
_cell_angle_gamma   89.99095389
_symmetry_Int_Tables_number   1
_chemical_formula_structural   HfZrTaTiMo
_chemical_formula_sum   'Hf50 Zr50 Ta50 Ti50 Mo50'
_cell_volume   4811.91402016
_cell_formula_units_Z   50
loop_
 _symmetry_equiv_pos_site_id
 _symmetry_equiv_pos_as_xyz
  1  'x, y, z'
loop_
 _atom_site_type_symbol
 _atom_site_label
 _atom_site_symmetry_multiplicity
 _atom_site_fract_x
 _atom_site_fract_y
 _atom_site_fract_z
 _atom_site_occupancy
  Hf  Hf0  1  0.90584214  0.30182053  0.49026861  1
  Hf  Hf1  1  0.09816239  0.49436442  0.50529485  1
  Hf  Hf2  1  0.89131434  0.90095616  0.29218542  1
  Hf  Hf3  1  0.58974770  0.80300224  0.20790020  1
  Hf  Hf4  1  0.89927105  0.91180582  0.49020445  1
  Hf  Hf5  1  0.69293581  0.89635281  0.69381095  1
  Hf  Hf6  1  -0.00806694  0.80814528  0.60244147  1
  Hf  Hf7  1  -0.00471477  0.39190642  0.61210012  1
  Hf  Hf8  1  0.40589747  0.60563672  0.40012479  1
  Hf  Hf9  1  -0.00554786  0.59463085  0.00291942  1
  Hf  Hf10  1  0.20048866  0.19976981  0.39219744  1
  Hf  Hf11  1  0.49483955  0.10132946  0.49763113  1
  Hf  Hf12  1  0.79919092  0.40261321  0.39386927  1
  Hf  Hf13  1  0.20393401  0.00717787  0.62585391  1
  Hf  Hf14  1  0.59351103  0.61057770  0.39712794  1
  Hf  Hf15  1  0.59232945  0.20367416  0.38951667  1
  Hf  Hf16  1  0.90744597  0.09969537  0.28752799  1
  Hf  Hf17  1  0.69150953  0.50232835  0.10694126  1
  Hf  Hf18  1  -0.00410141  0.60154471  0.40146284  1
  Hf  Hf19  1  0.80120803  -0.00484724  0.80078473  1
  Hf  Hf20  1  0.50726003  0.49436649  0.70257614  1
  Hf  Hf21  1  0.10118031  0.69635070  0.28671225  1
  Hf  Hf22  1  0.89943599  0.30216573  0.09587304  1
  Hf  Hf23  1  0.20372661  0.20490208  0.60613096  1
  Hf  Hf24  1  0.30482646  0.09726299  0.49256779  1
  Hf  Hf25  1  0.20540032  0.59757785  0.00339512  1
  Hf  Hf26  1  0.00534427  0.59253834  0.80411219  1
  Hf  Hf27  1  0.80213429  0.80099773  0.80008906  1
  Hf  Hf28  1  0.20398641  0.39426107  0.19862242  1
  Hf  Hf29  1  0.40577327  0.20232188  0.19803422  1
  Hf  Hf30  1  0.59677467  -0.00754504  0.38701498  1
  Hf  Hf31  1  0.09892288  0.89097223  0.28003024  1
  Hf  Hf32  1  0.10418338  0.10083231  0.90561716  1
  Hf  Hf33  1  0.59777025  0.80104618  0.81083256  1
  Hf  Hf34  1  0.50102026  0.70216160  0.70505746  1
  Hf  Hf35  1  0.01153052  0.00354049  0.38571451  1
  Hf  Hf36  1  0.20122801  0.59646578  0.80155501  1
  Hf  Hf37  1  0.49585200  0.30493713  0.49331828  1
  Hf  Hf38  1  0.79819722  0.21253250  0.59887048  1
  Hf  Hf39  1  0.10486289  0.69977490  0.51388464  1
  Hf  Hf40  1  0.40100547  -0.00018370  0.62120534  1
  Hf  Hf41  1  0.90448729  0.69292156  0.69103476  1
  Hf  Hf42  1  0.80054842  0.79012069  0.00964217  1
  Hf  Hf43  1  0.79857714  -0.00849710  0.59584611  1
  Hf  Hf44  1  0.79080837  0.59760560  -0.00376547  1
  Hf  Hf45  1  0.10039884  0.30576833  0.49787137  1
  Hf  Hf46  1  0.89959351  0.10214779  0.90599427  1
  Hf  Hf47  1  0.70516172  0.09893035  0.29417608  1
  Hf  Hf48  1  0.29521324  0.71160929  0.49996779  1
  Hf  Hf49  1  0.40201353  0.81060548  0.60959200  1
  Zr  Zr50  1  0.30546273  0.71458466  0.90894519  1
  Zr  Zr51  1  0.59397264  0.21377970  0.79722981  1
  Zr  Zr52  1  0.41451801  0.38562369  0.80125675  1
  Zr  Zr53  1  0.69985941  0.90475455  0.91319937  1
  Zr  Zr54  1  0.60726103  0.39209910  0.60758245  1
  Zr  Zr55  1  0.00834755  0.19871200  0.38991839  1
  Zr  Zr56  1  0.09864964  0.49692454  0.10556426  1
  Zr  Zr57  1  0.40073205  0.38922863  0.01028441  1
  Zr  Zr58  1  0.09703280  0.09498227  0.51167060  1
  Zr  Zr59  1  0.10760025  0.90175833  0.50581607  1
  Zr  Zr60  1  0.58865703  -0.00102421  0.80536535  1
  Zr  Zr61  1  0.80297031  0.20621359  0.79502496  1
  Zr  Zr62  1  0.79705207  0.59106512  0.80799787  1
  Zr  Zr63  1  0.61222704  0.59661032  0.81591170  1
  Zr  Zr64  1  0.70062270  0.69747631  0.69490331  1
  Zr  Zr65  1  0.39475044  0.21049052  0.60982122  1
  Zr  Zr66  1  0.30383632  0.49766520  0.29532054  1
  Zr  Zr67  1  0.90316605  0.50105505  0.69856320  1
  Zr  Zr68  1  0.90561607  0.70315393  0.90030022  1
  Zr  Zr69  1  0.19998347  0.59722845  0.39662567  1
  Zr  Zr70  1  0.69306280  0.09914107  0.69767521  1
  Zr  Zr71  1  0.29748443  0.48529856  0.90290471  1
  Zr  Zr72  1  0.40775863  0.60827510  0.20281631  1
  Zr  Zr73  1  0.09602133  0.10367689  0.10661066  1
  Zr  Zr74  1  0.70191006  0.29236623  0.09839029  1
  Zr  Zr75  1  0.70290618  0.09548903  0.49215322  1
  Zr  Zr76  1  0.00859929  -0.00162005  0.79359671  1
  Zr  Zr77  1  0.19198217  0.19941763  0.80253253  1
  Zr  Zr78  1  0.90633112  0.09554171  0.69204460  1
  Zr  Zr79  1  0.29082098  0.70881699  0.69610834  1
  Zr  Zr80  1  0.10476891  0.70778868  0.90200349  1
  Zr  Zr81  1  0.90179505  0.50205929  0.49660436  1
  Zr  Zr82  1  0.10445854  0.70611676  0.10316433  1
  Zr  Zr83  1  0.70588114  0.29494641  0.90932794  1
  Zr  Zr84  1  0.88547261  0.69568443  0.30149968  1
  Zr  Zr85  1  0.48623442  0.90903174  0.48699390  1
  Zr  Zr86  1  0.59966727  0.59939504  0.59027048  1
  Zr  Zr87  1  0.29668834  0.90482467  0.49727669  1
  Zr  Zr88  1  0.59886236  0.39975410  -0.00276674  1
  Zr  Zr89  1  0.39618500  0.60069113  0.80232559  1
  Zr  Zr90  1  0.20472665  -0.00509673  0.19134167  1
  Zr  Zr91  1  0.59833997  0.80223639  0.58065117  1
  Zr  Zr92  1  0.10341943  0.89877869  0.90929970  1
  Zr  Zr93  1  0.49997651  0.50766938  0.91268850  1
  Zr  Zr94  1  -0.00105925  0.79482088  0.40045185  1
  Zr  Zr95  1  0.31410360  0.90068819  0.29893323  1
  Zr  Zr96  1  0.30265097  0.48435756  0.49963082  1
  Zr  Zr97  1  0.69816182  0.30262181  0.29313105  1
  Zr  Zr98  1  0.69948704  0.90068811  0.10561614  1
  Zr  Zr99  1  0.40212938  0.59763297  0.59531423  1
  Ta  Ta100  1  0.50355596  0.50629570  0.10715156  1
  Ta  Ta101  1  -0.01901471  0.79043032  0.18889668  1
  Ta  Ta102  1  0.79601510  0.40078702  0.79692887  1
  Ta  Ta103  1  0.90365808  0.90207933  0.90827692  1
  Ta  Ta104  1  0.30402713  0.10002276  0.29136396  1
  Ta  Ta105  1  0.40763932  0.39156685  0.19693778  1
  Ta  Ta106  1  0.69567392  0.10414166  0.91346602  1
  Ta  Ta107  1  0.29840676  0.70968975  0.29198623  1
  Ta  Ta108  1  0.58740718  0.00607493  0.01094220  1
  Ta  Ta109  1  0.90361369  0.30310861  0.29138332  1
  Ta  Ta110  1  0.79801117  0.00480686  0.19233683  1
  Ta  Ta111  1  0.00236738  0.20601572  -0.00423613  1
  Ta  Ta112  1  0.20365393  0.81710740  0.79731737  1
  Ta  Ta113  1  0.59743122  0.20475351  0.60167899  1
  Ta  Ta114  1  0.09754084  0.29674566  0.09756386  1
  Ta  Ta115  1  -0.00013622  0.80777437  0.79333989  1
  Ta  Ta116  1  0.00235652  0.20313384  0.61143892  1
  Ta  Ta117  1  0.59917644  0.79993555  0.39470880  1
  Ta  Ta118  1  0.10151705  0.70226042  0.69766691  1
  Ta  Ta119  1  0.69746058  0.49672834  0.49105275  1
  Ta  Ta120  1  0.00094543  -0.00121489  0.00712470  1
  Ta  Ta121  1  0.20912836  -0.00152137  0.00195854  1
  Ta  Ta122  1  0.39831427  0.00064842  0.00672783  1
  Ta  Ta123  1  0.30196976  0.10583616  0.09639393  1
  Ta  Ta124  1  0.19902422  0.80307595  0.39025644  1
  Ta  Ta125  1  0.69777968  0.50816304  0.29674511  1
  Ta  Ta126  1  0.80219188  0.79868976  0.58848899  1
  Ta  Ta127  1  0.49791642  0.70505378  0.91395949  1
  Ta  Ta128  1  0.29500653  0.28775149  0.90628421  1
  Ta  Ta129  1  0.50990784  0.49440372  0.29823447  1
  Ta  Ta130  1  0.59199495  0.00181848  0.19856612  1
  Ta  Ta131  1  0.10231469  0.48560516  0.89863158  1
  Ta  Ta132  1  0.80582625  0.19704542  0.19370158  1
  Ta  Ta133  1  0.70105928  0.69948651  0.29478781  1
  Ta  Ta134  1  0.40062633  0.81413968  0.80463452  1
  Ta  Ta135  1  0.79464121  0.39908704  0.60490028  1
  Ta  Ta136  1  0.89941683  0.50076449  0.29301596  1
  Ta  Ta137  1  0.89869988  0.49978234  0.10557411  1
  Ta  Ta138  1  0.90202117  0.09960168  0.49587176  1
  Ta  Ta139  1  0.89662128  0.90246046  0.10047555  1
  Ta  Ta140  1  0.50291005  0.48713435  0.49013368  1
  Ta  Ta141  1  0.19829626  0.39170502  0.39114474  1
  Ta  Ta142  1  0.79621127  0.59579082  0.59016238  1
  Ta  Ta143  1  0.49099753  0.10469011  0.90751935  1
  Ta  Ta144  1  -0.00362900  0.39188205  0.80710900  1
  Ta  Ta145  1  0.49201724  0.90001637  0.91445534  1
  Ta  Ta146  1  0.19838568  0.00518022  0.38382713  1
  Ta  Ta147  1  0.49405730  0.10617245  0.70925208  1
  Ta  Ta148  1  0.10595234  0.49447105  0.70071430  1
  Ta  Ta149  1  0.30574671  0.49576074  0.10100878  1
  Ti  Ti150  1  0.59065747  0.39278012  0.20157593  1
  Ti  Ti151  1  0.19496381  0.38950656  -0.00045919  1
  Ti  Ti152  1  0.39512658  0.60617165  0.01166320  1
  Ti  Ti153  1  0.90588638  0.10224673  0.09969563  1
  Ti  Ti154  1  0.41383763  0.00387004  0.19524139  1
  Ti  Ti155  1  0.59145441  -0.00220811  0.59929389  1
  Ti  Ti156  1  0.00069579  0.20888955  0.79925026  1
  Ti  Ti157  1  0.39764719  0.39230084  0.60328517  1
  Ti  Ti158  1  0.50788098  0.28629628  0.09323286  1
  Ti  Ti159  1  0.30228313  0.29708706  0.29716722  1
  Ti  Ti160  1  0.80323940  0.41227580  -0.00757895  1
  Ti  Ti161  1  -0.00168790  0.40185251  0.19961396  1
  Ti  Ti162  1  0.80162192  0.00612877  0.00687140  1
  Ti  Ti163  1  0.69702619  0.30258219  0.49146716  1
  Ti  Ti164  1  0.49509796  0.28576571  0.90963005  1
  Ti  Ti165  1  0.79955034  0.40271040  0.19864865  1
  Ti  Ti166  1  0.31266338  0.89585669  0.09949552  1
  Ti  Ti167  1  0.50436642  0.69750680  0.09628612  1
  Ti  Ti168  1  0.80141922  0.60360251  0.19284105  1
  Ti  Ti169  1  0.29758508  0.48751611  0.70464173  1
  Ti  Ti170  1  0.19728208  0.20032553  0.20316384  1
  Ti  Ti171  1  0.40676268  0.79813994  0.19205233  1
  Ti  Ti172  1  0.10227057  0.90103314  0.69841985  1
  Ti  Ti173  1  0.40041579  0.20270659  0.38869431  1
  Ti  Ti174  1  0.30524772  0.10410251  0.72373528  1
  Ti  Ti175  1  0.59059279  0.18940839  0.19909077  1
  Ti  Ti176  1  0.69131387  0.69641819  0.10792357  1
  Ti  Ti177  1  0.20994545  0.60041241  0.19382889  1
  Ti  Ti178  1  0.69676813  0.10597793  0.09552141  1
  Ti  Ti179  1  0.21391059  0.80837324  0.01134941  1
  Ti  Ti180  1  0.79250669  0.80362929  0.40537952  1
  Ti  Ti181  1  0.80354619  0.20105554  0.39374644  1
  Ti  Ti182  1  0.10366913  0.30719466  0.70886259  1
  Ti  Ti183  1  0.30245668  0.10385345  0.90748428  1
  Ti  Ti184  1  0.29957058  0.30276005  0.71806760  1
  Ti  Ti185  1  0.09266713  0.49900232  0.29667564  1
  Ti  Ti186  1  0.41238341  0.79151010  0.39125293  1
  Ti  Ti187  1  0.20292692  0.59059013  0.60593645  1
  Ti  Ti188  1  0.20956134  0.38934956  0.60208156  1
  Ti  Ti189  1  0.09548535  0.89509899  0.10092584  1
  Ti  Ti190  1  0.29277364  0.28903106  0.09353051  1
  Ti  Ti191  1  0.39378545  -0.00413869  0.81079527  1
  Ti  Ti192  1  0.70918322  0.89911824  0.29878206  1
  Ti  Ti193  1  -0.00738425  0.80026510  0.00668750  1
  Ti  Ti194  1  -0.00200454  0.39945679  -0.00629422  1
  Ti  Ti195  1  0.40118099  0.39202199  0.38683815  1
  Ti  Ti196  1  0.89721472  0.29910242  0.90452867  1
  Ti  Ti197  1  0.59605468  0.79995956  0.00704870  1
  Ti  Ti198  1  0.71132699  0.69497542  0.48766491  1
  Ti  Ti199  1  0.09127683  0.30112172  0.28990270  1
  Mo  Mo200  1  0.20069779  0.19924289  0.00364530  1
  Mo  Mo201  1  0.30038661  0.30230079  0.48501805  1
  Mo  Mo202  1  0.40592421  0.80417929  0.00844476  1
  Mo  Mo203  1  0.49866749  0.90684025  0.71288610  1
  Mo  Mo204  1  0.50018802  0.70564956  0.29835989  1
  Mo  Mo205  1  0.21379131  0.79955797  0.19286262  1
  Mo  Mo206  1  0.49471492  0.70804291  0.49548409  1
  Mo  Mo207  1  0.00416975  0.40291656  0.38229917  1
  Mo  Mo208  1  0.00790439  0.59944836  0.60472386  1
  Mo  Mo209  1  0.60047759  0.60477547  0.20258700  1
  Mo  Mo210  1  -0.00877570  0.59611862  0.19988139  1
  Mo  Mo211  1  0.09517764  0.30138184  0.90595985  1
  Mo  Mo212  1  0.49733681  0.09847571  0.10048058  1
  Mo  Mo213  1  0.70109871  0.49105822  0.90280440  1
  Mo  Mo214  1  0.90020055  0.30070283  0.70470709  1
  Mo  Mo215  1  0.88950070  0.69963362  0.50064367  1
  Mo  Mo216  1  0.30307385  0.70300124  0.10398277  1
  Mo  Mo217  1  0.79864444  0.00327164  0.39330930  1
  Mo  Mo218  1  0.49627681  0.90071384  0.09996546  1
  Mo  Mo219  1  0.39620152  0.19572406  0.00321319  1
  Mo  Mo220  1  0.68944228  0.70389830  0.91688032  1
  Mo  Mo221  1  0.89525329  0.69499516  0.10262985  1
  Mo  Mo222  1  0.49745452  0.09951625  0.29513896  1
  Mo  Mo223  1  -0.00123911  0.21028778  0.19251164  1
  Mo  Mo224  1  0.89899572  0.89583859  0.69851278  1
  Mo  Mo225  1  0.39671473  0.19651660  0.80786729  1
  Mo  Mo226  1  0.10721638  0.10088260  0.28698976  1
  Mo  Mo227  1  0.80811922  0.18852654  0.00535313  1
  Mo  Mo228  1  0.19620815  0.39481314  0.80009507  1
  Mo  Mo229  1  0.30155168  0.90837105  0.90786694  1
  Mo  Mo230  1  -0.00461027  -0.01118056  0.18908701  1
  Mo  Mo231  1  -0.00021981  0.00350617  0.60079274  1
  Mo  Mo232  1  0.60192696  0.40390857  0.39544784  1
  Mo  Mo233  1  0.39966153  0.01418131  0.38167358  1
  Mo  Mo234  1  0.49858630  0.30261055  0.29380552  1
  Mo  Mo235  1  0.20787963  0.00150228  0.80909707  1
  Mo  Mo236  1  0.70401555  0.49493404  0.69870678  1
  Mo  Mo237  1  0.09750822  0.10728016  0.70557441  1
  Mo  Mo238  1  0.90358776  0.48721753  0.90448249  1
  Mo  Mo239  1  0.70170914  0.89711895  0.49037479  1
  Mo  Mo240  1  0.61087184  0.40108159  0.80191704  1
  Mo  Mo241  1  0.29907056  0.90760129  0.71495652  1
  Mo  Mo242  1  0.19763562  0.80929456  0.60983566  1
  Mo  Mo243  1  0.49657582  0.90033633  0.29367927  1
  Mo  Mo244  1  0.70058717  0.30353451  0.70198644  1
  Mo  Mo245  1  0.79217087  0.59626227  0.39706975  1
  Mo  Mo246  1  0.49893191  0.29786701  0.69698362  1
  Mo  Mo247  1  0.59938174  0.60855410  0.00886347  1
  Mo  Mo248  1  0.59403254  0.19191617  0.00205745  1
  Mo  Mo249  1  0.79104453  0.79980825  0.19947462  1
