# generated using pymatgen
data_HfZrTaTiMo
_symmetry_space_group_name_H-M   'P 1'
_cell_length_a   16.89202315
_cell_length_b   16.88970108
_cell_length_c   16.89979918
_cell_angle_alpha   90.02291752
_cell_angle_beta   89.99670867
_cell_angle_gamma   90.03338241
_symmetry_Int_Tables_number   1
_chemical_formula_structural   HfZrTaTiMo
_chemical_formula_sum   'Hf50 Zr50 Ta50 Ti50 Mo50'
_cell_volume   4821.53214140
_cell_formula_units_Z   50
loop_
 _symmetry_equiv_pos_site_id
 _symmetry_equiv_pos_as_xyz
  1  'x, y, z'
loop_
 _atom_site_type_symbol
 _atom_site_label
 _atom_site_symmetry_multiplicity
 _atom_site_fract_x
 _atom_site_fract_y
 _atom_site_fract_z
 _atom_site_occupancy
  Hf  Hf0  1  0.89330999  0.49935978  0.30027552  1
  Hf  Hf1  1  0.59991574  0.80692030  -0.00276581  1
  Hf  Hf2  1  0.09881368  0.49299168  0.51131253  1
  Hf  Hf3  1  0.29970105  0.51014429  0.09263098  1
  Hf  Hf4  1  0.50476480  0.70419718  0.29782305  1
  Hf  Hf5  1  0.47691419  0.89877200  0.89169101  1
  Hf  Hf6  1  0.49882072  0.09910996  0.69224603  1
  Hf  Hf7  1  0.19716758  0.80650254  -0.01350238  1
  Hf  Hf8  1  0.90279895  0.29982354  0.10154306  1
  Hf  Hf9  1  0.89510169  0.90788249  0.09449835  1
  Hf  Hf10  1  0.18638049  0.18267146  0.00245215  1
  Hf  Hf11  1  0.49954585  0.70978784  0.69930311  1
  Hf  Hf12  1  0.01364540  0.20509796  0.40591088  1
  Hf  Hf13  1  0.50762870  0.09666277  0.30294492  1
  Hf  Hf14  1  0.10742739  0.50693118  0.89747842  1
  Hf  Hf15  1  0.60413649  0.59759574  0.41092348  1
  Hf  Hf16  1  0.60116417  0.19969708  0.79908085  1
  Hf  Hf17  1  0.00102111  0.39951109  0.00098490  1
  Hf  Hf18  1  0.20436815  0.60179830  0.20510282  1
  Hf  Hf19  1  0.50442403  0.50867326  0.10914122  1
  Hf  Hf20  1  0.80120314  -0.00202201  0.41425353  1
  Hf  Hf21  1  -0.00404631  0.59325332  0.40123517  1
  Hf  Hf22  1  0.60697349  0.40417525  0.59953345  1
  Hf  Hf23  1  0.90268388  0.09571297  0.09862655  1
  Hf  Hf24  1  0.40016867  0.20818534  0.79346835  1
  Hf  Hf25  1  0.09613507  0.90004966  0.10070744  1
  Hf  Hf26  1  0.59902992  -0.00321641  -0.00398125  1
  Hf  Hf27  1  0.10733298  0.09577513  0.30470506  1
  Hf  Hf28  1  0.79268760  0.80573692  0.19711639  1
  Hf  Hf29  1  0.68187453  0.90135768  0.31847759  1
  Hf  Hf30  1  0.60328432  0.00115643  0.80179548  1
  Hf  Hf31  1  0.39353884  0.59590467  0.39438093  1
  Hf  Hf32  1  0.19900588  0.80447392  0.60124817  1
  Hf  Hf33  1  0.79195464  0.80141960  0.42132038  1
  Hf  Hf34  1  0.49319244  0.89992330  0.70164253  1
  Hf  Hf35  1  0.69564457  0.70112446  0.30434685  1
  Hf  Hf36  1  0.79605351  0.20220726  0.20448090  1
  Hf  Hf37  1  0.30122468  0.49889929  0.70243442  1
  Hf  Hf38  1  0.30571634  0.09049327  0.89941328  1
  Hf  Hf39  1  0.40339539  0.60122222  0.80103397  1
  Hf  Hf40  1  -0.00219046  0.39882084  0.78969569  1
  Hf  Hf41  1  0.59878181  0.39596945  0.40328452  1
  Hf  Hf42  1  0.70361957  0.69903290  0.89516953  1
  Hf  Hf43  1  0.10383551  0.69789589  0.09393196  1
  Hf  Hf44  1  0.00357936  0.00318282  0.80092603  1
  Hf  Hf45  1  0.61259578  -0.00332582  0.60306564  1
  Hf  Hf46  1  0.38459051  0.80962087  0.20099582  1
  Hf  Hf47  1  0.30816548  0.90535943  0.71046062  1
  Hf  Hf48  1  0.70322115  0.08986058  0.09929633  1
  Hf  Hf49  1  0.40258533  0.39828602  -0.00214481  1
  Zr  Zr50  1  0.30202959  0.28865797  0.49397048  1
  Zr  Zr51  1  0.19808098  0.39243937  0.39508294  1
  Zr  Zr52  1  0.51021016  0.90337135  0.49096265  1
  Zr  Zr53  1  0.29936103  0.09944521  0.70077946  1
  Zr  Zr54  1  0.88725983  0.68748956  0.50617795  1
  Zr  Zr55  1  0.70470011  0.49849435  0.89673084  1
  Zr  Zr56  1  0.39249864  0.39973914  0.20405743  1
  Zr  Zr57  1  0.60193764  0.59901727  0.79427738  1
  Zr  Zr58  1  0.20912670  -0.00690953  0.19730238  1
  Zr  Zr59  1  0.69449114  0.50197564  0.29102527  1
  Zr  Zr60  1  0.89819677  0.50344337  0.89699496  1
  Zr  Zr61  1  0.89915886  0.30144076  0.89933958  1
  Zr  Zr62  1  0.10063533  0.68723898  0.50968107  1
  Zr  Zr63  1  0.00543842  0.19817141  0.60308042  1
  Zr  Zr64  1  0.19008102  0.80304130  0.79808001  1
  Zr  Zr65  1  0.90670475  0.70039091  0.70036523  1
  Zr  Zr66  1  0.90603230  0.31934560  0.52180290  1
  Zr  Zr67  1  0.00777729  0.19843270  0.20296848  1
  Zr  Zr68  1  0.69158007  0.69174580  0.10080513  1
  Zr  Zr69  1  0.49210335  0.70285683  0.09996003  1
  Zr  Zr70  1  0.38666007  -0.00116854  0.40251464  1
  Zr  Zr71  1  -0.00129320  0.80134524  -0.01386772  1
  Zr  Zr72  1  0.09613545  0.70626869  0.30481547  1
  Zr  Zr73  1  0.39143400  0.00008039  0.20096611  1
  Zr  Zr74  1  0.20953591  0.38877352  0.79862554  1
  Zr  Zr75  1  0.20293166  0.19341383  0.19212189  1
  Zr  Zr76  1  0.90407443  0.89479441  0.30593267  1
  Zr  Zr77  1  0.00600476  -0.00587773  0.41314103  1
  Zr  Zr78  1  0.00142120  0.81030395  0.58437387  1
  Zr  Zr79  1  0.20142103  0.39047711  0.00524427  1
  Zr  Zr80  1  0.49538808  0.49753629  0.50684025  1
  Zr  Zr81  1  0.69510765  0.09718522  0.30317048  1
  Zr  Zr82  1  0.60000761  0.39848610  0.00606424  1
  Zr  Zr83  1  0.10123729  0.50567573  0.09695804  1
  Zr  Zr84  1  0.89853271  0.69847786  0.09697948  1
  Zr  Zr85  1  0.61698563  0.80164049  0.59436206  1
  Zr  Zr86  1  0.00598398  0.39363470  0.39803405  1
  Zr  Zr87  1  0.19884972  0.81045711  0.40972710  1
  Zr  Zr88  1  0.79491800  0.39992787  0.40549481  1
  Zr  Zr89  1  0.39925115  0.60270230  0.59713953  1
  Zr  Zr90  1  0.39998289  0.40012478  0.39572499  1
  Zr  Zr91  1  0.30113405  0.28796146  0.90299106  1
  Zr  Zr92  1  0.70541874  0.30596822  0.89196219  1
  Zr  Zr93  1  0.89471141  0.90301863  0.69428252  1
  Zr  Zr94  1  0.79327568  0.20419351  0.00374729  1
  Zr  Zr95  1  0.50319834  0.89743748  0.30185403  1
  Zr  Zr96  1  0.69528755  0.10862773  0.50444683  1
  Zr  Zr97  1  0.59751925  0.20269070  0.00067458  1
  Zr  Zr98  1  0.80791032  0.20841881  0.40164633  1
  Zr  Zr99  1  0.10804643  0.51465586  0.70327285  1
  Ta  Ta100  1  0.80785280  0.19957560  0.79276987  1
  Ta  Ta101  1  0.19257175  -0.00273313  0.80777178  1
  Ta  Ta102  1  0.71317715  0.70114310  0.69325419  1
  Ta  Ta103  1  0.29993957  0.50775724  0.89961015  1
  Ta  Ta104  1  0.59806756  0.20371116  0.19467586  1
  Ta  Ta105  1  0.10439566  0.29212153  0.70266818  1
  Ta  Ta106  1  0.50148866  0.10838517  0.50250685  1
  Ta  Ta107  1  0.40184776  0.19619431  0.20081830  1
  Ta  Ta108  1  0.90261164  0.09637643  0.30260613  1
  Ta  Ta109  1  0.89607836  0.90622776  0.89727406  1
  Ta  Ta110  1  0.10177145  0.49934518  0.29587507  1
  Ta  Ta111  1  0.79755781  0.80377986  -0.00490333  1
  Ta  Ta112  1  0.30312679  0.70347566  0.89815123  1
  Ta  Ta113  1  -0.00375972  0.60076854  0.20292418  1
  Ta  Ta114  1  0.79941600  0.00463760  0.79659723  1
  Ta  Ta115  1  0.19970017  0.19527821  0.59508393  1
  Ta  Ta116  1  0.29666274  0.70355467  0.30264249  1
  Ta  Ta117  1  0.00613082  0.40055828  0.20163546  1
  Ta  Ta118  1  0.59236731  0.59964038  -0.00731375  1
  Ta  Ta119  1  0.59952365  0.39996509  0.79271930  1
  Ta  Ta120  1  0.70932806  0.90453020  0.89877734  1
  Ta  Ta121  1  0.89744182  0.50196035  0.10521842  1
  Ta  Ta122  1  -0.00166112  0.79826011  0.20184308  1
  Ta  Ta123  1  0.50160061  0.70501149  0.49802707  1
  Ta  Ta124  1  0.80014591  0.80274181  0.79929650  1
  Ta  Ta125  1  0.20571190  0.59054712  0.39904797  1
  Ta  Ta126  1  0.89527694  0.70067706  0.30585689  1
  Ta  Ta127  1  0.39078435  0.79959595  0.40546098  1
  Ta  Ta128  1  0.20194487  0.38788082  0.60263728  1
  Ta  Ta129  1  0.79540370  0.40430515  0.01472827  1
  Ta  Ta130  1  0.49569514  0.71119253  0.89617586  1
  Ta  Ta131  1  0.29936348  0.70237555  0.09104874  1
  Ta  Ta132  1  0.00807046  0.00700666  -0.00645127  1
  Ta  Ta133  1  0.49823067  0.49274409  0.70082848  1
  Ta  Ta134  1  0.80501239  0.20428107  0.60662287  1
  Ta  Ta135  1  -0.00111209  0.19463694  0.79808603  1
  Ta  Ta136  1  0.19777810  0.00140611  0.59306017  1
  Ta  Ta137  1  0.09760544  0.68517402  0.88598170  1
  Ta  Ta138  1  0.29200311  0.69688284  0.70095450  1
  Ta  Ta139  1  0.29708020  0.28837515  0.29802070  1
  Ta  Ta140  1  0.39124733  0.80202851  0.59223086  1
  Ta  Ta141  1  0.80333358  0.59379501  0.78656023  1
  Ta  Ta142  1  0.09611519  0.28647324  0.89602593  1
  Ta  Ta143  1  0.70712389  0.30341047  0.69819990  1
  Ta  Ta144  1  0.90000022  0.10128884  0.90187181  1
  Ta  Ta145  1  0.80070552  0.60159104  0.20101295  1
  Ta  Ta146  1  0.70540514  0.10567030  0.69791953  1
  Ta  Ta147  1  0.00743680  0.00629631  0.59661211  1
  Ta  Ta148  1  0.49682942  0.09976730  0.09837864  1
  Ta  Ta149  1  0.39455314  0.38801171  0.60886203  1
  Ti  Ti150  1  0.29499226  0.10762111  0.31072418  1
  Ti  Ti151  1  0.20416493  -0.00011138  0.41285057  1
  Ti  Ti152  1  0.69028967  0.30461767  0.29087197  1
  Ti  Ti153  1  0.09695440  0.90497382  0.69700732  1
  Ti  Ti154  1  -0.00483216  0.60070140  -0.00331909  1
  Ti  Ti155  1  0.29406746  0.49707830  0.50774689  1
  Ti  Ti156  1  0.31383000  0.09768145  0.08529538  1
  Ti  Ti157  1  0.50637161  0.50184378  0.29139130  1
  Ti  Ti158  1  0.40451400  0.60437539  -0.00811084  1
  Ti  Ti159  1  0.50375715  0.30253628  0.69602518  1
  Ti  Ti160  1  0.39203931  0.00077091  0.58817917  1
  Ti  Ti161  1  -0.00777261  0.58968467  0.60699966  1
  Ti  Ti162  1  0.89041850  0.48449210  0.68472908  1
  Ti  Ti163  1  0.30756947  0.28931725  0.09881249  1
  Ti  Ti164  1  0.79735104  0.59773445  0.00213428  1
  Ti  Ti165  1  0.60875470  0.59994560  0.60235413  1
  Ti  Ti166  1  0.09886497  0.89685890  0.30348401  1
  Ti  Ti167  1  0.61180225  0.80764804  0.79577296  1
  Ti  Ti168  1  0.19871255  0.39475347  0.20166320  1
  Ti  Ti169  1  0.69392470  0.50222004  0.10678055  1
  Ti  Ti170  1  0.90359412  0.30236293  0.29601623  1
  Ti  Ti171  1  0.89727350  0.09877654  0.69666648  1
  Ti  Ti172  1  0.39642879  0.20145885  0.60018522  1
  Ti  Ti173  1  0.89851091  0.69615316  0.89164521  1
  Ti  Ti174  1  0.90013214  0.10057388  0.50694275  1
  Ti  Ti175  1  0.48801738  0.10066695  0.90516683  1
  Ti  Ti176  1  0.29606036  0.69463523  0.50199116  1
  Ti  Ti177  1  0.20363547  0.80531729  0.19990638  1
  Ti  Ti178  1  0.00318890  0.80004837  0.79899363  1
  Ti  Ti179  1  0.60228922  0.81319733  0.18568361  1
  Ti  Ti180  1  0.72237867  0.51168203  0.50930794  1
  Ti  Ti181  1  0.79560633  -0.00622946  0.20778194  1
  Ti  Ti182  1  0.50355640  0.29079129  0.50907231  1
  Ti  Ti183  1  0.48769981  0.90437028  0.09132152  1
  Ti  Ti184  1  0.59815318  0.20797549  0.39938144  1
  Ti  Ti185  1  0.49707773  0.29682661  0.10578927  1
  Ti  Ti186  1  0.79550677  0.39783760  0.19545173  1
  Ti  Ti187  1  0.10815365  0.10210913  0.70411221  1
  Ti  Ti188  1  0.40355062  0.19722879  0.39834757  1
  Ti  Ti189  1  0.49724220  0.49525195  0.89391693  1
  Ti  Ti190  1  0.49718553  0.30371525  0.89585172  1
  Ti  Ti191  1  0.39256977  0.60283425  0.20744183  1
  Ti  Ti192  1  0.09578383  0.29471649  0.09799011  1
  Ti  Ti193  1  0.30695514  0.90220365  0.07345873  1
  Ti  Ti194  1  0.71026644  0.09857267  0.89868459  1
  Ti  Ti195  1  0.69957101  0.29458490  0.51042425  1
  Ti  Ti196  1  0.50012901  0.29767204  0.29393722  1
  Ti  Ti197  1  0.60002599  -0.00782184  0.18879026  1
  Ti  Ti198  1  0.19131701  -0.00258679  -0.00750055  1
  Ti  Ti199  1  0.00333727  -0.00114824  0.20237832  1
  Mo  Mo200  1  0.80635116  0.00868496  0.60368957  1
  Mo  Mo201  1  0.09130086  0.90440740  0.89561361  1
  Mo  Mo202  1  0.39013896  0.79394932  0.79453683  1
  Mo  Mo203  1  0.09517844  0.08756631  0.09905296  1
  Mo  Mo204  1  0.69796733  0.68868682  0.50784815  1
  Mo  Mo205  1  0.70673557  0.90728990  0.50900169  1
  Mo  Mo206  1  0.79930020  0.59987814  0.40045922  1
  Mo  Mo207  1  0.90025575  0.50007453  0.50876404  1
  Mo  Mo208  1  0.10796784  0.30223687  0.28884839  1
  Mo  Mo209  1  0.40691857  0.20002034  0.00599664  1
  Mo  Mo210  1  0.60003404  0.20762285  0.60361049  1
  Mo  Mo211  1  0.20780167  0.60542389  0.80004759  1
  Mo  Mo212  1  0.29343549  0.50177733  0.29464478  1
  Mo  Mo213  1  0.59886459  0.01327426  0.41181376  1
  Mo  Mo214  1  0.69752956  0.30843833  0.11258027  1
  Mo  Mo215  1  0.30398282  0.10111037  0.50141529  1
  Mo  Mo216  1  0.89946530  0.90605175  0.50725993  1
  Mo  Mo217  1  0.00303689  0.19537961  -0.00433447  1
  Mo  Mo218  1  0.80072938  0.59365780  0.60812129  1
  Mo  Mo219  1  0.80288030  0.00099076  -0.01032467  1
  Mo  Mo220  1  0.70113478  0.50008584  0.69811558  1
  Mo  Mo221  1  0.59868202  0.59960430  0.19881653  1
  Mo  Mo222  1  0.01240359  0.39912072  0.60969896  1
  Mo  Mo223  1  0.79304097  0.40032109  0.60184155  1
  Mo  Mo224  1  0.20076756  0.19523483  0.40062463  1
  Mo  Mo225  1  0.40925855  0.40061956  0.80002674  1
  Mo  Mo226  1  0.20651926  0.60001845  0.59740644  1
  Mo  Mo227  1  0.20727257  0.61002380  -0.00739551  1
  Mo  Mo228  1  0.79848159  0.80858589  0.60392247  1
  Mo  Mo229  1  0.29381974  0.90250739  0.89941265  1
  Mo  Mo230  1  -0.00453909  0.79889630  0.39641864  1
  Mo  Mo231  1  0.40297461  0.00069772  0.00091930  1
  Mo  Mo232  1  0.39370190  0.79931345  -0.00274552  1
  Mo  Mo233  1  0.09664933  0.69703941  0.70376095  1
  Mo  Mo234  1  0.10603661  0.29762916  0.51169280  1
  Mo  Mo235  1  -0.00762493  0.59921547  0.79552364  1
  Mo  Mo236  1  0.29908213  0.29485184  0.69496005  1
  Mo  Mo237  1  0.70705424  0.90150377  0.70703543  1
  Mo  Mo238  1  0.90073905  0.29931845  0.70444322  1
  Mo  Mo239  1  0.79956442  0.39944352  0.78690454  1
  Mo  Mo240  1  0.29167443  0.89434506  0.31084297  1
  Mo  Mo241  1  0.30054004  0.90277183  0.50789438  1
  Mo  Mo242  1  0.09854766  0.10071221  0.89631931  1
  Mo  Mo243  1  0.59481963  0.39391440  0.20304984  1
  Mo  Mo244  1  0.10229524  0.90680404  0.50459283  1
  Mo  Mo245  1  0.70227239  0.90335052  0.09382923  1
  Mo  Mo246  1  0.59877644  0.78893008  0.41058705  1
  Mo  Mo247  1  0.19387258  0.19236495  0.79663685  1
  Mo  Mo248  1  0.40091189  0.00718310  0.80184159  1
  Mo  Mo249  1  0.11007905  0.10114559  0.50090490  1
