# generated using pymatgen
data_HfZrTaTiMo
_symmetry_space_group_name_H-M   'P 1'
_cell_length_a   16.87058869
_cell_length_b   16.88496494
_cell_length_c   16.87753297
_cell_angle_alpha   90.07162641
_cell_angle_beta   90.07908932
_cell_angle_gamma   89.92980394
_symmetry_Int_Tables_number   1
_chemical_formula_structural   HfZrTaTiMo
_chemical_formula_sum   'Hf50 Zr50 Ta50 Ti50 Mo50'
_cell_volume   4807.71026914
_cell_formula_units_Z   50
loop_
 _symmetry_equiv_pos_site_id
 _symmetry_equiv_pos_as_xyz
  1  'x, y, z'
loop_
 _atom_site_type_symbol
 _atom_site_label
 _atom_site_symmetry_multiplicity
 _atom_site_fract_x
 _atom_site_fract_y
 _atom_site_fract_z
 _atom_site_occupancy
  Hf  Hf0  1  0.30353941  0.49151420  0.49236319  1
  Hf  Hf1  1  0.79708805  0.00183625  0.39963317  1
  Hf  Hf2  1  -0.01516031  0.39255009  0.78464559  1
  Hf  Hf3  1  0.29750505  0.10312941  0.89197149  1
  Hf  Hf4  1  0.49918317  0.90105524  0.89944464  1
  Hf  Hf5  1  -0.00127470  0.00251337  0.19574722  1
  Hf  Hf6  1  0.79946380  0.80488436  0.39641902  1
  Hf  Hf7  1  -0.00703200  0.80054214  0.40093339  1
  Hf  Hf8  1  0.60155917  0.59545947  0.39803498  1
  Hf  Hf9  1  0.09481245  0.90505782  0.49676353  1
  Hf  Hf10  1  0.69785418  0.91045875  0.51144530  1
  Hf  Hf11  1  0.39907636  0.80241547  0.01560828  1
  Hf  Hf12  1  0.91035277  0.12012724  0.90291483  1
  Hf  Hf13  1  0.60992164  0.79128952  0.00359241  1
  Hf  Hf14  1  0.40984413  0.58581365  -0.00057125  1
  Hf  Hf15  1  0.39415965  0.20043066  0.59146353  1
  Hf  Hf16  1  0.00078837  0.59871857  0.78612033  1
  Hf  Hf17  1  0.79573812  0.59828347  0.20081821  1
  Hf  Hf18  1  0.19340452  0.38563901  0.58666108  1
  Hf  Hf19  1  0.70928046  0.49769121  0.50218930  1
  Hf  Hf20  1  0.69473817  0.09604638  0.08971424  1
  Hf  Hf21  1  0.50764804  0.69102552  0.10557253  1
  Hf  Hf22  1  0.19914096  0.80755864  0.00831253  1
  Hf  Hf23  1  0.61090825  0.39379872  0.60510977  1
  Hf  Hf24  1  0.79920132  0.00784082  0.80727241  1
  Hf  Hf25  1  0.09462938  0.49095248  0.68822290  1
  Hf  Hf26  1  0.40051845  0.21098398  0.00325390  1
  Hf  Hf27  1  0.39847411  0.59963586  0.20299739  1
  Hf  Hf28  1  0.79637520  0.79652941  0.00655155  1
  Hf  Hf29  1  0.90277952  0.49380101  0.50267535  1
  Hf  Hf30  1  0.49932973  0.30738261  0.49906287  1
  Hf  Hf31  1  0.19828705  0.79396847  0.39581025  1
  Hf  Hf32  1  0.60249625  0.60248022  0.60257957  1
  Hf  Hf33  1  0.39806006  0.59103916  0.80463196  1
  Hf  Hf34  1  0.09325686  0.49910377  0.09587982  1
  Hf  Hf35  1  0.90341850  0.10683518  0.30539408  1
  Hf  Hf36  1  0.60021503  0.19780353  0.20359932  1
  Hf  Hf37  1  0.29279492  0.10925942  0.28954533  1
  Hf  Hf38  1  0.69733874  0.69962914  0.30152399  1
  Hf  Hf39  1  0.49481263  0.49088412  0.30041458  1
  Hf  Hf40  1  0.29543707  0.92119081  0.31095788  1
  Hf  Hf41  1  0.08922254  0.09948423  0.49755435  1
  Hf  Hf42  1  0.89586593  0.69656745  0.89868567  1
  Hf  Hf43  1  0.29999171  0.69279518  0.49955270  1
  Hf  Hf44  1  0.89833707  0.10426973  0.50243150  1
  Hf  Hf45  1  -0.00243013  0.80460436  0.00244275  1
  Hf  Hf46  1  0.38413978  0.00178696  0.00873128  1
  Hf  Hf47  1  0.90250704  0.30086587  0.09297404  1
  Hf  Hf48  1  0.50095125  0.70264313  0.89943822  1
  Hf  Hf49  1  -0.00929143  -0.00484686  0.80759765  1
  Zr  Zr50  1  0.70622330  0.69980328  0.71029826  1
  Zr  Zr51  1  0.08868440  0.49485192  0.90786902  1
  Zr  Zr52  1  0.20208068  0.80517675  0.20042960  1
  Zr  Zr53  1  0.49476059  0.49421387  0.50246082  1
  Zr  Zr54  1  0.20004801  -0.00320870  0.79691070  1
  Zr  Zr55  1  0.19689548  0.78617769  0.79219196  1
  Zr  Zr56  1  0.50086234  0.10303686  0.10082463  1
  Zr  Zr57  1  0.90063535  0.90113511  0.10582972  1
  Zr  Zr58  1  0.49765867  0.30056403  0.29526385  1
  Zr  Zr59  1  0.39827068  -0.00475527  0.19469726  1
  Zr  Zr60  1  0.39985716  0.79330145  0.39149199  1
  Zr  Zr61  1  0.19478630  0.59967560  0.60225634  1
  Zr  Zr62  1  0.10153374  0.29315826  0.29302198  1
  Zr  Zr63  1  0.89626355  0.50282457  0.90190851  1
  Zr  Zr64  1  0.19982596  -0.00132335  0.60583114  1
  Zr  Zr65  1  0.09022485  0.29342551  0.90146284  1
  Zr  Zr66  1  0.71283267  0.29931242  0.29573181  1
  Zr  Zr67  1  0.60140948  0.59552240  0.81165467  1
  Zr  Zr68  1  0.20806332  0.59784616  -0.00956099  1
  Zr  Zr69  1  0.09723656  0.11443341  0.70630529  1
  Zr  Zr70  1  0.50367205  0.10495183  0.69796558  1
  Zr  Zr71  1  0.29605768  0.49779741  0.10378262  1
  Zr  Zr72  1  0.09760934  0.69172113  0.30078627  1
  Zr  Zr73  1  0.60265979  0.80496500  0.20366182  1
  Zr  Zr74  1  0.31963537  0.88730019  0.69475009  1
  Zr  Zr75  1  0.10091783  0.10544047  0.09328436  1
  Zr  Zr76  1  0.49798306  0.90232187  0.50447933  1
  Zr  Zr77  1  0.29019118  0.08707817  0.48344902  1
  Zr  Zr78  1  0.80733120  0.80050127  0.59109049  1
  Zr  Zr79  1  0.89953171  0.49801812  0.09558985  1
  Zr  Zr80  1  0.89523760  0.70350807  0.70652837  1
  Zr  Zr81  1  0.30219933  0.89642552  0.89482656  1
  Zr  Zr82  1  0.60141352  0.00424640  0.80276152  1
  Zr  Zr83  1  0.30805084  0.49162360  0.68900603  1
  Zr  Zr84  1  0.80814071  0.00454060  -0.00214913  1
  Zr  Zr85  1  0.08605950  0.88919407  0.70265114  1
  Zr  Zr86  1  0.40781022  0.39765317  0.81173548  1
  Zr  Zr87  1  0.70033908  0.30414140  0.09817381  1
  Zr  Zr88  1  0.09351370  0.69872607  0.89814170  1
  Zr  Zr89  1  0.60317586  0.01016844  0.40376107  1
  Zr  Zr90  1  0.89649507  0.30157143  0.29434986  1
  Zr  Zr91  1  0.30324966  0.89674169  0.50224379  1
  Zr  Zr92  1  0.10855895  0.09910240  0.30353559  1
  Zr  Zr93  1  0.89944090  0.11306197  0.70087651  1
  Zr  Zr94  1  0.20403705  0.40473674  0.80421401  1
  Zr  Zr95  1  0.60143651  0.39624536  0.80646695  1
  Zr  Zr96  1  0.40197557  0.19920939  0.40407970  1
  Zr  Zr97  1  0.70114894  0.90349805  0.69906813  1
  Zr  Zr98  1  0.30103228  0.30497293  0.29929944  1
  Zr  Zr99  1  0.21011021  0.20351149  0.00390930  1
  Ta  Ta100  1  0.49428174  0.09901937  0.30189270  1
  Ta  Ta101  1  0.50201529  0.70034268  0.30053128  1
  Ta  Ta102  1  0.09678718  0.90412068  0.90421048  1
  Ta  Ta103  1  0.09588249  0.30738407  0.09542512  1
  Ta  Ta104  1  0.09543606  0.69271169  0.10142506  1
  Ta  Ta105  1  0.10007494  0.10238263  0.90089381  1
  Ta  Ta106  1  0.70370607  0.29700324  0.90126651  1
  Ta  Ta107  1  0.90122259  0.69851050  0.29705571  1
  Ta  Ta108  1  0.30767730  0.70203183  0.89825156  1
  Ta  Ta109  1  0.09574676  0.69014413  0.49488947  1
  Ta  Ta110  1  -0.00257676  0.59794921  0.59551756  1
  Ta  Ta111  1  0.59842610  0.79438800  0.59943946  1
  Ta  Ta112  1  0.71018325  0.50145266  0.70488551  1
  Ta  Ta113  1  0.19240720  0.78837315  0.59981097  1
  Ta  Ta114  1  0.70218898  0.10273979  0.69349905  1
  Ta  Ta115  1  -0.00066886  0.78861380  0.59606510  1
  Ta  Ta116  1  0.30136732  0.10993830  0.70350581  1
  Ta  Ta117  1  0.79493804  0.00030874  0.20597124  1
  Ta  Ta118  1  0.10310065  0.49870939  0.30169323  1
  Ta  Ta119  1  0.49895283  0.29837229  0.69714535  1
  Ta  Ta120  1  0.79739961  0.80186189  0.20222819  1
  Ta  Ta121  1  0.60252918  0.20078890  0.80556800  1
  Ta  Ta122  1  0.30112893  0.29283969  0.70072254  1
  Ta  Ta123  1  0.79635650  0.20498782  0.59895919  1
  Ta  Ta124  1  0.80296427  0.59740359  0.39485360  1
  Ta  Ta125  1  0.50196769  0.49569572  0.69542344  1
  Ta  Ta126  1  0.89592642  0.30246207  0.49715459  1
  Ta  Ta127  1  0.29809297  0.69751664  0.10336655  1
  Ta  Ta128  1  0.70849595  0.29942416  0.49505301  1
  Ta  Ta129  1  0.80789942  0.39360253  0.61136644  1
  Ta  Ta130  1  0.40705990  0.01152992  0.59668944  1
  Ta  Ta131  1  0.40524638  0.39808516  -0.00208257  1
  Ta  Ta132  1  0.60630560  0.00052702  0.20934501  1
  Ta  Ta133  1  0.29387735  0.49673996  0.30488593  1
  Ta  Ta134  1  0.69545863  0.49875359  0.09666040  1
  Ta  Ta135  1  0.69627722  0.90582853  0.90922239  1
  Ta  Ta136  1  0.19707961  0.39928096  0.19769834  1
  Ta  Ta137  1  0.60996476  0.39884736  0.39605983  1
  Ta  Ta138  1  0.79837471  0.39593484  0.79877146  1
  Ta  Ta139  1  0.70328190  0.69779809  0.49906983  1
  Ta  Ta140  1  0.69820496  0.90698563  0.10207458  1
  Ta  Ta141  1  0.60573741  0.19816368  0.40549851  1
  Ta  Ta142  1  -0.00178484  0.59742715  0.20357830  1
  Ta  Ta143  1  0.00582655  0.40018108  0.40325443  1
  Ta  Ta144  1  0.78422506  0.60811778  0.00144635  1
  Ta  Ta145  1  0.50183587  0.09951954  0.90477423  1
  Ta  Ta146  1  0.39779454  0.60121426  0.39306829  1
  Ta  Ta147  1  0.79438999  0.40065311  -0.00452600  1
  Ta  Ta148  1  0.49730501  0.70407378  0.70257676  1
  Ta  Ta149  1  0.50084628  0.90429553  0.30393950  1
  Ti  Ti150  1  0.29926489  0.29793202  0.89276338  1
  Ti  Ti151  1  0.79707009  0.19974447  -0.00316971  1
  Ti  Ti152  1  0.20194734  -0.00593253  0.17554435  1
  Ti  Ti153  1  0.60476504  0.19662710  0.59231992  1
  Ti  Ti154  1  0.39517254  0.80108836  0.20364260  1
  Ti  Ti155  1  0.00039600  0.21186706  0.40407591  1
  Ti  Ti156  1  -0.00059057  0.59099385  0.39859612  1
  Ti  Ti157  1  0.89866999  0.69021703  0.49329471  1
  Ti  Ti158  1  0.89553711  0.89778093  0.69935655  1
  Ti  Ti159  1  0.31204063  0.70118917  0.69939055  1
  Ti  Ti160  1  0.59758460  0.20432658  -0.00887948  1
  Ti  Ti161  1  0.90012512  0.49838508  0.29739447  1
  Ti  Ti162  1  0.70380586  0.29095029  0.70512021  1
  Ti  Ti163  1  0.60324239  0.80316818  0.40252656  1
  Ti  Ti164  1  0.90380266  0.91259316  0.50405573  1
  Ti  Ti165  1  0.00451398  0.80126959  0.20027294  1
  Ti  Ti166  1  0.21191226  0.39641218  -0.00030852  1
  Ti  Ti167  1  0.70105294  0.50068667  0.90458015  1
  Ti  Ti168  1  0.20386202  0.59764030  0.79771561  1
  Ti  Ti169  1  0.60657351  0.40673337  0.20130225  1
  Ti  Ti170  1  0.80137338  0.40555376  0.39250098  1
  Ti  Ti171  1  0.50034502  0.89378125  0.69502992  1
  Ti  Ti172  1  0.19004098  0.39798341  0.40304624  1
  Ti  Ti173  1  0.40400794  0.00270077  0.79356577  1
  Ti  Ti174  1  0.59028745  0.40662242  -0.00380741  1
  Ti  Ti175  1  0.89660658  0.29771085  0.89885775  1
  Ti  Ti176  1  -0.00693506  -0.00167716  0.60698525  1
  Ti  Ti177  1  0.10175662  0.29564567  0.70216084  1
  Ti  Ti178  1  0.80524129  0.18653144  0.18734563  1
  Ti  Ti179  1  0.50189649  0.70175294  0.49895784  1
  Ti  Ti180  1  0.60298382  0.59015305  0.19945964  1
  Ti  Ti181  1  0.60405497  0.80134975  0.80162138  1
  Ti  Ti182  1  -0.00346816  0.22254855  0.60188327  1
  Ti  Ti183  1  0.39748868  0.39804076  0.18906074  1
  Ti  Ti184  1  0.90387752  0.69612301  0.10573391  1
  Ti  Ti185  1  0.19719101  0.21658086  0.41660181  1
  Ti  Ti186  1  0.20027883  0.20419967  0.59475082  1
  Ti  Ti187  1  0.09709044  0.91046149  0.30257240  1
  Ti  Ti188  1  0.00079400  -0.00005747  0.00117768  1
  Ti  Ti189  1  0.90310866  0.90291060  0.29976412  1
  Ti  Ti190  1  0.70645322  0.10819742  0.30376346  1
  Ti  Ti191  1  0.20050147  0.59994330  0.20553183  1
  Ti  Ti192  1  0.50286541  0.30537498  0.10253754  1
  Ti  Ti193  1  0.51002838  0.90601469  0.09991197  1
  Ti  Ti194  1  0.80059569  0.81296060  0.81615889  1
  Ti  Ti195  1  0.40905483  0.20456018  0.80440535  1
  Ti  Ti196  1  0.00075378  0.40310682  0.20385926  1
  Ti  Ti197  1  0.40713709  0.60300158  0.59938072  1
  Ti  Ti198  1  -0.00119628  0.19710690  0.19050492  1
  Ti  Ti199  1  0.80668395  0.59687599  0.60343288  1
  Mo  Mo200  1  0.70112497  0.69449141  0.10722837  1
  Mo  Mo201  1  0.00012112  0.20383381  0.00087242  1
  Mo  Mo202  1  0.90049563  0.89744916  0.90020993  1
  Mo  Mo203  1  0.50713793  0.10328555  0.50122270  1
  Mo  Mo204  1  0.30150854  0.49638992  0.90252753  1
  Mo  Mo205  1  0.39992379  0.39080533  0.60544128  1
  Mo  Mo206  1  0.50543265  0.49637502  0.90607678  1
  Mo  Mo207  1  0.79291809  0.20549837  0.80062525  1
  Mo  Mo208  1  0.89401563  0.29740026  0.69802398  1
  Mo  Mo209  1  0.79680439  0.58916189  0.80675912  1
  Mo  Mo210  1  0.39761392  0.40298946  0.39810561  1
  Mo  Mo211  1  0.70229700  0.10687441  0.50835717  1
  Mo  Mo212  1  0.70040952  0.90175386  0.29957251  1
  Mo  Mo213  1  0.69647707  0.10835223  0.90041761  1
  Mo  Mo214  1  0.79866004  0.20029214  0.40735768  1
  Mo  Mo215  1  0.79934394  0.40979319  0.19532112  1
  Mo  Mo216  1  0.30222081  0.68985557  0.29614641  1
  Mo  Mo217  1  0.09869260  0.90370843  0.09770535  1
  Mo  Mo218  1  -0.00845100  0.80421524  0.80195622  1
  Mo  Mo219  1  0.19980024  0.59345102  0.39772679  1
  Mo  Mo220  1  0.70172108  0.70566931  0.90029446  1
  Mo  Mo221  1  0.29726622  0.10890543  0.10546147  1
  Mo  Mo222  1  -0.00836162  0.60801698  0.01143885  1
  Mo  Mo223  1  -0.00674980  -0.00363494  0.39501633  1
  Mo  Mo224  1  0.40695270  0.79426942  0.79755111  1
  Mo  Mo225  1  0.20306734  0.20474439  0.79799317  1
  Mo  Mo226  1  0.41039224  0.00505173  0.39894802  1
  Mo  Mo227  1  0.09105053  0.29715399  0.49827657  1
  Mo  Mo228  1  0.00141082  0.20639829  0.79976895  1
  Mo  Mo229  1  0.20423668  0.21167854  0.18725948  1
  Mo  Mo230  1  0.59681456  -0.00296018  0.00169200  1
  Mo  Mo231  1  0.50874395  0.48917500  0.10354849  1
  Mo  Mo232  1  0.89944335  0.10484707  0.09938743  1
  Mo  Mo233  1  0.60585469  0.59417709  0.00438341  1
  Mo  Mo234  1  0.50733385  0.29478301  0.90327009  1
  Mo  Mo235  1  0.89376207  0.49974040  0.69376478  1
  Mo  Mo236  1  0.40879479  0.78485559  0.59940400  1
  Mo  Mo237  1  0.29686358  0.30288238  0.49939933  1
  Mo  Mo238  1  -0.01033608  0.39510103  -0.00115982  1
  Mo  Mo239  1  0.09492699  0.49889218  0.49160070  1
  Mo  Mo240  1  -0.00193005  0.39414090  0.59475053  1
  Mo  Mo241  1  0.80357301  0.00732235  0.60374976  1
  Mo  Mo242  1  0.70153259  0.49685797  0.29764656  1
  Mo  Mo243  1  0.39979826  0.20276053  0.19261576  1
  Mo  Mo244  1  0.19331408  -0.00059019  -0.00085940  1
  Mo  Mo245  1  0.30127378  0.30662372  0.10400467  1
  Mo  Mo246  1  0.29672576  0.89481618  0.10448699  1
  Mo  Mo247  1  0.59714043  0.00412013  0.60433829  1
  Mo  Mo248  1  0.09336424  0.69476170  0.69081528  1
  Mo  Mo249  1  0.18618360  -0.00477871  0.39918643  1
