# generated using pymatgen
data_HfZrTaTiMo
_symmetry_space_group_name_H-M   'P 1'
_cell_length_a   16.88902894
_cell_length_b   16.88312276
_cell_length_c   16.89011432
_cell_angle_alpha   89.97073464
_cell_angle_beta   89.97268590
_cell_angle_gamma   89.94814432
_symmetry_Int_Tables_number   1
_chemical_formula_structural   HfZrTaTiMo
_chemical_formula_sum   'Hf50 Zr50 Ta50 Ti50 Mo50'
_cell_volume   4816.03642905
_cell_formula_units_Z   50
loop_
 _symmetry_equiv_pos_site_id
 _symmetry_equiv_pos_as_xyz
  1  'x, y, z'
loop_
 _atom_site_type_symbol
 _atom_site_label
 _atom_site_symmetry_multiplicity
 _atom_site_fract_x
 _atom_site_fract_y
 _atom_site_fract_z
 _atom_site_occupancy
  Hf  Hf0  1  0.89809174  0.69520674  0.89960931  1
  Hf  Hf1  1  0.20609598  0.59807938  0.20120356  1
  Hf  Hf2  1  0.70942440  0.49707545  0.10199198  1
  Hf  Hf3  1  0.09090338  0.30009330  0.68499547  1
  Hf  Hf4  1  0.48886435  0.89887782  0.50854498  1
  Hf  Hf5  1  0.80301374  -0.00183825  0.59123249  1
  Hf  Hf6  1  0.70132484  0.30141408  0.29375938  1
  Hf  Hf7  1  0.59470871  0.19415396  0.19391381  1
  Hf  Hf8  1  0.50293448  0.29081225  0.70507884  1
  Hf  Hf9  1  0.00721543  0.59535023  0.80095443  1
  Hf  Hf10  1  0.40463160  0.59858590  0.00284631  1
  Hf  Hf11  1  0.79912185  0.79721199  0.00387569  1
  Hf  Hf12  1  0.70736715  0.30776079  0.10460449  1
  Hf  Hf13  1  0.19609758  0.60344540  0.60106257  1
  Hf  Hf14  1  0.80083651  0.61887287  0.19952050  1
  Hf  Hf15  1  0.49927534  0.49755530  0.49644374  1
  Hf  Hf16  1  0.41258477  0.80353505  -0.00776851  1
  Hf  Hf17  1  0.70478272  0.49838565  0.49277684  1
  Hf  Hf18  1  0.89135961  0.09662759  0.89622574  1
  Hf  Hf19  1  0.79941569  -0.00397461  0.00629851  1
  Hf  Hf20  1  0.89628687  0.88888881  0.11948341  1
  Hf  Hf21  1  0.29951869  0.89987323  0.90389131  1
  Hf  Hf22  1  0.00428136  0.40351551  0.39225349  1
  Hf  Hf23  1  0.60916886  0.39555181  0.80155497  1
  Hf  Hf24  1  0.59682924  0.60868688  0.38742961  1
  Hf  Hf25  1  0.90401482  0.49980676  0.69049826  1
  Hf  Hf26  1  0.29601703  0.89405382  0.31369219  1
  Hf  Hf27  1  0.49819038  0.29926052  0.49507665  1
  Hf  Hf28  1  0.00448372  0.40670824  0.79930667  1
  Hf  Hf29  1  0.69986806  0.89978200  0.70503833  1
  Hf  Hf30  1  0.90032484  0.50863381  0.50304174  1
  Hf  Hf31  1  0.40276130  -0.00226276  0.19852920  1
  Hf  Hf32  1  0.09587289  0.89959891  0.49494687  1
  Hf  Hf33  1  0.10019489  0.29247954  0.49509486  1
  Hf  Hf34  1  0.29796336  0.11017138  0.30550117  1
  Hf  Hf35  1  0.60864370  0.39463607  0.60374591  1
  Hf  Hf36  1  0.70425258  0.49391875  0.29644340  1
  Hf  Hf37  1  0.81744601  0.39300058  0.38979563  1
  Hf  Hf38  1  0.09967711  0.10451589  0.30083559  1
  Hf  Hf39  1  0.00429731  0.18340397  0.79194508  1
  Hf  Hf40  1  0.20102682  0.40617936  0.59895415  1
  Hf  Hf41  1  0.90050025  0.89941978  0.70412145  1
  Hf  Hf42  1  0.20458999  0.59631253  0.00164745  1
  Hf  Hf43  1  0.80078609  0.19312031  0.01237740  1
  Hf  Hf44  1  0.29842772  0.10087286  0.49632401  1
  Hf  Hf45  1  0.09636141  0.10722126  0.49374588  1
  Hf  Hf46  1  0.59294290  0.39663966  -0.00036486  1
  Hf  Hf47  1  0.59931296  0.60074274  0.00188924  1
  Hf  Hf48  1  0.39475425  0.38628112  0.81017520  1
  Hf  Hf49  1  0.89441283  0.50014102  0.09504860  1
  Zr  Zr50  1  0.30367218  0.10120117  0.90855293  1
  Zr  Zr51  1  0.60272961  -0.00288248  0.40094244  1
  Zr  Zr52  1  0.49855203  0.30220826  0.30535552  1
  Zr  Zr53  1  0.70308891  0.09194996  0.71188470  1
  Zr  Zr54  1  0.40171438  0.60351557  0.80587448  1
  Zr  Zr55  1  0.18506121  0.00889092  0.80273169  1
  Zr  Zr56  1  0.89579499  0.69475771  0.69381835  1
  Zr  Zr57  1  0.09354192  0.90016411  0.69463777  1
  Zr  Zr58  1  0.49391288  0.71902184  0.70460624  1
  Zr  Zr59  1  0.70078895  0.29808163  0.48245148  1
  Zr  Zr60  1  0.48417043  0.31733671  0.10767891  1
  Zr  Zr61  1  0.00354463  0.39021300  0.20011934  1
  Zr  Zr62  1  0.50202882  0.90592506  0.69687484  1
  Zr  Zr63  1  0.70295453  0.89666097  0.29132039  1
  Zr  Zr64  1  0.61059809  0.19933796  0.60611992  1
  Zr  Zr65  1  0.68708409  0.89386474  0.10477313  1
  Zr  Zr66  1  0.71170508  0.51059080  0.69640531  1
  Zr  Zr67  1  0.09453041  0.49821625  0.09746849  1
  Zr  Zr68  1  0.09090539  0.89654367  0.11019474  1
  Zr  Zr69  1  0.19118369  0.80391594  0.80164598  1
  Zr  Zr70  1  0.08581037  0.69846558  0.10671709  1
  Zr  Zr71  1  0.58314871  -0.00174752  -0.00532888  1
  Zr  Zr72  1  0.59695846  0.60518086  0.60483823  1
  Zr  Zr73  1  0.00446001  0.61670028  0.39222364  1
  Zr  Zr74  1  0.29984689  0.70781831  0.09635066  1
  Zr  Zr75  1  0.19745575  0.19896158  0.79922111  1
  Zr  Zr76  1  0.20536435  0.39655268  0.19741690  1
  Zr  Zr77  1  0.31085330  0.89803347  0.69075564  1
  Zr  Zr78  1  0.18218205  0.00200814  -0.00053955  1
  Zr  Zr79  1  0.20001555  0.40527357  0.39503463  1
  Zr  Zr80  1  0.19529434  0.79715725  0.21005521  1
  Zr  Zr81  1  0.71450341  0.49975248  0.91015237  1
  Zr  Zr82  1  0.70808281  0.69503519  0.50230272  1
  Zr  Zr83  1  0.49557877  0.49687126  0.70147317  1
  Zr  Zr84  1  0.19414173  0.59583562  0.79748843  1
  Zr  Zr85  1  0.30877821  0.09259390  0.69549333  1
  Zr  Zr86  1  0.40137610  0.79975235  0.20527175  1
  Zr  Zr87  1  0.89768127  0.29898633  0.90426173  1
  Zr  Zr88  1  0.19887049  -0.00228411  0.20178020  1
  Zr  Zr89  1  -0.00346789  0.80766645  -0.00835089  1
  Zr  Zr90  1  0.30472245  0.10423788  0.09566875  1
  Zr  Zr91  1  0.80585244  -0.00252426  0.39600109  1
  Zr  Zr92  1  0.30592296  0.70459567  0.49820851  1
  Zr  Zr93  1  0.09664198  0.29693945  0.90432177  1
  Zr  Zr94  1  0.51001747  0.70871143  0.10088352  1
  Zr  Zr95  1  0.39613857  0.23005977  -0.01254069  1
  Zr  Zr96  1  0.80533741  0.19588008  0.60438179  1
  Zr  Zr97  1  0.49643452  0.10162976  0.50328782  1
  Zr  Zr98  1  0.41372759  -0.00214470  0.81892838  1
  Zr  Zr99  1  0.91391294  0.29597024  0.50686814  1
  Ta  Ta100  1  0.80425398  0.79730088  0.39351324  1
  Ta  Ta101  1  0.80137360  0.80362043  0.59262294  1
  Ta  Ta102  1  0.30666500  0.50618187  0.30497549  1
  Ta  Ta103  1  0.80344333  0.39469457  0.79708648  1
  Ta  Ta104  1  -0.01017329  0.00513089  0.20868981  1
  Ta  Ta105  1  -0.00695871  -0.00051597  0.39586250  1
  Ta  Ta106  1  0.09749437  0.70291619  0.90096892  1
  Ta  Ta107  1  0.90240533  0.50736750  0.28703371  1
  Ta  Ta108  1  0.00033131  0.79537070  0.59200896  1
  Ta  Ta109  1  0.81248750  0.19405281  0.20484390  1
  Ta  Ta110  1  0.30137226  0.49978639  0.70118811  1
  Ta  Ta111  1  0.39339408  0.40073569  0.40299938  1
  Ta  Ta112  1  0.39699219  -0.00310236  0.40016745  1
  Ta  Ta113  1  0.30227547  0.70553348  0.69979076  1
  Ta  Ta114  1  0.30214395  0.69418650  0.30819280  1
  Ta  Ta115  1  0.29948798  0.70534092  0.89747031  1
  Ta  Ta116  1  0.09543666  0.50381746  0.50163409  1
  Ta  Ta117  1  0.40918348  0.59783713  0.20475065  1
  Ta  Ta118  1  0.80710564  0.60798270  0.38961695  1
  Ta  Ta119  1  0.49813067  0.49557635  0.90267560  1
  Ta  Ta120  1  -0.00668059  0.00291088  0.00266418  1
  Ta  Ta121  1  0.00275468  0.00063679  0.80545181  1
  Ta  Ta122  1  0.69862702  0.70416045  0.90079087  1
  Ta  Ta123  1  -0.00816458  0.00843237  0.59773865  1
  Ta  Ta124  1  0.69817689  0.10048241  0.90038486  1
  Ta  Ta125  1  0.90630511  0.29897269  0.69807735  1
  Ta  Ta126  1  0.69976666  0.89903704  0.89423616  1
  Ta  Ta127  1  0.50109293  0.09938766  0.70050855  1
  Ta  Ta128  1  0.29994918  0.49497370  0.90139111  1
  Ta  Ta129  1  0.19795685  0.79784979  0.59300039  1
  Ta  Ta130  1  0.10136434  0.28568644  0.29714216  1
  Ta  Ta131  1  0.50198367  0.90012817  0.30355698  1
  Ta  Ta132  1  -0.00130585  0.19275970  0.01203201  1
  Ta  Ta133  1  0.39113131  0.39641547  0.59864825  1
  Ta  Ta134  1  0.80127391  0.39190246  0.60353110  1
  Ta  Ta135  1  0.59783832  0.20343017  0.00108449  1
  Ta  Ta136  1  0.49687637  0.70641896  0.50362236  1
  Ta  Ta137  1  0.60901957  0.80431452  0.59447056  1
  Ta  Ta138  1  0.60013258  0.60551719  0.80708542  1
  Ta  Ta139  1  0.49049453  0.10288662  0.30358851  1
  Ta  Ta140  1  0.80034883  0.79796084  0.80062844  1
  Ta  Ta141  1  0.80260260  0.00881141  0.20186345  1
  Ta  Ta142  1  0.21120330  0.38983530  0.00217617  1
  Ta  Ta143  1  0.29886518  0.29212893  0.49563558  1
  Ta  Ta144  1  0.19731304  0.40408881  0.79714367  1
  Ta  Ta145  1  0.70381626  0.29086653  0.90099757  1
  Ta  Ta146  1  0.39595577  0.20373967  0.60331282  1
  Ta  Ta147  1  0.59648266  0.60074686  0.20290455  1
  Ta  Ta148  1  0.70633453  0.10355906  0.48921389  1
  Ta  Ta149  1  0.60170335  0.79926762  0.40420412  1
  Ti  Ti150  1  0.69458325  0.09685509  0.10117878  1
  Ti  Ti151  1  0.49535801  0.49506158  0.30168031  1
  Ti  Ti152  1  0.19678639  -0.00397681  0.40092616  1
  Ti  Ti153  1  0.19420077  0.20609911  0.00645742  1
  Ti  Ti154  1  0.48976925  0.10245644  0.09242442  1
  Ti  Ti155  1  0.32265283  0.48309688  0.10297191  1
  Ti  Ti156  1  0.59912729  0.00358052  0.80756368  1
  Ti  Ti157  1  0.30113676  0.29740863  0.30396478  1
  Ti  Ti158  1  0.90198472  0.70280948  0.49774037  1
  Ti  Ti159  1  0.01030515  0.60661675  0.59731644  1
  Ti  Ti160  1  0.30323000  0.90325789  0.09134228  1
  Ti  Ti161  1  0.10248613  0.49671749  0.91007763  1
  Ti  Ti162  1  0.18604554  0.78858820  0.40280668  1
  Ti  Ti163  1  -0.01744911  0.20138857  0.38037741  1
  Ti  Ti164  1  0.59935186  0.19365063  0.39403476  1
  Ti  Ti165  1  0.20006540  -0.00401748  0.59206513  1
  Ti  Ti166  1  0.89685877  0.90075280  0.89119646  1
  Ti  Ti167  1  0.09425963  0.70771977  0.70149695  1
  Ti  Ti168  1  0.19204560  0.80286045  -0.00248359  1
  Ti  Ti169  1  0.39753776  0.59993035  0.60139196  1
  Ti  Ti170  1  0.20034829  0.19521645  0.60343570  1
  Ti  Ti171  1  0.09785877  0.51078805  0.29421612  1
  Ti  Ti172  1  0.39785438  0.20318580  0.80186061  1
  Ti  Ti173  1  0.89983860  0.29900838  0.10569358  1
  Ti  Ti174  1  0.40607533  0.79925484  0.39978032  1
  Ti  Ti175  1  0.40578981  0.60255134  0.39703083  1
  Ti  Ti176  1  0.90072323  0.10690660  0.49062943  1
  Ti  Ti177  1  0.79997436  0.59946440  0.80475053  1
  Ti  Ti178  1  0.29650322  0.29954245  0.69791296  1
  Ti  Ti179  1  0.60029768  0.78333748  0.22219217  1
  Ti  Ti180  1  0.00203248  0.39180418  0.00478994  1
  Ti  Ti181  1  -0.00446622  0.60158973  0.00067086  1
  Ti  Ti182  1  0.30231439  0.50462178  0.49658105  1
  Ti  Ti183  1  0.58931332  0.41247746  0.19823255  1
  Ti  Ti184  1  0.70613418  0.70110908  0.70081487  1
  Ti  Ti185  1  0.20060959  0.20838803  0.18979254  1
  Ti  Ti186  1  0.79994183  0.20171045  0.79446656  1
  Ti  Ti187  1  0.90526624  0.89273064  0.49403921  1
  Ti  Ti188  1  0.59334492  0.00916095  0.20353474  1
  Ti  Ti189  1  0.60866594  0.00019429  0.59199275  1
  Ti  Ti190  1  0.69778050  0.70676955  0.10011683  1
  Ti  Ti191  1  0.70338486  0.10540553  0.29999365  1
  Ti  Ti192  1  0.50809620  0.89563522  0.10615582  1
  Ti  Ti193  1  0.39531007  0.20581310  0.19886426  1
  Ti  Ti194  1  0.09260104  0.10493122  0.10897638  1
  Ti  Ti195  1  0.08482395  0.89203882  0.30566367  1
  Ti  Ti196  1  0.89486484  0.49755807  0.91047485  1
  Ti  Ti197  1  0.51668725  0.87159437  0.88226122  1
  Ti  Ti198  1  0.50535319  0.11703650  0.89755043  1
  Ti  Ti199  1  0.19419096  0.60429347  0.40054751  1
  Mo  Mo200  1  0.90015485  0.69787903  0.10033622  1
  Mo  Mo201  1  0.71235534  0.29910354  0.71068485  1
  Mo  Mo202  1  0.90112793  0.09366329  0.10378771  1
  Mo  Mo203  1  0.61544010  0.79341614  0.79310702  1
  Mo  Mo204  1  0.39460024  0.40659145  0.21697573  1
  Mo  Mo205  1  0.50651515  0.69770049  0.89673780  1
  Mo  Mo206  1  0.79730874  0.79651355  0.20376402  1
  Mo  Mo207  1  0.00085613  0.19680495  0.19472771  1
  Mo  Mo208  1  0.90317041  0.29718724  0.29146751  1
  Mo  Mo209  1  0.60356508  0.19628295  0.80775940  1
  Mo  Mo210  1  0.10252299  0.70156406  0.30274506  1
  Mo  Mo211  1  0.70222718  0.89501448  0.50018313  1
  Mo  Mo212  1  -0.00407455  0.79870654  0.79819268  1
  Mo  Mo213  1  0.80222126  0.19580333  0.39108943  1
  Mo  Mo214  1  -0.00699483  0.79554949  0.21772181  1
  Mo  Mo215  1  0.51453022  0.29855921  0.89562369  1
  Mo  Mo216  1  0.09885424  0.09451366  0.67993101  1
  Mo  Mo217  1  0.60387707  0.79868082  -0.01072468  1
  Mo  Mo218  1  0.59277550  0.40831224  0.39463687  1
  Mo  Mo219  1  0.29269725  0.89964039  0.49494045  1
  Mo  Mo220  1  0.49963314  0.50416217  0.10642116  1
  Mo  Mo221  1  -0.00329874  0.18403786  0.60448163  1
  Mo  Mo222  1  0.39883557  0.00639180  0.59311419  1
  Mo  Mo223  1  -0.00493249  0.80430960  0.40208375  1
  Mo  Mo224  1  0.08845101  0.90019593  0.89928965  1
  Mo  Mo225  1  0.10180668  0.29158500  0.09941905  1
  Mo  Mo226  1  -0.00445315  0.60472223  0.20054484  1
  Mo  Mo227  1  0.39173757  0.79820891  0.80271581  1
  Mo  Mo228  1  0.10056486  0.70283766  0.50194220  1
  Mo  Mo229  1  0.90127814  0.70938631  0.29654670  1
  Mo  Mo230  1  0.08878406  0.10063780  0.91737440  1
  Mo  Mo231  1  0.80175255  -0.00563056  0.80888601  1
  Mo  Mo232  1  0.81141259  0.39458810  0.19997779  1
  Mo  Mo233  1  0.39684717  0.20215331  0.40089233  1
  Mo  Mo234  1  0.10055458  0.49857280  0.69127324  1
  Mo  Mo235  1  0.28323059  0.30190551  0.89297090  1
  Mo  Mo236  1  0.39693217  0.40729813  -0.00914990  1
  Mo  Mo237  1  0.90105603  0.89913661  0.30216842  1
  Mo  Mo238  1  0.29658856  0.30261018  0.10543134  1
  Mo  Mo239  1  0.80503002  0.60433322  0.59180972  1
  Mo  Mo240  1  0.39418368  0.80069435  0.59504964  1
  Mo  Mo241  1  0.80580727  0.38901275  -0.00222156  1
  Mo  Mo242  1  0.20127863  0.20407827  0.39675083  1
  Mo  Mo243  1  0.00240002  0.40941626  0.59795126  1
  Mo  Mo244  1  0.90039197  0.10094987  0.29884857  1
  Mo  Mo245  1  0.41416397  -0.01276639  0.00594179  1
  Mo  Mo246  1  0.49693092  0.70237940  0.30718396  1
  Mo  Mo247  1  0.70117178  0.70184554  0.30378967  1
  Mo  Mo248  1  0.80075035  0.61136326  0.00449286  1
  Mo  Mo249  1  0.90100441  0.09413202  0.70432620  1
