# generated using pymatgen
data_HfZrTaTiMo
_symmetry_space_group_name_H-M   'P 1'
_cell_length_a   16.88498388
_cell_length_b   16.87813168
_cell_length_c   16.88665452
_cell_angle_alpha   90.02595362
_cell_angle_beta   90.00399484
_cell_angle_gamma   90.00617810
_symmetry_Int_Tables_number   1
_chemical_formula_structural   HfZrTaTiMo
_chemical_formula_sum   'Hf50 Zr50 Ta50 Ti50 Mo50'
_cell_volume   4812.47616461
_cell_formula_units_Z   50
loop_
 _symmetry_equiv_pos_site_id
 _symmetry_equiv_pos_as_xyz
  1  'x, y, z'
loop_
 _atom_site_type_symbol
 _atom_site_label
 _atom_site_symmetry_multiplicity
 _atom_site_fract_x
 _atom_site_fract_y
 _atom_site_fract_z
 _atom_site_occupancy
  Hf  Hf0  1  0.08951812  0.50760187  0.49819235  1
  Hf  Hf1  1  -0.01238379  0.60643711  0.80027937  1
  Hf  Hf2  1  0.20563682  0.79022220  0.19666870  1
  Hf  Hf3  1  -0.00466051  0.19593770  -0.00034339  1
  Hf  Hf4  1  0.38945031  0.79677449  -0.00764923  1
  Hf  Hf5  1  0.20429765  0.39642604  0.00051145  1
  Hf  Hf6  1  -0.00300807  0.21444916  0.60439873  1
  Hf  Hf7  1  0.90585618  0.68228707  0.50443900  1
  Hf  Hf8  1  0.09125550  0.09780114  0.69413719  1
  Hf  Hf9  1  0.20112095  0.78776660  0.39253365  1
  Hf  Hf10  1  0.40391540  0.20367000  0.00431691  1
  Hf  Hf11  1  0.89601369  0.70472182  0.09491374  1
  Hf  Hf12  1  0.30758893  0.89865301  0.30185160  1
  Hf  Hf13  1  0.39989697  0.19953651  0.59004979  1
  Hf  Hf14  1  0.69250068  0.49670560  0.89504862  1
  Hf  Hf15  1  0.39314413  0.60466887  0.20254412  1
  Hf  Hf16  1  0.50528748  0.50824334  0.08196558  1
  Hf  Hf17  1  0.49947476  0.30525931  0.30687238  1
  Hf  Hf18  1  0.50390552  0.70212610  0.29867237  1
  Hf  Hf19  1  0.89152450  0.30528606  0.10285483  1
  Hf  Hf20  1  -0.00558697  -0.00092412  0.79691505  1
  Hf  Hf21  1  0.09745333  0.50668933  0.09430528  1
  Hf  Hf22  1  0.30270384  0.90082086  0.49500380  1
  Hf  Hf23  1  0.88618405  0.49639520  0.29555264  1
  Hf  Hf24  1  0.60891609  0.80142747  0.40218501  1
  Hf  Hf25  1  0.59883062  0.40077957  0.59725941  1
  Hf  Hf26  1  0.30528636  0.90294354  0.10191864  1
  Hf  Hf27  1  0.21345548  0.20641664  0.41048988  1
  Hf  Hf28  1  0.09967362  0.70411526  0.89767899  1
  Hf  Hf29  1  0.68651055  0.10286395  0.11276443  1
  Hf  Hf30  1  0.29305635  0.50741096  0.89232978  1
  Hf  Hf31  1  0.80410061  0.00320056  0.60444988  1
  Hf  Hf32  1  0.60853826  0.79715157  0.60181447  1
  Hf  Hf33  1  0.20254292  0.00052007  0.60078664  1
  Hf  Hf34  1  0.51282670  0.11740318  0.30165528  1
  Hf  Hf35  1  0.50333846  0.69282377  0.69628436  1
  Hf  Hf36  1  0.09263303  0.69125902  0.50044382  1
  Hf  Hf37  1  0.79506335  0.39871500  -0.00364757  1
  Hf  Hf38  1  0.50662683  0.50022697  0.70193767  1
  Hf  Hf39  1  0.09831404  0.09874438  0.49886038  1
  Hf  Hf40  1  0.78811945  0.80410975  0.18934317  1
  Hf  Hf41  1  0.10822146  0.29267088  0.10241860  1
  Hf  Hf42  1  0.70430389  0.89879941  0.89641489  1
  Hf  Hf43  1  0.10167338  0.29304653  0.89669231  1
  Hf  Hf44  1  0.11173347  0.30397763  0.30599880  1
  Hf  Hf45  1  0.49818727  0.89553066  0.10734807  1
  Hf  Hf46  1  0.59730927  0.20490446  0.00100098  1
  Hf  Hf47  1  0.20339034  0.00194220  0.20345980  1
  Hf  Hf48  1  -0.00906980  0.79188464  0.39117598  1
  Hf  Hf49  1  -0.01030090  0.80176802  0.60853936  1
  Zr  Zr50  1  0.51770904  0.31313514  0.89493739  1
  Zr  Zr51  1  0.20416702  0.60160759  0.60122420  1
  Zr  Zr52  1  0.70388875  0.10481222  0.70288475  1
  Zr  Zr53  1  -0.00341434  -0.00894747  0.39730483  1
  Zr  Zr54  1  0.90043817  0.89479275  0.90386300  1
  Zr  Zr55  1  0.69640700  0.49806583  0.48979527  1
  Zr  Zr56  1  0.80124033  0.60064575  0.39377692  1
  Zr  Zr57  1  0.20208321  0.60556287  0.20367477  1
  Zr  Zr58  1  0.89196531  0.49442938  0.88878680  1
  Zr  Zr59  1  0.21263867  0.41508064  0.20405297  1
  Zr  Zr60  1  0.39829068  0.39407787  0.00134182  1
  Zr  Zr61  1  0.28953653  0.10443114  0.90855185  1
  Zr  Zr62  1  0.40709425  0.01420624  0.39930782  1
  Zr  Zr63  1  0.19471611  0.39136166  0.60176785  1
  Zr  Zr64  1  0.40322762  0.19606880  0.79902950  1
  Zr  Zr65  1  0.39931936  0.39524189  0.79939858  1
  Zr  Zr66  1  0.90055471  0.89958649  0.28390672  1
  Zr  Zr67  1  0.59354784  0.00306188  0.00282732  1
  Zr  Zr68  1  0.10543360  0.50288109  0.89489759  1
  Zr  Zr69  1  0.10016581  0.70502915  0.70650074  1
  Zr  Zr70  1  0.88705191  0.30527032  0.30337988  1
  Zr  Zr71  1  0.88604003  0.30591794  0.70979808  1
  Zr  Zr72  1  0.00364575  0.40545194  0.19860557  1
  Zr  Zr73  1  0.50098623  0.70161975  0.09471439  1
  Zr  Zr74  1  0.60359257  0.00140451  0.40086387  1
  Zr  Zr75  1  0.88819440  0.09141189  0.89764180  1
  Zr  Zr76  1  0.90159775  0.08710511  0.10305704  1
  Zr  Zr77  1  0.89782514  0.09589857  0.30098331  1
  Zr  Zr78  1  0.40200746  -0.00536605  0.80365771  1
  Zr  Zr79  1  0.00261213  0.19747879  0.20315689  1
  Zr  Zr80  1  0.10094552  0.89915224  0.49999315  1
  Zr  Zr81  1  0.31640775  0.89654840  0.68821686  1
  Zr  Zr82  1  0.50515356  0.89319935  0.90413337  1
  Zr  Zr83  1  0.30313899  0.48700050  0.49285871  1
  Zr  Zr84  1  0.69315484  0.31027240  0.30862552  1
  Zr  Zr85  1  0.30199151  0.50063509  0.70464706  1
  Zr  Zr86  1  0.79819067  0.80297568  0.40136501  1
  Zr  Zr87  1  0.90452354  0.09842507  0.50594440  1
  Zr  Zr88  1  0.10173122  0.50005799  0.71019422  1
  Zr  Zr89  1  0.78924739  0.19629659  0.20584172  1
  Zr  Zr90  1  -0.01251784  0.40186662  0.40919826  1
  Zr  Zr91  1  0.20224255  -0.00229929  0.79872265  1
  Zr  Zr92  1  0.78773331  -0.01177248  0.01865097  1
  Zr  Zr93  1  0.30759930  0.70052049  0.50507670  1
  Zr  Zr94  1  0.59707815  0.40876562  0.19439014  1
  Zr  Zr95  1  0.49927011  0.89909270  0.50697992  1
  Zr  Zr96  1  0.10892082  0.10110750  0.30556848  1
  Zr  Zr97  1  0.22180782  0.80852436  0.81121526  1
  Zr  Zr98  1  0.39706471  0.40860813  0.19450111  1
  Zr  Zr99  1  0.79710450  0.79032269  0.79230504  1
  Ta  Ta100  1  0.29896271  0.29650985  0.69908804  1
  Ta  Ta101  1  0.09623777  0.89928383  0.90381125  1
  Ta  Ta102  1  -0.00768991  0.60097114  -0.00151475  1
  Ta  Ta103  1  0.50285023  0.29800364  0.49153434  1
  Ta  Ta104  1  -0.00896323  0.60492792  0.20052726  1
  Ta  Ta105  1  0.69311903  0.30571410  0.09869621  1
  Ta  Ta106  1  0.69571871  0.29870976  0.50069232  1
  Ta  Ta107  1  -0.00790287  0.40223088  0.60134930  1
  Ta  Ta108  1  -0.00300541  0.39876165  -0.00343931  1
  Ta  Ta109  1  0.09813218  0.09734574  0.90501988  1
  Ta  Ta110  1  0.50676604  0.50238480  0.31052917  1
  Ta  Ta111  1  0.70038542  0.90407256  0.70004817  1
  Ta  Ta112  1  0.51105659  0.09977647  0.69138890  1
  Ta  Ta113  1  0.50699068  0.29472572  0.69439890  1
  Ta  Ta114  1  -0.00663388  0.19614467  0.79820091  1
  Ta  Ta115  1  0.79260534  0.60122071  0.19386224  1
  Ta  Ta116  1  0.00267393  0.79901433  0.00130590  1
  Ta  Ta117  1  0.60057357  -0.00097358  0.79628951  1
  Ta  Ta118  1  0.20718548  0.59662960  0.38934259  1
  Ta  Ta119  1  0.79530254  0.60455109  -0.00152617  1
  Ta  Ta120  1  0.49746202  0.89333322  0.29518234  1
  Ta  Ta121  1  0.29867565  0.10441898  0.10444496  1
  Ta  Ta122  1  0.11278436  0.10084951  0.09288893  1
  Ta  Ta123  1  0.50945673  0.68522500  0.49937118  1
  Ta  Ta124  1  0.40705169  0.79350368  0.80427988  1
  Ta  Ta125  1  0.78900724  0.00081499  0.39873436  1
  Ta  Ta126  1  0.69674705  0.30385700  0.70276334  1
  Ta  Ta127  1  0.10075728  0.30407600  0.49899248  1
  Ta  Ta128  1  0.50706066  0.50821283  0.89864046  1
  Ta  Ta129  1  0.89419500  0.29655529  0.89718785  1
  Ta  Ta130  1  0.70777185  0.49723233  0.70287389  1
  Ta  Ta131  1  0.60699894  0.60397971  0.79733167  1
  Ta  Ta132  1  0.20232403  0.20225627  0.59930903  1
  Ta  Ta133  1  0.60271306  0.79562038  0.79487476  1
  Ta  Ta134  1  0.51195872  0.69684686  0.90226485  1
  Ta  Ta135  1  0.30840697  0.30795218  0.31321983  1
  Ta  Ta136  1  0.40533263  0.00892583  0.20250778  1
  Ta  Ta137  1  0.79721589  0.79673308  0.59794742  1
  Ta  Ta138  1  0.79108947  0.20002274  -0.00120072  1
  Ta  Ta139  1  0.69869490  0.69696035  0.29715945  1
  Ta  Ta140  1  0.39976074  0.59873681  0.39641233  1
  Ta  Ta141  1  0.70057537  0.09983741  0.89413132  1
  Ta  Ta142  1  0.60736904  0.60009218  0.19848433  1
  Ta  Ta143  1  0.69019069  0.10622837  0.50701333  1
  Ta  Ta144  1  0.89382409  0.50242451  0.09665375  1
  Ta  Ta145  1  0.10524990  0.89689452  0.29738864  1
  Ta  Ta146  1  0.30041144  0.52821116  0.07553724  1
  Ta  Ta147  1  0.79930128  0.20474317  0.59973681  1
  Ta  Ta148  1  0.40036927  0.20574314  0.20120785  1
  Ta  Ta149  1  0.79290864  0.19685979  0.40904734  1
  Ti  Ti150  1  0.30335930  0.10255107  0.69811053  1
  Ti  Ti151  1  0.40995085  0.01128286  0.59649326  1
  Ti  Ti152  1  0.50423666  0.50072582  0.49277035  1
  Ti  Ti153  1  0.29003263  0.29341824  0.89301946  1
  Ti  Ti154  1  0.29626372  0.68559543  0.91143235  1
  Ti  Ti155  1  0.69910030  0.50250234  0.09275652  1
  Ti  Ti156  1  0.09899305  0.69646261  0.09250328  1
  Ti  Ti157  1  0.80438050  0.39887112  0.58935895  1
  Ti  Ti158  1  0.60184751  0.19876327  0.79816833  1
  Ti  Ti159  1  0.19201314  0.20090164  0.78736830  1
  Ti  Ti160  1  0.20106415  0.79938321  0.00397527  1
  Ti  Ti161  1  0.90977102  0.89729496  0.09585013  1
  Ti  Ti162  1  0.40116877  0.00599480  0.00237829  1
  Ti  Ti163  1  0.89220116  0.49995673  0.70012342  1
  Ti  Ti164  1  0.00296405  0.39139479  0.79639828  1
  Ti  Ti165  1  0.09649512  0.50335256  0.30803044  1
  Ti  Ti166  1  0.40518200  0.59306143  0.59501457  1
  Ti  Ti167  1  0.30189051  0.09711589  0.49556919  1
  Ti  Ti168  1  0.40909057  0.79195259  0.60142065  1
  Ti  Ti169  1  0.20016156  -0.00633512  -0.00062541  1
  Ti  Ti170  1  0.40386719  0.79119908  0.39902615  1
  Ti  Ti171  1  0.20026504  0.80012117  0.60286601  1
  Ti  Ti172  1  0.09390261  0.89493917  0.70577026  1
  Ti  Ti173  1  0.50672818  0.90226578  0.69777382  1
  Ti  Ti174  1  0.60861187  0.80023727  0.19970813  1
  Ti  Ti175  1  0.70325341  0.68635669  0.69405164  1
  Ti  Ti176  1  0.09804949  0.89979212  0.09599842  1
  Ti  Ti177  1  0.89770562  0.90167499  0.50454287  1
  Ti  Ti178  1  0.49911998  0.10596559  0.11150277  1
  Ti  Ti179  1  0.29314292  0.28753291  0.10849559  1
  Ti  Ti180  1  0.00563246  0.79464992  0.19642019  1
  Ti  Ti181  1  0.89375899  0.90173044  0.70484646  1
  Ti  Ti182  1  0.89243998  0.69225953  0.69731894  1
  Ti  Ti183  1  0.60149827  -0.00667151  0.21079659  1
  Ti  Ti184  1  0.70366731  0.30040859  0.88882335  1
  Ti  Ti185  1  0.40327441  0.39167288  0.59462900  1
  Ti  Ti186  1  0.40432910  0.60805776  0.80666692  1
  Ti  Ti187  1  0.30604447  0.69747912  0.70356955  1
  Ti  Ti188  1  0.62016761  0.79531663  0.00791403  1
  Ti  Ti189  1  0.01327759  -0.00221098  0.19465381  1
  Ti  Ti190  1  0.80023487  0.59175426  0.60016801  1
  Ti  Ti191  1  0.70155538  0.90838290  0.50985682  1
  Ti  Ti192  1  -0.00663102  0.20848533  0.40552773  1
  Ti  Ti193  1  0.08970252  0.69150501  0.30078722  1
  Ti  Ti194  1  0.77933690  -0.00740941  0.21019261  1
  Ti  Ti195  1  0.70211405  0.69658678  0.90202139  1
  Ti  Ti196  1  0.69669420  0.68722096  0.50266149  1
  Ti  Ti197  1  0.50479489  0.09922411  0.89488329  1
  Ti  Ti198  1  0.30413492  0.11059657  0.29975401  1
  Ti  Ti199  1  0.89337971  0.70529655  0.90244315  1
  Mo  Mo200  1  0.69401239  0.89727795  0.29920288  1
  Mo  Mo201  1  0.89809016  0.10472350  0.70223312  1
  Mo  Mo202  1  -0.00924522  0.80262309  0.80359243  1
  Mo  Mo203  1  0.60011560  0.20491174  0.60039719  1
  Mo  Mo204  1  0.20777503  0.00331690  0.39855488  1
  Mo  Mo205  1  0.29710330  0.70340257  0.09527463  1
  Mo  Mo206  1  0.60176464  0.20198074  0.40849071  1
  Mo  Mo207  1  0.89045892  0.30077780  0.50341774  1
  Mo  Mo208  1  0.39939779  0.20522385  0.40228418  1
  Mo  Mo209  1  0.59921459  0.60226148  0.39471056  1
  Mo  Mo210  1  0.79445275  0.60181205  0.79669370  1
  Mo  Mo211  1  0.40104157  0.80175516  0.20013608  1
  Mo  Mo212  1  0.89657281  0.49861106  0.50914027  1
  Mo  Mo213  1  0.21075043  0.61774453  0.79954899  1
  Mo  Mo214  1  0.79537309  0.39709451  0.41139194  1
  Mo  Mo215  1  0.60650909  0.59672623  0.59932708  1
  Mo  Mo216  1  0.79945495  0.79447412  0.00065490  1
  Mo  Mo217  1  0.21269119  0.19879854  0.20586213  1
  Mo  Mo218  1  0.68607945  0.89802299  0.10493113  1
  Mo  Mo219  1  0.30861122  0.49973311  0.30946222  1
  Mo  Mo220  1  0.89787323  0.69752983  0.28655589  1
  Mo  Mo221  1  0.30968781  0.70008755  0.30376867  1
  Mo  Mo222  1  0.78754880  0.41219806  0.18846136  1
  Mo  Mo223  1  0.59770979  0.40390596  0.40318616  1
  Mo  Mo224  1  0.50150877  0.29879524  0.10390990  1
  Mo  Mo225  1  0.60452373  0.40047968  -0.00317928  1
  Mo  Mo226  1  0.69756362  0.09992405  0.30716038  1
  Mo  Mo227  1  0.50563694  0.10816963  0.50407142  1
  Mo  Mo228  1  0.18967224  0.60886124  -0.00151756  1
  Mo  Mo229  1  -0.00469698  -0.01072853  0.60860864  1
  Mo  Mo230  1  0.20021258  0.37895152  0.79894409  1
  Mo  Mo231  1  -0.01151775  0.59106180  0.61535312  1
  Mo  Mo232  1  0.79496428  0.39918941  0.79913012  1
  Mo  Mo233  1  0.40541000  0.40315801  0.40323281  1
  Mo  Mo234  1  0.60156937  0.00072109  0.60381834  1
  Mo  Mo235  1  0.60789252  0.60383204  -0.00485740  1
  Mo  Mo236  1  0.30468261  0.30112506  0.50345041  1
  Mo  Mo237  1  0.29732497  0.90464519  0.91234187  1
  Mo  Mo238  1  0.79638029  -0.00054106  0.79416644  1
  Mo  Mo239  1  0.01371385  -0.00602767  0.00368727  1
  Mo  Mo240  1  0.59243832  0.21150633  0.19623400  1
  Mo  Mo241  1  0.60311797  0.40195652  0.79190717  1
  Mo  Mo242  1  0.09887597  0.29614231  0.70155758  1
  Mo  Mo243  1  0.20160681  0.19803055  0.00315259  1
  Mo  Mo244  1  -0.00171178  0.59765874  0.38284091  1
  Mo  Mo245  1  0.69787961  0.50340389  0.29371732  1
  Mo  Mo246  1  0.40589345  0.60547215  -0.01210974  1
  Mo  Mo247  1  0.79493941  0.20191441  0.80491131  1
  Mo  Mo248  1  0.69837398  0.69645281  0.09818183  1
  Mo  Mo249  1  0.19873082  0.40221882  0.40047465  1
