# generated using pymatgen
data_HfZrTaTiMo
_symmetry_space_group_name_H-M   'P 1'
_cell_length_a   16.89485059
_cell_length_b   16.88883011
_cell_length_c   16.89719563
_cell_angle_alpha   89.99863504
_cell_angle_beta   90.01954028
_cell_angle_gamma   89.96635435
_symmetry_Int_Tables_number   1
_chemical_formula_structural   HfZrTaTiMo
_chemical_formula_sum   'Hf50 Zr50 Ta50 Ti50 Mo50'
_cell_volume   4821.34772042
_cell_formula_units_Z   50
loop_
 _symmetry_equiv_pos_site_id
 _symmetry_equiv_pos_as_xyz
  1  'x, y, z'
loop_
 _atom_site_type_symbol
 _atom_site_label
 _atom_site_symmetry_multiplicity
 _atom_site_fract_x
 _atom_site_fract_y
 _atom_site_fract_z
 _atom_site_occupancy
  Hf  Hf0  1  0.31550239  0.69633400  0.49964952  1
  Hf  Hf1  1  -0.00368943  0.60331622  0.39956820  1
  Hf  Hf2  1  0.40160773  0.00055271  0.19729711  1
  Hf  Hf3  1  0.79540562  0.60270145  0.39482618  1
  Hf  Hf4  1  0.28429822  0.11544074  0.10032670  1
  Hf  Hf5  1  0.79303900  0.39134892  0.40214937  1
  Hf  Hf6  1  0.40290738  0.20506540  0.60349373  1
  Hf  Hf7  1  0.30465412  0.70221511  0.10634327  1
  Hf  Hf8  1  0.08623015  0.11310667  0.69179701  1
  Hf  Hf9  1  0.10338117  0.49789638  0.89225999  1
  Hf  Hf10  1  0.30056741  0.90866257  0.89653400  1
  Hf  Hf11  1  0.89744945  0.90021459  0.70579317  1
  Hf  Hf12  1  0.20413035  0.79563864  0.39356388  1
  Hf  Hf13  1  0.79954818  0.59979571  0.20045462  1
  Hf  Hf14  1  0.80681326  -0.00549044  0.40129788  1
  Hf  Hf15  1  0.10091282  0.89919793  0.49781990  1
  Hf  Hf16  1  0.60575746  -0.01221259  0.40611397  1
  Hf  Hf17  1  0.60433981  0.20925851  0.41215680  1
  Hf  Hf18  1  0.20356685  0.79638619  0.79086903  1
  Hf  Hf19  1  0.80446651  -0.00400870  -0.00100589  1
  Hf  Hf20  1  0.39780465  0.81933529  0.20918190  1
  Hf  Hf21  1  0.09274745  0.89682706  0.89397521  1
  Hf  Hf22  1  0.59867018  0.59210158  0.00784156  1
  Hf  Hf23  1  0.40351437  0.58923079  -0.00163660  1
  Hf  Hf24  1  -0.00362486  0.20172109  -0.01120948  1
  Hf  Hf25  1  0.20098504  0.60267475  0.20671224  1
  Hf  Hf26  1  -0.00078471  0.00285473  -0.00118591  1
  Hf  Hf27  1  0.60362560  0.20527255  0.20530625  1
  Hf  Hf28  1  0.20701266  0.59063349  0.59949995  1
  Hf  Hf29  1  0.49996277  0.70033339  0.89949748  1
  Hf  Hf30  1  0.19788277  -0.00207336  0.21310363  1
  Hf  Hf31  1  0.40873372  0.00895246  0.00832831  1
  Hf  Hf32  1  0.89771290  0.89114743  0.50617461  1
  Hf  Hf33  1  0.89677152  0.69772843  0.69745264  1
  Hf  Hf34  1  0.08983772  0.50442371  0.10016184  1
  Hf  Hf35  1  0.40487276  0.81480431  0.00556402  1
  Hf  Hf36  1  0.38944257  0.58986495  0.79010295  1
  Hf  Hf37  1  0.29411414  0.30080745  0.30164695  1
  Hf  Hf38  1  -0.00322485  0.40311845  0.60508840  1
  Hf  Hf39  1  0.69995221  0.69843366  0.50228076  1
  Hf  Hf40  1  0.90011070  0.10491727  0.10948032  1
  Hf  Hf41  1  0.39791762  -0.01832269  0.39411213  1
  Hf  Hf42  1  0.00512885  0.78969742  0.60067805  1
  Hf  Hf43  1  -0.00173073  0.39004586  -0.00595182  1
  Hf  Hf44  1  0.79702708  0.59632187  0.79518452  1
  Hf  Hf45  1  0.50467768  0.48903316  0.88536778  1
  Hf  Hf46  1  0.70489162  0.10181022  0.30622181  1
  Hf  Hf47  1  0.40630007  0.80604317  0.78748651  1
  Hf  Hf48  1  0.00412821  0.79002086  0.00944904  1
  Hf  Hf49  1  0.29828958  0.10527393  0.89947546  1
  Zr  Zr50  1  0.40167019  0.40171841  0.20033975  1
  Zr  Zr51  1  0.29751083  0.49964761  0.10575038  1
  Zr  Zr52  1  0.40302473  0.20409102  0.19130655  1
  Zr  Zr53  1  0.59574573  0.39891296  0.41103510  1
  Zr  Zr54  1  0.51592303  0.30508090  0.09488995  1
  Zr  Zr55  1  0.60662766  0.61158726  0.78821890  1
  Zr  Zr56  1  0.80577576  0.79534270  0.00517200  1
  Zr  Zr57  1  0.89424087  0.50591103  0.50049912  1
  Zr  Zr58  1  0.90361514  0.89187199  0.89108237  1
  Zr  Zr59  1  0.78582985  0.79083541  0.80172503  1
  Zr  Zr60  1  0.29985119  0.10432557  0.69916792  1
  Zr  Zr61  1  0.20002947  0.59900877  -0.00262073  1
  Zr  Zr62  1  0.80788338  0.40308420  0.79346837  1
  Zr  Zr63  1  0.09145263  0.89701447  0.70184792  1
  Zr  Zr64  1  0.09838921  0.10182992  0.10846788  1
  Zr  Zr65  1  0.59826398  0.19963795  0.60120184  1
  Zr  Zr66  1  0.20351331  0.60031107  0.39630057  1
  Zr  Zr67  1  0.39712889  0.40425561  0.59341509  1
  Zr  Zr68  1  0.19145532  0.00891119  0.79835454  1
  Zr  Zr69  1  0.50500671  0.49935652  0.68971641  1
  Zr  Zr70  1  0.69980618  0.70009794  0.10605672  1
  Zr  Zr71  1  0.70106319  0.88882889  0.50458766  1
  Zr  Zr72  1  0.69776370  0.49040460  0.29386461  1
  Zr  Zr73  1  0.59353661  -0.00271300  0.19628371  1
  Zr  Zr74  1  0.10582145  0.29199034  0.10689673  1
  Zr  Zr75  1  0.49733718  0.07376900  0.51870206  1
  Zr  Zr76  1  0.19512643  0.20232737  0.59222123  1
  Zr  Zr77  1  0.30071925  0.69980457  0.89501125  1
  Zr  Zr78  1  0.28864115  0.30804955  0.49273863  1
  Zr  Zr79  1  0.41336197  0.21359021  0.41494299  1
  Zr  Zr80  1  0.09291388  0.69202759  0.89086704  1
  Zr  Zr81  1  -0.00438045  0.79402245  0.39675347  1
  Zr  Zr82  1  0.19473402  0.80230968  0.00924893  1
  Zr  Zr83  1  0.70031887  0.89101400  0.11022377  1
  Zr  Zr84  1  0.09301900  0.49747310  0.29867342  1
  Zr  Zr85  1  0.59594810  0.80250208  0.79313652  1
  Zr  Zr86  1  0.70549284  0.10681555  0.09559744  1
  Zr  Zr87  1  0.80476461  -0.00801402  0.21287405  1
  Zr  Zr88  1  0.80595837  0.39746597  -0.00021221  1
  Zr  Zr89  1  0.39625159  0.39980125  0.00059995  1
  Zr  Zr90  1  0.50208551  0.92405008  0.67433088  1
  Zr  Zr91  1  0.50557741  0.30358574  0.89257476  1
  Zr  Zr92  1  0.50039716  0.10075600  0.30858636  1
  Zr  Zr93  1  0.90310963  0.11254465  0.50545050  1
  Zr  Zr94  1  0.79681472  0.39575139  0.59520133  1
  Zr  Zr95  1  0.60106662  0.00760451  0.80293544  1
  Zr  Zr96  1  0.30268634  0.30357754  0.88748094  1
  Zr  Zr97  1  0.29484398  0.10791242  0.30752177  1
  Zr  Zr98  1  0.50027585  0.70580793  0.11097588  1
  Zr  Zr99  1  0.69739984  0.29976688  0.90306789  1
  Ta  Ta100  1  -0.00000032  0.20246165  0.21690663  1
  Ta  Ta101  1  0.90491548  0.50606286  0.90403058  1
  Ta  Ta102  1  0.90790808  0.89101563  0.11694800  1
  Ta  Ta103  1  0.29995190  0.90322711  0.69027711  1
  Ta  Ta104  1  0.10496597  0.68854537  0.70038405  1
  Ta  Ta105  1  0.00188413  0.59438690  0.60212688  1
  Ta  Ta106  1  0.68814147  0.71109177  0.29746162  1
  Ta  Ta107  1  -0.00333296  0.39177492  0.20488032  1
  Ta  Ta108  1  0.20048945  0.39501378  -0.00449829  1
  Ta  Ta109  1  0.80232106  0.21014081  0.21171657  1
  Ta  Ta110  1  0.50490597  0.30901889  0.70509691  1
  Ta  Ta111  1  0.09942103  0.30638709  0.69977277  1
  Ta  Ta112  1  0.70840075  0.09957897  0.70260305  1
  Ta  Ta113  1  0.70267916  0.50362266  0.90128219  1
  Ta  Ta114  1  0.30390778  0.69761395  0.69011707  1
  Ta  Ta115  1  0.70590655  0.30687250  0.10910087  1
  Ta  Ta116  1  0.10045117  0.49373979  0.50070810  1
  Ta  Ta117  1  0.31640142  0.69802830  0.30079641  1
  Ta  Ta118  1  0.60097580  0.19700537  0.79532732  1
  Ta  Ta119  1  0.19909403  0.80076516  0.20516436  1
  Ta  Ta120  1  0.50068429  0.69800376  0.30580014  1
  Ta  Ta121  1  0.18772688  0.20798549  0.80178367  1
  Ta  Ta122  1  0.90225815  0.10877408  0.30928979  1
  Ta  Ta123  1  0.30012452  0.89879036  0.50245764  1
  Ta  Ta124  1  -0.00244792  0.39344470  0.40143782  1
  Ta  Ta125  1  0.70233892  0.29431068  0.69723583  1
  Ta  Ta126  1  -0.00479041  0.01760323  0.80268778  1
  Ta  Ta127  1  0.80417659  0.00252161  0.60432775  1
  Ta  Ta128  1  0.19493686  0.00149835  0.59287523  1
  Ta  Ta129  1  0.40520531  0.00728017  0.79346718  1
  Ta  Ta130  1  0.90432759  0.28638425  0.69674665  1
  Ta  Ta131  1  0.20093983  0.39791704  0.20060222  1
  Ta  Ta132  1  0.70190393  0.51026014  0.67968051  1
  Ta  Ta133  1  0.59309865  0.59261046  0.20523861  1
  Ta  Ta134  1  -0.00313720  0.58706580  0.78767738  1
  Ta  Ta135  1  0.00157753  0.00285557  0.39902758  1
  Ta  Ta136  1  -0.00184450  0.00494314  0.59757048  1
  Ta  Ta137  1  0.89548835  0.10686250  0.70105969  1
  Ta  Ta138  1  0.89985057  0.49425516  0.29443949  1
  Ta  Ta139  1  0.59754894  0.80957915  -0.00155545  1
  Ta  Ta140  1  0.40198996  0.20186805  0.00239998  1
  Ta  Ta141  1  0.59355109  0.79356360  0.59846809  1
  Ta  Ta142  1  0.59526708  0.59770094  0.40411778  1
  Ta  Ta143  1  0.90399234  0.68827520  0.90042769  1
  Ta  Ta144  1  0.09391300  0.89828690  0.29970044  1
  Ta  Ta145  1  0.90384192  0.49959647  0.10507241  1
  Ta  Ta146  1  0.69861370  0.69592688  0.91225021  1
  Ta  Ta147  1  0.20370085  0.79682002  0.59758164  1
  Ta  Ta148  1  0.70372752  0.90336227  0.69537963  1
  Ta  Ta149  1  -0.00333123  0.39741794  0.79842616  1
  Ti  Ti150  1  0.09747840  0.30682312  0.50184408  1
  Ti  Ti151  1  -0.00202196  0.00131756  0.21429725  1
  Ti  Ti152  1  0.70339962  0.49063621  0.10684397  1
  Ti  Ti153  1  0.18894814  0.00431872  -0.00180734  1
  Ti  Ti154  1  0.40508062  0.59235024  0.20722175  1
  Ti  Ti155  1  0.70775294  0.09993312  0.89762435  1
  Ti  Ti156  1  0.19125446  0.20821088  -0.01426954  1
  Ti  Ti157  1  0.29003787  0.90873105  0.10024905  1
  Ti  Ti158  1  0.10395564  0.29870858  0.30402487  1
  Ti  Ti159  1  0.19462824  0.00059487  0.40073096  1
  Ti  Ti160  1  0.09018784  0.70155401  0.28607587  1
  Ti  Ti161  1  0.10464538  0.69201051  0.50357457  1
  Ti  Ti162  1  0.50093084  0.90700352  0.89880035  1
  Ti  Ti163  1  0.49277528  0.69020328  0.67930685  1
  Ti  Ti164  1  0.80712896  0.20717719  -0.00228003  1
  Ti  Ti165  1  0.61864237  0.40316399  0.78856731  1
  Ti  Ti166  1  0.89775249  0.29981959  0.11050347  1
  Ti  Ti167  1  0.40793788  0.20177565  0.79260562  1
  Ti  Ti168  1  0.90061850  0.70471630  0.28642505  1
  Ti  Ti169  1  0.00869711  0.20123210  0.40310962  1
  Ti  Ti170  1  0.40901270  0.80302315  0.40151355  1
  Ti  Ti171  1  0.30252253  0.49737249  0.49339721  1
  Ti  Ti172  1  0.89012304  0.10240632  0.89207596  1
  Ti  Ti173  1  0.29148176  0.31415961  0.70193249  1
  Ti  Ti174  1  0.11095829  0.49282591  0.70040645  1
  Ti  Ti175  1  0.09382372  0.89961002  0.11148511  1
  Ti  Ti176  1  0.29861788  0.09463271  0.49731770  1
  Ti  Ti177  1  0.49861821  0.10579306  0.89830798  1
  Ti  Ti178  1  0.50245271  0.30969830  0.30185423  1
  Ti  Ti179  1  0.40893332  0.58871608  0.40177711  1
  Ti  Ti180  1  0.59962322  0.19202592  -0.00259841  1
  Ti  Ti181  1  0.70693518  0.09934246  0.50976981  1
  Ti  Ti182  1  0.59655193  0.00112351  0.00221446  1
  Ti  Ti183  1  0.79291854  0.20928380  0.40550171  1
  Ti  Ti184  1  0.90200939  0.29267727  0.50458769  1
  Ti  Ti185  1  0.89988741  0.30006213  0.30588153  1
  Ti  Ti186  1  0.19733595  0.40858227  0.39566364  1
  Ti  Ti187  1  0.60438731  0.39926829  0.59007888  1
  Ti  Ti188  1  0.70036716  0.90298214  0.89795463  1
  Ti  Ti189  1  0.79947020  0.20416557  0.80221972  1
  Ti  Ti190  1  0.91266306  0.69034934  0.10678124  1
  Ti  Ti191  1  0.88804619  0.70057879  0.50772947  1
  Ti  Ti192  1  0.52185848  0.88432861  0.30300735  1
  Ti  Ti193  1  0.40545458  0.80445477  0.59219665  1
  Ti  Ti194  1  0.00075763  0.20700464  0.80920025  1
  Ti  Ti195  1  0.18248305  0.18902772  0.40340038  1
  Ti  Ti196  1  0.80263025  0.59584770  0.00433925  1
  Ti  Ti197  1  0.60489253  0.41035500  0.00526077  1
  Ti  Ti198  1  0.80074125  0.80235397  0.38338155  1
  Ti  Ti199  1  0.49934604  0.49535377  0.30209078  1
  Mo  Mo200  1  0.79917615  0.60214843  0.59795931  1
  Mo  Mo201  1  -0.00564774  0.59862836  0.20137288  1
  Mo  Mo202  1  0.79582833  0.79942649  0.60715109  1
  Mo  Mo203  1  0.90646960  0.89887397  0.30195532  1
  Mo  Mo204  1  0.49931266  0.50688003  0.49863397  1
  Mo  Mo205  1  0.60231815  0.40125606  0.20189197  1
  Mo  Mo206  1  0.09637892  0.10543569  0.89790101  1
  Mo  Mo207  1  0.50673590  0.10543438  0.08749498  1
  Mo  Mo208  1  0.29366553  0.49136925  0.88769571  1
  Mo  Mo209  1  0.29436418  0.49607365  0.69792709  1
  Mo  Mo210  1  0.50700910  0.90520854  0.09873118  1
  Mo  Mo211  1  0.59512619  0.79563104  0.20330936  1
  Mo  Mo212  1  0.30563289  0.49893925  0.30587428  1
  Mo  Mo213  1  0.79870534  0.19921233  0.60307625  1
  Mo  Mo214  1  0.80837385  0.79464583  0.20666139  1
  Mo  Mo215  1  0.00510102  0.79720739  0.19927269  1
  Mo  Mo216  1  -0.00701596  0.59667964  0.00209318  1
  Mo  Mo217  1  0.79980150  0.00803774  0.80198530  1
  Mo  Mo218  1  0.69395485  0.50698482  0.50149475  1
  Mo  Mo219  1  0.59426476  0.79206822  0.40309942  1
  Mo  Mo220  1  0.09310943  0.09906154  0.30841078  1
  Mo  Mo221  1  0.80823578  0.39506886  0.20003037  1
  Mo  Mo222  1  0.09788545  0.09491207  0.49750366  1
  Mo  Mo223  1  0.39216250  0.40000307  0.78858905  1
  Mo  Mo224  1  0.09810678  0.69906142  0.11074767  1
  Mo  Mo225  1  0.89963446  0.50021940  0.69930039  1
  Mo  Mo226  1  0.19486621  0.40328477  0.59774959  1
  Mo  Mo227  1  0.70141531  0.88687176  0.30430396  1
  Mo  Mo228  1  0.19759678  0.40076326  0.79527473  1
  Mo  Mo229  1  0.49969995  0.69826656  0.49589767  1
  Mo  Mo230  1  0.50152386  0.31247655  0.51020154  1
  Mo  Mo231  1  0.59701611  0.60119052  0.58883141  1
  Mo  Mo232  1  0.39954760  0.59845151  0.59266412  1
  Mo  Mo233  1  0.28919942  0.89455942  0.30761541  1
  Mo  Mo234  1  0.70183884  0.29435017  0.50643532  1
  Mo  Mo235  1  0.20177607  0.59377441  0.78852128  1
  Mo  Mo236  1  0.19246603  0.20476345  0.21511922  1
  Mo  Mo237  1  0.69895206  0.70272967  0.68530763  1
  Mo  Mo238  1  0.50644691  0.49973184  0.10974246  1
  Mo  Mo239  1  0.00063054  0.78024387  0.79761908  1
  Mo  Mo240  1  0.28733654  0.29822288  0.09374138  1
  Mo  Mo241  1  0.70396594  0.29776743  0.30240236  1
  Mo  Mo242  1  0.40052438  0.41044581  0.39605004  1
  Mo  Mo243  1  0.50013267  0.10702945  0.70557926  1
  Mo  Mo244  1  0.49766214  0.88998789  0.49918034  1
  Mo  Mo245  1  0.09978439  0.30314756  0.89226667  1
  Mo  Mo246  1  0.62216535  0.00228719  0.60046629  1
  Mo  Mo247  1  0.90060916  0.29731346  0.88835402  1
  Mo  Mo248  1  -0.00117691  0.20876945  0.59587212  1
  Mo  Mo249  1  0.37894537  0.00118830  0.59535561  1
