# generated using pymatgen
data_HfZrTaTiMo
_symmetry_space_group_name_H-M   'P 1'
_cell_length_a   16.88110345
_cell_length_b   16.87812547
_cell_length_c   16.89663682
_cell_angle_alpha   89.99447992
_cell_angle_beta   89.97992401
_cell_angle_gamma   90.01845016
_symmetry_Int_Tables_number   1
_chemical_formula_structural   HfZrTaTiMo
_chemical_formula_sum   'Hf50 Zr50 Ta50 Ti50 Mo50'
_cell_volume   4814.21254669
_cell_formula_units_Z   50
loop_
 _symmetry_equiv_pos_site_id
 _symmetry_equiv_pos_as_xyz
  1  'x, y, z'
loop_
 _atom_site_type_symbol
 _atom_site_label
 _atom_site_symmetry_multiplicity
 _atom_site_fract_x
 _atom_site_fract_y
 _atom_site_fract_z
 _atom_site_occupancy
  Hf  Hf0  1  0.89997460  0.29756675  0.50734163  1
  Hf  Hf1  1  0.28663620  0.89781609  0.10894069  1
  Hf  Hf2  1  0.39641353  0.00100584  -0.00133847  1
  Hf  Hf3  1  0.70199575  0.50216587  0.29800569  1
  Hf  Hf4  1  0.29550879  0.29836394  0.28683815  1
  Hf  Hf5  1  0.10448228  0.50014522  0.90177582  1
  Hf  Hf6  1  0.59696006  0.01021677  -0.00423337  1
  Hf  Hf7  1  0.39376811  0.00084341  0.20224466  1
  Hf  Hf8  1  0.58947699  0.79339015  0.20025240  1
  Hf  Hf9  1  0.80451794  0.00011590  0.79092345  1
  Hf  Hf10  1  0.70038187  0.70562913  0.89793308  1
  Hf  Hf11  1  0.50462605  0.70069542  0.90549399  1
  Hf  Hf12  1  0.10022740  0.09195407  0.29731694  1
  Hf  Hf13  1  0.89431966  0.69426079  0.71054545  1
  Hf  Hf14  1  0.79863715  0.80221271  0.59699696  1
  Hf  Hf15  1  0.60233121  0.39270857  0.80822035  1
  Hf  Hf16  1  0.09660396  0.90268509  0.09871662  1
  Hf  Hf17  1  0.19814857  0.80300169  0.80685448  1
  Hf  Hf18  1  0.70294558  0.50295469  0.90371916  1
  Hf  Hf19  1  0.90728029  0.09543939  0.50518012  1
  Hf  Hf20  1  0.79620614  0.39170632  0.18687180  1
  Hf  Hf21  1  0.90210759  0.49925878  0.09025065  1
  Hf  Hf22  1  0.30046190  0.29702255  0.50461164  1
  Hf  Hf23  1  0.20295553  0.39895415  0.60907499  1
  Hf  Hf24  1  0.50930887  0.10134765  0.29997153  1
  Hf  Hf25  1  0.00290914  0.39428790  0.39386567  1
  Hf  Hf26  1  0.50610163  0.91046262  0.30209003  1
  Hf  Hf27  1  0.29929088  0.49651898  0.70989968  1
  Hf  Hf28  1  0.69279543  0.69391963  0.30567535  1
  Hf  Hf29  1  0.49778405  0.49651918  0.70264076  1
  Hf  Hf30  1  0.09241153  0.28823258  0.51706439  1
  Hf  Hf31  1  0.30087440  0.30689073  0.09181234  1
  Hf  Hf32  1  0.59921028  0.59804904  0.79976815  1
  Hf  Hf33  1  0.61661550  0.20476662  0.18451980  1
  Hf  Hf34  1  0.79963378  0.60445596  0.19172890  1
  Hf  Hf35  1  0.50288922  0.29665903  0.29038054  1
  Hf  Hf36  1  0.80577432  0.60375445  -0.00490611  1
  Hf  Hf37  1  0.10012669  0.70589043  0.09066654  1
  Hf  Hf38  1  0.80421905  0.80012137  0.40312338  1
  Hf  Hf39  1  0.19074880  -0.00190551  0.60750022  1
  Hf  Hf40  1  0.49711686  0.50525294  0.09141938  1
  Hf  Hf41  1  0.40113529  0.19487528  0.60682021  1
  Hf  Hf42  1  0.10233121  0.09573331  0.10105567  1
  Hf  Hf43  1  0.19368001  -0.00942687  0.80596055  1
  Hf  Hf44  1  0.10535639  0.30709694  0.71146780  1
  Hf  Hf45  1  0.40241541  0.40099811  0.39550217  1
  Hf  Hf46  1  0.90313727  0.50045081  0.49385486  1
  Hf  Hf47  1  0.19846381  0.19519419  0.40155874  1
  Hf  Hf48  1  0.09499995  0.68813628  0.70859415  1
  Hf  Hf49  1  0.60539450  0.39580280  0.40034309  1
  Zr  Zr50  1  -0.00434977  0.79628893  0.39911945  1
  Zr  Zr51  1  0.29941941  0.90356845  0.49787877  1
  Zr  Zr52  1  0.80233559  0.60069880  0.60061736  1
  Zr  Zr53  1  0.09320885  0.11368106  0.70117933  1
  Zr  Zr54  1  0.79240804  0.17899295  0.61119186  1
  Zr  Zr55  1  0.49978062  0.90134848  0.70199480  1
  Zr  Zr56  1  -0.00502352  0.79770734  0.59744116  1
  Zr  Zr57  1  -0.00461987  0.39050848  -0.00680797  1
  Zr  Zr58  1  0.39713268  0.60128878  0.81180666  1
  Zr  Zr59  1  0.40165897  0.79689216  0.38778267  1
  Zr  Zr60  1  0.50149140  0.51392378  0.30122796  1
  Zr  Zr61  1  0.30788267  0.09244334  0.70725794  1
  Zr  Zr62  1  0.69440370  0.89528563  0.09789961  1
  Zr  Zr63  1  0.19363323  0.40950669  0.19526741  1
  Zr  Zr64  1  0.79916020  -0.00486596  -0.00158823  1
  Zr  Zr65  1  0.50372266  0.09055669  0.49506355  1
  Zr  Zr66  1  0.60045923  0.80663989  0.40905388  1
  Zr  Zr67  1  0.49808530  0.10528149  0.10208645  1
  Zr  Zr68  1  0.49718882  0.08453052  0.71524199  1
  Zr  Zr69  1  0.79200805  0.20710558  0.00504094  1
  Zr  Zr70  1  -0.01105524  0.80573956  0.20140199  1
  Zr  Zr71  1  0.30750340  0.70405027  0.69897594  1
  Zr  Zr72  1  0.80493072  -0.00016271  0.19843214  1
  Zr  Zr73  1  0.50320583  0.29549687  0.50291570  1
  Zr  Zr74  1  0.19698895  0.39856535  0.39663678  1
  Zr  Zr75  1  0.60496453  0.39898458  0.60625266  1
  Zr  Zr76  1  0.39893646  0.80318169  0.00133186  1
  Zr  Zr77  1  0.00009247  0.59906544  0.19348018  1
  Zr  Zr78  1  0.90483436  0.09871456  0.90670939  1
  Zr  Zr79  1  0.61384746  0.00331311  0.59928277  1
  Zr  Zr80  1  0.00010194  -0.00639332  0.80310571  1
  Zr  Zr81  1  0.80402475  0.80022816  0.19774145  1
  Zr  Zr82  1  0.80060012  0.40089329  0.60845880  1
  Zr  Zr83  1  -0.00390371  0.21465796  0.81440279  1
  Zr  Zr84  1  0.81034661  0.39648142  0.80404582  1
  Zr  Zr85  1  0.20310422  0.60744397  0.19782570  1
  Zr  Zr86  1  0.19753566  0.79068135  0.39140323  1
  Zr  Zr87  1  0.79682910  0.19866521  0.39698577  1
  Zr  Zr88  1  0.00318828  0.39617441  0.19289818  1
  Zr  Zr89  1  -0.00475265  0.19696538  0.38896045  1
  Zr  Zr90  1  0.59634590  0.19885064  0.80678646  1
  Zr  Zr91  1  0.18607499  0.79863333  0.60079295  1
  Zr  Zr92  1  0.10037941  0.50606237  0.50345612  1
  Zr  Zr93  1  0.50507488  0.68190911  0.48646375  1
  Zr  Zr94  1  0.39289956  0.19187962  0.39401249  1
  Zr  Zr95  1  0.31459704  0.90101558  0.69921662  1
  Zr  Zr96  1  0.30192497  0.69256599  0.49737350  1
  Zr  Zr97  1  0.30740969  0.50524647  0.49948684  1
  Zr  Zr98  1  0.00217941  0.81205758  0.80151386  1
  Zr  Zr99  1  0.09295966  0.91721135  0.48560207  1
  Ta  Ta100  1  0.69977793  0.09731901  0.29716589  1
  Ta  Ta101  1  0.80875785  0.80430016  -0.00432896  1
  Ta  Ta102  1  0.69993311  0.89894320  0.70150842  1
  Ta  Ta103  1  0.20211842  0.20113103  -0.00381381  1
  Ta  Ta104  1  0.60385609  0.39302820  -0.00081816  1
  Ta  Ta105  1  0.90642330  0.70040244  0.90027547  1
  Ta  Ta106  1  0.49548823  0.30543551  0.09570128  1
  Ta  Ta107  1  0.30421282  0.50414295  0.09206928  1
  Ta  Ta108  1  0.40879060  0.60012940  0.60388635  1
  Ta  Ta109  1  0.10091635  0.50084181  0.71238217  1
  Ta  Ta110  1  0.00173203  0.20677276  0.00513800  1
  Ta  Ta111  1  0.89838195  0.49875838  0.30161102  1
  Ta  Ta112  1  0.90516908  0.09919372  0.09774357  1
  Ta  Ta113  1  0.69084049  0.69824802  0.08655965  1
  Ta  Ta114  1  0.60654092  0.19291470  0.60702890  1
  Ta  Ta115  1  0.89747475  0.91125578  0.50019394  1
  Ta  Ta116  1  0.41883030  0.80129278  0.58560709  1
  Ta  Ta117  1  0.69313720  0.50326507  0.09293773  1
  Ta  Ta118  1  0.89480641  0.30021894  0.29225189  1
  Ta  Ta119  1  0.20800286  0.20554045  0.80582480  1
  Ta  Ta120  1  -0.00364320  0.40554799  0.61565211  1
  Ta  Ta121  1  0.09568232  0.51108314  0.30595175  1
  Ta  Ta122  1  0.20107681  0.80101229  -0.00890038  1
  Ta  Ta123  1  0.90059501  0.68725024  0.30733896  1
  Ta  Ta124  1  0.60168883  0.20602532  -0.00459956  1
  Ta  Ta125  1  0.39813217  0.79009728  0.20178174  1
  Ta  Ta126  1  0.60345881  0.60108796  0.60385234  1
  Ta  Ta127  1  0.80410921  0.80878856  0.80351374  1
  Ta  Ta128  1  0.39894001  0.19960422  -0.00427562  1
  Ta  Ta129  1  -0.00627268  0.20127384  0.19400345  1
  Ta  Ta130  1  -0.00797981  -0.00282286  0.61618014  1
  Ta  Ta131  1  0.29917327  0.10116750  0.90075286  1
  Ta  Ta132  1  0.30003629  0.30638452  0.90212687  1
  Ta  Ta133  1  0.79789581  0.20047110  0.80377595  1
  Ta  Ta134  1  0.09521013  0.09967932  0.50384095  1
  Ta  Ta135  1  -0.01170685  -0.00173066  0.20390295  1
  Ta  Ta136  1  0.10279209  0.10109943  0.90910094  1
  Ta  Ta137  1  0.69734887  0.70527321  0.70456349  1
  Ta  Ta138  1  0.10522749  0.90673289  0.29338038  1
  Ta  Ta139  1  0.69803285  0.50423029  0.49608093  1
  Ta  Ta140  1  0.40131212  0.40776954  0.19483481  1
  Ta  Ta141  1  0.60369630  0.80004856  0.59636879  1
  Ta  Ta142  1  0.69951286  0.90623529  0.30272594  1
  Ta  Ta143  1  0.50298662  0.70617731  0.69987754  1
  Ta  Ta144  1  0.20530625  0.60308012  0.81204595  1
  Ta  Ta145  1  0.30647964  0.51012223  0.29419117  1
  Ta  Ta146  1  0.59417158  0.60705584  0.19039415  1
  Ta  Ta147  1  0.09501550  0.69425758  0.90685533  1
  Ta  Ta148  1  0.39053495  -0.00054481  0.39495847  1
  Ta  Ta149  1  0.80417164  0.00545293  0.39554036  1
  Ti  Ti150  1  0.59321919  0.80414013  0.00206284  1
  Ti  Ti151  1  0.79979155  0.39269957  -0.00327558  1
  Ti  Ti152  1  0.79820826  0.39595681  0.39824650  1
  Ti  Ti153  1  0.29418672  0.09078783  0.50254365  1
  Ti  Ti154  1  0.20366674  0.60308553  0.39081917  1
  Ti  Ti155  1  0.49571533  0.49586206  0.90936901  1
  Ti  Ti156  1  0.28615881  0.90079708  0.29572036  1
  Ti  Ti157  1  0.50368461  0.90809444  0.89134823  1
  Ti  Ti158  1  0.50412456  0.50152460  0.50024031  1
  Ti  Ti159  1  0.90469231  0.28981901  0.69749542  1
  Ti  Ti160  1  0.11544176  0.30794295  0.90359064  1
  Ti  Ti161  1  0.70591059  0.91275704  0.49668084  1
  Ti  Ti162  1  0.39990010  0.39713910  0.60478972  1
  Ti  Ti163  1  0.90885349  0.70568628  0.08595229  1
  Ti  Ti164  1  0.69732226  0.09875859  0.89323048  1
  Ti  Ti165  1  -0.00941208  0.40308872  0.80418963  1
  Ti  Ti166  1  0.49097153  0.30375759  0.90859733  1
  Ti  Ti167  1  0.20879980  0.19884160  0.61017156  1
  Ti  Ti168  1  0.60766290  0.00494537  0.19265887  1
  Ti  Ti169  1  0.39582661  0.80183477  0.81310278  1
  Ti  Ti170  1  0.09673578  0.69960438  0.29548396  1
  Ti  Ti171  1  0.10376409  0.29070277  0.28792149  1
  Ti  Ti172  1  0.49740810  0.90151705  0.10451299  1
  Ti  Ti173  1  0.70276668  0.29675176  0.50623519  1
  Ti  Ti174  1  0.29841383  0.70109552  0.09983874  1
  Ti  Ti175  1  0.29458706  0.49173174  0.91345748  1
  Ti  Ti176  1  -0.01062058  0.58763708  0.80852007  1
  Ti  Ti177  1  0.80284126  0.60116937  0.40408737  1
  Ti  Ti178  1  0.39704067  0.39338309  0.80447618  1
  Ti  Ti179  1  0.39399991  0.60791578  0.00007567  1
  Ti  Ti180  1  0.61165627  0.19691612  0.40522368  1
  Ti  Ti181  1  0.69550194  0.89957279  0.89509423  1
  Ti  Ti182  1  0.70023053  0.29194080  0.70521192  1
  Ti  Ti183  1  0.49650995  0.29829066  0.70310065  1
  Ti  Ti184  1  0.80151170  0.19878933  0.19278450  1
  Ti  Ti185  1  0.69765091  0.69163204  0.50065395  1
  Ti  Ti186  1  0.60170444  0.40113352  0.19213743  1
  Ti  Ti187  1  0.70250022  0.29885722  0.29640440  1
  Ti  Ti188  1  0.09053954  0.68332750  0.49369829  1
  Ti  Ti189  1  0.39859666  0.20226262  0.80788209  1
  Ti  Ti190  1  0.20085505  -0.00325806  -0.00692728  1
  Ti  Ti191  1  0.11002694  0.29419360  0.09781327  1
  Ti  Ti192  1  0.10834084  0.50939606  0.08058433  1
  Ti  Ti193  1  0.20083884  0.59965145  0.60794887  1
  Ti  Ti194  1  0.70826468  0.50873457  0.70621477  1
  Ti  Ti195  1  0.28517617  0.09577542  0.28940262  1
  Ti  Ti196  1  0.28834486  0.10389968  0.10185924  1
  Ti  Ti197  1  0.39473099  0.19942506  0.19325754  1
  Ti  Ti198  1  0.60122160  0.80430105  0.79699620  1
  Ti  Ti199  1  -0.00557866  0.59517221  0.60354166  1
  Mo  Mo200  1  0.89894467  0.69270395  0.49839105  1
  Mo  Mo201  1  0.00023732  0.60276520  -0.00640701  1
  Mo  Mo202  1  -0.00402931  0.19908842  0.60933301  1
  Mo  Mo203  1  0.29709207  0.90248468  0.90445206  1
  Mo  Mo204  1  0.09892801  0.90243702  0.91308495  1
  Mo  Mo205  1  0.80173496  -0.00557300  0.59998493  1
  Mo  Mo206  1  0.20628492  0.40248801  0.80635113  1
  Mo  Mo207  1  0.49703877  0.69888796  0.09619688  1
  Mo  Mo208  1  0.20710250  0.60431740  -0.00228195  1
  Mo  Mo209  1  0.89450826  0.29967353  0.90369297  1
  Mo  Mo210  1  0.69879442  0.30183586  0.90044165  1
  Mo  Mo211  1  0.89665415  0.10306951  0.29114161  1
  Mo  Mo212  1  0.90542862  0.90255366  0.09108707  1
  Mo  Mo213  1  0.29662726  0.70084320  0.90603243  1
  Mo  Mo214  1  0.69811662  0.09580054  0.71406125  1
  Mo  Mo215  1  0.49299349  0.10603258  0.90351469  1
  Mo  Mo216  1  -0.00151226  0.80532972  -0.00509423  1
  Mo  Mo217  1  0.00093011  0.00100367  0.00407290  1
  Mo  Mo218  1  0.59937525  0.59730800  -0.00167964  1
  Mo  Mo219  1  0.30689939  0.29975278  0.70974850  1
  Mo  Mo220  1  0.80081477  0.60578513  0.80219219  1
  Mo  Mo221  1  0.39998188  0.60654921  0.19346201  1
  Mo  Mo222  1  0.89267480  0.89812990  0.69341191  1
  Mo  Mo223  1  0.90008814  0.90617109  0.30956795  1
  Mo  Mo224  1  0.89772465  0.10039234  0.70334877  1
  Mo  Mo225  1  0.70161266  0.10173720  0.09933066  1
  Mo  Mo226  1  0.60796876  0.59341481  0.40256770  1
  Mo  Mo227  1  0.40435826  -0.00476486  0.58034489  1
  Mo  Mo228  1  0.90144783  0.89602931  0.90499627  1
  Mo  Mo229  1  0.39907793  0.59642031  0.39478233  1
  Mo  Mo230  1  0.20107027  0.79836926  0.20070642  1
  Mo  Mo231  1  0.30470684  0.69482093  0.29272504  1
  Mo  Mo232  1  0.60783348  -0.00511718  0.80741390  1
  Mo  Mo233  1  0.19916794  -0.00105900  0.20043391  1
  Mo  Mo234  1  0.70152788  0.09845428  0.48898385  1
  Mo  Mo235  1  0.20181502  0.40007600  0.00048532  1
  Mo  Mo236  1  0.61362426  0.00284744  0.39704727  1
  Mo  Mo237  1  0.89842911  0.29421258  0.09921736  1
  Mo  Mo238  1  0.69576209  0.30810006  0.09633723  1
  Mo  Mo239  1  0.49759362  0.69647896  0.29331884  1
  Mo  Mo240  1  0.20201653  0.00670329  0.39691744  1
  Mo  Mo241  1  -0.00561305  0.00052933  0.39131491  1
  Mo  Mo242  1  0.90805727  0.50255898  0.70557366  1
  Mo  Mo243  1  0.39719501  -0.00751418  0.82408995  1
  Mo  Mo244  1  0.90004287  0.50165151  0.89977971  1
  Mo  Mo245  1  -0.00009771  0.59986692  0.39690304  1
  Mo  Mo246  1  0.50121454  0.90522716  0.49706155  1
  Mo  Mo247  1  0.19621706  0.19707041  0.18994388  1
  Mo  Mo248  1  0.09596507  0.89532026  0.69604401  1
  Mo  Mo249  1  0.40426559  0.40089069  -0.00381495  1
