# generated using pymatgen
data_HfZrTaTiMo
_symmetry_space_group_name_H-M   'P 1'
_cell_length_a   16.88320886
_cell_length_b   16.88814506
_cell_length_c   16.88455334
_cell_angle_alpha   90.01544556
_cell_angle_beta   90.02637896
_cell_angle_gamma   90.02573244
_symmetry_Int_Tables_number   1
_chemical_formula_structural   HfZrTaTiMo
_chemical_formula_sum   'Hf50 Zr50 Ta50 Ti50 Mo50'
_cell_volume   4814.22533994
_cell_formula_units_Z   50
loop_
 _symmetry_equiv_pos_site_id
 _symmetry_equiv_pos_as_xyz
  1  'x, y, z'
loop_
 _atom_site_type_symbol
 _atom_site_label
 _atom_site_symmetry_multiplicity
 _atom_site_fract_x
 _atom_site_fract_y
 _atom_site_fract_z
 _atom_site_occupancy
  Hf  Hf0  1  0.21123937  0.00442132  0.42047055  1
  Hf  Hf1  1  0.08587387  0.71433745  0.50703464  1
  Hf  Hf2  1  0.00473677  0.39512195  -0.00479195  1
  Hf  Hf3  1  0.59544626  -0.00875835  0.40149791  1
  Hf  Hf4  1  0.39594965  -0.00161063  0.59561346  1
  Hf  Hf5  1  0.40137015  0.80759647  0.20610154  1
  Hf  Hf6  1  0.29719748  0.49781066  0.49865589  1
  Hf  Hf7  1  0.19583324  0.19375246  0.59847496  1
  Hf  Hf8  1  0.00677293  0.00318068  0.40610879  1
  Hf  Hf9  1  0.19874150  0.00431292  0.80057174  1
  Hf  Hf10  1  0.59081569  0.19914683  0.60860984  1
  Hf  Hf11  1  0.20130450  0.80001590  0.80450202  1
  Hf  Hf12  1  0.70778086  0.49515649  0.08940453  1
  Hf  Hf13  1  0.29972625  0.69720073  0.70612395  1
  Hf  Hf14  1  0.50279990  0.30452654  0.50083462  1
  Hf  Hf15  1  0.49288494  0.28492792  0.90734823  1
  Hf  Hf16  1  0.69842475  0.49502633  0.49657165  1
  Hf  Hf17  1  0.90383814  0.30372775  0.29659885  1
  Hf  Hf18  1  0.50528901  0.49820442  0.49636093  1
  Hf  Hf19  1  0.19927918  0.60681906  0.40369505  1
  Hf  Hf20  1  0.19662468  0.60162514  0.19870933  1
  Hf  Hf21  1  0.59644891  0.60587988  -0.01033158  1
  Hf  Hf22  1  0.70047062  0.09838129  0.70376008  1
  Hf  Hf23  1  0.29671731  0.50211174  0.90355434  1
  Hf  Hf24  1  0.40085123  -0.00355967  0.40143903  1
  Hf  Hf25  1  0.70761173  0.71005207  0.28788354  1
  Hf  Hf26  1  0.30077904  0.10099286  0.70150668  1
  Hf  Hf27  1  0.81458007  0.59343508  0.78669143  1
  Hf  Hf28  1  0.60262276  0.79504540  0.40684898  1
  Hf  Hf29  1  0.00687710  0.20410945  -0.00294613  1
  Hf  Hf30  1  0.39960084  0.39449206  0.39077458  1
  Hf  Hf31  1  0.09546185  0.49726271  0.29364978  1
  Hf  Hf32  1  0.90244137  0.70963787  0.29796127  1
  Hf  Hf33  1  0.70980493  0.89581825  0.29953734  1
  Hf  Hf34  1  0.50115898  0.11354763  0.09416483  1
  Hf  Hf35  1  0.19628522  0.39983968  0.61525764  1
  Hf  Hf36  1  0.69754047  0.10661443  0.09567572  1
  Hf  Hf37  1  0.30087360  0.90972463  0.90268489  1
  Hf  Hf38  1  -0.00731699  0.79798315  0.00868192  1
  Hf  Hf39  1  0.70850258  0.10328482  0.49472180  1
  Hf  Hf40  1  0.70720988  0.49788034  0.89827003  1
  Hf  Hf41  1  0.09258707  0.70103425  0.70528307  1
  Hf  Hf42  1  0.69680911  0.69545825  0.70715049  1
  Hf  Hf43  1  0.29963325  0.30020841  0.50440836  1
  Hf  Hf44  1  0.70352741  0.90206643  0.10108160  1
  Hf  Hf45  1  -0.01377482  0.79797773  0.80882693  1
  Hf  Hf46  1  0.00680815  0.20494467  0.60533523  1
  Hf  Hf47  1  0.79357481  0.78807745  0.59681920  1
  Hf  Hf48  1  0.09724427  0.89422739  0.30629772  1
  Hf  Hf49  1  0.60328579  0.01280582  -0.01632169  1
  Zr  Zr50  1  0.40611940  0.61100127  0.39967216  1
  Zr  Zr51  1  0.50427446  0.49632147  0.29859719  1
  Zr  Zr52  1  0.19895792  0.79729052  0.00230639  1
  Zr  Zr53  1  0.20523975  -0.00268915  0.19828728  1
  Zr  Zr54  1  0.28954433  0.29731575  0.30149564  1
  Zr  Zr55  1  0.20521559  0.80017782  0.40629963  1
  Zr  Zr56  1  0.89590406  0.09956973  0.49932478  1
  Zr  Zr57  1  0.79778099  0.21110872  0.19366382  1
  Zr  Zr58  1  0.09455963  0.90665476  0.90587730  1
  Zr  Zr59  1  0.01621362  0.20488102  0.40143827  1
  Zr  Zr60  1  0.89459939  0.30178074  0.49647381  1
  Zr  Zr61  1  0.50270025  0.70578292  0.70010919  1
  Zr  Zr62  1  0.68490770  0.89057852  0.70304121  1
  Zr  Zr63  1  0.70357975  0.29153110  0.70827076  1
  Zr  Zr64  1  0.80038477  -0.00107564  0.80912063  1
  Zr  Zr65  1  0.89876362  0.10000446  0.70096514  1
  Zr  Zr66  1  0.89305512  0.10183466  0.30623790  1
  Zr  Zr67  1  0.49754211  0.49604025  0.09558713  1
  Zr  Zr68  1  0.89394947  0.09821857  0.08947159  1
  Zr  Zr69  1  0.10761936  0.09865770  0.29878083  1
  Zr  Zr70  1  0.80918587  0.80011825  -0.00154943  1
  Zr  Zr71  1  0.60446729  0.60228848  0.59578468  1
  Zr  Zr72  1  0.70409815  0.10199725  0.30176243  1
  Zr  Zr73  1  0.79548366  0.60190326  0.39767932  1
  Zr  Zr74  1  0.50549029  0.69951999  0.10763020  1
  Zr  Zr75  1  0.60806215  0.59569591  0.20402203  1
  Zr  Zr76  1  0.59204123  0.39992147  0.79624260  1
  Zr  Zr77  1  0.19226591  0.20455398  0.19046566  1
  Zr  Zr78  1  0.08923849  0.90173873  0.69592236  1
  Zr  Zr79  1  0.00754171  0.20642501  0.18728422  1
  Zr  Zr80  1  0.39987973  0.40011197  0.80096233  1
  Zr  Zr81  1  0.39990511  0.59903332  0.60250417  1
  Zr  Zr82  1  0.40549185  0.79716157  -0.00776921  1
  Zr  Zr83  1  0.81185934  0.39664195  0.79546153  1
  Zr  Zr84  1  0.09533051  0.50066805  0.50688856  1
  Zr  Zr85  1  0.40975414  0.40238451  0.61732681  1
  Zr  Zr86  1  -0.00380886  0.59920878  0.39570562  1
  Zr  Zr87  1  0.39833502  0.00241218  0.20252059  1
  Zr  Zr88  1  0.60477133  0.79723001  -0.00219522  1
  Zr  Zr89  1  0.79410114  -0.01455644  0.59597472  1
  Zr  Zr90  1  -0.01750488  0.60360664  0.61429188  1
  Zr  Zr91  1  0.58733908  -0.00945121  0.59695556  1
  Zr  Zr92  1  0.79546955  0.40589191  0.38638042  1
  Zr  Zr93  1  0.59568737  0.20395557  0.39785288  1
  Zr  Zr94  1  0.90780219  0.88871862  0.49401158  1
  Zr  Zr95  1  0.50508353  0.29641219  0.09884987  1
  Zr  Zr96  1  0.50658178  0.90620281  0.10016564  1
  Zr  Zr97  1  0.59328802  0.79388486  0.81706794  1
  Zr  Zr98  1  0.18462530  0.20357938  0.79958177  1
  Zr  Zr99  1  0.30413693  0.69214041  0.09705309  1
  Ta  Ta100  1  0.40350517  0.19740269  0.60455235  1
  Ta  Ta101  1  0.70074420  0.30227014  0.50279528  1
  Ta  Ta102  1  0.89855721  0.49553443  0.50405290  1
  Ta  Ta103  1  0.89958669  0.89834738  0.30242144  1
  Ta  Ta104  1  0.39542073  0.39831604  -0.00186028  1
  Ta  Ta105  1  0.39255099  0.39716170  0.19674573  1
  Ta  Ta106  1  0.80586839  -0.00393856  0.19670784  1
  Ta  Ta107  1  0.20828351  0.80272320  0.60102069  1
  Ta  Ta108  1  -0.00233672  0.20801450  0.80093688  1
  Ta  Ta109  1  0.39749389  0.19427484  0.40102288  1
  Ta  Ta110  1  0.09866510  0.90253224  0.51395458  1
  Ta  Ta111  1  0.71440911  0.68841978  0.89950303  1
  Ta  Ta112  1  0.61211157  0.39289572  0.20140362  1
  Ta  Ta113  1  0.09444418  0.68859618  0.90333236  1
  Ta  Ta114  1  0.59958550  0.00204252  0.20610008  1
  Ta  Ta115  1  0.10300863  0.30807929  0.50160928  1
  Ta  Ta116  1  0.09200814  0.50058278  0.71257698  1
  Ta  Ta117  1  0.20004947  0.80055438  0.19840756  1
  Ta  Ta118  1  0.00060948  0.80298241  0.19314743  1
  Ta  Ta119  1  0.39783410  0.59583629  0.20369955  1
  Ta  Ta120  1  0.70130197  0.29387128  0.90249912  1
  Ta  Ta121  1  0.29816411  0.49668297  0.09663505  1
  Ta  Ta122  1  0.30402742  0.11140612  0.90178819  1
  Ta  Ta123  1  0.59130918  0.18719498  0.80637433  1
  Ta  Ta124  1  0.30213178  0.68795955  0.89831532  1
  Ta  Ta125  1  0.09605356  0.69753316  0.10074164  1
  Ta  Ta126  1  0.19847041  0.60438611  0.60366044  1
  Ta  Ta127  1  0.29981287  0.10916946  0.09127745  1
  Ta  Ta128  1  -0.00100254  -0.00228678  0.19409099  1
  Ta  Ta129  1  0.29577940  0.30322547  0.08973779  1
  Ta  Ta130  1  0.19361578  0.59607289  0.00022918  1
  Ta  Ta131  1  0.40659057  0.00504222  0.79713186  1
  Ta  Ta132  1  0.49989455  0.10626116  0.29328518  1
  Ta  Ta133  1  0.19196737  0.39627021  0.80495019  1
  Ta  Ta134  1  0.39998189  0.80646529  0.80043527  1
  Ta  Ta135  1  0.90207915  0.68276396  0.90499092  1
  Ta  Ta136  1  0.60287981  0.40190396  0.61290137  1
  Ta  Ta137  1  0.79976522  0.59572107  0.60081878  1
  Ta  Ta138  1  0.10055965  0.90184011  0.10101888  1
  Ta  Ta139  1  0.19627043  0.39906497  0.19296577  1
  Ta  Ta140  1  0.49764618  0.90805304  0.89671914  1
  Ta  Ta141  1  0.30245424  0.70208417  0.29831519  1
  Ta  Ta142  1  -0.00574623  0.39574788  0.61384225  1
  Ta  Ta143  1  0.40132273  0.01040462  -0.00475094  1
  Ta  Ta144  1  0.80553037  0.79932150  0.80637657  1
  Ta  Ta145  1  0.29541844  0.50059235  0.29591386  1
  Ta  Ta146  1  0.71340552  0.69566667  0.09730308  1
  Ta  Ta147  1  0.39420616  0.20360912  0.19942565  1
  Ta  Ta148  1  0.80011637  0.40558767  0.60877643  1
  Ta  Ta149  1  0.30218641  0.29373097  0.70912614  1
  Ti  Ti150  1  0.59901788  0.39747322  -0.00658148  1
  Ti  Ti151  1  0.70025762  0.29946891  0.08531704  1
  Ti  Ti152  1  0.29992578  0.90484970  0.09414883  1
  Ti  Ti153  1  0.89465549  0.49519646  0.09199907  1
  Ti  Ti154  1  0.80069322  0.19250221  -0.01777015  1
  Ti  Ti155  1  -0.00120687  0.59457070  0.00572587  1
  Ti  Ti156  1  0.29342190  0.50491695  0.70959498  1
  Ti  Ti157  1  0.09593118  0.49892362  0.89727942  1
  Ti  Ti158  1  0.19172808  0.59741094  0.80291391  1
  Ti  Ti159  1  0.90563609  0.49781349  0.90142171  1
  Ti  Ti160  1  0.30123630  0.10518088  0.30081844  1
  Ti  Ti161  1  0.09672535  0.10074777  0.90219761  1
  Ti  Ti162  1  0.60556672  0.39722697  0.38853983  1
  Ti  Ti163  1  -0.00503190  0.60126010  0.19048818  1
  Ti  Ti164  1  0.49652522  0.10284199  0.49687862  1
  Ti  Ti165  1  0.09590665  0.70519713  0.29598890  1
  Ti  Ti166  1  0.48996784  0.88187207  0.49850883  1
  Ti  Ti167  1  0.19229262  0.39857155  0.39536719  1
  Ti  Ti168  1  0.31122676  0.70995599  0.50215984  1
  Ti  Ti169  1  0.40149267  0.80504991  0.60498002  1
  Ti  Ti170  1  0.30281395  0.89294269  0.30983494  1
  Ti  Ti171  1  0.10307713  0.49729302  0.09514212  1
  Ti  Ti172  1  0.69957072  0.29470445  0.29868763  1
  Ti  Ti173  1  0.00159554  0.00685664  0.00567330  1
  Ti  Ti174  1  0.90340118  0.49653940  0.28943441  1
  Ti  Ti175  1  0.89797426  0.29686061  0.89627030  1
  Ti  Ti176  1  0.80700957  0.59510288  0.19428316  1
  Ti  Ti177  1  0.18979783  0.20588123  -0.00094334  1
  Ti  Ti178  1  0.80373315  0.20883998  0.60530413  1
  Ti  Ti179  1  0.81887874  0.80352840  0.18202099  1
  Ti  Ti180  1  0.29476156  0.29714102  0.90255049  1
  Ti  Ti181  1  0.49679483  0.50420156  0.90075102  1
  Ti  Ti182  1  0.29872037  0.90269597  0.69817434  1
  Ti  Ti183  1  0.59015427  0.00454343  0.79857450  1
  Ti  Ti184  1  0.88909487  0.30789946  0.08795693  1
  Ti  Ti185  1  0.19886429  0.01090080  0.00425880  1
  Ti  Ti186  1  0.89972695  0.70389316  0.49529614  1
  Ti  Ti187  1  0.41085275  0.59997141  0.80257895  1
  Ti  Ti188  1  0.00560432  0.39470224  0.18837974  1
  Ti  Ti189  1  0.50175981  0.29352054  0.29000571  1
  Ti  Ti190  1  0.70189109  0.90245728  0.90119874  1
  Ti  Ti191  1  0.79559388  0.40182351  0.19659601  1
  Ti  Ti192  1  -0.00710455  0.00774053  0.80675255  1
  Ti  Ti193  1  0.19934063  0.19523354  0.40986973  1
  Ti  Ti194  1  0.89793165  0.91578393  0.91387158  1
  Ti  Ti195  1  0.50213009  0.70955388  0.29918948  1
  Ti  Ti196  1  0.90464891  0.89712484  0.69482623  1
  Ti  Ti197  1  0.00256936  0.40088564  0.40061106  1
  Ti  Ti198  1  0.60487348  0.60813764  0.39810416  1
  Ti  Ti199  1  0.09246545  0.08607507  0.69223506  1
  Mo  Mo200  1  0.61191660  0.20316316  -0.00570413  1
  Mo  Mo201  1  0.59636597  0.79799384  0.58865585  1
  Mo  Mo202  1  0.80671520  0.39385432  -0.00588595  1
  Mo  Mo203  1  0.00044346  0.59473839  0.80921469  1
  Mo  Mo204  1  0.10369125  0.09117072  0.09033393  1
  Mo  Mo205  1  0.59788240  0.20525801  0.19800761  1
  Mo  Mo206  1  0.70185543  0.10524021  0.89484946  1
  Mo  Mo207  1  0.79850685  0.00108607  -0.00180166  1
  Mo  Mo208  1  0.10516307  0.09668857  0.51143891  1
  Mo  Mo209  1  0.30553532  0.10584505  0.50213595  1
  Mo  Mo210  1  -0.00843491  0.79973246  0.60717086  1
  Mo  Mo211  1  0.30346179  0.89205217  0.50904841  1
  Mo  Mo212  1  0.80012548  -0.01179877  0.39605244  1
  Mo  Mo213  1  0.80018392  0.79730729  0.40492188  1
  Mo  Mo214  1  0.09910700  0.31223702  0.30345794  1
  Mo  Mo215  1  0.49661719  0.09644481  0.70327183  1
  Mo  Mo216  1  0.39756186  0.19846899  0.80056198  1
  Mo  Mo217  1  0.70181021  0.49756302  0.29049806  1
  Mo  Mo218  1  0.40330680  0.80076969  0.39774841  1
  Mo  Mo219  1  0.89530821  0.70841899  0.70823456  1
  Mo  Mo220  1  0.19945279  0.40295786  -0.00375404  1
  Mo  Mo221  1  0.90505230  0.90879967  0.10237357  1
  Mo  Mo222  1  0.10007606  0.30259882  0.89726536  1
  Mo  Mo223  1  0.70287288  0.69586000  0.49760685  1
  Mo  Mo224  1  0.09758061  0.30754480  0.70381923  1
  Mo  Mo225  1  0.49503764  0.10122918  0.89782394  1
  Mo  Mo226  1  0.20089264  -0.00375733  0.60188558  1
  Mo  Mo227  1  0.00060848  0.00002787  0.60063394  1
  Mo  Mo228  1  0.59977004  0.80574029  0.20429336  1
  Mo  Mo229  1  0.90244938  0.29726876  0.70376172  1
  Mo  Mo230  1  0.49266770  0.89969190  0.70407507  1
  Mo  Mo231  1  0.51149094  0.51011394  0.70917633  1
  Mo  Mo232  1  0.00303457  0.39813387  0.80497208  1
  Mo  Mo233  1  0.70236186  0.49952895  0.69715554  1
  Mo  Mo234  1  0.79507551  0.21457391  0.40345754  1
  Mo  Mo235  1  0.10670901  0.31373460  0.09178911  1
  Mo  Mo236  1  0.90394647  0.68523370  0.10185536  1
  Mo  Mo237  1  0.80747373  0.59372826  -0.00061424  1
  Mo  Mo238  1  0.48694211  0.69397856  0.89791451  1
  Mo  Mo239  1  0.90472352  0.49294179  0.69831786  1
  Mo  Mo240  1  0.80347285  0.19795920  0.80856751  1
  Mo  Mo241  1  0.90608490  0.10187892  0.89844537  1
  Mo  Mo242  1  0.70560094  0.89313833  0.49285898  1
  Mo  Mo243  1  0.38627999  0.20318512  -0.00007764  1
  Mo  Mo244  1  0.50677559  0.90173255  0.30014182  1
  Mo  Mo245  1  0.49625682  0.28821594  0.70585335  1
  Mo  Mo246  1  0.59950967  0.59547533  0.80360340  1
  Mo  Mo247  1  0.39755505  0.59215711  -0.00212661  1
  Mo  Mo248  1  0.50155512  0.70772254  0.50250676  1
  Mo  Mo249  1  0.00142100  0.80027133  0.39269773  1
