# generated using pymatgen
data_HfZrTaTiMo
_symmetry_space_group_name_H-M   'P 1'
_cell_length_a   16.89658122
_cell_length_b   16.88912231
_cell_length_c   16.88109635
_cell_angle_alpha   90.00387220
_cell_angle_beta   89.99694942
_cell_angle_gamma   90.00597868
_symmetry_Int_Tables_number   1
_chemical_formula_structural   HfZrTaTiMo
_chemical_formula_sum   'Hf50 Zr50 Ta50 Ti50 Mo50'
_cell_volume   4817.33186594
_cell_formula_units_Z   50
loop_
 _symmetry_equiv_pos_site_id
 _symmetry_equiv_pos_as_xyz
  1  'x, y, z'
loop_
 _atom_site_type_symbol
 _atom_site_label
 _atom_site_symmetry_multiplicity
 _atom_site_fract_x
 _atom_site_fract_y
 _atom_site_fract_z
 _atom_site_occupancy
  Hf  Hf0  1  0.81318314  0.60166440  0.58882322  1
  Hf  Hf1  1  0.80964325  0.18806889  0.40245426  1
  Hf  Hf2  1  0.81560441  0.60938044  0.20086780  1
  Hf  Hf3  1  -0.00418884  0.40762240  0.79339239  1
  Hf  Hf4  1  0.40377853  -0.00277568  0.40424296  1
  Hf  Hf5  1  0.79358207  0.00052976  -0.00092299  1
  Hf  Hf6  1  0.50862619  0.49057711  0.69435646  1
  Hf  Hf7  1  0.70560781  0.50447347  0.29742931  1
  Hf  Hf8  1  0.00492063  0.79715941  0.18736516  1
  Hf  Hf9  1  0.30457447  0.70136241  0.31061262  1
  Hf  Hf10  1  0.81021090  0.60634293  -0.00114725  1
  Hf  Hf11  1  -0.00197898  0.40492421  -0.00012365  1
  Hf  Hf12  1  0.08472267  0.29381721  0.10666693  1
  Hf  Hf13  1  0.19340948  0.79945870  0.39737394  1
  Hf  Hf14  1  0.20817473  0.79585782  0.80435393  1
  Hf  Hf15  1  0.29935898  0.08632477  0.09602607  1
  Hf  Hf16  1  0.80384202  0.79943380  0.00519166  1
  Hf  Hf17  1  0.39586584  0.79757007  -0.00741960  1
  Hf  Hf18  1  0.80130359  0.00248036  0.58619839  1
  Hf  Hf19  1  0.09449240  0.70247094  0.69340792  1
  Hf  Hf20  1  0.10016658  0.29233255  0.69710318  1
  Hf  Hf21  1  0.70419557  0.49644814  0.89500208  1
  Hf  Hf22  1  0.19239886  0.80360037  0.20232057  1
  Hf  Hf23  1  0.09561616  0.29313113  0.89892078  1
  Hf  Hf24  1  0.10349899  0.09828849  0.69185443  1
  Hf  Hf25  1  0.18616154  0.79578559  0.00023446  1
  Hf  Hf26  1  0.29347364  0.09866302  0.30454649  1
  Hf  Hf27  1  0.49493224  0.29324519  0.10406211  1
  Hf  Hf28  1  0.21698443  0.21123833  0.59590072  1
  Hf  Hf29  1  0.29792202  0.09846828  0.70555426  1
  Hf  Hf30  1  0.39313137  0.60042801  -0.00388729  1
  Hf  Hf31  1  0.49334910  0.09443138  0.10028496  1
  Hf  Hf32  1  0.80067905  0.39147840  0.01067986  1
  Hf  Hf33  1  0.79172983  0.80553212  0.58730507  1
  Hf  Hf34  1  0.38818261  0.40256596  0.40650464  1
  Hf  Hf35  1  0.10259361  0.09467611  0.49347319  1
  Hf  Hf36  1  0.38140948  0.39578272  0.60046600  1
  Hf  Hf37  1  0.49531570  0.29515696  0.29911886  1
  Hf  Hf38  1  0.39382072  0.19170041  -0.00874732  1
  Hf  Hf39  1  0.60635737  0.38807385  0.00364008  1
  Hf  Hf40  1  0.19835898  0.60463808  0.79201934  1
  Hf  Hf41  1  0.93073603  0.71832448  0.49809009  1
  Hf  Hf42  1  0.50536609  0.71406758  0.70060572  1
  Hf  Hf43  1  0.29892430  0.90475761  0.09509766  1
  Hf  Hf44  1  0.90590204  0.90918501  0.90181016  1
  Hf  Hf45  1  0.39457564  0.60001746  0.60243807  1
  Hf  Hf46  1  0.49823535  0.10420036  0.30156762  1
  Hf  Hf47  1  -0.00631758  0.19305485  0.79318960  1
  Hf  Hf48  1  0.90082949  0.28486206  0.91203712  1
  Hf  Hf49  1  0.90749169  0.90677422  0.09845811  1
  Zr  Zr50  1  0.40382622  -0.00231113  0.60389142  1
  Zr  Zr51  1  0.60668450  0.19801224  0.80504945  1
  Zr  Zr52  1  0.69555604  0.70282136  0.10185497  1
  Zr  Zr53  1  0.19799044  -0.00473664  0.80214505  1
  Zr  Zr54  1  0.71010767  0.29872141  0.30285813  1
  Zr  Zr55  1  0.79829748  0.81073188  0.80845665  1
  Zr  Zr56  1  0.29193427  0.09173675  0.49733590  1
  Zr  Zr57  1  0.19490761  0.40940443  0.78725475  1
  Zr  Zr58  1  0.70168816  0.50128059  0.49676047  1
  Zr  Zr59  1  0.50739351  0.30533355  0.50728823  1
  Zr  Zr60  1  0.50117956  0.48725348  0.88904156  1
  Zr  Zr61  1  0.19392752  0.18630369  0.00359068  1
  Zr  Zr62  1  0.81076824  0.39381123  0.79646634  1
  Zr  Zr63  1  0.70564951  0.49303481  0.69266628  1
  Zr  Zr64  1  -0.00615956  0.41242512  0.60299564  1
  Zr  Zr65  1  0.50178795  0.71401867  0.88994429  1
  Zr  Zr66  1  0.28528924  0.29024630  0.88783384  1
  Zr  Zr67  1  0.59920645  0.79943718  0.20425255  1
  Zr  Zr68  1  0.19371487  0.20040207  0.20213920  1
  Zr  Zr69  1  0.90285911  0.70843223  0.70151192  1
  Zr  Zr70  1  0.69766600  0.69245599  0.31000897  1
  Zr  Zr71  1  0.60183748  0.39821949  0.39860064  1
  Zr  Zr72  1  0.69816805  0.70752803  0.69866126  1
  Zr  Zr73  1  0.82020412  0.41053002  0.39609736  1
  Zr  Zr74  1  0.20372862  0.79865675  0.60657196  1
  Zr  Zr75  1  0.00757443  0.40222771  0.39148914  1
  Zr  Zr76  1  0.10745868  0.49872390  0.09969644  1
  Zr  Zr77  1  0.38386894  0.40019182  -0.00154439  1
  Zr  Zr78  1  0.59430692  0.60271866  0.00003876  1
  Zr  Zr79  1  0.60332271  0.60048981  0.79685975  1
  Zr  Zr80  1  0.39550531  0.80246308  0.60974469  1
  Zr  Zr81  1  0.70274930  0.09018389  0.70309765  1
  Zr  Zr82  1  0.00099845  0.58896245  0.39841737  1
  Zr  Zr83  1  0.40058902  0.79994205  0.20652120  1
  Zr  Zr84  1  0.70464939  0.49993861  0.10740216  1
  Zr  Zr85  1  0.49947756  0.30020593  0.89492147  1
  Zr  Zr86  1  0.50371236  0.89605270  0.31004391  1
  Zr  Zr87  1  0.89876552  0.29528255  0.50447626  1
  Zr  Zr88  1  0.38567655  0.60670750  0.79606199  1
  Zr  Zr89  1  0.79948919  0.19692504  0.19638107  1
  Zr  Zr90  1  0.80159805  0.80577914  0.39925374  1
  Zr  Zr91  1  0.60104494  0.18827710  0.59675905  1
  Zr  Zr92  1  0.08971052  0.89075479  0.50148492  1
  Zr  Zr93  1  0.29463756  0.69321369  0.10195539  1
  Zr  Zr94  1  0.49492369  0.49547790  0.10633212  1
  Zr  Zr95  1  0.50896363  0.30608279  0.70342644  1
  Zr  Zr96  1  0.60454384  0.00424374  0.19955701  1
  Zr  Zr97  1  0.50212508  0.50295833  0.30189383  1
  Zr  Zr98  1  0.37812550  0.39898258  0.20621438  1
  Zr  Zr99  1  0.10093843  0.29233869  0.49565137  1
  Ta  Ta100  1  0.60884535  0.79919651  0.41478209  1
  Ta  Ta101  1  0.80199307  0.19584656  0.79803819  1
  Ta  Ta102  1  -0.00034216  0.19516865  0.38840517  1
  Ta  Ta103  1  0.50215358  0.09103123  0.70799225  1
  Ta  Ta104  1  0.80671533  0.80662350  0.20323172  1
  Ta  Ta105  1  -0.00717067  0.00212246  0.39336512  1
  Ta  Ta106  1  0.60656433  0.19915870  0.19846609  1
  Ta  Ta107  1  0.00228373  0.61185094  0.00506933  1
  Ta  Ta108  1  0.29661530  0.69751118  0.49929394  1
  Ta  Ta109  1  0.60272456  0.81274359  -0.00454433  1
  Ta  Ta110  1  -0.00614171  0.00069120  0.59857848  1
  Ta  Ta111  1  0.00546023  0.59627958  0.59941481  1
  Ta  Ta112  1  0.30481669  0.89107664  0.49013082  1
  Ta  Ta113  1  0.09847127  0.10058548  0.29966278  1
  Ta  Ta114  1  0.39613774  0.19499166  0.79490459  1
  Ta  Ta115  1  0.60190579  0.19234242  0.40359301  1
  Ta  Ta116  1  0.39869342  0.20002172  0.41613829  1
  Ta  Ta117  1  0.40350965  0.19668554  0.60175344  1
  Ta  Ta118  1  0.70994466  0.29969295  0.51013244  1
  Ta  Ta119  1  0.00582089  0.80564302  0.80474154  1
  Ta  Ta120  1  0.69553822  0.90260721  0.69993708  1
  Ta  Ta121  1  0.89762389  0.90558514  0.69861728  1
  Ta  Ta122  1  0.49760084  0.90530795  0.09239913  1
  Ta  Ta123  1  0.39607884  0.60020384  0.20583039  1
  Ta  Ta124  1  0.18964261  -0.00601651  0.19866405  1
  Ta  Ta125  1  0.90051820  0.09805812  0.90292742  1
  Ta  Ta126  1  0.90452728  0.49826579  0.10589175  1
  Ta  Ta127  1  0.50510344  0.89411421  0.50503890  1
  Ta  Ta128  1  0.37993188  0.40202980  0.78869984  1
  Ta  Ta129  1  -0.00162165  0.00146532  0.79604001  1
  Ta  Ta130  1  0.61105523  0.38849344  0.19703918  1
  Ta  Ta131  1  0.09643128  0.50889729  0.90070101  1
  Ta  Ta132  1  0.60677441  0.19204293  0.00331924  1
  Ta  Ta133  1  0.60209922  0.00020086  -0.00380829  1
  Ta  Ta134  1  0.19835217  0.40102855  0.40033589  1
  Ta  Ta135  1  0.90962685  0.70857291  0.30073946  1
  Ta  Ta136  1  0.19254901  0.60253833  0.21010419  1
  Ta  Ta137  1  0.90765864  0.10561614  0.09442049  1
  Ta  Ta138  1  0.40080224  0.59912127  0.40910205  1
  Ta  Ta139  1  0.69841886  0.70784886  0.89677059  1
  Ta  Ta140  1  0.59969851  0.60910609  0.58920458  1
  Ta  Ta141  1  0.49834154  0.09212808  0.89757616  1
  Ta  Ta142  1  0.30088611  0.90748466  0.90506012  1
  Ta  Ta143  1  0.09722658  0.09840461  0.89967967  1
  Ta  Ta144  1  0.00557257  0.60273193  0.19854960  1
  Ta  Ta145  1  0.19995703  0.40700777  0.59970806  1
  Ta  Ta146  1  0.90430516  0.90423335  0.49170560  1
  Ta  Ta147  1  0.09573054  0.90353956  0.90650819  1
  Ta  Ta148  1  0.70602273  0.90826488  0.30622317  1
  Ta  Ta149  1  0.69910823  0.90311275  0.10351742  1
  Ti  Ti150  1  0.19233167  0.60153446  0.40284281  1
  Ti  Ti151  1  0.90309034  0.09358852  0.29238893  1
  Ti  Ti152  1  0.49978343  0.69634652  0.31541820  1
  Ti  Ti153  1  0.01302530  0.00669364  0.00564512  1
  Ti  Ti154  1  0.08724634  0.90345787  0.29775718  1
  Ti  Ti155  1  0.70285093  0.09374682  0.30484171  1
  Ti  Ti156  1  0.90844182  0.29733032  0.28659765  1
  Ti  Ti157  1  0.20556310  -0.01599001  0.60253043  1
  Ti  Ti158  1  0.81606891  0.60413578  0.40313162  1
  Ti  Ti159  1  0.28883876  0.50316346  0.10343522  1
  Ti  Ti160  1  0.49771177  0.70382181  0.10004783  1
  Ti  Ti161  1  0.88962105  0.28999073  0.68725288  1
  Ti  Ti162  1  0.50585270  0.49983923  0.50415678  1
  Ti  Ti163  1  0.28832470  0.50868544  0.50116015  1
  Ti  Ti164  1  0.80339547  -0.00182956  0.20244310  1
  Ti  Ti165  1  0.59120059  0.60247822  0.20154875  1
  Ti  Ti166  1  0.60365694  0.00178673  0.41016855  1
  Ti  Ti167  1  0.09220250  0.90085072  0.70066639  1
  Ti  Ti168  1  0.70544787  0.30219448  0.69009305  1
  Ti  Ti169  1  0.19705468  -0.01344611  0.38977790  1
  Ti  Ti170  1  0.19340013  0.61042644  -0.00932114  1
  Ti  Ti171  1  0.28895170  0.29003085  0.31514573  1
  Ti  Ti172  1  0.70400802  0.10122848  0.09832767  1
  Ti  Ti173  1  0.49936389  0.70704488  0.49930410  1
  Ti  Ti174  1  0.89155150  0.09512971  0.69898066  1
  Ti  Ti175  1  0.70387115  0.09936890  0.49523956  1
  Ti  Ti176  1  0.60762735  -0.00718480  0.81119854  1
  Ti  Ti177  1  0.28807172  0.50202716  0.90068149  1
  Ti  Ti178  1  0.09306317  0.69943191  0.30629937  1
  Ti  Ti179  1  0.00030887  0.59899346  0.79921329  1
  Ti  Ti180  1  0.19178286  0.39972995  0.21680148  1
  Ti  Ti181  1  0.00632712  0.00480805  0.19744763  1
  Ti  Ti182  1  0.91161899  0.70590719  0.90090970  1
  Ti  Ti183  1  0.28973610  0.30002567  0.10010232  1
  Ti  Ti184  1  -0.00028537  0.40809727  0.20871896  1
  Ti  Ti185  1  0.90334139  0.50580480  0.90168473  1
  Ti  Ti186  1  0.49760726  0.90404029  0.89865174  1
  Ti  Ti187  1  0.19564225  0.39893136  -0.00247520  1
  Ti  Ti188  1  0.50931962  0.90012706  0.70874663  1
  Ti  Ti189  1  0.59963867  -0.00402367  0.59294684  1
  Ti  Ti190  1  0.29234744  0.50944800  0.30540994  1
  Ti  Ti191  1  0.70752971  0.09924713  0.89891885  1
  Ti  Ti192  1  0.39812752  -0.00276905  0.80394488  1
  Ti  Ti193  1  0.70723273  0.29203958  0.90196550  1
  Ti  Ti194  1  0.10668826  0.50487839  0.50450884  1
  Ti  Ti195  1  0.90235745  0.29362099  0.10440425  1
  Ti  Ti196  1  -0.01184027  0.18463542  0.59277295  1
  Ti  Ti197  1  0.38876478  0.20008752  0.20204646  1
  Ti  Ti198  1  0.39311853  -0.00932107  0.21058611  1
  Ti  Ti199  1  0.80927489  0.60269208  0.80029300  1
  Mo  Mo200  1  -0.00232152  0.19211565  0.00248479  1
  Mo  Mo201  1  0.30539727  0.90231300  0.70974590  1
  Mo  Mo202  1  0.40607427  -0.00347907  -0.00870338  1
  Mo  Mo203  1  0.61593471  0.39156278  0.79824112  1
  Mo  Mo204  1  0.19227232  -0.00345975  -0.00039354  1
  Mo  Mo205  1  0.40363204  0.79531152  0.40986437  1
  Mo  Mo206  1  0.69301142  0.69658012  0.49859173  1
  Mo  Mo207  1  0.69719440  0.90432598  0.90212342  1
  Mo  Mo208  1  0.69519793  0.90969752  0.49754095  1
  Mo  Mo209  1  0.61152898  0.40273113  0.59754591  1
  Mo  Mo210  1  0.09724341  0.50764686  0.69831629  1
  Mo  Mo211  1  0.30105319  0.29596738  0.69841707  1
  Mo  Mo212  1  0.79771918  0.19348296  -0.00036850  1
  Mo  Mo213  1  -0.00457586  0.19339277  0.20316602  1
  Mo  Mo214  1  0.19494195  0.20301011  0.39809338  1
  Mo  Mo215  1  0.09500566  0.09450772  0.10463612  1
  Mo  Mo216  1  0.19755653  0.60079423  0.59394082  1
  Mo  Mo217  1  0.30201701  0.09273396  0.89690828  1
  Mo  Mo218  1  0.60161621  0.81650721  0.80234868  1
  Mo  Mo219  1  0.81179484  0.39832866  0.19744109  1
  Mo  Mo220  1  0.58659561  0.60648533  0.40953992  1
  Mo  Mo221  1  0.59970878  0.80672816  0.59849796  1
  Mo  Mo222  1  0.09811269  0.30096955  0.29843968  1
  Mo  Mo223  1  0.29158523  0.50519545  0.68966700  1
  Mo  Mo224  1  0.10042074  0.69328287  0.09975068  1
  Mo  Mo225  1  0.29523453  0.70360802  0.89877884  1
  Mo  Mo226  1  0.90514813  0.50705465  0.28835688  1
  Mo  Mo227  1  0.50452111  0.09711425  0.50275407  1
  Mo  Mo228  1  0.80395169  0.00380401  0.80007746  1
  Mo  Mo229  1  0.90660558  0.09666424  0.49453314  1
  Mo  Mo230  1  0.39598611  0.81496961  0.80038521  1
  Mo  Mo231  1  0.90003973  0.90724715  0.29204234  1
  Mo  Mo232  1  0.90648235  0.70266520  0.10113973  1
  Mo  Mo233  1  0.90326491  0.50391984  0.50515838  1
  Mo  Mo234  1  0.10857451  0.50048469  0.29766583  1
  Mo  Mo235  1  0.80194978  0.00301877  0.39342079  1
  Mo  Mo236  1  0.10522842  0.69488643  0.49983121  1
  Mo  Mo237  1  0.19754772  0.19132162  0.79833399  1
  Mo  Mo238  1  0.69933933  0.29051388  0.10086356  1
  Mo  Mo239  1  0.90073816  0.51432611  0.70551387  1
  Mo  Mo240  1  0.79907473  0.19535532  0.60059973  1
  Mo  Mo241  1  0.00140070  0.80915066  0.38244928  1
  Mo  Mo242  1  0.00119168  0.79803127  -0.00423080  1
  Mo  Mo243  1  0.30025545  0.70108387  0.69749801  1
  Mo  Mo244  1  0.29914332  0.30291632  0.49413496  1
  Mo  Mo245  1  0.80442959  0.39774961  0.60011893  1
  Mo  Mo246  1  0.29462528  0.90278290  0.30235044  1
  Mo  Mo247  1  0.09077004  0.70075442  0.89777412  1
  Mo  Mo248  1  -0.00135565  0.81165339  0.61110489  1
  Mo  Mo249  1  0.09859518  0.90752393  0.09628489  1
