# generated using pymatgen
data_HfZrTaTiMo
_symmetry_space_group_name_H-M   'P 1'
_cell_length_a   16.91079254
_cell_length_b   16.89174462
_cell_length_c   16.88563603
_cell_angle_alpha   89.98477533
_cell_angle_beta   89.93581102
_cell_angle_gamma   89.93304559
_symmetry_Int_Tables_number   1
_chemical_formula_structural   HfZrTaTiMo
_chemical_formula_sum   'Hf50 Zr50 Ta50 Ti50 Mo50'
_cell_volume   4823.42253700
_cell_formula_units_Z   50
loop_
 _symmetry_equiv_pos_site_id
 _symmetry_equiv_pos_as_xyz
  1  'x, y, z'
loop_
 _atom_site_type_symbol
 _atom_site_label
 _atom_site_symmetry_multiplicity
 _atom_site_fract_x
 _atom_site_fract_y
 _atom_site_fract_z
 _atom_site_occupancy
  Hf  Hf0  1  0.41593953  0.38655424  0.20081958  1
  Hf  Hf1  1  0.30207962  0.49333130  0.10559173  1
  Hf  Hf2  1  0.69786634  0.30624733  0.89629808  1
  Hf  Hf3  1  0.10559477  0.49217024  0.89845275  1
  Hf  Hf4  1  0.40282235  0.59840372  -0.00431664  1
  Hf  Hf5  1  0.09809395  0.90235389  0.29646983  1
  Hf  Hf6  1  0.40759166  0.39535490  0.60083785  1
  Hf  Hf7  1  -0.00534359  0.40390807  0.00235646  1
  Hf  Hf8  1  0.90186281  0.69346551  0.10220196  1
  Hf  Hf9  1  0.89512300  0.30887059  0.50012865  1
  Hf  Hf10  1  0.89825910  0.70036133  0.70941950  1
  Hf  Hf11  1  0.40471135  0.59810970  0.79677030  1
  Hf  Hf12  1  0.57529632  0.00262505  0.20570814  1
  Hf  Hf13  1  0.79594581  0.39889031  0.19969586  1
  Hf  Hf14  1  0.39392652  -0.00476994  0.20311838  1
  Hf  Hf15  1  0.50701207  0.49869446  0.69864653  1
  Hf  Hf16  1  0.79414630  0.20402157  0.00760007  1
  Hf  Hf17  1  0.11033965  0.29787110  0.51813041  1
  Hf  Hf18  1  0.80530867  0.40583738  -0.00028881  1
  Hf  Hf19  1  0.10963949  0.29761515  0.89326370  1
  Hf  Hf20  1  0.19866403  0.80149831  -0.00577501  1
  Hf  Hf21  1  0.19755249  0.39774524  0.40110542  1
  Hf  Hf22  1  0.10230462  0.29711909  0.09247259  1
  Hf  Hf23  1  0.10371037  0.68583174  0.10417936  1
  Hf  Hf24  1  0.00320403  0.20001691  0.19773015  1
  Hf  Hf25  1  0.00251767  0.58861971  0.40579125  1
  Hf  Hf26  1  0.39970467  0.00531264  0.60105973  1
  Hf  Hf27  1  0.69231757  0.50298496  0.09789910  1
  Hf  Hf28  1  0.11209903  0.50308828  0.28236263  1
  Hf  Hf29  1  0.88156442  0.90119492  0.71029555  1
  Hf  Hf30  1  0.70191903  0.91191004  0.10323351  1
  Hf  Hf31  1  0.69310304  0.69597785  0.71840143  1
  Hf  Hf32  1  0.29866070  0.68812476  0.29198872  1
  Hf  Hf33  1  0.09688059  0.69542203  0.29466472  1
  Hf  Hf34  1  0.90721699  0.70461489  0.49870915  1
  Hf  Hf35  1  0.90440835  0.10823431  0.50142460  1
  Hf  Hf36  1  0.20139368  0.59230501  0.40595986  1
  Hf  Hf37  1  0.89129030  0.90564745  0.89476904  1
  Hf  Hf38  1  0.20215719  0.80036395  0.39580642  1
  Hf  Hf39  1  0.29952844  0.90350097  0.50427379  1
  Hf  Hf40  1  0.88725813  0.49950578  0.70354842  1
  Hf  Hf41  1  0.29649321  0.70308323  0.70274013  1
  Hf  Hf42  1  0.30203167  0.69603268  0.09896577  1
  Hf  Hf43  1  0.69612987  0.90337316  0.70830524  1
  Hf  Hf44  1  -0.01342869  0.39553091  0.80439404  1
  Hf  Hf45  1  0.30350955  0.90466263  0.08877483  1
  Hf  Hf46  1  0.59356015  0.78752895  0.60234535  1
  Hf  Hf47  1  0.58504262  0.21375356  0.20433644  1
  Hf  Hf48  1  0.40770964  0.59144204  0.40952762  1
  Hf  Hf49  1  0.59941461  0.80035027  -0.00069834  1
  Zr  Zr50  1  0.90331674  0.89849198  0.49971208  1
  Zr  Zr51  1  0.79467622  0.79588816  0.39695100  1
  Zr  Zr52  1  0.00575161  0.80490576  0.61704432  1
  Zr  Zr53  1  0.79802116  0.79365870  -0.00222695  1
  Zr  Zr54  1  0.79709909  0.58922380  0.40088169  1
  Zr  Zr55  1  0.89686401  0.30721834  0.30289140  1
  Zr  Zr56  1  0.59319737  0.79550805  0.39979316  1
  Zr  Zr57  1  0.78595196  0.20722829  0.39592041  1
  Zr  Zr58  1  -0.01160436  0.20146842  0.79127648  1
  Zr  Zr59  1  0.10699379  0.48963254  0.70478656  1
  Zr  Zr60  1  0.41109054  0.79866936  0.80248829  1
  Zr  Zr61  1  0.59395997  0.80522323  0.19857660  1
  Zr  Zr62  1  0.79790910  0.00770404  0.40144951  1
  Zr  Zr63  1  0.50317348  0.10166659  0.69875727  1
  Zr  Zr64  1  0.68686040  0.09636271  0.70096481  1
  Zr  Zr65  1  0.00131093  0.00638842  0.79748960  1
  Zr  Zr66  1  0.20991920  0.00505060  0.39009678  1
  Zr  Zr67  1  0.69436695  0.09719095  0.89752114  1
  Zr  Zr68  1  0.69271231  0.90794777  0.50368445  1
  Zr  Zr69  1  0.80028712  0.80156221  0.19882048  1
  Zr  Zr70  1  0.46304006  0.11755809  0.09388409  1
  Zr  Zr71  1  0.00059780  0.00715413  0.61395283  1
  Zr  Zr72  1  0.59369125  0.20540594  0.00692818  1
  Zr  Zr73  1  0.10190749  0.90782512  0.09819847  1
  Zr  Zr74  1  0.29980035  0.69950928  0.50617076  1
  Zr  Zr75  1  0.10684827  0.10596381  0.89680987  1
  Zr  Zr76  1  0.09610699  0.69582229  0.89538116  1
  Zr  Zr77  1  0.51136796  0.91096803  0.70787352  1
  Zr  Zr78  1  0.01358115  0.20960969  0.39116277  1
  Zr  Zr79  1  -0.00150860  0.80644620  -0.00136373  1
  Zr  Zr80  1  0.30532436  0.30326469  0.30332131  1
  Zr  Zr81  1  0.57987377  0.00239186  0.00715097  1
  Zr  Zr82  1  0.68885052  0.09673976  0.29990166  1
  Zr  Zr83  1  0.69321373  0.50685543  0.89844064  1
  Zr  Zr84  1  0.40391534  0.80273495  0.39236425  1
  Zr  Zr85  1  0.41021625  0.79651876  0.60023934  1
  Zr  Zr86  1  0.19530158  0.59930345  0.60316020  1
  Zr  Zr87  1  0.09436887  0.90184693  0.49474665  1
  Zr  Zr88  1  0.69604989  0.68332364  0.28906286  1
  Zr  Zr89  1  0.39913199  0.20354556  0.79462534  1
  Zr  Zr90  1  0.90784352  0.89848782  0.30251595  1
  Zr  Zr91  1  0.50690927  0.49344907  0.90503832  1
  Zr  Zr92  1  0.69866828  0.90328263  0.88853110  1
  Zr  Zr93  1  -0.00359995  0.39801586  0.60549036  1
  Zr  Zr94  1  0.29836709  0.70373941  0.89794420  1
  Zr  Zr95  1  0.10632011  0.10764985  0.50791697  1
  Zr  Zr96  1  0.78319960  0.20200524  0.59578983  1
  Zr  Zr97  1  0.40865216  0.00074106  0.38949330  1
  Zr  Zr98  1  0.20115540  0.19370841  0.19804811  1
  Zr  Zr99  1  0.79258491  0.59743821  0.59558652  1
  Ta  Ta100  1  0.30458062  0.11035293  0.50090645  1
  Ta  Ta101  1  -0.00255677  0.01005633  0.00153768  1
  Ta  Ta102  1  0.30645915  0.49606157  0.29618990  1
  Ta  Ta103  1  0.50501112  0.69087236  0.09994160  1
  Ta  Ta104  1  0.20359591  0.00205965  0.60764935  1
  Ta  Ta105  1  0.30246391  0.29691523  0.50181794  1
  Ta  Ta106  1  0.40694945  0.59247337  0.19888056  1
  Ta  Ta107  1  0.00125713  0.80147012  0.19597631  1
  Ta  Ta108  1  0.60108889  0.39153956  0.19993266  1
  Ta  Ta109  1  0.30195617  0.49361455  0.70118681  1
  Ta  Ta110  1  0.50695862  0.49721476  0.09833254  1
  Ta  Ta111  1  0.21025252  0.19508644  0.00098677  1
  Ta  Ta112  1  0.79273343  0.79701094  0.60370608  1
  Ta  Ta113  1  0.49982256  0.30130230  0.89962238  1
  Ta  Ta114  1  0.40290951  0.39318939  0.79592450  1
  Ta  Ta115  1  0.20312273  0.20324886  0.39741344  1
  Ta  Ta116  1  0.40267431  0.79987533  0.19764344  1
  Ta  Ta117  1  0.69499714  0.68532882  0.09655800  1
  Ta  Ta118  1  0.09519103  0.70489424  0.50213347  1
  Ta  Ta119  1  0.29957597  0.90250091  0.70890027  1
  Ta  Ta120  1  0.89584917  0.10336696  0.10081161  1
  Ta  Ta121  1  0.12037221  0.29639578  0.70494610  1
  Ta  Ta122  1  0.59689239  0.58921209  0.40906774  1
  Ta  Ta123  1  0.00046431  0.01022304  0.19375192  1
  Ta  Ta124  1  0.78975760  0.20720152  0.19832632  1
  Ta  Ta125  1  0.31561312  0.28510080  0.09636477  1
  Ta  Ta126  1  0.89931207  0.29797416  0.10136914  1
  Ta  Ta127  1  0.20544389  0.80394150  0.19904522  1
  Ta  Ta128  1  0.20524647  0.59382535  0.80298213  1
  Ta  Ta129  1  0.87092223  0.30811765  0.70042983  1
  Ta  Ta130  1  0.79658193  0.00861112  0.60091843  1
  Ta  Ta131  1  0.59818730  0.20767543  0.40056040  1
  Ta  Ta132  1  0.11767335  0.11412165  0.70073438  1
  Ta  Ta133  1  0.41301144  0.80200290  -0.00099137  1
  Ta  Ta134  1  0.52256723  0.69239168  0.89253375  1
  Ta  Ta135  1  0.20936685  0.39406374  0.00184537  1
  Ta  Ta136  1  0.30878781  0.09412080  0.90249011  1
  Ta  Ta137  1  0.50606887  0.49667773  0.29934667  1
  Ta  Ta138  1  0.50733986  0.10462239  0.49861056  1
  Ta  Ta139  1  0.50114404  0.68785264  0.29520233  1
  Ta  Ta140  1  0.00180428  0.40170607  0.19484340  1
  Ta  Ta141  1  0.20063126  0.58609970  0.00008408  1
  Ta  Ta142  1  0.59928566  0.59435876  0.59422858  1
  Ta  Ta143  1  0.00975872  0.40229219  0.39449999  1
  Ta  Ta144  1  0.19264588  0.80888161  0.61063876  1
  Ta  Ta145  1  0.69979117  0.09985624  0.10789510  1
  Ta  Ta146  1  0.40499744  0.20553869  0.59887203  1
  Ta  Ta147  1  0.59931742  0.39251572  0.79090707  1
  Ta  Ta148  1  0.89223941  0.10282966  0.90089788  1
  Ta  Ta149  1  0.90918749  0.69270294  0.29598208  1
  Ti  Ti150  1  0.80557808  0.00641485  0.20211904  1
  Ti  Ti151  1  0.79338877  0.20046285  0.79508139  1
  Ti  Ti152  1  0.20401550  0.00635418  0.19529126  1
  Ti  Ti153  1  0.20056208  0.39198263  0.19310721  1
  Ti  Ti154  1  0.69114347  0.90817748  0.30219861  1
  Ti  Ti155  1  0.30838585  0.10978019  0.29816551  1
  Ti  Ti156  1  0.10112545  0.49309834  0.51006993  1
  Ti  Ti157  1  0.29262933  0.30297957  0.69525326  1
  Ti  Ti158  1  0.60438814  0.39526467  0.60105985  1
  Ti  Ti159  1  0.30053398  0.48897063  0.89554247  1
  Ti  Ti160  1  0.00065010  0.01216379  0.39410012  1
  Ti  Ti161  1  -0.00183278  0.59264343  0.80380093  1
  Ti  Ti162  1  -0.00259472  0.19561750  -0.00021713  1
  Ti  Ti163  1  0.40125450  0.39158674  -0.00176805  1
  Ti  Ti164  1  0.29921771  0.29910876  0.89725500  1
  Ti  Ti165  1  0.59319592  0.20713625  0.79710557  1
  Ti  Ti166  1  0.29879751  0.10200779  0.70218908  1
  Ti  Ti167  1  0.30009473  0.49015766  0.51019844  1
  Ti  Ti168  1  0.50581478  0.29906243  0.50242104  1
  Ti  Ti169  1  0.00747790  0.80823991  0.80051362  1
  Ti  Ti170  1  0.80262642  0.00741941  0.00342869  1
  Ti  Ti171  1  0.10312114  0.09877235  0.29678083  1
  Ti  Ti172  1  -0.00893549  0.20509799  0.61645659  1
  Ti  Ti173  1  0.80638552  0.58910214  0.19769631  1
  Ti  Ti174  1  0.89805886  0.10624911  0.29637438  1
  Ti  Ti175  1  0.90128387  0.49541762  0.30166093  1
  Ti  Ti176  1  0.69919120  0.31378479  0.49903600  1
  Ti  Ti177  1  -0.00470583  0.58539674  0.00078372  1
  Ti  Ti178  1  0.40969546  0.40335700  0.40733217  1
  Ti  Ti179  1  0.20525701  0.00196284  0.79825432  1
  Ti  Ti180  1  0.00122518  0.59739019  0.60255910  1
  Ti  Ti181  1  0.40798675  0.20496458  0.40006184  1
  Ti  Ti182  1  0.10650297  0.90681244  0.89463383  1
  Ti  Ti183  1  0.30462111  0.90633078  0.89531899  1
  Ti  Ti184  1  0.10271985  0.69979309  0.70960499  1
  Ti  Ti185  1  0.79995202  0.59851238  0.81222083  1
  Ti  Ti186  1  0.89193627  0.48840012  0.50010901  1
  Ti  Ti187  1  0.50782902  0.91155883  0.49810464  1
  Ti  Ti188  1  0.90153576  0.69909916  0.89577591  1
  Ti  Ti189  1  0.60017028  0.39916443  0.39982756  1
  Ti  Ti190  1  0.80720954  0.59786027  -0.00405363  1
  Ti  Ti191  1  0.90024583  0.90798154  0.10092060  1
  Ti  Ti192  1  -0.00516001  0.58261791  0.18957918  1
  Ti  Ti193  1  0.69742195  0.69638710  0.49969420  1
  Ti  Ti194  1  0.49626416  0.90958947  0.89620804  1
  Ti  Ti195  1  0.41211172  0.59961609  0.59681392  1
  Ti  Ti196  1  0.89055160  0.29501453  0.89883780  1
  Ti  Ti197  1  0.70371616  0.48992208  0.70103526  1
  Ti  Ti198  1  0.69499205  0.49407592  0.30224207  1
  Ti  Ti199  1  0.20035942  0.00960471  0.00178044  1
  Mo  Mo200  1  0.49705952  0.30754278  0.08674525  1
  Mo  Mo201  1  0.79371258  0.40683697  0.40022204  1
  Mo  Mo202  1  0.39325205  0.00110312  0.80153134  1
  Mo  Mo203  1  0.10380145  0.30936275  0.29177498  1
  Mo  Mo204  1  0.21578253  0.39711127  0.80345474  1
  Mo  Mo205  1  0.50582354  0.68863555  0.70131723  1
  Mo  Mo206  1  0.21095321  0.59338897  0.19514969  1
  Mo  Mo207  1  0.80027223  0.78420867  0.80561408  1
  Mo  Mo208  1  0.29257537  0.09818091  0.09468436  1
  Mo  Mo209  1  0.69833112  0.30285149  0.10331091  1
  Mo  Mo210  1  0.88771156  0.10893669  0.69929539  1
  Mo  Mo211  1  0.50344344  0.68640955  0.49996287  1
  Mo  Mo212  1  0.50466704  0.30004997  0.69751238  1
  Mo  Mo213  1  0.49220922  0.11457099  0.30649400  1
  Mo  Mo214  1  0.68585181  0.10116322  0.50112619  1
  Mo  Mo215  1  0.70364111  0.69617088  0.90296258  1
  Mo  Mo216  1  0.49700797  0.88899124  0.29725224  1
  Mo  Mo217  1  0.78708659  0.40233926  0.59848771  1
  Mo  Mo218  1  0.19623696  0.80909929  0.79936917  1
  Mo  Mo219  1  0.49184121  0.89289339  0.09717850  1
  Mo  Mo220  1  0.58776510  0.00731435  0.81391883  1
  Mo  Mo221  1  0.39402963  0.20702948  -0.01814163  1
  Mo  Mo222  1  0.79384128  0.39971210  0.80200354  1
  Mo  Mo223  1  0.00607318  0.78549957  0.38839956  1
  Mo  Mo224  1  0.90017098  0.51043378  0.89928123  1
  Mo  Mo225  1  0.80372587  0.01988858  0.79641957  1
  Mo  Mo226  1  0.21107744  0.39756738  0.60038706  1
  Mo  Mo227  1  0.69257797  0.30045892  0.70100881  1
  Mo  Mo228  1  0.11360840  0.90939561  0.71202371  1
  Mo  Mo229  1  0.21822463  0.19870951  0.60424375  1
  Mo  Mo230  1  0.89764591  0.50011479  0.10152954  1
  Mo  Mo231  1  0.50487090  0.49098680  0.50156740  1
  Mo  Mo232  1  0.69371226  0.49011660  0.50200436  1
  Mo  Mo233  1  0.69283803  0.30791661  0.30262578  1
  Mo  Mo234  1  0.49347140  0.10299049  0.89507723  1
  Mo  Mo235  1  0.09651193  0.10013484  0.09408390  1
  Mo  Mo236  1  0.59584687  0.59002145  0.20283017  1
  Mo  Mo237  1  0.60249443  0.59079441  0.79376679  1
  Mo  Mo238  1  0.39301695  -0.00543434  -0.00746756  1
  Mo  Mo239  1  0.10506465  0.49409969  0.09480818  1
  Mo  Mo240  1  0.59978750  0.00558666  0.58918806  1
  Mo  Mo241  1  0.59971312  0.60208168  0.00370071  1
  Mo  Mo242  1  0.59600511  0.20880574  0.58928230  1
  Mo  Mo243  1  0.29686863  0.89576576  0.28715898  1
  Mo  Mo244  1  0.60041823  0.80042427  0.80770391  1
  Mo  Mo245  1  0.21310823  0.19969696  0.80094238  1
  Mo  Mo246  1  0.50160196  0.30748344  0.32123936  1
  Mo  Mo247  1  0.59778135  0.39575643  0.00469700  1
  Mo  Mo248  1  0.39938585  0.20246491  0.21502516  1
  Mo  Mo249  1  0.59243066  0.00553588  0.39750537  1
