# generated using pymatgen
data_HfZrTaTiMo
_symmetry_space_group_name_H-M   'P 1'
_cell_length_a   16.87597840
_cell_length_b   16.89060232
_cell_length_c   16.88494024
_cell_angle_alpha   89.97299782
_cell_angle_beta   89.94935597
_cell_angle_gamma   89.96739668
_symmetry_Int_Tables_number   1
_chemical_formula_structural   HfZrTaTiMo
_chemical_formula_sum   'Hf50 Zr50 Ta50 Ti50 Mo50'
_cell_volume   4812.97202650
_cell_formula_units_Z   50
loop_
 _symmetry_equiv_pos_site_id
 _symmetry_equiv_pos_as_xyz
  1  'x, y, z'
loop_
 _atom_site_type_symbol
 _atom_site_label
 _atom_site_symmetry_multiplicity
 _atom_site_fract_x
 _atom_site_fract_y
 _atom_site_fract_z
 _atom_site_occupancy
  Hf  Hf0  1  0.10071071  0.89460289  0.49712864  1
  Hf  Hf1  1  0.19874731  0.00356131  0.60323317  1
  Hf  Hf2  1  0.59864745  0.19789002  0.20495207  1
  Hf  Hf3  1  0.50176119  0.30098064  0.30504459  1
  Hf  Hf4  1  0.10329458  0.70489259  0.29467948  1
  Hf  Hf5  1  0.69429413  0.69237964  0.50657992  1
  Hf  Hf6  1  0.50773443  0.30835223  0.49498533  1
  Hf  Hf7  1  0.59658679  0.80433162  0.79454679  1
  Hf  Hf8  1  0.08975132  0.30942551  0.29403468  1
  Hf  Hf9  1  0.59611177  -0.00196375  0.60183307  1
  Hf  Hf10  1  0.88939628  0.49740586  0.50745112  1
  Hf  Hf11  1  0.50485418  0.50928089  0.88281513  1
  Hf  Hf12  1  0.30462855  0.88794255  0.68978367  1
  Hf  Hf13  1  0.50746451  0.89290730  0.29266931  1
  Hf  Hf14  1  0.29822361  0.09836196  0.90125077  1
  Hf  Hf15  1  0.49554057  0.68997338  0.50064417  1
  Hf  Hf16  1  0.09713455  0.09669019  0.09864694  1
  Hf  Hf17  1  0.39469170  0.40655831  0.19613514  1
  Hf  Hf18  1  0.30570544  0.69550807  0.69119921  1
  Hf  Hf19  1  0.70107054  0.09537317  0.10220839  1
  Hf  Hf20  1  0.58947523  0.00323168  0.40438800  1
  Hf  Hf21  1  0.19727865  0.20103442  0.39364162  1
  Hf  Hf22  1  0.40460961  0.19764675  0.39651482  1
  Hf  Hf23  1  0.00091747  0.20416891  0.79474305  1
  Hf  Hf24  1  0.40019767  -0.00386446  0.79543965  1
  Hf  Hf25  1  0.09705867  0.71534378  0.50558820  1
  Hf  Hf26  1  0.20337931  0.39712090  0.40491902  1
  Hf  Hf27  1  0.80245331  -0.00317401  0.00179791  1
  Hf  Hf28  1  -0.00929222  0.79665930  0.80612345  1
  Hf  Hf29  1  0.80131597  0.39886770  0.79975848  1
  Hf  Hf30  1  0.30493090  0.50041157  0.51122182  1
  Hf  Hf31  1  0.39966281  0.20306932  0.79507184  1
  Hf  Hf32  1  0.29169692  0.71031503  0.29931517  1
  Hf  Hf33  1  0.50433108  0.70568286  0.10458464  1
  Hf  Hf34  1  0.70512636  0.90007922  0.49741809  1
  Hf  Hf35  1  0.00436002  0.58888349  0.00322097  1
  Hf  Hf36  1  0.20865499  0.79944925  0.81135804  1
  Hf  Hf37  1  0.10378826  0.30213485  0.09487991  1
  Hf  Hf38  1  0.60308150  0.39705407  -0.00559143  1
  Hf  Hf39  1  0.61240503  0.39366202  0.19750855  1
  Hf  Hf40  1  0.30181419  0.10222614  0.29244702  1
  Hf  Hf41  1  0.39584640  0.60094851  0.19529055  1
  Hf  Hf42  1  -0.00111309  0.59817746  0.18869238  1
  Hf  Hf43  1  0.70552338  0.50071547  0.09367791  1
  Hf  Hf44  1  0.30186761  0.10580813  0.50515326  1
  Hf  Hf45  1  0.79889758  0.20344734  0.79710169  1
  Hf  Hf46  1  0.09040254  0.30227364  0.50416386  1
  Hf  Hf47  1  0.49758026  0.09995718  0.10091314  1
  Hf  Hf48  1  -0.00934329  -0.00438558  0.00426545  1
  Hf  Hf49  1  0.60859610  0.60237268  0.21075441  1
  Zr  Zr50  1  0.80466998  0.00571628  0.60136439  1
  Zr  Zr51  1  0.09948972  0.10783018  0.50252847  1
  Zr  Zr52  1  -0.00053969  0.59915263  0.40821769  1
  Zr  Zr53  1  0.59955453  0.38445476  0.78766700  1
  Zr  Zr54  1  0.12712580  0.48954806  0.11667867  1
  Zr  Zr55  1  0.10654953  0.10381989  0.90311925  1
  Zr  Zr56  1  0.70380558  0.70571508  0.10284299  1
  Zr  Zr57  1  0.80886443  -0.00053225  0.80292083  1
  Zr  Zr58  1  0.00466943  0.00982801  0.38717443  1
  Zr  Zr59  1  0.10057030  0.89800134  0.90766414  1
  Zr  Zr60  1  0.21155634  0.40838271  -0.02741757  1
  Zr  Zr61  1  -0.00381467  0.40168520  0.61235820  1
  Zr  Zr62  1  0.59113282  0.80904022  0.60047316  1
  Zr  Zr63  1  0.39440782  -0.00557730  0.00213315  1
  Zr  Zr64  1  0.89821319  0.30650490  0.30772766  1
  Zr  Zr65  1  0.70125378  0.89957408  0.29326622  1
  Zr  Zr66  1  0.59682842  0.80509497  0.00147856  1
  Zr  Zr67  1  0.90794022  0.89186561  0.49569956  1
  Zr  Zr68  1  0.40044294  -0.00206382  0.20068853  1
  Zr  Zr69  1  0.20631523  0.59829447  -0.00209959  1
  Zr  Zr70  1  0.79723538  0.20995712  0.19813704  1
  Zr  Zr71  1  0.60480130  0.21350228  0.61227353  1
  Zr  Zr72  1  0.09385792  0.49669982  0.30365453  1
  Zr  Zr73  1  0.49713343  0.68890042  0.69858803  1
  Zr  Zr74  1  0.90461998  0.71060349  0.30338487  1
  Zr  Zr75  1  0.40269992  -0.00264964  0.40153112  1
  Zr  Zr76  1  0.39537383  0.40610500  -0.00545658  1
  Zr  Zr77  1  0.20478617  0.78885165  0.00512957  1
  Zr  Zr78  1  0.50628170  0.90968178  0.89878629  1
  Zr  Zr79  1  0.89515466  0.70239540  0.50843454  1
  Zr  Zr80  1  0.39756804  0.59752961  0.00180624  1
  Zr  Zr81  1  0.10126149  0.69753986  0.70306044  1
  Zr  Zr82  1  0.69704123  0.09482949  0.30114270  1
  Zr  Zr83  1  -0.00075343  0.40570991  0.80442387  1
  Zr  Zr84  1  0.09502868  0.89201102  0.29662576  1
  Zr  Zr85  1  0.41296472  -0.00757493  0.59445522  1
  Zr  Zr86  1  0.69909133  0.69921794  0.89500203  1
  Zr  Zr87  1  0.69498976  0.51008238  0.69390862  1
  Zr  Zr88  1  0.80540879  0.39636941  -0.00832451  1
  Zr  Zr89  1  0.90413993  0.10810383  0.49842946  1
  Zr  Zr90  1  0.39243163  0.59805345  0.39884574  1
  Zr  Zr91  1  0.38685628  0.39676923  0.80244398  1
  Zr  Zr92  1  0.27552556  0.50629988  0.28581629  1
  Zr  Zr93  1  0.50946762  0.49696628  0.31446234  1
  Zr  Zr94  1  0.89658293  0.48817303  0.30931559  1
  Zr  Zr95  1  0.49415495  0.29479405  0.09804808  1
  Zr  Zr96  1  0.00576617  0.00359072  0.79296141  1
  Zr  Zr97  1  0.90124056  0.10582896  0.90333527  1
  Zr  Zr98  1  0.80352411  0.59619078  0.20412414  1
  Zr  Zr99  1  0.10188926  0.88486285  0.68981463  1
  Ta  Ta100  1  0.09549966  0.89426091  0.10808947  1
  Ta  Ta101  1  0.19354704  0.00171888  0.20212239  1
  Ta  Ta102  1  0.50085904  0.28880728  0.89826460  1
  Ta  Ta103  1  0.80715051  0.80495734  -0.00304081  1
  Ta  Ta104  1  -0.00511974  0.19654679  0.19356012  1
  Ta  Ta105  1  -0.00261714  0.60144801  0.61008218  1
  Ta  Ta106  1  0.70157225  0.90392705  0.70780451  1
  Ta  Ta107  1  0.80705900  0.60172027  -0.00417503  1
  Ta  Ta108  1  0.79860794  0.20262889  -0.00064370  1
  Ta  Ta109  1  0.10457684  0.30185049  0.89612649  1
  Ta  Ta110  1  0.50798372  0.10409204  0.89931184  1
  Ta  Ta111  1  -0.00591880  0.20999434  0.00069651  1
  Ta  Ta112  1  0.29492187  0.88740247  0.49677712  1
  Ta  Ta113  1  0.69753795  0.90149508  0.10736822  1
  Ta  Ta114  1  0.19542594  0.19761742  0.19875519  1
  Ta  Ta115  1  0.09458042  0.69150349  0.90039637  1
  Ta  Ta116  1  0.80697660  0.60607058  0.79818901  1
  Ta  Ta117  1  0.60168074  0.59908725  -0.00291615  1
  Ta  Ta118  1  0.69674617  0.09977919  0.70568955  1
  Ta  Ta119  1  0.00154870  0.40284859  -0.00593932  1
  Ta  Ta120  1  0.89932037  0.89410930  0.69866452  1
  Ta  Ta121  1  0.50659413  0.49951189  0.50657052  1
  Ta  Ta122  1  0.79620704  0.20078156  0.40521725  1
  Ta  Ta123  1  0.50864238  0.10151470  0.70959321  1
  Ta  Ta124  1  0.20566289  -0.00144798  0.79583861  1
  Ta  Ta125  1  0.00046867  0.00540638  0.61043116  1
  Ta  Ta126  1  0.09917327  0.49837613  0.50884236  1
  Ta  Ta127  1  0.80465492  0.00544559  0.39625335  1
  Ta  Ta128  1  0.49699138  0.50428918  0.69337028  1
  Ta  Ta129  1  0.79616824  0.79699087  0.61389357  1
  Ta  Ta130  1  0.60749182  0.20004270  -0.00042041  1
  Ta  Ta131  1  0.20214324  0.00112509  0.39409123  1
  Ta  Ta132  1  0.70238517  0.90285189  0.89908637  1
  Ta  Ta133  1  0.89961670  0.29945691  0.50143163  1
  Ta  Ta134  1  0.29509496  0.29833770  0.10069524  1
  Ta  Ta135  1  -0.01427088  0.40326119  0.17901858  1
  Ta  Ta136  1  0.40329677  0.39430450  0.60736918  1
  Ta  Ta137  1  0.69743158  0.10720161  0.49974848  1
  Ta  Ta138  1  0.78768802  0.60128027  0.39892715  1
  Ta  Ta139  1  0.39529047  0.80238171  -0.00081910  1
  Ta  Ta140  1  0.39882734  0.80256932  0.19472910  1
  Ta  Ta141  1  0.19820144  0.60652126  0.41540804  1
  Ta  Ta142  1  0.40282362  0.80287865  0.80487954  1
  Ta  Ta143  1  0.90262540  0.89941335  0.29339728  1
  Ta  Ta144  1  0.10898544  0.50246343  0.70142668  1
  Ta  Ta145  1  0.79854815  0.20286891  0.60266771  1
  Ta  Ta146  1  0.90123637  0.89373914  0.10884864  1
  Ta  Ta147  1  0.29221977  0.89799079  0.10635080  1
  Ta  Ta148  1  0.19927529  0.60027297  0.59753964  1
  Ta  Ta149  1  0.50526454  0.70435322  0.30212169  1
  Ti  Ti150  1  0.10838664  0.30542370  0.70443020  1
  Ti  Ti151  1  0.20386207  -0.00759583  0.00290241  1
  Ti  Ti152  1  -0.00122520  0.19416962  0.61597402  1
  Ti  Ti153  1  0.69941123  0.49230557  0.31249027  1
  Ti  Ti154  1  0.29169542  0.89423089  0.30048509  1
  Ti  Ti155  1  0.30211208  0.10168676  0.69680656  1
  Ti  Ti156  1  0.90141743  0.10163996  0.29234181  1
  Ti  Ti157  1  0.89518080  0.29944435  0.69560709  1
  Ti  Ti158  1  0.50791549  0.50169556  0.09999646  1
  Ti  Ti159  1  0.20347225  0.20442382  -0.00168721  1
  Ti  Ti160  1  -0.00344957  0.59763053  0.79861348  1
  Ti  Ti161  1  0.20369441  0.40125013  0.60659050  1
  Ti  Ti162  1  0.20062781  0.59216884  0.80579418  1
  Ti  Ti163  1  0.69777301  0.50919500  0.89153999  1
  Ti  Ti164  1  0.69898362  0.69439678  0.69845213  1
  Ti  Ti165  1  0.69218471  0.29962376  0.32164964  1
  Ti  Ti166  1  0.30169614  0.50546452  0.70177731  1
  Ti  Ti167  1  0.90171398  0.69676402  0.90321501  1
  Ti  Ti168  1  0.29655433  0.10511165  0.10226372  1
  Ti  Ti169  1  0.79883250  0.79779388  0.20110376  1
  Ti  Ti170  1  0.81239572  0.00288992  0.19704028  1
  Ti  Ti171  1  0.79752164  0.39614547  0.19457674  1
  Ti  Ti172  1  0.69188337  0.50402968  0.50292271  1
  Ti  Ti173  1  0.69109051  0.09652193  0.89505187  1
  Ti  Ti174  1  0.90129248  0.70488263  0.09871948  1
  Ti  Ti175  1  0.80335737  0.79817078  0.80157109  1
  Ti  Ti176  1  0.31090976  0.69278481  0.89160058  1
  Ti  Ti177  1  0.39436059  0.20258115  -0.00367069  1
  Ti  Ti178  1  0.60265470  0.39671382  0.60137070  1
  Ti  Ti179  1  0.89925035  0.50521388  0.89869255  1
  Ti  Ti180  1  -0.00068189  0.20023938  0.38934361  1
  Ti  Ti181  1  0.60329362  0.79340123  0.39787356  1
  Ti  Ti182  1  0.60142884  -0.00040011  0.00463287  1
  Ti  Ti183  1  0.78714374  0.38961453  0.60235943  1
  Ti  Ti184  1  -0.00201773  0.79481923  0.00282515  1
  Ti  Ti185  1  0.79548725  0.79742246  0.39649129  1
  Ti  Ti186  1  0.50729162  0.11570099  0.50330434  1
  Ti  Ti187  1  0.49915704  0.69607553  0.89566358  1
  Ti  Ti188  1  0.19653757  0.20080390  0.60946313  1
  Ti  Ti189  1  0.29424603  0.30065364  0.69834481  1
  Ti  Ti190  1  0.89632508  0.30026328  0.09411764  1
  Ti  Ti191  1  0.30317368  0.29574232  0.29103264  1
  Ti  Ti192  1  0.40692759  0.20758095  0.60838721  1
  Ti  Ti193  1  0.78799692  0.39460029  0.41550601  1
  Ti  Ti194  1  0.39208429  0.39930605  0.40228046  1
  Ti  Ti195  1  0.30121739  0.29753078  0.50960958  1
  Ti  Ti196  1  0.20223249  0.20100578  0.79579064  1
  Ti  Ti197  1  0.69636656  0.29111884  0.89687814  1
  Ti  Ti198  1  0.39958435  0.80016683  0.40236620  1
  Ti  Ti199  1  0.89035740  0.50899476  0.69529035  1
  Mo  Mo200  1  0.49895971  0.90102401  0.70202852  1
  Mo  Mo201  1  -0.00259740  0.80357176  0.39381018  1
  Mo  Mo202  1  0.60468234  0.00292281  0.79934098  1
  Mo  Mo203  1  0.09768113  0.50405892  0.88593163  1
  Mo  Mo204  1  0.20977944  0.79160690  0.59255542  1
  Mo  Mo205  1  0.70305144  0.29734726  0.08993210  1
  Mo  Mo206  1  0.90558793  0.30067455  0.90255560  1
  Mo  Mo207  1  -0.00513075  0.00210356  0.19548733  1
  Mo  Mo208  1  -0.01206820  0.79927934  0.60869377  1
  Mo  Mo209  1  0.09566794  0.70407221  0.09725312  1
  Mo  Mo210  1  0.30528265  0.70685816  0.10285656  1
  Mo  Mo211  1  0.89954506  0.10299974  0.10288715  1
  Mo  Mo212  1  0.49965733  0.10250210  0.29757299  1
  Mo  Mo213  1  0.20418501  0.37797530  0.20801459  1
  Mo  Mo214  1  0.40101522  0.79775944  0.59000569  1
  Mo  Mo215  1  0.89535672  0.69789135  0.70510389  1
  Mo  Mo216  1  0.10044258  0.10500498  0.29087618  1
  Mo  Mo217  1  0.59823178  0.59490451  0.59950137  1
  Mo  Mo218  1  0.70656110  0.30004761  0.70003682  1
  Mo  Mo219  1  0.39818345  0.58945918  0.60039033  1
  Mo  Mo220  1  0.60352359  0.59666471  0.40156082  1
  Mo  Mo221  1  -0.00182449  0.39801460  0.41803853  1
  Mo  Mo222  1  0.30498243  0.51472486  0.88006812  1
  Mo  Mo223  1  0.10919581  0.10675295  0.70121301  1
  Mo  Mo224  1  0.30075915  0.89899549  0.90193394  1
  Mo  Mo225  1  -0.00348918  0.79786056  0.19104573  1
  Mo  Mo226  1  0.60401049  0.60475673  0.80071676  1
  Mo  Mo227  1  0.20108546  0.80784982  0.19682136  1
  Mo  Mo228  1  0.60120733  0.19587076  0.80633940  1
  Mo  Mo229  1  0.89684129  0.88874636  0.90328109  1
  Mo  Mo230  1  0.20026607  0.62589987  0.17917779  1
  Mo  Mo231  1  0.29860614  0.70120368  0.49967293  1
  Mo  Mo232  1  0.59470437  -0.00244312  0.19337830  1
  Mo  Mo233  1  0.89406315  0.49589513  0.09304808  1
  Mo  Mo234  1  0.50112937  0.89998286  0.10190842  1
  Mo  Mo235  1  0.79818912  0.60314629  0.60351400  1
  Mo  Mo236  1  0.49526169  0.88380270  0.49116208  1
  Mo  Mo237  1  0.69975363  0.70509920  0.30836862  1
  Mo  Mo238  1  0.90050210  0.10341951  0.69556932  1
  Mo  Mo239  1  0.59899045  0.79942798  0.20276838  1
  Mo  Mo240  1  0.20352407  0.80203457  0.39867755  1
  Mo  Mo241  1  0.39897774  0.60324508  0.79678264  1
  Mo  Mo242  1  0.60212713  0.19852166  0.40369111  1
  Mo  Mo243  1  0.70461673  0.30018913  0.50360653  1
  Mo  Mo244  1  0.29611619  0.28308569  0.90082516  1
  Mo  Mo245  1  0.61009281  0.40056197  0.40871612  1
  Mo  Mo246  1  0.19985414  0.39883750  0.78949763  1
  Mo  Mo247  1  0.39379586  0.20135193  0.19629574  1
  Mo  Mo248  1  0.30244363  0.49613028  0.10487694  1
  Mo  Mo249  1  0.49522215  0.30135860  0.69830749  1
