# generated using pymatgen
data_HfZrTaTiMo
_symmetry_space_group_name_H-M   'P 1'
_cell_length_a   16.89697211
_cell_length_b   16.89250897
_cell_length_c   16.89487318
_cell_angle_alpha   89.97897752
_cell_angle_beta   90.01885446
_cell_angle_gamma   89.93623379
_symmetry_Int_Tables_number   1
_chemical_formula_structural   HfZrTaTiMo
_chemical_formula_sum   'Hf50 Zr50 Ta50 Ti50 Mo50'
_cell_volume   4822.33814029
_cell_formula_units_Z   50
loop_
 _symmetry_equiv_pos_site_id
 _symmetry_equiv_pos_as_xyz
  1  'x, y, z'
loop_
 _atom_site_type_symbol
 _atom_site_label
 _atom_site_symmetry_multiplicity
 _atom_site_fract_x
 _atom_site_fract_y
 _atom_site_fract_z
 _atom_site_occupancy
  Hf  Hf0  1  0.89433480  0.09303704  0.69975589  1
  Hf  Hf1  1  0.09297092  0.90875200  0.29741296  1
  Hf  Hf2  1  0.69569216  0.28977244  0.90445101  1
  Hf  Hf3  1  -0.00508118  0.60304990  0.00024058  1
  Hf  Hf4  1  0.10020671  0.90210965  0.49139248  1
  Hf  Hf5  1  0.88662612  0.30773169  0.90497098  1
  Hf  Hf6  1  0.50869199  0.90408730  0.90644421  1
  Hf  Hf7  1  0.09864755  0.10012930  0.48774329  1
  Hf  Hf8  1  0.60785957  0.58671308  0.00970692  1
  Hf  Hf9  1  0.00484440  -0.00169601  0.81004974  1
  Hf  Hf10  1  0.62089326  0.58069598  0.80448693  1
  Hf  Hf11  1  0.49997795  0.49070289  0.89935805  1
  Hf  Hf12  1  0.19487088  0.60881499  0.20348689  1
  Hf  Hf13  1  0.08606534  0.50363923  0.49165700  1
  Hf  Hf14  1  0.89147916  0.49028104  0.09708687  1
  Hf  Hf15  1  0.50387464  0.29983821  0.49849847  1
  Hf  Hf16  1  0.09879891  0.71032565  0.09480082  1
  Hf  Hf17  1  0.40886174  0.00913801  0.79679183  1
  Hf  Hf18  1  -0.00628573  0.19555655  0.00872650  1
  Hf  Hf19  1  0.70336947  0.90618708  0.50772525  1
  Hf  Hf20  1  0.80927471  0.80185574  0.00970193  1
  Hf  Hf21  1  0.19011973  0.80193897  0.79631454  1
  Hf  Hf22  1  0.39846568  0.61052971  0.21096390  1
  Hf  Hf23  1  0.60223857  0.79647338  0.60188749  1
  Hf  Hf24  1  -0.00282733  0.38784398  0.19820322  1
  Hf  Hf25  1  0.90476583  0.69190800  0.70170394  1
  Hf  Hf26  1  0.00850616  0.78553901  0.59797902  1
  Hf  Hf27  1  0.70587199  0.69275566  0.70017327  1
  Hf  Hf28  1  0.29998546  0.49740232  0.49708223  1
  Hf  Hf29  1  -0.00346123  0.19675942  0.81052883  1
  Hf  Hf30  1  0.30197375  0.91473269  0.09501938  1
  Hf  Hf31  1  0.89905480  0.49905691  0.49191704  1
  Hf  Hf32  1  0.50040788  0.70969587  0.09814297  1
  Hf  Hf33  1  0.30699803  0.90800860  0.49094027  1
  Hf  Hf34  1  0.60397807  0.59167249  0.38577204  1
  Hf  Hf35  1  0.08801555  0.50004172  0.69694983  1
  Hf  Hf36  1  0.80171194  0.00512857  0.40019927  1
  Hf  Hf37  1  0.20148238  0.20032482  0.59113091  1
  Hf  Hf38  1  0.10940578  0.29745880  0.91120240  1
  Hf  Hf39  1  0.30628364  0.90535617  0.69438884  1
  Hf  Hf40  1  0.09170126  0.49431862  0.30556420  1
  Hf  Hf41  1  0.60356227  0.00594696  0.78972232  1
  Hf  Hf42  1  0.59956064  0.79714003  0.39179087  1
  Hf  Hf43  1  0.69202381  0.71558211  0.10061190  1
  Hf  Hf44  1  0.78506194  0.59784092  0.20237073  1
  Hf  Hf45  1  0.28963787  0.49229194  0.90512925  1
  Hf  Hf46  1  0.19016522  0.61678729  0.39479968  1
  Hf  Hf47  1  -0.00108864  0.60455098  0.19713798  1
  Hf  Hf48  1  0.29904251  0.09901909  0.91479841  1
  Hf  Hf49  1  0.69934050  0.10656596  0.29524586  1
  Zr  Zr50  1  0.58756532  0.00799548  0.39474847  1
  Zr  Zr51  1  0.50688858  0.68846980  0.70593498  1
  Zr  Zr52  1  0.40336306  0.20125276  0.80276239  1
  Zr  Zr53  1  0.51454018  0.10911341  0.91223216  1
  Zr  Zr54  1  0.29703855  0.70723585  0.09593523  1
  Zr  Zr55  1  0.10091625  0.10407534  0.70280742  1
  Zr  Zr56  1  0.60833090  0.39127365  0.39311696  1
  Zr  Zr57  1  0.79333725  0.21052485  0.40110017  1
  Zr  Zr58  1  0.39595892  0.38597431  0.81052808  1
  Zr  Zr59  1  0.50330822  0.29970378  0.69239088  1
  Zr  Zr60  1  0.49883395  0.90818832  0.09834926  1
  Zr  Zr61  1  0.79525598  0.20439793  0.59588238  1
  Zr  Zr62  1  0.89292632  0.69640584  0.30379415  1
  Zr  Zr63  1  0.70098981  0.89901599  0.90058167  1
  Zr  Zr64  1  0.19203183  0.39542379  0.59138200  1
  Zr  Zr65  1  0.30762484  0.10411013  0.10283067  1
  Zr  Zr66  1  0.19989465  0.00511186  0.20515716  1
  Zr  Zr67  1  0.29667913  0.49559014  0.30380800  1
  Zr  Zr68  1  0.29935410  0.69837550  0.89509451  1
  Zr  Zr69  1  0.20141339  0.00422712  0.59680288  1
  Zr  Zr70  1  0.51796106  0.70503788  0.90265198  1
  Zr  Zr71  1  0.19804835  -0.00368872  0.80759059  1
  Zr  Zr72  1  0.80265076  0.19434155  0.01207651  1
  Zr  Zr73  1  0.49683491  0.90623681  0.49900053  1
  Zr  Zr74  1  0.40280355  0.80330543  0.79984109  1
  Zr  Zr75  1  0.19525771  0.79551279  0.59715417  1
  Zr  Zr76  1  0.60841252  0.40619231  0.20509829  1
  Zr  Zr77  1  0.10129733  0.29322745  0.30706338  1
  Zr  Zr78  1  0.89566697  0.30310052  0.70265777  1
  Zr  Zr79  1  0.40614230  0.79443833  0.59910351  1
  Zr  Zr80  1  0.89415636  0.89833650  0.70025385  1
  Zr  Zr81  1  0.09904323  0.29998342  0.70546435  1
  Zr  Zr82  1  0.40775848  0.59181054  0.59299730  1
  Zr  Zr83  1  0.19349087  0.81349586  -0.01167911  1
  Zr  Zr84  1  0.30370117  0.69899939  0.49562876  1
  Zr  Zr85  1  0.48837306  0.29812943  0.11728382  1
  Zr  Zr86  1  0.50436658  0.48527285  0.69224608  1
  Zr  Zr87  1  0.89849161  0.49613160  0.30947113  1
  Zr  Zr88  1  0.60033779  0.39688264  0.01093122  1
  Zr  Zr89  1  0.09680249  0.49135680  0.89945403  1
  Zr  Zr90  1  0.40190442  0.59891743  -0.00121045  1
  Zr  Zr91  1  0.79682469  0.60254260  -0.00144922  1
  Zr  Zr92  1  0.29764842  0.49611638  0.69809029  1
  Zr  Zr93  1  0.59784273  0.59789295  0.20568311  1
  Zr  Zr94  1  0.29679150  0.49222961  0.10045445  1
  Zr  Zr95  1  0.89979889  0.89933714  0.50204858  1
  Zr  Zr96  1  0.70971282  0.69210218  0.49362026  1
  Zr  Zr97  1  0.89895288  0.90233721  0.89910851  1
  Zr  Zr98  1  -0.00870661  0.80353362  0.19071205  1
  Zr  Zr99  1  0.70653277  0.90558313  0.29292759  1
  Ta  Ta100  1  -0.00224338  0.19545899  0.20154508  1
  Ta  Ta101  1  -0.00334928  0.39309281  0.00568866  1
  Ta  Ta102  1  0.70716576  0.49194191  0.49450761  1
  Ta  Ta103  1  -0.01031410  0.20010566  0.40139917  1
  Ta  Ta104  1  0.08786288  0.91761261  0.09218290  1
  Ta  Ta105  1  0.89880337  0.09925610  0.50299383  1
  Ta  Ta106  1  0.40240745  0.19259549  0.59020272  1
  Ta  Ta107  1  0.20222872  0.80768801  0.20605108  1
  Ta  Ta108  1  0.89936599  0.91075412  0.29030883  1
  Ta  Ta109  1  0.20154240  0.80167716  0.38692410  1
  Ta  Ta110  1  0.40038127  0.20847989  0.00175288  1
  Ta  Ta111  1  0.60084999  0.19349598  0.59377739  1
  Ta  Ta112  1  0.40744453  0.00314597  0.21797166  1
  Ta  Ta113  1  0.18963293  0.60300111  0.79808326  1
  Ta  Ta114  1  0.80336497  0.79968022  0.39535864  1
  Ta  Ta115  1  0.50597049  0.69197067  0.49137048  1
  Ta  Ta116  1  0.70239124  0.09910185  0.90281670  1
  Ta  Ta117  1  0.80113135  0.58790897  0.60282719  1
  Ta  Ta118  1  0.00031175  0.00268963  0.59755575  1
  Ta  Ta119  1  0.21229564  0.20349013  0.80620727  1
  Ta  Ta120  1  0.30642327  0.29881811  0.68610732  1
  Ta  Ta121  1  0.30435410  0.10575956  0.69686021  1
  Ta  Ta122  1  0.79122265  0.19637699  0.79753214  1
  Ta  Ta123  1  0.61147319  0.39550693  0.79750489  1
  Ta  Ta124  1  0.59208533  0.80656332  0.20883091  1
  Ta  Ta125  1  0.50059306  0.10800424  0.10734938  1
  Ta  Ta126  1  0.10282420  0.49103067  0.09852359  1
  Ta  Ta127  1  -0.00162078  0.20378814  0.58946257  1
  Ta  Ta128  1  0.00172739  0.79474144  0.39506555  1
  Ta  Ta129  1  0.61026945  0.00693719  0.01241354  1
  Ta  Ta130  1  0.20051360  0.39026948  0.20228625  1
  Ta  Ta131  1  -0.00582079  0.38990611  0.58889835  1
  Ta  Ta132  1  0.20090600  0.19995894  0.20341002  1
  Ta  Ta133  1  0.60542446  0.58436624  0.59078948  1
  Ta  Ta134  1  0.39594400  0.80800619  0.20951059  1
  Ta  Ta135  1  0.40609954  0.39755808  0.39951754  1
  Ta  Ta136  1  0.18777128  0.60142630  -0.00505882  1
  Ta  Ta137  1  0.80959426  0.20340302  0.20014432  1
  Ta  Ta138  1  0.40031507  0.80786941  -0.00208900  1
  Ta  Ta139  1  0.89758935  0.49334712  0.89804507  1
  Ta  Ta140  1  0.10451329  0.29406631  0.10055585  1
  Ta  Ta141  1  0.90119164  0.70145269  0.89194232  1
  Ta  Ta142  1  0.18311804  0.60854141  0.60083964  1
  Ta  Ta143  1  0.80243123  0.58994625  0.80167302  1
  Ta  Ta144  1  0.30726850  0.29766696  0.49337811  1
  Ta  Ta145  1  0.40269229  0.80015289  0.38583142  1
  Ta  Ta146  1  0.59404699  0.00693396  0.20329582  1
  Ta  Ta147  1  0.30697115  0.10784857  0.30705264  1
  Ta  Ta148  1  0.80005877  0.00139817  0.01093707  1
  Ta  Ta149  1  0.29495486  0.69161010  0.70074450  1
  Ti  Ti150  1  0.79582279  0.39001945  0.20413339  1
  Ti  Ti151  1  0.20053582  0.38961085  0.40145744  1
  Ti  Ti152  1  0.71485332  0.47933281  0.91231980  1
  Ti  Ti153  1  0.70446341  0.29691793  0.10348575  1
  Ti  Ti154  1  0.80383668  0.79244274  0.59652239  1
  Ti  Ti155  1  0.48815336  0.48778676  0.29600664  1
  Ti  Ti156  1  0.79970773  0.79548825  0.79924069  1
  Ti  Ti157  1  0.50168175  0.90546467  0.69367194  1
  Ti  Ti158  1  0.20777826  0.19987661  0.40161991  1
  Ti  Ti159  1  0.79144915  0.40463199  0.78999130  1
  Ti  Ti160  1  0.21091201  0.00452696  0.39353594  1
  Ti  Ti161  1  0.71379896  0.90866089  0.69437397  1
  Ti  Ti162  1  0.70141950  0.90651268  0.10736093  1
  Ti  Ti163  1  0.90519093  0.08361108  0.11063250  1
  Ti  Ti164  1  -0.00785368  0.00343848  0.39779032  1
  Ti  Ti165  1  0.40712660  0.01732286  0.59413578  1
  Ti  Ti166  1  0.90098954  0.09750673  0.29487273  1
  Ti  Ti167  1  -0.00184636  0.59832673  0.80189012  1
  Ti  Ti168  1  0.89784440  0.30188082  0.30571926  1
  Ti  Ti169  1  0.30797098  0.91370664  0.90819136  1
  Ti  Ti170  1  0.70700418  0.09429986  0.69507913  1
  Ti  Ti171  1  0.31236162  0.29460465  0.29894076  1
  Ti  Ti172  1  0.39522020  0.38812045  -0.00038876  1
  Ti  Ti173  1  0.60605525  0.19613298  0.78544808  1
  Ti  Ti174  1  0.90203724  0.49709971  0.69693595  1
  Ti  Ti175  1  0.69508158  0.10078882  0.49865458  1
  Ti  Ti176  1  0.90380182  0.68679167  0.49665673  1
  Ti  Ti177  1  0.60682469  0.80657661  0.79004395  1
  Ti  Ti178  1  0.29515332  0.29799119  0.10217356  1
  Ti  Ti179  1  0.51392062  0.29404309  0.90578112  1
  Ti  Ti180  1  0.59487649  0.01184075  0.60148487  1
  Ti  Ti181  1  0.09676954  0.10237982  0.30130884  1
  Ti  Ti182  1  0.60295699  0.21106393  0.21027928  1
  Ti  Ti183  1  0.40800228  0.60200126  0.39396893  1
  Ti  Ti184  1  0.80357637  0.80224765  0.19792143  1
  Ti  Ti185  1  0.69610692  0.10448569  0.10843512  1
  Ti  Ti186  1  0.20585968  0.39015592  0.79949289  1
  Ti  Ti187  1  0.10718790  0.09750500  0.91689231  1
  Ti  Ti188  1  -0.00742586  0.80653583  -0.00067363  1
  Ti  Ti189  1  0.69999772  0.70753000  0.89995314  1
  Ti  Ti190  1  0.79786097  0.39731405  0.59307445  1
  Ti  Ti191  1  0.39734753  0.59428388  0.80056986  1
  Ti  Ti192  1  0.10182555  0.09903972  0.09911281  1
  Ti  Ti193  1  0.48472499  0.49223594  0.10799847  1
  Ti  Ti194  1  0.08654571  0.70756855  0.89291058  1
  Ti  Ti195  1  0.69461012  0.30534508  0.69062196  1
  Ti  Ti196  1  0.49340138  0.12195717  0.30417033  1
  Ti  Ti197  1  0.09066652  0.89854875  0.70033295  1
  Ti  Ti198  1  -0.00507205  0.39759727  0.80268336  1
  Ti  Ti199  1  0.88788285  0.09333919  0.89996844  1
  Mo  Mo200  1  0.50372615  0.10216299  0.68988515  1
  Mo  Mo201  1  0.08894209  0.90101850  0.90511651  1
  Mo  Mo202  1  0.70169765  0.71157253  0.29631143  1
  Mo  Mo203  1  0.09805150  0.29485171  0.49181116  1
  Mo  Mo204  1  0.00079750  0.79760327  0.80010010  1
  Mo  Mo205  1  0.20041593  0.19958536  0.00907145  1
  Mo  Mo206  1  -0.00593999  0.59418291  0.59881137  1
  Mo  Mo207  1  0.00022382  0.61564946  0.39955365  1
  Mo  Mo208  1  0.71577474  0.49084128  0.30576628  1
  Mo  Mo209  1  -0.00550455  0.00769369  0.00281136  1
  Mo  Mo210  1  0.50181563  0.10628643  0.49604775  1
  Mo  Mo211  1  0.39838031  0.01000029  0.39616802  1
  Mo  Mo212  1  0.30051370  0.90745458  0.30060314  1
  Mo  Mo213  1  0.49694902  0.90302968  0.29822368  1
  Mo  Mo214  1  0.90385374  0.29671904  0.10805886  1
  Mo  Mo215  1  0.60683299  0.81010955  0.00730426  1
  Mo  Mo216  1  0.00001671  0.00923444  0.20219086  1
  Mo  Mo217  1  0.79930878  0.00766202  0.19545092  1
  Mo  Mo218  1  0.18892009  0.00278885  0.00273483  1
  Mo  Mo219  1  0.89776761  0.90948531  0.10207639  1
  Mo  Mo220  1  0.30529768  0.10377188  0.49229234  1
  Mo  Mo221  1  0.69729459  0.30257149  0.50536951  1
  Mo  Mo222  1  0.89686201  0.70176904  0.09574249  1
  Mo  Mo223  1  0.60294132  0.19888774  0.01973615  1
  Mo  Mo224  1  -0.00390388  0.38114602  0.40392607  1
  Mo  Mo225  1  0.41329216  0.00665225  0.00212267  1
  Mo  Mo226  1  0.80031647  0.39421074  0.00913290  1
  Mo  Mo227  1  0.40185533  0.20328967  0.39956726  1
  Mo  Mo228  1  0.79425657  0.00746472  0.80264889  1
  Mo  Mo229  1  0.40059012  0.39385695  0.58559151  1
  Mo  Mo230  1  0.60959901  0.39888332  0.59375860  1
  Mo  Mo231  1  0.29360942  0.29616298  0.91521675  1
  Mo  Mo232  1  0.49855499  0.70413029  0.29974166  1
  Mo  Mo233  1  0.09294966  0.70119630  0.49254697  1
  Mo  Mo234  1  0.09625635  0.69195213  0.70625757  1
  Mo  Mo235  1  0.70876093  0.49248464  0.69073833  1
  Mo  Mo236  1  0.19651179  0.39673471  0.01149798  1
  Mo  Mo237  1  0.70586621  0.29495106  0.29373533  1
  Mo  Mo238  1  0.89904563  0.30183419  0.49807974  1
  Mo  Mo239  1  0.50374219  0.49873960  0.49083951  1
  Mo  Mo240  1  0.70916189  0.48857797  0.10315228  1
  Mo  Mo241  1  0.39385777  0.20069549  0.20446636  1
  Mo  Mo242  1  0.79604201  0.59892025  0.40173617  1
  Mo  Mo243  1  0.59874924  0.20055247  0.40139416  1
  Mo  Mo244  1  0.49669059  0.29451260  0.30401798  1
  Mo  Mo245  1  0.09777964  0.71292623  0.29486200  1
  Mo  Mo246  1  0.39110250  0.39522617  0.20865917  1
  Mo  Mo247  1  0.79890461  0.39555578  0.39899450  1
  Mo  Mo248  1  0.30094822  0.70761675  0.29887731  1
  Mo  Mo249  1  0.79623671  0.00534785  0.59786447  1
