# generated using pymatgen
data_HfZrTaTiMo
_symmetry_space_group_name_H-M   'P 1'
_cell_length_a   16.87624123
_cell_length_b   16.88790358
_cell_length_c   16.88473844
_cell_angle_alpha   89.95293818
_cell_angle_beta   90.05029330
_cell_angle_gamma   90.03237623
_symmetry_Int_Tables_number   1
_chemical_formula_structural   HfZrTaTiMo
_chemical_formula_sum   'Hf50 Zr50 Ta50 Ti50 Mo50'
_cell_volume   4812.21940207
_cell_formula_units_Z   50
loop_
 _symmetry_equiv_pos_site_id
 _symmetry_equiv_pos_as_xyz
  1  'x, y, z'
loop_
 _atom_site_type_symbol
 _atom_site_label
 _atom_site_symmetry_multiplicity
 _atom_site_fract_x
 _atom_site_fract_y
 _atom_site_fract_z
 _atom_site_occupancy
  Hf  Hf0  1  0.90975661  0.30493363  0.70241459  1
  Hf  Hf1  1  0.00728832  0.80399829  0.60187824  1
  Hf  Hf2  1  0.61134496  0.00705900  0.60298443  1
  Hf  Hf3  1  0.90438346  0.89693396  0.48626672  1
  Hf  Hf4  1  0.79349612  0.20027319  0.59524386  1
  Hf  Hf5  1  0.79696738  0.40516819  0.19987441  1
  Hf  Hf6  1  0.49737107  0.29011299  0.10040051  1
  Hf  Hf7  1  0.20384215  0.79924820  0.80354918  1
  Hf  Hf8  1  0.69120624  0.50361856  0.30399575  1
  Hf  Hf9  1  0.80297096  -0.01024511  0.79048502  1
  Hf  Hf10  1  0.30448905  0.10008700  0.70119292  1
  Hf  Hf11  1  0.00955893  0.81068222  0.19504582  1
  Hf  Hf12  1  0.00617431  0.20060305  0.39734395  1
  Hf  Hf13  1  0.59261136  0.81132724  0.19397498  1
  Hf  Hf14  1  0.90557496  0.70246266  0.49294151  1
  Hf  Hf15  1  0.89801944  0.89570190  0.30031788  1
  Hf  Hf16  1  0.89004405  0.10846295  0.30055188  1
  Hf  Hf17  1  0.80616387  0.59624094  0.80141169  1
  Hf  Hf18  1  0.49610236  0.29480795  0.30421390  1
  Hf  Hf19  1  0.30209925  0.49355091  0.49628187  1
  Hf  Hf20  1  0.19896950  0.19723140  0.39772631  1
  Hf  Hf21  1  0.89476728  0.30238976  0.90439142  1
  Hf  Hf22  1  0.89872926  0.68895182  0.68813480  1
  Hf  Hf23  1  0.79759006  0.39841804  0.40036913  1
  Hf  Hf24  1  -0.00567126  -0.00725234  0.60604585  1
  Hf  Hf25  1  0.41078827  0.59651016  0.00546525  1
  Hf  Hf26  1  0.49077965  0.69658233  0.29791463  1
  Hf  Hf27  1  0.60355544  0.59723219  0.00942791  1
  Hf  Hf28  1  0.49479362  0.10934467  0.89677528  1
  Hf  Hf29  1  0.19640560  0.18583597  0.00332788  1
  Hf  Hf30  1  0.70121776  0.88559840  0.89705179  1
  Hf  Hf31  1  0.79547104  0.40334034  0.59940765  1
  Hf  Hf32  1  0.60253371  0.79471253  0.00970698  1
  Hf  Hf33  1  0.00743835  0.59827893  0.39554506  1
  Hf  Hf34  1  0.30337245  0.50105930  0.30295371  1
  Hf  Hf35  1  0.00835573  -0.00574125  0.01125191  1
  Hf  Hf36  1  0.79502158  -0.00853635  0.00464555  1
  Hf  Hf37  1  0.19646951  0.59586871  0.59462942  1
  Hf  Hf38  1  0.90461306  0.70189978  0.09604678  1
  Hf  Hf39  1  0.19807144  0.60301245  0.20254361  1
  Hf  Hf40  1  0.68736314  0.69462884  0.30258638  1
  Hf  Hf41  1  0.49788287  0.10404184  0.49729594  1
  Hf  Hf42  1  0.30365882  0.30286207  0.89509422  1
  Hf  Hf43  1  -0.00047285  0.59080345  0.81205276  1
  Hf  Hf44  1  0.00852257  0.00674504  0.38795369  1
  Hf  Hf45  1  0.80079260  0.60153895  0.40125069  1
  Hf  Hf46  1  0.60094987  0.40221725  0.19474651  1
  Hf  Hf47  1  0.40365653  0.40535025  0.19817625  1
  Hf  Hf48  1  0.00367584  0.40972168  0.00614378  1
  Hf  Hf49  1  0.60485289  -0.00133699  0.79694120  1
  Zr  Zr50  1  0.30507336  0.09441035  0.10072298  1
  Zr  Zr51  1  0.41659357  0.40359913  -0.00416039  1
  Zr  Zr52  1  0.10416495  0.30992483  0.90783397  1
  Zr  Zr53  1  0.90982422  0.10532185  0.70329314  1
  Zr  Zr54  1  0.11304295  0.90229354  0.49239908  1
  Zr  Zr55  1  0.90248117  0.30020484  0.49221590  1
  Zr  Zr56  1  0.49502078  0.10180368  0.10613153  1
  Zr  Zr57  1  0.10276246  0.09579038  0.70286279  1
  Zr  Zr58  1  0.69348439  0.30682228  0.70257779  1
  Zr  Zr59  1  0.30382952  0.69949340  0.90096248  1
  Zr  Zr60  1  0.78388605  0.79987660  0.18830091  1
  Zr  Zr61  1  0.31306343  0.69115122  0.70962232  1
  Zr  Zr62  1  0.19039686  0.39969073  0.19332894  1
  Zr  Zr63  1  0.69064886  0.51051169  0.50448362  1
  Zr  Zr64  1  0.50203925  0.69937696  0.88308337  1
  Zr  Zr65  1  0.78625359  -0.00184299  0.19898035  1
  Zr  Zr66  1  0.00851746  0.19607086  0.00888682  1
  Zr  Zr67  1  0.30005927  0.90922965  0.30012771  1
  Zr  Zr68  1  0.50695293  0.69031487  0.50189963  1
  Zr  Zr69  1  0.30073965  0.50238459  0.89785958  1
  Zr  Zr70  1  0.49583429  0.10495676  0.69680585  1
  Zr  Zr71  1  0.10262346  0.30165796  0.69556863  1
  Zr  Zr72  1  0.10330028  0.69322296  0.70053818  1
  Zr  Zr73  1  0.89329291  0.29681514  0.10059381  1
  Zr  Zr74  1  0.59369885  0.80642997  0.40181654  1
  Zr  Zr75  1  0.48876661  0.91385652  0.50580780  1
  Zr  Zr76  1  0.79530395  0.00171351  0.60389273  1
  Zr  Zr77  1  0.39159471  0.20121231  0.40373260  1
  Zr  Zr78  1  0.69205741  0.10873078  0.10048738  1
  Zr  Zr79  1  0.69821273  0.49625708  0.90158669  1
  Zr  Zr80  1  0.49552395  0.29666879  0.70409199  1
  Zr  Zr81  1  0.80049900  0.80142471  0.60030170  1
  Zr  Zr82  1  0.58846610  -0.01590788  0.00499859  1
  Zr  Zr83  1  0.20373244  0.19162431  0.80718830  1
  Zr  Zr84  1  0.90341307  0.69961800  0.29271654  1
  Zr  Zr85  1  0.79302639  0.20067160  0.79770517  1
  Zr  Zr86  1  0.50849611  0.70097388  0.69769758  1
  Zr  Zr87  1  0.30521026  0.07072348  0.49744814  1
  Zr  Zr88  1  0.10896373  0.09447419  0.50521072  1
  Zr  Zr89  1  0.51005066  0.49932799  0.69735562  1
  Zr  Zr90  1  0.30118383  0.70597369  0.10485063  1
  Zr  Zr91  1  0.78601973  0.00028131  0.40329203  1
  Zr  Zr92  1  0.69999062  0.10583341  0.90598170  1
  Zr  Zr93  1  0.39942181  -0.00669737  0.81174508  1
  Zr  Zr94  1  0.30321402  0.69320552  0.49746947  1
  Zr  Zr95  1  -0.00534411  0.79515172  0.80242405  1
  Zr  Zr96  1  0.41237944  0.81400991  0.00119900  1
  Zr  Zr97  1  0.90227182  0.09719385  0.90419482  1
  Zr  Zr98  1  0.29683547  0.30095900  0.09430262  1
  Zr  Zr99  1  0.19000463  0.41187138  0.79854262  1
  Ta  Ta100  1  0.29911249  0.30580022  0.69639974  1
  Ta  Ta101  1  0.19121382  0.19831156  0.19935798  1
  Ta  Ta102  1  0.30621108  0.89716094  0.70060175  1
  Ta  Ta103  1  0.39979317  0.39742725  0.59654322  1
  Ta  Ta104  1  0.20478344  -0.00629632  0.81080195  1
  Ta  Ta105  1  0.90494117  0.50196588  0.49985934  1
  Ta  Ta106  1  0.39079683  0.20654173  0.59608412  1
  Ta  Ta107  1  0.89875245  0.10292539  0.49567584  1
  Ta  Ta108  1  0.89559689  0.10047035  0.10446504  1
  Ta  Ta109  1  0.89915029  0.89694582  0.09688306  1
  Ta  Ta110  1  0.90337209  0.51142397  0.10791328  1
  Ta  Ta111  1  0.90383615  0.50036368  0.68843157  1
  Ta  Ta112  1  0.09839158  0.70333424  0.09685197  1
  Ta  Ta113  1  0.49200157  0.09640391  0.29445587  1
  Ta  Ta114  1  0.10257772  0.70638051  0.29801984  1
  Ta  Ta115  1  0.18771015  0.00265687  0.19344695  1
  Ta  Ta116  1  0.90077932  0.88605088  0.90933746  1
  Ta  Ta117  1  0.09819244  0.70369927  0.91330696  1
  Ta  Ta118  1  0.80106916  0.60277442  0.00164639  1
  Ta  Ta119  1  0.59512696  0.59563489  0.19194406  1
  Ta  Ta120  1  0.20701058  0.79825604  0.39723932  1
  Ta  Ta121  1  0.59823058  0.39420380  0.40232127  1
  Ta  Ta122  1  0.00441921  0.20300625  0.59185391  1
  Ta  Ta123  1  0.50204833  0.89102900  0.70115839  1
  Ta  Ta124  1  0.29933830  0.50433504  0.09820692  1
  Ta  Ta125  1  0.69959307  0.29088463  0.30616212  1
  Ta  Ta126  1  0.10776932  0.89978650  0.70814521  1
  Ta  Ta127  1  0.30150639  0.49507738  0.69610254  1
  Ta  Ta128  1  -0.00076508  0.40055453  0.19943625  1
  Ta  Ta129  1  0.39656551  0.80673817  0.40176108  1
  Ta  Ta130  1  0.49864384  0.30187433  0.49976326  1
  Ta  Ta131  1  0.10452199  0.89262502  0.91095560  1
  Ta  Ta132  1  0.00419033  0.00464144  0.19764952  1
  Ta  Ta133  1  0.29864520  0.30017763  0.29769136  1
  Ta  Ta134  1  0.69187702  0.87832524  0.70116406  1
  Ta  Ta135  1  0.20806638  0.80054015  0.59845266  1
  Ta  Ta136  1  0.90107057  0.30133590  0.29940383  1
  Ta  Ta137  1  0.30096634  0.09821863  0.29171514  1
  Ta  Ta138  1  0.70032314  0.30003077  0.09342133  1
  Ta  Ta139  1  0.49888848  0.50331598  0.30737995  1
  Ta  Ta140  1  0.19823976  0.39758699  0.39568617  1
  Ta  Ta141  1  0.39797062  0.80274931  0.59829983  1
  Ta  Ta142  1  0.00692146  0.19842702  0.20032232  1
  Ta  Ta143  1  0.00471711  0.40269528  0.59197213  1
  Ta  Ta144  1  0.80593051  0.41055750  0.80049444  1
  Ta  Ta145  1  0.70519127  0.70125514  0.89935028  1
  Ta  Ta146  1  0.09564037  0.30424933  0.30072528  1
  Ta  Ta147  1  0.19409499  0.59883484  0.00222474  1
  Ta  Ta148  1  0.49899685  0.49622883  0.49582653  1
  Ta  Ta149  1  0.59483067  0.00380550  0.39377335  1
  Ti  Ti150  1  0.69614826  0.11667729  0.48497849  1
  Ti  Ti151  1  0.40370557  0.59176738  0.60208450  1
  Ti  Ti152  1  0.60228251  0.39554167  0.80918664  1
  Ti  Ti153  1  0.19640448  0.60140971  0.39638942  1
  Ti  Ti154  1  0.20521253  0.20447299  0.59499600  1
  Ti  Ti155  1  0.30326899  0.70300422  0.29678444  1
  Ti  Ti156  1  0.29553630  0.89712300  0.90896598  1
  Ti  Ti157  1  0.09687773  0.49716216  0.69084993  1
  Ti  Ti158  1  0.70641483  0.30488781  0.90922189  1
  Ti  Ti159  1  0.19892149  0.80603609  0.19653378  1
  Ti  Ti160  1  0.10690183  0.89981287  0.30201907  1
  Ti  Ti161  1  0.59706623  0.21378990  -0.00949934  1
  Ti  Ti162  1  0.68846991  0.90500477  0.29955479  1
  Ti  Ti163  1  0.68832304  0.10768891  0.30338469  1
  Ti  Ti164  1  0.00038669  -0.01442847  0.80366029  1
  Ti  Ti165  1  0.09551997  0.51129292  0.10215465  1
  Ti  Ti166  1  0.40266544  0.81572955  0.20211902  1
  Ti  Ti167  1  0.78630031  0.59805053  0.18915941  1
  Ti  Ti168  1  0.10273286  0.08362875  0.90090510  1
  Ti  Ti169  1  0.10454317  0.30878549  0.49842921  1
  Ti  Ti170  1  0.10124538  0.48921704  0.49266587  1
  Ti  Ti171  1  0.29387708  0.90482088  0.09704915  1
  Ti  Ti172  1  0.50551227  0.50579134  0.88725942  1
  Ti  Ti173  1  0.60179262  0.20563414  0.80435888  1
  Ti  Ti174  1  0.79387366  0.20387400  0.20098416  1
  Ti  Ti175  1  0.10177202  0.70792511  0.49065331  1
  Ti  Ti176  1  0.40089692  0.59969150  0.39893381  1
  Ti  Ti177  1  0.69409254  0.69643914  0.51241693  1
  Ti  Ti178  1  0.49194734  0.69770039  0.11236983  1
  Ti  Ti179  1  0.80159018  0.41357615  0.00585504  1
  Ti  Ti180  1  0.40600576  0.40077859  0.79792602  1
  Ti  Ti181  1  0.20755128  -0.01295966  0.60907735  1
  Ti  Ti182  1  0.69149190  0.89407788  0.50397768  1
  Ti  Ti183  1  -0.00335417  0.41417893  0.80738002  1
  Ti  Ti184  1  0.40034730  -0.00480108  -0.00217353  1
  Ti  Ti185  1  0.39620679  0.20009955  -0.01204714  1
  Ti  Ti186  1  0.59720290  0.40364825  0.00392364  1
  Ti  Ti187  1  0.90714012  0.50058876  0.29606595  1
  Ti  Ti188  1  0.60062086  0.39894312  0.59474200  1
  Ti  Ti189  1  0.00810842  0.20116005  0.80760088  1
  Ti  Ti190  1  0.09455371  0.49771608  0.29931966  1
  Ti  Ti191  1  0.78744529  0.79824487  0.39957542  1
  Ti  Ti192  1  0.80462105  0.78838260  0.79846605  1
  Ti  Ti193  1  0.60430910  0.20531770  0.59364796  1
  Ti  Ti194  1  0.59952023  0.20197419  0.20513906  1
  Ti  Ti195  1  0.00738657  0.59526544  0.58896497  1
  Ti  Ti196  1  0.29669718  0.31076062  0.49982427  1
  Ti  Ti197  1  -0.00362070  0.59981546  -0.00459868  1
  Ti  Ti198  1  0.61829789  0.60073872  0.78891150  1
  Ti  Ti199  1  0.19262684  0.59547044  0.80535804  1
  Mo  Mo200  1  0.70464254  0.49787299  0.09974314  1
  Mo  Mo201  1  0.40066843  0.39917897  0.40199207  1
  Mo  Mo202  1  0.80124277  0.79441083  -0.00210857  1
  Mo  Mo203  1  0.68906797  0.29951017  0.49607055  1
  Mo  Mo204  1  0.59795881  0.19864680  0.39723954  1
  Mo  Mo205  1  0.40146020  0.81031448  0.80002911  1
  Mo  Mo206  1  0.20208536  -0.00772090  -0.00141143  1
  Mo  Mo207  1  0.89821701  0.49912437  0.91121036  1
  Mo  Mo208  1  0.70382171  0.69489385  0.69949509  1
  Mo  Mo209  1  0.19920346  0.79876711  0.00449977  1
  Mo  Mo210  1  0.50506591  0.30131831  0.89819335  1
  Mo  Mo211  1  0.00406710  0.40399174  0.39484081  1
  Mo  Mo212  1  0.30144999  0.89312833  0.50223056  1
  Mo  Mo213  1  0.50347419  0.89316260  0.88936215  1
  Mo  Mo214  1  0.20012135  0.40120883  0.59370905  1
  Mo  Mo215  1  0.39706467  -0.00112338  0.19581882  1
  Mo  Mo216  1  0.09840096  0.50934191  0.91065461  1
  Mo  Mo217  1  0.59999329  0.79915178  0.60068278  1
  Mo  Mo218  1  0.00115756  0.79984236  0.00212075  1
  Mo  Mo219  1  0.79626265  0.20324611  0.00493298  1
  Mo  Mo220  1  0.40202852  0.00011041  0.38916219  1
  Mo  Mo221  1  0.79629155  0.20111895  0.39563591  1
  Mo  Mo222  1  0.10475520  0.10342023  0.29457680  1
  Mo  Mo223  1  0.80224990  0.59865218  0.59891073  1
  Mo  Mo224  1  0.49396307  0.90815616  0.30097429  1
  Mo  Mo225  1  0.20127567  -0.00112629  0.38522870  1
  Mo  Mo226  1  0.60914587  0.60022529  0.60555128  1
  Mo  Mo227  1  0.09886612  0.09554673  0.10358327  1
  Mo  Mo228  1  0.90135239  0.89258037  0.71254061  1
  Mo  Mo229  1  0.01441695  0.79968558  0.39257678  1
  Mo  Mo230  1  0.19481106  0.41620559  0.00577769  1
  Mo  Mo231  1  0.39153332  0.20187757  0.20613495  1
  Mo  Mo232  1  0.49130847  0.90782743  0.11138296  1
  Mo  Mo233  1  0.69586576  0.89965554  0.09886937  1
  Mo  Mo234  1  0.50019435  0.50097684  0.10767599  1
  Mo  Mo235  1  0.39633041  0.20863027  0.79830418  1
  Mo  Mo236  1  0.40124995  -0.00419183  0.61256522  1
  Mo  Mo237  1  0.60402833  0.79398903  0.79996761  1
  Mo  Mo238  1  0.70040339  0.69448847  0.09916894  1
  Mo  Mo239  1  0.00824443  0.59789895  0.19985411  1
  Mo  Mo240  1  0.10672714  0.89785662  0.10038283  1
  Mo  Mo241  1  0.40304539  0.58126947  0.79618392  1
  Mo  Mo242  1  0.59323801  0.59807253  0.40058998  1
  Mo  Mo243  1  0.59417446  0.00138853  0.20980328  1
  Mo  Mo244  1  0.89673334  0.69823612  0.90867306  1
  Mo  Mo245  1  0.39967054  0.59794846  0.20202822  1
  Mo  Mo246  1  0.70340164  0.49860687  0.70122933  1
  Mo  Mo247  1  0.09837433  0.30025524  0.10792577  1
  Mo  Mo248  1  0.69147641  0.10997233  0.69776932  1
  Mo  Mo249  1  0.30262777  0.09456983  0.90454604  1
