# generated using pymatgen
data_HfZrTaTiMo
_symmetry_space_group_name_H-M   'P 1'
_cell_length_a   16.89312008
_cell_length_b   16.89185173
_cell_length_c   16.88792096
_cell_angle_alpha   90.03114578
_cell_angle_beta   89.99579712
_cell_angle_gamma   89.99017614
_symmetry_Int_Tables_number   1
_chemical_formula_structural   HfZrTaTiMo
_chemical_formula_sum   'Hf50 Zr50 Ta50 Ti50 Mo50'
_cell_volume   4819.07012298
_cell_formula_units_Z   50
loop_
 _symmetry_equiv_pos_site_id
 _symmetry_equiv_pos_as_xyz
  1  'x, y, z'
loop_
 _atom_site_type_symbol
 _atom_site_label
 _atom_site_symmetry_multiplicity
 _atom_site_fract_x
 _atom_site_fract_y
 _atom_site_fract_z
 _atom_site_occupancy
  Hf  Hf0  1  0.29654606  0.69728719  0.70278097  1
  Hf  Hf1  1  0.70225765  0.70181213  0.70232272  1
  Hf  Hf2  1  0.19948354  -0.00242514  0.20692158  1
  Hf  Hf3  1  0.19340547  -0.00513361  -0.01318619  1
  Hf  Hf4  1  0.19484349  0.39740549  0.40597733  1
  Hf  Hf5  1  0.90138776  0.69738587  0.09975545  1
  Hf  Hf6  1  0.80801685  0.79680555  -0.00371238  1
  Hf  Hf7  1  -0.00489336  0.39936827  0.19732533  1
  Hf  Hf8  1  0.80072369  0.80003045  0.39947293  1
  Hf  Hf9  1  0.50452420  0.30626675  0.89827931  1
  Hf  Hf10  1  0.49677217  0.10136811  0.30710254  1
  Hf  Hf11  1  0.09163794  0.28893669  0.29896242  1
  Hf  Hf12  1  0.70272956  0.08545415  0.69170046  1
  Hf  Hf13  1  0.50702101  0.69808816  0.10414495  1
  Hf  Hf14  1  0.40305861  0.59857708  -0.00220424  1
  Hf  Hf15  1  0.19716348  0.21070043  0.79263103  1
  Hf  Hf16  1  0.61087555  0.20668535  0.79242837  1
  Hf  Hf17  1  0.10169454  0.30306115  0.09464789  1
  Hf  Hf18  1  0.40064457  0.40198471  0.60085557  1
  Hf  Hf19  1  0.70691910  0.51169613  0.29005751  1
  Hf  Hf20  1  0.59091675  0.80456388  0.60911789  1
  Hf  Hf21  1  -0.01581263  0.80140639  0.40079519  1
  Hf  Hf22  1  0.59294370  0.39662417  0.39979690  1
  Hf  Hf23  1  0.39602655  0.59773956  0.39428594  1
  Hf  Hf24  1  0.39540686  0.20455557  0.00045910  1
  Hf  Hf25  1  0.79513106  0.39719587  0.40323996  1
  Hf  Hf26  1  0.61076150  0.19769535  0.00521352  1
  Hf  Hf27  1  0.29657331  0.10166205  0.70425510  1
  Hf  Hf28  1  0.60526808  0.00301700  -0.00396211  1
  Hf  Hf29  1  0.00169989  0.59889748  0.19967480  1
  Hf  Hf30  1  0.70379241  0.89418076  0.88902825  1
  Hf  Hf31  1  0.79606631  0.19471813  -0.00277344  1
  Hf  Hf32  1  0.39584953  -0.00604023  -0.00666765  1
  Hf  Hf33  1  0.29777495  0.30155085  0.29990335  1
  Hf  Hf34  1  0.90680087  0.11818975  0.30915428  1
  Hf  Hf35  1  0.48718588  0.70032739  0.49936285  1
  Hf  Hf36  1  0.90601858  0.10026700  0.10522634  1
  Hf  Hf37  1  0.90056627  0.49684529  0.50411348  1
  Hf  Hf38  1  0.18951793  -0.00285379  0.61241385  1
  Hf  Hf39  1  0.09726032  0.90033053  0.50116519  1
  Hf  Hf40  1  0.20207950  0.80544208  0.20709821  1
  Hf  Hf41  1  0.19808290  0.59784957  0.40021837  1
  Hf  Hf42  1  0.50332620  0.89798616  0.10363201  1
  Hf  Hf43  1  0.39135616  -0.00509503  0.20766486  1
  Hf  Hf44  1  0.80009146  0.19990503  0.60727063  1
  Hf  Hf45  1  0.59034521  0.59206675  0.79458914  1
  Hf  Hf46  1  0.69770627  0.10554743  0.50581306  1
  Hf  Hf47  1  0.39492224  -0.01059078  0.60639256  1
  Hf  Hf48  1  0.49974702  0.10167612  0.69339415  1
  Hf  Hf49  1  0.40533568  0.39845373  0.20012002  1
  Zr  Zr50  1  0.49456447  0.90762195  0.49021981  1
  Zr  Zr51  1  0.49315056  0.10559911  0.89394048  1
  Zr  Zr52  1  0.70324773  0.50090175  0.50647958  1
  Zr  Zr53  1  0.60430295  0.39517310  0.19571592  1
  Zr  Zr54  1  -0.00093614  0.79570709  0.59988909  1
  Zr  Zr55  1  0.59186440  -0.01019701  0.79211289  1
  Zr  Zr56  1  0.00379376  0.60242467  0.39790350  1
  Zr  Zr57  1  0.20768474  0.59305223  0.00399258  1
  Zr  Zr58  1  0.29303466  0.70520706  0.09846774  1
  Zr  Zr59  1  0.39237514  0.80302660  0.60411916  1
  Zr  Zr60  1  -0.01031234  0.79900218  0.21220039  1
  Zr  Zr61  1  0.19944669  0.19028255  0.20446300  1
  Zr  Zr62  1  0.60637275  0.60901421  0.39865110  1
  Zr  Zr63  1  0.70119973  0.91674971  0.51567277  1
  Zr  Zr64  1  0.89772813  0.29974118  0.70185733  1
  Zr  Zr65  1  0.30159476  0.09618582  0.49726885  1
  Zr  Zr66  1  0.60597108  0.79489430  0.40143259  1
  Zr  Zr67  1  0.20460924  0.39233891  0.60398634  1
  Zr  Zr68  1  0.60205046  0.79525094  0.00081636  1
  Zr  Zr69  1  0.00165725  0.19512343  -0.00624594  1
  Zr  Zr70  1  0.69669069  0.69537421  0.89683213  1
  Zr  Zr71  1  0.89746453  0.29031413  0.89111966  1
  Zr  Zr72  1  0.09680860  0.90117546  0.30787873  1
  Zr  Zr73  1  0.39421997  0.59452500  0.19722298  1
  Zr  Zr74  1  -0.00629182  0.60398399  0.80187468  1
  Zr  Zr75  1  0.00575307  0.00179943  -0.00694362  1
  Zr  Zr76  1  0.10089328  0.50130635  0.69990888  1
  Zr  Zr77  1  0.60870841  0.01080500  0.19895137  1
  Zr  Zr78  1  0.90214252  0.10213802  0.73616087  1
  Zr  Zr79  1  0.39940460  0.21051812  0.59462601  1
  Zr  Zr80  1  0.78148531  0.19768433  0.19008445  1
  Zr  Zr81  1  0.39690393  0.80411982  0.20995010  1
  Zr  Zr82  1  0.29860061  0.09906562  0.09587604  1
  Zr  Zr83  1  0.80224619  0.00240026  0.20798513  1
  Zr  Zr84  1  0.10760985  0.70636227  0.90195485  1
  Zr  Zr85  1  0.09849711  0.49169401  0.90697329  1
  Zr  Zr86  1  0.90323169  0.91109342  0.69770319  1
  Zr  Zr87  1  0.59268422  0.60131538  0.60568045  1
  Zr  Zr88  1  0.80694130  0.79737101  0.59536767  1
  Zr  Zr89  1  0.59903802  0.20230658  0.19897235  1
  Zr  Zr90  1  0.69851021  0.90076508  0.30186551  1
  Zr  Zr91  1  0.40193222  0.40837775  0.00653622  1
  Zr  Zr92  1  0.39881085  0.80132786  0.79768362  1
  Zr  Zr93  1  0.89075206  0.50046196  0.29665585  1
  Zr  Zr94  1  0.89618316  0.29510650  0.29626305  1
  Zr  Zr95  1  0.90667663  0.91123597  0.88775804  1
  Zr  Zr96  1  0.90058810  0.28701929  0.49202333  1
  Zr  Zr97  1  0.01076845  0.19404849  0.60732604  1
  Zr  Zr98  1  0.80766851  0.59593176  0.80393748  1
  Zr  Zr99  1  0.10073296  0.49127188  0.09505519  1
  Ta  Ta100  1  0.50294742  0.30093357  0.69883477  1
  Ta  Ta101  1  0.69470296  0.29739462  0.50927843  1
  Ta  Ta102  1  0.49525172  0.49967155  0.49871875  1
  Ta  Ta103  1  0.50259697  0.50274724  0.29827557  1
  Ta  Ta104  1  0.29573619  0.70138883  0.49990570  1
  Ta  Ta105  1  0.59564639  0.39907738  0.60387585  1
  Ta  Ta106  1  0.90043644  0.49224945  0.69448161  1
  Ta  Ta107  1  0.19939625  0.19906515  -0.00797912  1
  Ta  Ta108  1  0.30253256  0.49874750  0.89484744  1
  Ta  Ta109  1  0.79883009  0.79574932  0.20083985  1
  Ta  Ta110  1  0.39501229  0.80080235  -0.00596443  1
  Ta  Ta111  1  0.49528862  0.10019774  0.10070646  1
  Ta  Ta112  1  0.49758430  0.89448932  0.89919580  1
  Ta  Ta113  1  0.00583932  0.39635677  0.40503711  1
  Ta  Ta114  1  0.80261454  0.59707254  -0.00252712  1
  Ta  Ta115  1  0.29486799  0.49187176  0.29696949  1
  Ta  Ta116  1  0.19989111  0.60225221  0.59757770  1
  Ta  Ta117  1  0.90344307  0.90209745  0.10448367  1
  Ta  Ta118  1  0.40278370  0.20517033  0.20171094  1
  Ta  Ta119  1  0.20382861  0.59812096  0.80015752  1
  Ta  Ta120  1  0.09903611  0.70649626  0.09761700  1
  Ta  Ta121  1  0.00591340  0.39362083  0.59769872  1
  Ta  Ta122  1  0.70875275  0.89580229  0.09874538  1
  Ta  Ta123  1  0.10061112  0.30796509  0.90301034  1
  Ta  Ta124  1  0.79535871  0.40041792  0.79666895  1
  Ta  Ta125  1  0.19606804  0.19771618  0.40543198  1
  Ta  Ta126  1  0.60241445  0.00985237  0.39975435  1
  Ta  Ta127  1  0.20060175  0.80377567  0.60381757  1
  Ta  Ta128  1  0.40101896  0.40245056  0.79426700  1
  Ta  Ta129  1  0.00153748  0.60286897  0.60248696  1
  Ta  Ta130  1  0.09696123  0.89509572  0.09845489  1
  Ta  Ta131  1  0.29534276  0.09971609  0.89113676  1
  Ta  Ta132  1  0.09786904  0.50049675  0.50398181  1
  Ta  Ta133  1  0.29053770  0.30626414  0.10084226  1
  Ta  Ta134  1  0.29729245  0.70279670  0.89662269  1
  Ta  Ta135  1  0.80709749  0.00740996  0.40507495  1
  Ta  Ta136  1  0.81745219  0.79154719  0.79580860  1
  Ta  Ta137  1  0.60046069  0.40539630  0.79201533  1
  Ta  Ta138  1  0.00231015  0.39511878  0.79629408  1
  Ta  Ta139  1  0.20613774  0.39829401  0.79825934  1
  Ta  Ta140  1  0.70130817  0.29799529  0.30512378  1
  Ta  Ta141  1  0.40663760  0.21061368  0.40073311  1
  Ta  Ta142  1  -0.00711342  0.00604276  0.40643225  1
  Ta  Ta143  1  0.00176515  0.80379629  -0.00409024  1
  Ta  Ta144  1  0.80657765  0.60261888  0.60700750  1
  Ta  Ta145  1  0.69960011  0.49361218  0.90364592  1
  Ta  Ta146  1  0.38996870  -0.01072312  0.79969260  1
  Ta  Ta147  1  0.80315126  0.00133532  -0.00282872  1
  Ta  Ta148  1  0.10579612  0.70358459  0.70232591  1
  Ta  Ta149  1  0.70047408  0.30923646  0.89772349  1
  Ti  Ti150  1  0.20296692  0.79757291  0.40139397  1
  Ti  Ti151  1  0.10201963  0.10488731  0.88486528  1
  Ti  Ti152  1  0.03102780  -0.00247334  0.79206624  1
  Ti  Ti153  1  0.39363976  0.21268072  0.79695662  1
  Ti  Ti154  1  0.29806573  0.30682396  0.90166343  1
  Ti  Ti155  1  0.30116861  0.50326435  0.70370471  1
  Ti  Ti156  1  0.50336237  0.10129710  0.50291264  1
  Ti  Ti157  1  0.59397431  0.20805304  0.40479511  1
  Ti  Ti158  1  0.49813886  0.69898706  0.89882480  1
  Ti  Ti159  1  0.89549598  0.68798477  0.49849567  1
  Ti  Ti160  1  0.09642138  0.09955085  0.10674208  1
  Ti  Ti161  1  0.70699217  0.49429251  0.69636866  1
  Ti  Ti162  1  -0.00078824  0.00835234  0.59933284  1
  Ti  Ti163  1  0.10377853  0.49235313  0.29756028  1
  Ti  Ti164  1  0.00428278  0.79866080  0.79868361  1
  Ti  Ti165  1  0.19624413  0.00668147  0.39607856  1
  Ti  Ti166  1  0.40542439  0.59639362  0.79786141  1
  Ti  Ti167  1  0.29435871  0.69710079  0.30199108  1
  Ti  Ti168  1  0.10423076  0.69963806  0.29829018  1
  Ti  Ti169  1  0.71569838  0.09633775  0.88444987  1
  Ti  Ti170  1  0.51404522  0.50793500  0.10648779  1
  Ti  Ti171  1  0.50115387  0.29766732  0.09680596  1
  Ti  Ti172  1  0.39880401  0.59620714  0.60405383  1
  Ti  Ti173  1  0.89768544  0.30178768  0.09945908  1
  Ti  Ti174  1  0.50193012  0.90372105  0.30499004  1
  Ti  Ti175  1  0.00261789  0.00181135  0.21121098  1
  Ti  Ti176  1  0.60533230  0.40229120  0.00375163  1
  Ti  Ti177  1  0.79882088  0.39853536  0.00173155  1
  Ti  Ti178  1  0.29482391  0.90236593  0.48896107  1
  Ti  Ti179  1  0.50582040  0.69580130  0.29336219  1
  Ti  Ti180  1  0.61378343  0.79032953  0.20231242  1
  Ti  Ti181  1  0.39092991  0.80316535  0.39126334  1
  Ti  Ti182  1  0.29937745  0.29838250  0.49483331  1
  Ti  Ti183  1  0.70789943  0.90156783  0.69987709  1
  Ti  Ti184  1  0.40554832  0.39766680  0.40008343  1
  Ti  Ti185  1  -0.00668239  0.60242014  -0.00474592  1
  Ti  Ti186  1  0.90093056  0.48781052  0.90440632  1
  Ti  Ti187  1  0.29201412  0.89449338  0.08951495  1
  Ti  Ti188  1  0.50359931  0.49651480  0.90088779  1
  Ti  Ti189  1  0.87550344  0.67969128  0.29915397  1
  Ti  Ti190  1  0.19820684  0.59426089  0.19975319  1
  Ti  Ti191  1  0.30551214  0.10142766  0.31084839  1
  Ti  Ti192  1  0.10471912  0.70069248  0.50263034  1
  Ti  Ti193  1  0.89556251  0.49644663  0.09469014  1
  Ti  Ti194  1  0.60733509  0.59740769  0.00264452  1
  Ti  Ti195  1  0.19527773  0.20650758  0.60122274  1
  Ti  Ti196  1  0.09914753  0.10130957  0.49753988  1
  Ti  Ti197  1  0.58710013  0.79628561  0.79072327  1
  Ti  Ti198  1  0.70649716  0.50271848  0.09963408  1
  Ti  Ti199  1  0.30121166  0.50275926  0.49859143  1
  Mo  Mo200  1  0.90801785  0.69502058  0.70119109  1
  Mo  Mo201  1  0.10281606  0.10102936  0.70061986  1
  Mo  Mo202  1  0.30451522  0.30146442  0.70435802  1
  Mo  Mo203  1  0.29494578  0.89650853  0.89754517  1
  Mo  Mo204  1  0.09915480  0.89408626  0.70162532  1
  Mo  Mo205  1  0.19988509  0.40183616  0.20253175  1
  Mo  Mo206  1  0.10108471  0.30410601  0.70273170  1
  Mo  Mo207  1  0.10315731  0.89386497  0.89433084  1
  Mo  Mo208  1  0.58598670  0.00257778  0.59570763  1
  Mo  Mo209  1  -0.01681512  0.39676337  -0.00229709  1
  Mo  Mo210  1  0.90041824  0.09739262  0.89719228  1
  Mo  Mo211  1  0.70534799  0.69575979  0.09998127  1
  Mo  Mo212  1  0.70188574  0.08701839  0.08588516  1
  Mo  Mo213  1  0.79026750  -0.00884823  0.80022687  1
  Mo  Mo214  1  0.21271610  0.39325934  -0.00566891  1
  Mo  Mo215  1  0.49201509  0.49607668  0.69851819  1
  Mo  Mo216  1  0.59698122  0.20612994  0.59848742  1
  Mo  Mo217  1  0.40165768  0.00577562  0.40003703  1
  Mo  Mo218  1  0.49515209  0.90052590  0.70334458  1
  Mo  Mo219  1  0.79755314  0.39901797  0.18882870  1
  Mo  Mo220  1  0.29757783  0.90420479  0.31935925  1
  Mo  Mo221  1  0.89726748  0.91337423  0.30214666  1
  Mo  Mo222  1  0.90225632  0.91360475  0.49996273  1
  Mo  Mo223  1  0.20079438  -0.00424807  0.80114236  1
  Mo  Mo224  1  0.00207826  0.19778248  0.19065509  1
  Mo  Mo225  1  0.49345927  0.69439123  0.70268935  1
  Mo  Mo226  1  0.79507502  0.60749870  0.41507332  1
  Mo  Mo227  1  0.19932027  0.80437812  0.79859995  1
  Mo  Mo228  1  0.70372747  0.31605813  0.09124412  1
  Mo  Mo229  1  0.60395559  0.60049163  0.19546425  1
  Mo  Mo230  1  0.69850590  0.10967677  0.32067903  1
  Mo  Mo231  1  0.78315004  0.20551688  0.80192827  1
  Mo  Mo232  1  0.01978681  0.20500649  0.80164539  1
  Mo  Mo233  1  0.29370642  0.49074272  0.10651386  1
  Mo  Mo234  1  0.28964109  0.89841221  0.70807780  1
  Mo  Mo235  1  0.79797041  0.59999571  0.17880233  1
  Mo  Mo236  1  0.49871669  0.30058104  0.30350076  1
  Mo  Mo237  1  0.09651722  0.09882213  0.30762555  1
  Mo  Mo238  1  0.82053452  0.00745032  0.59862208  1
  Mo  Mo239  1  0.69820562  0.31057566  0.69711400  1
  Mo  Mo240  1  0.89982108  0.10003549  0.50172654  1
  Mo  Mo241  1  0.10227862  0.29822639  0.50127042  1
  Mo  Mo242  1  0.01530577  0.19597471  0.40892864  1
  Mo  Mo243  1  0.90744269  0.70285354  0.90386855  1
  Mo  Mo244  1  0.79741962  0.40026194  0.60354525  1
  Mo  Mo245  1  0.78468646  0.20014842  0.40423782  1
  Mo  Mo246  1  0.70574590  0.69850695  0.28843733  1
  Mo  Mo247  1  0.19783477  0.80524989  -0.00160032  1
  Mo  Mo248  1  0.50293748  0.30441851  0.50068364  1
  Mo  Mo249  1  0.70974933  0.69808441  0.50849633  1
