# generated using pymatgen
data_HfZrTaTiMo
_symmetry_space_group_name_H-M   'P 1'
_cell_length_a   16.89345366
_cell_length_b   16.89237164
_cell_length_c   16.88815607
_cell_angle_alpha   90.02132570
_cell_angle_beta   90.00187234
_cell_angle_gamma   89.99518110
_symmetry_Int_Tables_number   1
_chemical_formula_structural   HfZrTaTiMo
_chemical_formula_sum   'Hf50 Zr50 Ta50 Ti50 Mo50'
_cell_volume   4819.38114618
_cell_formula_units_Z   50
loop_
 _symmetry_equiv_pos_site_id
 _symmetry_equiv_pos_as_xyz
  1  'x, y, z'
loop_
 _atom_site_type_symbol
 _atom_site_label
 _atom_site_symmetry_multiplicity
 _atom_site_fract_x
 _atom_site_fract_y
 _atom_site_fract_z
 _atom_site_occupancy
  Hf  Hf0  1  0.59160571  -0.00018730  0.39300564  1
  Hf  Hf1  1  0.29929552  0.70850328  0.70249203  1
  Hf  Hf2  1  0.09551850  0.90197125  0.90915456  1
  Hf  Hf3  1  0.39832500  0.40153604  -0.00660096  1
  Hf  Hf4  1  0.09525409  0.30823989  0.30035894  1
  Hf  Hf5  1  0.49040650  0.89580959  0.70387083  1
  Hf  Hf6  1  0.49610286  0.11073897  0.70766334  1
  Hf  Hf7  1  0.09156505  0.09411660  0.50015927  1
  Hf  Hf8  1  0.39658923  0.00579579  0.80508288  1
  Hf  Hf9  1  0.59131885  0.81715012  0.20586893  1
  Hf  Hf10  1  0.40273740  0.40183685  0.80226390  1
  Hf  Hf11  1  0.50320657  0.29263336  0.09142167  1
  Hf  Hf12  1  0.09804966  0.29580010  0.49390938  1
  Hf  Hf13  1  0.79730634  -0.00559926  0.60450295  1
  Hf  Hf14  1  0.90723715  0.49977588  0.50139059  1
  Hf  Hf15  1  0.29127479  0.89835338  0.89311031  1
  Hf  Hf16  1  0.80061309  0.40118028  0.39986189  1
  Hf  Hf17  1  0.19717566  0.19136886  0.39162763  1
  Hf  Hf18  1  0.29943286  0.28492892  0.90542586  1
  Hf  Hf19  1  0.79556953  0.40590636  0.80786818  1
  Hf  Hf20  1  0.70088550  0.70924097  0.09594196  1
  Hf  Hf21  1  0.40569219  0.41013336  0.59940415  1
  Hf  Hf22  1  0.39426469  0.40000125  0.40378463  1
  Hf  Hf23  1  0.80560989  0.20224652  0.80443279  1
  Hf  Hf24  1  0.79998040  0.60567167  0.39816481  1
  Hf  Hf25  1  0.69572269  0.49474933  0.51063212  1
  Hf  Hf26  1  0.20813097  0.41154286  0.01351585  1
  Hf  Hf27  1  0.50002568  0.10906475  0.49818453  1
  Hf  Hf28  1  0.60217513  0.40225088  -0.01103726  1
  Hf  Hf29  1  0.81161799  0.80449342  0.20036463  1
  Hf  Hf30  1  0.40650716  -0.00695879  0.40431724  1
  Hf  Hf31  1  0.29368433  0.10350560  0.90691714  1
  Hf  Hf32  1  0.79855761  0.59506496  -0.00304011  1
  Hf  Hf33  1  0.29502262  0.10494582  0.69926787  1
  Hf  Hf34  1  0.59809814  0.80031901  0.60085763  1
  Hf  Hf35  1  0.49854362  0.49967605  0.29658856  1
  Hf  Hf36  1  0.60434531  0.59912196  -0.01242299  1
  Hf  Hf37  1  0.89739859  0.09565870  0.30664492  1
  Hf  Hf38  1  0.10471993  0.50580022  0.89648042  1
  Hf  Hf39  1  0.49829279  0.70269480  0.09076110  1
  Hf  Hf40  1  0.59718116  0.61391943  0.20678781  1
  Hf  Hf41  1  0.59940835  -0.00401811  0.60020838  1
  Hf  Hf42  1  0.90245977  0.90785055  0.89948095  1
  Hf  Hf43  1  0.29878219  0.91232771  0.11360036  1
  Hf  Hf44  1  0.90946189  0.29814600  0.30088404  1
  Hf  Hf45  1  0.69822682  0.30103733  0.50273711  1
  Hf  Hf46  1  0.80875179  0.60893746  0.19957096  1
  Hf  Hf47  1  0.29635985  0.70336801  0.89001990  1
  Hf  Hf48  1  0.20382959  0.41427589  0.40327292  1
  Hf  Hf49  1  0.49640567  0.70609819  0.89262781  1
  Zr  Zr50  1  0.09466238  0.09821832  0.91504039  1
  Zr  Zr51  1  0.90006300  0.09355782  0.70631753  1
  Zr  Zr52  1  0.29771209  0.89584639  0.50645111  1
  Zr  Zr53  1  0.29871984  0.08610910  0.29049558  1
  Zr  Zr54  1  -0.00237474  0.60989210  0.79458773  1
  Zr  Zr55  1  0.00482281  0.18784191  0.20012410  1
  Zr  Zr56  1  0.79825882  0.60203706  0.59873305  1
  Zr  Zr57  1  0.20013011  0.40606111  0.59438720  1
  Zr  Zr58  1  0.88889366  0.71470902  0.69043447  1
  Zr  Zr59  1  0.70127314  0.49632535  0.10396827  1
  Zr  Zr60  1  0.60604400  0.00200980  0.80377065  1
  Zr  Zr61  1  0.69553482  0.30809225  0.69611425  1
  Zr  Zr62  1  0.19757660  0.80081732  0.00869069  1
  Zr  Zr63  1  0.70640394  0.90934977  0.30552826  1
  Zr  Zr64  1  0.69783437  0.29507798  0.30323538  1
  Zr  Zr65  1  0.19494076  0.60614253  0.58131882  1
  Zr  Zr66  1  0.19169195  0.78826782  0.40607821  1
  Zr  Zr67  1  0.28974978  0.51274287  0.70737418  1
  Zr  Zr68  1  0.29989811  0.89058815  0.30457339  1
  Zr  Zr69  1  0.80725498  0.00084844  0.19605352  1
  Zr  Zr70  1  0.43928770  -0.00920326  0.21068937  1
  Zr  Zr71  1  0.90339819  0.89286453  0.50510133  1
  Zr  Zr72  1  0.68970056  0.29530987  0.89380487  1
  Zr  Zr73  1  0.10454463  0.29858542  0.10633417  1
  Zr  Zr74  1  0.00422490  0.60166369  0.00591173  1
  Zr  Zr75  1  0.49924720  0.50484065  0.10332114  1
  Zr  Zr76  1  0.90839803  0.29579663  0.49248677  1
  Zr  Zr77  1  0.90313449  0.49884606  0.89923890  1
  Zr  Zr78  1  0.19785372  0.58862130  0.18928061  1
  Zr  Zr79  1  0.19679866  0.39444003  0.80550667  1
  Zr  Zr80  1  0.49615279  0.89618900  0.89867294  1
  Zr  Zr81  1  0.90630495  0.09880397  0.08697923  1
  Zr  Zr82  1  0.29587674  0.10293784  0.50720735  1
  Zr  Zr83  1  0.69303145  0.91318270  0.09410758  1
  Zr  Zr84  1  0.40170202  0.19809251  0.20269094  1
  Zr  Zr85  1  0.38711293  0.39957441  0.19021484  1
  Zr  Zr86  1  0.40791259  0.80050715  0.20388029  1
  Zr  Zr87  1  0.59973817  0.20143746  0.60177181  1
  Zr  Zr88  1  0.91071879  0.49441891  0.29687013  1
  Zr  Zr89  1  0.39675010  0.58994764  0.41020771  1
  Zr  Zr90  1  0.00180167  0.80759373  0.79085384  1
  Zr  Zr91  1  0.89384916  0.71342991  0.90049257  1
  Zr  Zr92  1  0.00184732  0.19107049  0.60797429  1
  Zr  Zr93  1  0.30642341  0.69674826  0.10528545  1
  Zr  Zr94  1  0.69905717  0.49915121  0.29593551  1
  Zr  Zr95  1  0.30036942  0.29073137  0.69985327  1
  Zr  Zr96  1  0.89607940  0.30680873  0.69033266  1
  Zr  Zr97  1  0.50810003  0.09862370  0.09478323  1
  Zr  Zr98  1  0.80768005  0.79894079  0.39776908  1
  Zr  Zr99  1  0.00345965  0.38855128  0.80197304  1
  Ta  Ta100  1  0.20286650  0.59829211  -0.00087494  1
  Ta  Ta101  1  0.00169936  0.80295418  0.20093019  1
  Ta  Ta102  1  0.00055445  0.39641293  0.00404665  1
  Ta  Ta103  1  0.00142045  0.60207806  0.19543858  1
  Ta  Ta104  1  0.09620019  0.70504291  0.10203957  1
  Ta  Ta105  1  0.60358027  0.19328072  0.20524643  1
  Ta  Ta106  1  0.80369015  0.39187818  0.00058585  1
  Ta  Ta107  1  0.79889718  0.19172377  0.59475783  1
  Ta  Ta108  1  0.59193736  0.40420043  0.40528800  1
  Ta  Ta109  1  0.40642545  0.59941725  0.60168923  1
  Ta  Ta110  1  0.90540862  0.09828408  0.90275133  1
  Ta  Ta111  1  0.79671919  0.20094031  0.19360045  1
  Ta  Ta112  1  0.40289063  0.59638100  0.79975309  1
  Ta  Ta113  1  0.40072000  0.00134405  0.00149531  1
  Ta  Ta114  1  0.09620069  0.49734009  0.29493192  1
  Ta  Ta115  1  0.69852199  0.70331950  0.50359286  1
  Ta  Ta116  1  0.80446516  0.38713471  0.18956962  1
  Ta  Ta117  1  0.70064414  0.10394794  0.70370222  1
  Ta  Ta118  1  0.70311886  0.09662979  0.49146910  1
  Ta  Ta119  1  0.39343628  0.59013197  -0.00943815  1
  Ta  Ta120  1  0.40406769  0.79634081  0.59590157  1
  Ta  Ta121  1  0.19065932  -0.00142441  0.60386642  1
  Ta  Ta122  1  0.89879127  0.49969233  0.69438675  1
  Ta  Ta123  1  0.59811413  0.60352211  0.40808608  1
  Ta  Ta124  1  0.18278905  0.19575081  0.79694622  1
  Ta  Ta125  1  0.09599449  0.50798788  0.69959925  1
  Ta  Ta126  1  0.70161640  0.89868263  0.49904524  1
  Ta  Ta127  1  0.59062241  0.59897390  0.60209533  1
  Ta  Ta128  1  0.29840131  0.29365162  0.50011782  1
  Ta  Ta129  1  0.00907212  0.40811292  0.59809130  1
  Ta  Ta130  1  0.60611337  0.80222202  0.79412783  1
  Ta  Ta131  1  0.09855360  0.69503014  0.29665827  1
  Ta  Ta132  1  0.39850215  0.20427897  0.39568076  1
  Ta  Ta133  1  0.79136964  0.60027340  0.79740070  1
  Ta  Ta134  1  -0.00102557  -0.01150285  0.39289153  1
  Ta  Ta135  1  0.69838605  0.10611867  0.09297816  1
  Ta  Ta136  1  0.28979401  0.30053749  0.29472646  1
  Ta  Ta137  1  0.50134516  0.30171767  0.49755568  1
  Ta  Ta138  1  0.18915194  -0.00603418  0.39881996  1
  Ta  Ta139  1  0.00285567  0.20199871  0.80660076  1
  Ta  Ta140  1  0.59504170  0.79834844  0.40684232  1
  Ta  Ta141  1  0.09439285  0.89687007  0.50163747  1
  Ta  Ta142  1  0.69778317  0.70203620  0.69958571  1
  Ta  Ta143  1  0.29754365  0.09869195  0.09863662  1
  Ta  Ta144  1  0.29440087  0.89642552  0.70062401  1
  Ta  Ta145  1  0.70213658  0.70757702  0.89191836  1
  Ta  Ta146  1  0.00863686  -0.00813347  0.19850281  1
  Ta  Ta147  1  0.50268077  0.29949189  0.30375355  1
  Ta  Ta148  1  0.69225425  0.49643775  0.69917168  1
  Ta  Ta149  1  0.30047718  0.69249613  0.30093870  1
  Ti  Ti150  1  0.49865213  0.69993849  0.49944399  1
  Ti  Ti151  1  0.50810437  0.30308246  0.71247999  1
  Ti  Ti152  1  0.70082623  0.10035999  0.30153435  1
  Ti  Ti153  1  0.19172654  0.00056572  0.01791820  1
  Ti  Ti154  1  0.00627218  0.60531856  0.59837543  1
  Ti  Ti155  1  0.10396416  0.29508314  0.69120228  1
  Ti  Ti156  1  0.90457204  0.49079829  0.10360609  1
  Ti  Ti157  1  0.91653508  0.70381330  0.30404768  1
  Ti  Ti158  1  0.30776061  0.70192629  0.49725836  1
  Ti  Ti159  1  0.40312458  0.21036726  0.59882130  1
  Ti  Ti160  1  0.19421915  0.79893561  0.20252431  1
  Ti  Ti161  1  0.80484098  0.20573103  -0.00355957  1
  Ti  Ti162  1  0.89913747  0.09190544  0.49381439  1
  Ti  Ti163  1  0.19101087  0.00298018  0.79340409  1
  Ti  Ti164  1  0.10192837  0.29166456  0.91695866  1
  Ti  Ti165  1  0.09769492  0.89333437  0.30078688  1
  Ti  Ti166  1  0.79932877  0.19514782  0.40223994  1
  Ti  Ti167  1  0.69729259  0.70718938  0.30466545  1
  Ti  Ti168  1  0.29886528  0.50275060  0.29023720  1
  Ti  Ti169  1  0.79810722  0.00267392  -0.00612312  1
  Ti  Ti170  1  0.70381355  0.10186679  0.89908726  1
  Ti  Ti171  1  0.60149756  0.39011476  0.19825599  1
  Ti  Ti172  1  0.00055583  -0.00927297  0.60984569  1
  Ti  Ti173  1  0.50605299  0.50008142  0.88798833  1
  Ti  Ti174  1  0.69629723  0.29047504  0.09495153  1
  Ti  Ti175  1  0.10395118  0.70685471  0.89962150  1
  Ti  Ti176  1  0.00678144  0.00203143  0.79328060  1
  Ti  Ti177  1  0.70571592  0.89549315  0.89438775  1
  Ti  Ti178  1  0.90743913  0.70486959  0.50065324  1
  Ti  Ti179  1  0.59203538  0.19429528  -0.01596113  1
  Ti  Ti180  1  0.11225802  0.69831600  0.70609352  1
  Ti  Ti181  1  0.90705179  0.71082812  0.09352678  1
  Ti  Ti182  1  0.59711578  0.00399802  -0.01084593  1
  Ti  Ti183  1  0.49745379  0.69952259  0.70564532  1
  Ti  Ti184  1  0.01109196  0.79521955  0.60097437  1
  Ti  Ti185  1  0.48971572  0.70053778  0.31088849  1
  Ti  Ti186  1  0.10670817  0.89712448  0.69854061  1
  Ti  Ti187  1  0.19403056  0.18420615  0.20065045  1
  Ti  Ti188  1  0.01045100  0.60320576  0.40316093  1
  Ti  Ti189  1  0.19729962  0.59769776  0.40098335  1
  Ti  Ti190  1  0.90695291  0.29684428  0.09749857  1
  Ti  Ti191  1  0.91318756  0.89964093  0.08792162  1
  Ti  Ti192  1  0.60292166  0.59866380  0.79517669  1
  Ti  Ti193  1  0.29395032  0.28427565  0.09864575  1
  Ti  Ti194  1  0.39681376  0.81008625  0.00368045  1
  Ti  Ti195  1  0.39967681  -0.00390424  0.59946362  1
  Ti  Ti196  1  0.19322557  0.79737855  0.59641605  1
  Ti  Ti197  1  0.79954271  0.80797666  -0.00040556  1
  Ti  Ti198  1  0.60093886  0.80693804  -0.00561524  1
  Ti  Ti199  1  0.79756651  -0.00711312  0.79518880  1
  Mo  Mo200  1  0.90394261  0.90241996  0.70069217  1
  Mo  Mo201  1  0.69886646  0.50467467  0.89151355  1
  Mo  Mo202  1  0.10520117  0.09411283  0.10471344  1
  Mo  Mo203  1  0.90411061  0.29388399  0.91240384  1
  Mo  Mo204  1  0.79065064  0.80132941  0.59824952  1
  Mo  Mo205  1  0.59364206  0.40741239  0.79658950  1
  Mo  Mo206  1  0.40223493  0.78852338  0.40756811  1
  Mo  Mo207  1  0.19564492  0.60784076  0.80353494  1
  Mo  Mo208  1  0.19954796  0.19554397  0.01073947  1
  Mo  Mo209  1  0.09933832  0.09335557  0.70405232  1
  Mo  Mo210  1  0.18509341  -0.00350559  0.20396895  1
  Mo  Mo211  1  0.29953509  0.50686604  0.89921600  1
  Mo  Mo212  1  0.49674099  0.29304137  0.89453472  1
  Mo  Mo213  1  0.09688464  0.08736341  0.30210489  1
  Mo  Mo214  1  0.80709036  0.40311989  0.60180051  1
  Mo  Mo215  1  0.60007386  0.19698564  0.80396854  1
  Mo  Mo216  1  0.39834843  0.79833353  0.79080932  1
  Mo  Mo217  1  0.00071417  0.80103181  0.00612980  1
  Mo  Mo218  1  0.50375936  0.50687514  0.70347734  1
  Mo  Mo219  1  0.09375206  0.49906511  0.10053253  1
  Mo  Mo220  1  0.00223962  0.79691400  0.39376229  1
  Mo  Mo221  1  0.30150853  0.50450725  0.50405585  1
  Mo  Mo222  1  0.80194165  0.00312080  0.40860400  1
  Mo  Mo223  1  0.09458072  0.50761211  0.49502930  1
  Mo  Mo224  1  0.59974924  0.20153383  0.39897365  1
  Mo  Mo225  1  0.20107325  0.40254908  0.20384799  1
  Mo  Mo226  1  0.19408357  0.80539466  0.79364065  1
  Mo  Mo227  1  0.30283931  0.50479391  0.09789719  1
  Mo  Mo228  1  0.58825829  0.40380641  0.60175973  1
  Mo  Mo229  1  0.09984865  0.89849286  0.10797177  1
  Mo  Mo230  1  0.40721783  0.20247378  0.80670216  1
  Mo  Mo231  1  0.50779957  0.11651449  0.30626065  1
  Mo  Mo232  1  0.79139175  0.80918256  0.79565186  1
  Mo  Mo233  1  0.90949937  0.90000188  0.29815420  1
  Mo  Mo234  1  0.60847537  0.00938023  0.20449317  1
  Mo  Mo235  1  0.70488076  0.89691361  0.69957699  1
  Mo  Mo236  1  0.50420305  0.49959512  0.50485127  1
  Mo  Mo237  1  0.49952378  0.89459092  0.50700411  1
  Mo  Mo238  1  0.39826116  0.19468014  0.00133465  1
  Mo  Mo239  1  0.00047504  0.20425713  -0.00183830  1
  Mo  Mo240  1  -0.00089158  0.40485247  0.19142493  1
  Mo  Mo241  1  0.00847442  0.41219114  0.40373284  1
  Mo  Mo242  1  0.50369055  0.90306469  0.08140689  1
  Mo  Mo243  1  0.49377629  0.10600965  0.90267584  1
  Mo  Mo244  1  0.00041068  -0.00226486  0.00587700  1
  Mo  Mo245  1  0.19835821  0.19687149  0.60060573  1
  Mo  Mo246  1  0.50255018  0.88414921  0.31966082  1
  Mo  Mo247  1  0.00074818  0.18151712  0.39868934  1
  Mo  Mo248  1  0.08642963  0.70335790  0.49475181  1
  Mo  Mo249  1  0.39908198  0.60287253  0.20554821  1
