# generated using pymatgen
data_HfZrTaTiMo
_symmetry_space_group_name_H-M   'P 1'
_cell_length_a   16.88954790
_cell_length_b   16.87570375
_cell_length_c   16.87141707
_cell_angle_alpha   90.02408602
_cell_angle_beta   90.03412005
_cell_angle_gamma   90.03641564
_symmetry_Int_Tables_number   1
_chemical_formula_structural   HfZrTaTiMo
_chemical_formula_sum   'Hf50 Zr50 Ta50 Ti50 Mo50'
_cell_volume   4808.73977219
_cell_formula_units_Z   50
loop_
 _symmetry_equiv_pos_site_id
 _symmetry_equiv_pos_as_xyz
  1  'x, y, z'
loop_
 _atom_site_type_symbol
 _atom_site_label
 _atom_site_symmetry_multiplicity
 _atom_site_fract_x
 _atom_site_fract_y
 _atom_site_fract_z
 _atom_site_occupancy
  Hf  Hf0  1  0.60279213  0.19194754  0.59746236  1
  Hf  Hf1  1  0.09569752  0.68627988  0.90871288  1
  Hf  Hf2  1  0.09980649  0.49925427  0.70960379  1
  Hf  Hf3  1  0.90752862  0.70463377  0.51714740  1
  Hf  Hf4  1  0.59481437  0.19261749  0.80400772  1
  Hf  Hf5  1  0.59627553  0.81125921  0.40406987  1
  Hf  Hf6  1  0.49604253  0.29915439  0.29190794  1
  Hf  Hf7  1  0.70543358  0.70691925  0.88888892  1
  Hf  Hf8  1  0.89723684  0.09242997  0.70645252  1
  Hf  Hf9  1  0.49226037  0.49746127  0.09791726  1
  Hf  Hf10  1  0.90205634  0.49592768  0.29362296  1
  Hf  Hf11  1  0.09597617  0.10115612  0.50640168  1
  Hf  Hf12  1  0.40430388  0.19599411  0.40496070  1
  Hf  Hf13  1  0.30119783  0.70535956  0.70685613  1
  Hf  Hf14  1  0.18892553  -0.00552140  0.39275406  1
  Hf  Hf15  1  0.48158139  0.49683916  0.90517036  1
  Hf  Hf16  1  0.60805183  0.59817941  -0.01096454  1
  Hf  Hf17  1  0.80298802  0.61097914  0.39739632  1
  Hf  Hf18  1  0.19566468  -0.00507039  0.60204784  1
  Hf  Hf19  1  0.70099953  0.09469521  0.09787521  1
  Hf  Hf20  1  0.31096341  0.90076113  0.49413650  1
  Hf  Hf21  1  0.80428144  0.79858898  0.19233487  1
  Hf  Hf22  1  0.80886875  -0.00543222  0.19951732  1
  Hf  Hf23  1  0.60542692  0.39635779  0.39538905  1
  Hf  Hf24  1  -0.00712137  0.80513923  -0.00571517  1
  Hf  Hf25  1  0.30990218  0.90392380  0.30021138  1
  Hf  Hf26  1  0.49807464  0.30267076  0.50666540  1
  Hf  Hf27  1  0.30974028  0.70043015  0.49326059  1
  Hf  Hf28  1  0.08064671  0.88921095  0.49686417  1
  Hf  Hf29  1  0.80493012  0.60876667  0.18995144  1
  Hf  Hf30  1  0.19358138  0.19949028  0.00166488  1
  Hf  Hf31  1  0.70433312  0.90407189  0.30541243  1
  Hf  Hf32  1  0.00052291  0.20032934  0.39806025  1
  Hf  Hf33  1  0.30513620  0.09335532  0.50450265  1
  Hf  Hf34  1  0.00082355  -0.00048150  -0.00124738  1
  Hf  Hf35  1  0.59550853  -0.00451335  0.20101790  1
  Hf  Hf36  1  0.60021349  0.39764050  -0.00048386  1
  Hf  Hf37  1  0.39529175  0.40404914  0.60941469  1
  Hf  Hf38  1  0.79141439  0.18704724  0.79652605  1
  Hf  Hf39  1  0.60709826  0.79723746  -0.00055224  1
  Hf  Hf40  1  0.40821722  0.80528284  0.60457271  1
  Hf  Hf41  1  0.59951915  0.41660088  0.61177386  1
  Hf  Hf42  1  0.90868734  0.89310895  0.31405417  1
  Hf  Hf43  1  -0.00027833  0.00128032  0.19949402  1
  Hf  Hf44  1  0.59886542  0.40707053  0.80408838  1
  Hf  Hf45  1  0.90158083  0.50358592  0.70069658  1
  Hf  Hf46  1  0.70784386  0.28786878  0.09414953  1
  Hf  Hf47  1  0.79871130  0.39746954  0.60373556  1
  Hf  Hf48  1  0.61127713  0.01042877  0.80431189  1
  Hf  Hf49  1  0.70033451  0.50226206  0.09792878  1
  Zr  Zr50  1  0.19610578  0.79785371  0.60145526  1
  Zr  Zr51  1  0.49507689  0.70100757  0.08683658  1
  Zr  Zr52  1  0.18811215  0.38839582  0.19256330  1
  Zr  Zr53  1  0.30084117  0.09907949  0.29320433  1
  Zr  Zr54  1  -0.00202328  0.39164965  0.60711016  1
  Zr  Zr55  1  0.70091808  0.51141801  0.50117411  1
  Zr  Zr56  1  0.68912142  0.70884480  0.29188707  1
  Zr  Zr57  1  0.60572871  0.59200437  0.79002662  1
  Zr  Zr58  1  -0.00291861  0.60760159  0.39823003  1
  Zr  Zr59  1  0.20458969  0.59795067  0.60527892  1
  Zr  Zr60  1  -0.01003841  0.79919168  0.80156357  1
  Zr  Zr61  1  0.39280209  0.18086032  0.00583571  1
  Zr  Zr62  1  0.60159483  0.19644660  0.40185521  1
  Zr  Zr63  1  0.00421460  0.39282683  0.39660787  1
  Zr  Zr64  1  0.19761935  0.39692164  0.39722665  1
  Zr  Zr65  1  0.69841429  0.29916131  0.70204846  1
  Zr  Zr66  1  0.09999075  0.09749386  0.70989395  1
  Zr  Zr67  1  0.39559903  0.19458728  0.80660497  1
  Zr  Zr68  1  0.30237234  0.49507480  0.29517546  1
  Zr  Zr69  1  0.70615146  0.29930819  0.90460800  1
  Zr  Zr70  1  0.31198565  0.69827187  0.90816626  1
  Zr  Zr71  1  0.19420298  0.79723501  0.39432616  1
  Zr  Zr72  1  0.18928865  0.79539297  0.79916162  1
  Zr  Zr73  1  0.41910560  0.81011809  0.20041862  1
  Zr  Zr74  1  0.09153356  0.50078676  0.09686156  1
  Zr  Zr75  1  0.58996042  0.18544769  -0.00859161  1
  Zr  Zr76  1  0.39609981  0.60332727  0.19890861  1
  Zr  Zr77  1  0.19386992  0.80015644  -0.00186039  1
  Zr  Zr78  1  0.89650879  0.29723535  0.90271201  1
  Zr  Zr79  1  0.09001895  0.71071841  0.29267225  1
  Zr  Zr80  1  0.89265431  0.10480068  0.08926378  1
  Zr  Zr81  1  0.09533161  0.50468795  0.28989895  1
  Zr  Zr82  1  0.49193340  0.09224744  0.69148546  1
  Zr  Zr83  1  0.09816288  0.50593875  0.50722242  1
  Zr  Zr84  1  0.00525705  0.21039084  0.19411565  1
  Zr  Zr85  1  0.50066448  0.50514224  0.49358050  1
  Zr  Zr86  1  0.40891615  0.59481703  0.60936509  1
  Zr  Zr87  1  -0.00718674  0.20475328  0.60936080  1
  Zr  Zr88  1  0.50758243  0.90301208  0.70482191  1
  Zr  Zr89  1  0.40782323  0.01254985  0.18389325  1
  Zr  Zr90  1  0.10446530  0.89933719  0.10980019  1
  Zr  Zr91  1  0.80666302  0.39638778  0.18815279  1
  Zr  Zr92  1  0.40321539  0.59611181  0.79632904  1
  Zr  Zr93  1  0.50791446  0.70034210  0.50042856  1
  Zr  Zr94  1  0.19631895  0.20398834  0.39602956  1
  Zr  Zr95  1  0.10007357  0.49009696  0.90250034  1
  Zr  Zr96  1  0.30434610  0.90137169  0.09431274  1
  Zr  Zr97  1  0.59540381  0.00834026  0.40606942  1
  Zr  Zr98  1  0.30636468  0.90224832  0.89914462  1
  Zr  Zr99  1  0.69661076  0.50156918  0.29480703  1
  Ta  Ta100  1  0.89626842  0.29876260  0.30004255  1
  Ta  Ta101  1  0.71191801  0.90412715  0.50408027  1
  Ta  Ta102  1  0.10490195  0.29810638  0.50926407  1
  Ta  Ta103  1  0.09773323  0.69555515  0.09949643  1
  Ta  Ta104  1  0.70144903  0.90129584  0.09279291  1
  Ta  Ta105  1  0.70770574  0.90145065  0.70527176  1
  Ta  Ta106  1  0.80214084  0.19803292  0.60014864  1
  Ta  Ta107  1  0.89584026  0.89959474  0.50362916  1
  Ta  Ta108  1  0.70691421  0.29054889  0.29669086  1
  Ta  Ta109  1  0.80447056  0.60124012  -0.00661464  1
  Ta  Ta110  1  0.20485446  0.60471380  0.39378804  1
  Ta  Ta111  1  0.79617393  0.60594968  0.61255631  1
  Ta  Ta112  1  0.30023364  0.90890619  0.70779399  1
  Ta  Ta113  1  -0.00629287  -0.00717269  0.80337969  1
  Ta  Ta114  1  0.48408231  0.30608849  0.90390530  1
  Ta  Ta115  1  0.50555894  0.90004183  0.90257854  1
  Ta  Ta116  1  0.71024485  0.10412256  0.30115690  1
  Ta  Ta117  1  0.89793386  0.50257495  0.50474271  1
  Ta  Ta118  1  0.70395502  0.90042651  0.89840780  1
  Ta  Ta119  1  0.60003196  0.39055622  0.19537410  1
  Ta  Ta120  1  -0.01237360  0.60369155  0.80546751  1
  Ta  Ta121  1  0.30240094  0.30129089  0.09681832  1
  Ta  Ta122  1  0.19864185  0.01101905  0.00457023  1
  Ta  Ta123  1  0.30107138  0.70527547  0.09797384  1
  Ta  Ta124  1  0.50368457  0.49978042  0.29278618  1
  Ta  Ta125  1  0.10154389  0.30478519  0.89959556  1
  Ta  Ta126  1  0.49353581  0.30233708  0.70718099  1
  Ta  Ta127  1  0.21027500  0.59157687  0.00938646  1
  Ta  Ta128  1  0.61002067  0.80913045  0.60079968  1
  Ta  Ta129  1  0.29577511  0.09445632  0.70434073  1
  Ta  Ta130  1  0.71798960  0.09570292  0.49522056  1
  Ta  Ta131  1  -0.00893086  -0.00673938  0.60491287  1
  Ta  Ta132  1  0.19758622  0.19784933  0.18890996  1
  Ta  Ta133  1  0.80423635  0.79687647  0.00057481  1
  Ta  Ta134  1  0.20653774  0.20673186  0.60922538  1
  Ta  Ta135  1  0.00471316  0.20184331  -0.00085645  1
  Ta  Ta136  1  0.20453046  0.60800087  0.19570697  1
  Ta  Ta137  1  0.89207706  0.29816057  0.49477792  1
  Ta  Ta138  1  0.40213035  0.60261027  0.38977024  1
  Ta  Ta139  1  0.30557181  0.29458272  0.29112667  1
  Ta  Ta140  1  0.10129579  0.09741485  0.29005240  1
  Ta  Ta141  1  0.29545738  0.30968057  0.90337965  1
  Ta  Ta142  1  0.49245500  0.29461410  0.09971647  1
  Ta  Ta143  1  0.30116329  0.49976406  0.49341148  1
  Ta  Ta144  1  0.20065576  0.20166491  0.80488879  1
  Ta  Ta145  1  0.09288264  0.90085521  0.70255921  1
  Ta  Ta146  1  0.20507573  0.39629238  0.60554750  1
  Ta  Ta147  1  0.80218551  0.79566322  0.40692001  1
  Ta  Ta148  1  0.39431668  0.20189353  0.60402443  1
  Ta  Ta149  1  0.30092943  0.30343065  0.50226998  1
  Ti  Ti150  1  0.90579894  0.70058806  0.09135943  1
  Ti  Ti151  1  0.50368737  0.70744439  0.29901707  1
  Ti  Ti152  1  0.80117172  -0.00076130  0.60600971  1
  Ti  Ti153  1  -0.00800681  0.39326964  0.01122412  1
  Ti  Ti154  1  0.29495395  0.48939659  0.71818181  1
  Ti  Ti155  1  0.09237980  0.69914238  0.50616265  1
  Ti  Ti156  1  0.89635566  0.09641832  0.90028713  1
  Ti  Ti157  1  -0.00999816  0.39516210  0.80193882  1
  Ti  Ti158  1  0.30657658  0.70848238  0.29913753  1
  Ti  Ti159  1  0.29278011  0.08884623  0.89605154  1
  Ti  Ti160  1  0.49349737  0.91375345  0.50164256  1
  Ti  Ti161  1  0.80760719  0.20051555  0.20058550  1
  Ti  Ti162  1  -0.00920482  0.60714717  0.19397427  1
  Ti  Ti163  1  0.70756771  0.29417804  0.49507805  1
  Ti  Ti164  1  0.59851950  0.60925782  0.19131171  1
  Ti  Ti165  1  0.08056863  0.69492683  0.69082493  1
  Ti  Ti166  1  0.79933119  0.39945189  0.39955413  1
  Ti  Ti167  1  0.80296073  0.80312408  0.60887544  1
  Ti  Ti168  1  0.71741460  0.08588581  0.91558895  1
  Ti  Ti169  1  0.79792616  0.41010884  0.80181073  1
  Ti  Ti170  1  0.88479662  0.90880169  0.89889182  1
  Ti  Ti171  1  -0.01749496  0.59191889  -0.00490805  1
  Ti  Ti172  1  0.49671967  0.10298438  0.29522654  1
  Ti  Ti173  1  0.10644421  0.91097655  0.89347123  1
  Ti  Ti174  1  0.80849644  0.80086132  0.79542882  1
  Ti  Ti175  1  0.50046839  0.70521017  0.89619912  1
  Ti  Ti176  1  0.29894259  0.30167068  0.71042692  1
  Ti  Ti177  1  0.51587428  0.70675566  0.70205398  1
  Ti  Ti178  1  0.80472346  0.59660778  0.80614226  1
  Ti  Ti179  1  0.69859352  0.70377005  0.50868868  1
  Ti  Ti180  1  0.20010226  0.59825333  0.80706686  1
  Ti  Ti181  1  0.81123610  0.41391060  -0.00188225  1
  Ti  Ti182  1  0.29668699  0.48779341  0.90737792  1
  Ti  Ti183  1  0.89566075  0.09586315  0.49757687  1
  Ti  Ti184  1  0.10607745  0.30355114  0.71174106  1
  Ti  Ti185  1  0.59862200  0.60456411  0.39397289  1
  Ti  Ti186  1  0.20125940  0.80118368  0.20345563  1
  Ti  Ti187  1  0.89272733  0.10241953  0.30961285  1
  Ti  Ti188  1  0.40965953  0.80272887  0.80065649  1
  Ti  Ti189  1  0.39717672  0.39795461  0.19357955  1
  Ti  Ti190  1  0.39992239  0.40128691  0.39682662  1
  Ti  Ti191  1  0.09748833  0.09967327  0.89474979  1
  Ti  Ti192  1  -0.00740760  0.80292968  0.19489551  1
  Ti  Ti193  1  0.40256790  0.00166117  0.80497000  1
  Ti  Ti194  1  -0.00030833  0.00439843  0.39886905  1
  Ti  Ti195  1  -0.00219097  0.20399203  0.80323888  1
  Ti  Ti196  1  0.59566536  0.19560031  0.19667696  1
  Ti  Ti197  1  0.70010401  0.70758720  0.70095344  1
  Ti  Ti198  1  0.50625289  0.90670846  0.08293384  1
  Ti  Ti199  1  0.60920330  0.00196597  0.59651828  1
  Mo  Mo200  1  -0.00511020  0.80102176  0.60822196  1
  Mo  Mo201  1  0.20095142  0.39382063  0.80068610  1
  Mo  Mo202  1  0.60452173  0.80389298  0.79836841  1
  Mo  Mo203  1  0.19387565  0.00261420  0.80358157  1
  Mo  Mo204  1  0.49117185  0.08346035  0.90186960  1
  Mo  Mo205  1  0.90301916  0.49655058  0.89901208  1
  Mo  Mo206  1  0.39287830  0.39566408  0.00645752  1
  Mo  Mo207  1  -0.00615153  0.39131062  0.19223202  1
  Mo  Mo208  1  -0.00554146  0.60026444  0.60888260  1
  Mo  Mo209  1  0.80205935  -0.00942766  -0.00004076  1
  Mo  Mo210  1  0.70375263  0.09148598  0.68517469  1
  Mo  Mo211  1  0.41025372  0.00297283  0.39940961  1
  Mo  Mo212  1  0.39282866  -0.00017711  0.60461744  1
  Mo  Mo213  1  0.70892210  0.50629151  0.70505010  1
  Mo  Mo214  1  0.49914862  0.49483320  0.70469649  1
  Mo  Mo215  1  0.10008553  0.29162113  0.29495750  1
  Mo  Mo216  1  0.40271202  0.00040548  -0.00633551  1
  Mo  Mo217  1  0.89933439  0.70665064  0.29614217  1
  Mo  Mo218  1  0.41045639  0.80199862  -0.00478363  1
  Mo  Mo219  1  0.50025956  0.90362078  0.30915944  1
  Mo  Mo220  1  0.60209495  -0.00586257  -0.00239120  1
  Mo  Mo221  1  0.20123749  0.39787936  -0.00031282  1
  Mo  Mo222  1  0.89061173  0.69971760  0.70531105  1
  Mo  Mo223  1  0.71448907  0.50013682  0.89958161  1
  Mo  Mo224  1  0.29770063  0.49815499  0.09803008  1
  Mo  Mo225  1  0.61133686  0.61329198  0.60728457  1
  Mo  Mo226  1  0.89838747  0.89689642  0.09256353  1
  Mo  Mo227  1  0.89533110  0.69784536  0.90027369  1
  Mo  Mo228  1  0.60273759  0.80722087  0.19424635  1
  Mo  Mo229  1  0.50784265  0.10014500  0.09834512  1
  Mo  Mo230  1  0.39886833  0.20320921  0.19599975  1
  Mo  Mo231  1  0.80780676  0.00187411  0.40366616  1
  Mo  Mo232  1  0.89599172  0.89869201  0.69795716  1
  Mo  Mo233  1  0.09945030  0.10060845  0.09773923  1
  Mo  Mo234  1  0.89361048  0.29714021  0.70805088  1
  Mo  Mo235  1  0.09499315  0.90332434  0.29795351  1
  Mo  Mo236  1  0.19756321  0.00522387  0.19756019  1
  Mo  Mo237  1  0.90075628  0.30156526  0.09577143  1
  Mo  Mo238  1  -0.00733975  0.79714409  0.40552725  1
  Mo  Mo239  1  0.80463004  0.19912924  0.39959951  1
  Mo  Mo240  1  0.80473842  0.19289544  -0.00501180  1
  Mo  Mo241  1  0.80049717  -0.00469656  0.80255492  1
  Mo  Mo242  1  0.90266866  0.50343041  0.09491573  1
  Mo  Mo243  1  0.70117560  0.70312848  0.09310026  1
  Mo  Mo244  1  0.39377392  0.39608942  0.80196885  1
  Mo  Mo245  1  0.49282600  0.09462492  0.50768172  1
  Mo  Mo246  1  0.38891704  0.59597185  0.00103165  1
  Mo  Mo247  1  0.41149101  0.80163803  0.39544481  1
  Mo  Mo248  1  0.29084738  0.10000177  0.09870006  1
  Mo  Mo249  1  0.09863664  0.30102591  0.08935471  1
