# generated using pymatgen
data_HfZrTaTiMo
_symmetry_space_group_name_H-M   'P 1'
_cell_length_a   16.87541163
_cell_length_b   16.88015140
_cell_length_c   16.88023174
_cell_angle_alpha   90.03241537
_cell_angle_beta   89.93666033
_cell_angle_gamma   90.02264955
_symmetry_Int_Tables_number   1
_chemical_formula_structural   HfZrTaTiMo
_chemical_formula_sum   'Hf50 Zr50 Ta50 Ti50 Mo50'
_cell_volume   4808.49034707
_cell_formula_units_Z   50
loop_
 _symmetry_equiv_pos_site_id
 _symmetry_equiv_pos_as_xyz
  1  'x, y, z'
loop_
 _atom_site_type_symbol
 _atom_site_label
 _atom_site_symmetry_multiplicity
 _atom_site_fract_x
 _atom_site_fract_y
 _atom_site_fract_z
 _atom_site_occupancy
  Hf  Hf0  1  0.71396840  0.89804475  0.09228624  1
  Hf  Hf1  1  0.19226957  0.80963567  0.80000466  1
  Hf  Hf2  1  0.30546971  0.90232826  0.10973066  1
  Hf  Hf3  1  0.50486051  0.69135444  0.89663030  1
  Hf  Hf4  1  0.89799514  0.30604691  0.89908916  1
  Hf  Hf5  1  0.60615992  0.79944629  -0.00845641  1
  Hf  Hf6  1  0.39881062  0.38677988  0.19730077  1
  Hf  Hf7  1  0.49673973  0.29270630  0.90712206  1
  Hf  Hf8  1  0.40522378  0.79965475  0.00049907  1
  Hf  Hf9  1  0.00080183  0.19276286  0.00642714  1
  Hf  Hf10  1  0.50590489  0.89368051  0.49721516  1
  Hf  Hf11  1  0.19510104  0.00373424  0.80047782  1
  Hf  Hf12  1  0.40047739  0.58466217  -0.00456381  1
  Hf  Hf13  1  0.00108781  0.59786413  0.00775285  1
  Hf  Hf14  1  0.19875720  0.58551263  0.79727229  1
  Hf  Hf15  1  0.38848441  0.79658191  0.38518483  1
  Hf  Hf16  1  0.69684560  0.30766470  0.29906650  1
  Hf  Hf17  1  0.39832451  0.58768396  0.40455985  1
  Hf  Hf18  1  0.89934746  0.70346317  0.49457057  1
  Hf  Hf19  1  0.39988780  0.20861462  0.39666672  1
  Hf  Hf20  1  0.60219403  0.59808002  0.39754200  1
  Hf  Hf21  1  0.09772563  0.31006413  0.29984889  1
  Hf  Hf22  1  0.90066104  0.89374780  0.49515484  1
  Hf  Hf23  1  0.50793178  0.10987835  0.69891373  1
  Hf  Hf24  1  0.28616798  0.68935765  0.49685630  1
  Hf  Hf25  1  0.80200263  -0.00248763  0.39832281  1
  Hf  Hf26  1  0.49998497  0.69197385  0.10331423  1
  Hf  Hf27  1  0.90513807  0.70129721  0.30108782  1
  Hf  Hf28  1  0.18659098  0.80124762  0.00961543  1
  Hf  Hf29  1  0.49444835  0.10703933  0.90249268  1
  Hf  Hf30  1  0.30458464  0.90896027  0.91017886  1
  Hf  Hf31  1  0.00235575  0.20056471  0.40239377  1
  Hf  Hf32  1  0.39706289  0.00134119  0.39910783  1
  Hf  Hf33  1  0.00532342  0.40642547  0.60780927  1
  Hf  Hf34  1  0.09848674  0.30308615  0.90145818  1
  Hf  Hf35  1  0.89695530  0.30896014  0.10169452  1
  Hf  Hf36  1  0.19800311  0.01006100  0.60625280  1
  Hf  Hf37  1  0.19679745  0.19967862  0.00979102  1
  Hf  Hf38  1  0.70515616  0.49137165  0.29562820  1
  Hf  Hf39  1  0.60476716  0.79818875  0.79528954  1
  Hf  Hf40  1  0.50097751  0.69547442  0.50058026  1
  Hf  Hf41  1  0.19544992  0.80377564  0.20256801  1
  Hf  Hf42  1  0.51092624  0.91115817  0.69940341  1
  Hf  Hf43  1  0.50840059  0.11002356  0.29959722  1
  Hf  Hf44  1  0.69514338  0.10162047  0.69836893  1
  Hf  Hf45  1  0.30029101  0.69271095  0.11074102  1
  Hf  Hf46  1  0.09831985  0.69778964  0.50083379  1
  Hf  Hf47  1  0.09690170  0.31409267  0.10298252  1
  Hf  Hf48  1  0.29048213  0.69679535  0.69504633  1
  Hf  Hf49  1  0.70600996  0.89142808  0.29829513  1
  Zr  Zr50  1  0.29193534  0.49579471  0.30648986  1
  Zr  Zr51  1  0.90094390  0.09840799  0.50414842  1
  Zr  Zr52  1  0.78895166  0.60321073  0.60772190  1
  Zr  Zr53  1  0.39779009  0.00692738  0.59703079  1
  Zr  Zr54  1  0.09721628  0.49789713  0.29784367  1
  Zr  Zr55  1  0.00743224  -0.00373421  0.19047092  1
  Zr  Zr56  1  0.90258469  0.31335302  0.29620368  1
  Zr  Zr57  1  0.30214275  0.31190445  0.50691860  1
  Zr  Zr58  1  0.69913258  0.10876718  0.29998165  1
  Zr  Zr59  1  0.61009255  0.78505869  0.39444103  1
  Zr  Zr60  1  0.89295071  0.09733577  0.90505575  1
  Zr  Zr61  1  0.80802510  0.58861454  -0.00270090  1
  Zr  Zr62  1  0.29081118  0.90347987  0.49749069  1
  Zr  Zr63  1  0.30233584  0.29709614  0.90363776  1
  Zr  Zr64  1  0.50536896  0.48428042  0.30111892  1
  Zr  Zr65  1  0.09595054  0.69446360  0.29587678  1
  Zr  Zr66  1  0.80950525  -0.00301257  0.19815415  1
  Zr  Zr67  1  0.90042051  0.50349474  0.49992549  1
  Zr  Zr68  1  0.08990651  0.70671635  0.89415120  1
  Zr  Zr69  1  0.40470649  0.79880777  0.79420972  1
  Zr  Zr70  1  0.79868581  0.80065180  0.79545155  1
  Zr  Zr71  1  0.61290725  0.00051170  -0.00958769  1
  Zr  Zr72  1  0.40369448  0.79452145  0.60487386  1
  Zr  Zr73  1  0.09594559  0.89924403  0.49629450  1
  Zr  Zr74  1  0.80164570  0.21106517  0.60053363  1
  Zr  Zr75  1  0.90305117  0.10785949  0.29622258  1
  Zr  Zr76  1  0.50873837  0.11583394  0.50111705  1
  Zr  Zr77  1  0.39432595  0.01640671  0.19998462  1
  Zr  Zr78  1  0.50519733  0.10632994  0.09410041  1
  Zr  Zr79  1  0.29717602  0.70072172  0.90021820  1
  Zr  Zr80  1  0.10587242  0.30995871  0.49743367  1
  Zr  Zr81  1  0.60884309  0.59274497  0.79074756  1
  Zr  Zr82  1  0.00593401  0.20313469  0.60591774  1
  Zr  Zr83  1  0.21293141  0.20004594  0.19496061  1
  Zr  Zr84  1  0.19505406  0.59540742  0.00075844  1
  Zr  Zr85  1  0.49875388  0.89437923  0.28914627  1
  Zr  Zr86  1  -0.00449636  -0.00199115  0.80313396  1
  Zr  Zr87  1  0.90212964  0.49907971  0.29966289  1
  Zr  Zr88  1  0.70943818  0.69613652  0.09172417  1
  Zr  Zr89  1  0.40285362  0.58557116  0.59826203  1
  Zr  Zr90  1  -0.00064898  0.59069462  0.79442520  1
  Zr  Zr91  1  0.39736006  0.58857280  0.79845984  1
  Zr  Zr92  1  0.50239488  0.90113584  0.10110926  1
  Zr  Zr93  1  0.59514205  0.40233209  0.60486375  1
  Zr  Zr94  1  0.89787223  0.90527583  0.69487859  1
  Zr  Zr95  1  0.39255414  0.00710293  0.79158768  1
  Zr  Zr96  1  0.18255571  0.00260274  0.01985166  1
  Zr  Zr97  1  0.30479777  0.10318504  0.90981637  1
  Zr  Zr98  1  0.69513236  0.11054981  0.49701214  1
  Zr  Zr99  1  0.90165594  0.71001536  0.90312388  1
  Ta  Ta100  1  0.50285786  0.91378224  0.89543986  1
  Ta  Ta101  1  0.69844187  0.30398251  0.09445543  1
  Ta  Ta102  1  0.10644901  0.50128600  0.49434729  1
  Ta  Ta103  1  0.50072671  0.48934997  0.70247517  1
  Ta  Ta104  1  0.50494457  0.29962206  0.09671697  1
  Ta  Ta105  1  0.79617265  0.20449897  0.80067356  1
  Ta  Ta106  1  0.29353768  0.10027497  0.30589007  1
  Ta  Ta107  1  0.20050889  0.80221110  0.38950390  1
  Ta  Ta108  1  -0.00102255  0.20234286  0.79779919  1
  Ta  Ta109  1  0.80261649  0.60091129  0.19695729  1
  Ta  Ta110  1  0.89740039  0.49811634  0.70032042  1
  Ta  Ta111  1  0.70758888  0.69648530  0.89992353  1
  Ta  Ta112  1  0.20111595  0.20306383  0.39866563  1
  Ta  Ta113  1  0.69776618  0.30300478  0.90094260  1
  Ta  Ta114  1  0.60652814  0.59748164  0.19927524  1
  Ta  Ta115  1  0.00482748  0.00082731  0.39446705  1
  Ta  Ta116  1  0.09239906  0.89675464  0.69708717  1
  Ta  Ta117  1  0.69553603  0.49730430  0.49839474  1
  Ta  Ta118  1  0.60317706  0.20717725  0.19337914  1
  Ta  Ta119  1  0.29491242  0.11307083  0.50097178  1
  Ta  Ta120  1  0.60867625  0.78572242  0.60610973  1
  Ta  Ta121  1  0.60369755  -0.00493804  0.39891247  1
  Ta  Ta122  1  0.69768663  0.90620581  0.69602443  1
  Ta  Ta123  1  0.50647962  0.49190207  0.10054035  1
  Ta  Ta124  1  0.10136081  0.48786264  0.90176338  1
  Ta  Ta125  1  0.79839196  0.20472431  0.19141381  1
  Ta  Ta126  1  0.89324042  0.10180754  0.70452945  1
  Ta  Ta127  1  0.69055732  0.30254962  0.49658656  1
  Ta  Ta128  1  0.69313809  0.30234794  0.70429383  1
  Ta  Ta129  1  0.70354183  0.89047616  0.49919422  1
  Ta  Ta130  1  -0.00409525  0.79570796  0.60334758  1
  Ta  Ta131  1  0.60841684  0.78749466  0.19955888  1
  Ta  Ta132  1  0.09437326  0.69821167  0.69418893  1
  Ta  Ta133  1  0.79212223  0.40389063  0.79577166  1
  Ta  Ta134  1  0.29583656  0.49555276  0.10167849  1
  Ta  Ta135  1  0.89748118  0.30469458  0.70630588  1
  Ta  Ta136  1  0.09481978  0.10031370  0.90165578  1
  Ta  Ta137  1  0.60084210  0.20610253  0.80224292  1
  Ta  Ta138  1  0.20144163  0.39793991  0.79507836  1
  Ta  Ta139  1  0.19472646  0.20168743  0.79390406  1
  Ta  Ta140  1  0.10761623  0.09784856  0.29899015  1
  Ta  Ta141  1  0.78821268  -0.00133483  0.80734874  1
  Ta  Ta142  1  0.80705593  0.79482980  0.19900649  1
  Ta  Ta143  1  0.69923240  0.49141515  0.10328238  1
  Ta  Ta144  1  0.79212858  0.79315448  0.60031636  1
  Ta  Ta145  1  0.79429583  0.40167400  0.60459406  1
  Ta  Ta146  1  0.60389686  0.58772789  -0.00279891  1
  Ta  Ta147  1  0.39854451  0.39553960  0.79781800  1
  Ta  Ta148  1  0.00256245  0.59852318  0.40338995  1
  Ta  Ta149  1  0.70528695  0.10512073  0.09412040  1
  Ti  Ti150  1  0.50256783  0.31374921  0.49311002  1
  Ti  Ti151  1  0.91156825  0.88523971  0.30476099  1
  Ti  Ti152  1  0.49346384  0.69543883  0.28939769  1
  Ti  Ti153  1  0.50899688  0.30197104  0.30244829  1
  Ti  Ti154  1  0.19290416  0.58434055  0.60416160  1
  Ti  Ti155  1  0.60799314  0.00144835  0.19916595  1
  Ti  Ti156  1  0.60162640  0.59943084  0.60278647  1
  Ti  Ti157  1  0.80313297  0.20897778  0.39989188  1
  Ti  Ti158  1  0.50385490  0.48569926  0.89654566  1
  Ti  Ti159  1  0.79857174  0.40565418  -0.00269948  1
  Ti  Ti160  1  0.90203170  0.49212802  0.89119343  1
  Ti  Ti161  1  0.38190345  0.20095203  0.03574031  1
  Ti  Ti162  1  0.00612157  0.39856386  0.79215530  1
  Ti  Ti163  1  0.79772236  0.59497558  0.79635529  1
  Ti  Ti164  1  0.39340092  0.40103671  0.00184717  1
  Ti  Ti165  1  0.69958787  0.10654041  0.90012452  1
  Ti  Ti166  1  0.29566080  0.89957099  0.69709133  1
  Ti  Ti167  1  0.60717942  -0.00365469  0.58890126  1
  Ti  Ti168  1  0.19391823  0.80343666  0.60135022  1
  Ti  Ti169  1  0.69768241  0.49344082  0.89703190  1
  Ti  Ti170  1  0.90585232  0.69672804  0.69906404  1
  Ti  Ti171  1  0.10102036  0.90312108  0.30211830  1
  Ti  Ti172  1  0.60126342  0.39953503  -0.00140770  1
  Ti  Ti173  1  0.29885453  0.30504266  0.30698369  1
  Ti  Ti174  1  0.20522928  0.39977867  0.19683839  1
  Ti  Ti175  1  0.09369733  0.10249769  0.70522478  1
  Ti  Ti176  1  0.30367753  0.48659828  0.69405221  1
  Ti  Ti177  1  0.00282609  0.19637857  0.19381020  1
  Ti  Ti178  1  -0.00153662  0.41068726  0.00238657  1
  Ti  Ti179  1  0.29220249  0.68556690  0.29465234  1
  Ti  Ti180  1  0.90597258  0.89284958  0.08823136  1
  Ti  Ti181  1  0.79590062  0.20271301  0.00008814  1
  Ti  Ti182  1  0.79745202  0.39965614  0.41144102  1
  Ti  Ti183  1  0.90264366  0.30983548  0.50062635  1
  Ti  Ti184  1  0.19629817  0.40353639  0.60995948  1
  Ti  Ti185  1  0.10251433  0.50225072  0.10880111  1
  Ti  Ti186  1  0.10892524  0.09824063  0.49266653  1
  Ti  Ti187  1  0.41212874  0.21884877  0.60525639  1
  Ti  Ti188  1  0.78824439  0.61066797  0.39871723  1
  Ti  Ti189  1  0.30343884  0.11865893  0.69723422  1
  Ti  Ti190  1  0.00283851  0.00477361  0.59891221  1
  Ti  Ti191  1  0.30387200  0.29978586  0.69961499  1
  Ti  Ti192  1  0.79516110  -0.00124997  0.59833339  1
  Ti  Ti193  1  0.19356933  0.20447848  0.60595031  1
  Ti  Ti194  1  0.07824906  0.89907732  0.90986243  1
  Ti  Ti195  1  0.89455052  0.09427150  0.09289293  1
  Ti  Ti196  1  0.40183606  0.58838562  0.20059604  1
  Ti  Ti197  1  0.90996417  0.70822562  0.10296601  1
  Ti  Ti198  1  0.90113618  0.49478771  0.11296744  1
  Ti  Ti199  1  0.89430359  0.89830617  0.91293250  1
  Mo  Mo200  1  0.40406736  0.20903711  0.20572893  1
  Mo  Mo201  1  0.29923109  0.31076526  0.10106472  1
  Mo  Mo202  1  0.19765301  0.00716258  0.39967210  1
  Mo  Mo203  1  0.39786651  0.78578459  0.20573531  1
  Mo  Mo204  1  0.10174545  0.49714837  0.69837118  1
  Mo  Mo205  1  0.10275714  0.30043142  0.70584608  1
  Mo  Mo206  1  0.70069591  0.69516325  0.50046663  1
  Mo  Mo207  1  0.71043772  0.69345789  0.29130943  1
  Mo  Mo208  1  0.50782439  0.68715430  0.69555148  1
  Mo  Mo209  1  -0.00086897  0.80183285  0.00882198  1
  Mo  Mo210  1  0.80371938  -0.00083348  -0.00347615  1
  Mo  Mo211  1  0.09551652  0.10281234  0.10746419  1
  Mo  Mo212  1  0.70055084  0.49502769  0.69919850  1
  Mo  Mo213  1  0.70295540  0.69809706  0.70161296  1
  Mo  Mo214  1  0.28938487  0.90797735  0.30013813  1
  Mo  Mo215  1  0.40376343  0.00069568  0.00228317  1
  Mo  Mo216  1  0.29647460  0.09656521  0.10815389  1
  Mo  Mo217  1  0.80230164  0.79767331  0.39903813  1
  Mo  Mo218  1  0.09083229  0.89290483  0.10599878  1
  Mo  Mo219  1  0.50266845  0.49482184  0.50203672  1
  Mo  Mo220  1  0.61258301  0.20389341  -0.00193788  1
  Mo  Mo221  1  -0.00330922  0.60116239  0.19296865  1
  Mo  Mo222  1  0.59850427  0.21630086  0.60156928  1
  Mo  Mo223  1  0.20331261  0.40097100  0.40173282  1
  Mo  Mo224  1  0.40214328  0.39866524  0.60504387  1
  Mo  Mo225  1  0.29047250  0.49301484  0.50366815  1
  Mo  Mo226  1  0.40253772  0.39781199  0.40624877  1
  Mo  Mo227  1  -0.00378634  -0.00347678  0.00162810  1
  Mo  Mo228  1  0.08983705  0.69754928  0.10910452  1
  Mo  Mo229  1  0.80635276  0.80001838  -0.00074623  1
  Mo  Mo230  1  0.00113632  0.60190859  0.60131302  1
  Mo  Mo231  1  0.59909933  0.40313939  0.40638611  1
  Mo  Mo232  1  0.29495900  0.48449304  0.90222463  1
  Mo  Mo233  1  0.19826413  0.59600484  0.19570537  1
  Mo  Mo234  1  0.59923549  0.39576142  0.19063056  1
  Mo  Mo235  1  0.00087062  0.40587472  0.19196395  1
  Mo  Mo236  1  0.19827110  0.59989327  0.40250282  1
  Mo  Mo237  1  0.49871619  0.30029647  0.70939123  1
  Mo  Mo238  1  0.19872531  -0.00183948  0.20945106  1
  Mo  Mo239  1  0.59717145  0.21298665  0.39702454  1
  Mo  Mo240  1  0.39766221  0.20728002  0.78556230  1
  Mo  Mo241  1  0.20035200  0.40484586  -0.00024672  1
  Mo  Mo242  1  0.00583343  0.80337199  0.39836164  1
  Mo  Mo243  1  -0.00092236  0.40478432  0.40903385  1
  Mo  Mo244  1  0.70468276  0.89918913  0.89448351  1
  Mo  Mo245  1  -0.00161393  0.80308816  0.79088038  1
  Mo  Mo246  1  -0.00111867  0.80364719  0.19850841  1
  Mo  Mo247  1  0.59776827  0.39757138  0.80691181  1
  Mo  Mo248  1  0.79806372  0.40167769  0.18921737  1
  Mo  Mo249  1  0.60713317  0.00728705  0.80215058  1
