# generated using pymatgen
data_HfZrTaTiMo
_symmetry_space_group_name_H-M   'P 1'
_cell_length_a   16.88909223
_cell_length_b   16.87981754
_cell_length_c   16.89322524
_cell_angle_alpha   90.01896219
_cell_angle_beta   90.01418347
_cell_angle_gamma   89.98286908
_symmetry_Int_Tables_number   1
_chemical_formula_structural   HfZrTaTiMo
_chemical_formula_sum   'Hf50 Zr50 Ta50 Ti50 Mo50'
_cell_volume   4816.00103370
_cell_formula_units_Z   50
loop_
 _symmetry_equiv_pos_site_id
 _symmetry_equiv_pos_as_xyz
  1  'x, y, z'
loop_
 _atom_site_type_symbol
 _atom_site_label
 _atom_site_symmetry_multiplicity
 _atom_site_fract_x
 _atom_site_fract_y
 _atom_site_fract_z
 _atom_site_occupancy
  Hf  Hf0  1  0.90431538  0.10051418  0.69580990  1
  Hf  Hf1  1  0.30046799  0.90236348  0.90252366  1
  Hf  Hf2  1  0.69611038  0.10223807  0.29608540  1
  Hf  Hf3  1  0.40417517  0.59271805  0.00018871  1
  Hf  Hf4  1  0.20275000  0.59453455  0.19862627  1
  Hf  Hf5  1  0.30356073  0.09429845  0.90526354  1
  Hf  Hf6  1  0.30400766  0.30157703  0.29256838  1
  Hf  Hf7  1  0.20245658  0.80474507  0.79580649  1
  Hf  Hf8  1  0.40334089  -0.00115552  0.40459263  1
  Hf  Hf9  1  0.09947389  0.10569146  0.90392501  1
  Hf  Hf10  1  0.40821357  0.60080714  0.80141952  1
  Hf  Hf11  1  0.09968980  0.29587124  0.50883934  1
  Hf  Hf12  1  0.60182203  0.59733127  -0.00279872  1
  Hf  Hf13  1  0.10245008  0.69786197  0.09585483  1
  Hf  Hf14  1  0.59612690  0.19035200  0.40904862  1
  Hf  Hf15  1  0.59893740  0.20648165  0.80996103  1
  Hf  Hf16  1  0.00121517  0.79145786  0.80260829  1
  Hf  Hf17  1  0.60409202  0.20231772  -0.00550144  1
  Hf  Hf18  1  0.70009880  0.30144426  0.69392050  1
  Hf  Hf19  1  0.10944554  0.71119352  0.30762518  1
  Hf  Hf20  1  0.59598804  0.79811612  0.40074623  1
  Hf  Hf21  1  0.39350490  0.80162628  0.40299511  1
  Hf  Hf22  1  0.40178772  0.19970156  0.40401793  1
  Hf  Hf23  1  -0.00048849  0.20722669  0.19967923  1
  Hf  Hf24  1  0.69131464  0.09873218  0.69410963  1
  Hf  Hf25  1  0.70093236  0.30816141  0.09653218  1
  Hf  Hf26  1  0.00158673  0.59824505  0.60932297  1
  Hf  Hf27  1  0.90663973  0.29931966  0.90770684  1
  Hf  Hf28  1  0.29480227  0.49634722  0.90206743  1
  Hf  Hf29  1  0.70421559  0.69379802  0.70031482  1
  Hf  Hf30  1  0.80461926  0.40630979  0.20444059  1
  Hf  Hf31  1  0.10405036  0.09970258  0.09132196  1
  Hf  Hf32  1  0.21217274  0.39887408  0.40491005  1
  Hf  Hf33  1  -0.00376798  0.40598952  0.60945533  1
  Hf  Hf34  1  0.20394675  -0.00133193  0.60119852  1
  Hf  Hf35  1  -0.00002571  0.59857658  -0.00970791  1
  Hf  Hf36  1  0.39537425  0.79603960  0.20211514  1
  Hf  Hf37  1  0.50214040  0.90360078  0.09614970  1
  Hf  Hf38  1  -0.00446875  0.79810094  0.19503863  1
  Hf  Hf39  1  0.19795307  0.59857180  0.59671725  1
  Hf  Hf40  1  0.50532186  0.29781413  0.10619494  1
  Hf  Hf41  1  0.00464245  0.19682362  0.40343970  1
  Hf  Hf42  1  0.48490108  0.09781956  0.90054878  1
  Hf  Hf43  1  0.89274153  0.30332899  0.49802427  1
  Hf  Hf44  1  0.69915624  0.90120778  0.29639903  1
  Hf  Hf45  1  0.10316069  0.90597799  0.90559339  1
  Hf  Hf46  1  0.00161780  0.41058635  0.79684736  1
  Hf  Hf47  1  0.59901360  -0.00954208  0.79654322  1
  Hf  Hf48  1  0.29204471  0.90829356  0.09161961  1
  Hf  Hf49  1  0.30426275  0.49509630  0.70032176  1
  Zr  Zr50  1  -0.00479414  0.60368106  0.19586988  1
  Zr  Zr51  1  0.49318059  0.09643192  0.70280773  1
  Zr  Zr52  1  0.40359840  0.80420239  0.61073406  1
  Zr  Zr53  1  0.70130922  0.50225004  0.70292881  1
  Zr  Zr54  1  0.79026488  0.00926843  0.40920743  1
  Zr  Zr55  1  0.49128608  0.68740334  0.29981448  1
  Zr  Zr56  1  0.30001145  0.10003025  0.29195028  1
  Zr  Zr57  1  0.90703539  0.90101356  0.69268474  1
  Zr  Zr58  1  0.09880641  0.49931266  0.30502834  1
  Zr  Zr59  1  0.50449682  0.69104134  0.10609726  1
  Zr  Zr60  1  0.80252977  0.60445079  0.20319277  1
  Zr  Zr61  1  0.59410450  0.80343569  0.60233529  1
  Zr  Zr62  1  0.39655581  0.20119985  0.60003374  1
  Zr  Zr63  1  0.31062762  0.50060300  0.30238297  1
  Zr  Zr64  1  0.59273030  0.79831332  0.79276840  1
  Zr  Zr65  1  0.70338869  0.89598350  0.09480358  1
  Zr  Zr66  1  0.00490368  -0.00349838  0.20352469  1
  Zr  Zr67  1  0.89701780  0.89837445  0.90195430  1
  Zr  Zr68  1  0.29927681  0.70008785  0.70603531  1
  Zr  Zr69  1  0.89111973  0.89490313  0.30019817  1
  Zr  Zr70  1  0.19418515  0.39930259  0.79749757  1
  Zr  Zr71  1  0.70092769  0.49594206  0.50299430  1
  Zr  Zr72  1  0.60691595  0.59877313  0.39819531  1
  Zr  Zr73  1  0.19777123  -0.00212352  0.40698442  1
  Zr  Zr74  1  0.89181047  0.89826268  0.09310879  1
  Zr  Zr75  1  0.90615220  0.10245920  0.51269357  1
  Zr  Zr76  1  0.59448643  0.60736098  0.59912767  1
  Zr  Zr77  1  0.90307172  0.10778278  0.09215431  1
  Zr  Zr78  1  0.00449349  0.62006085  0.41534630  1
  Zr  Zr79  1  0.20363713  0.19964978  0.78956393  1
  Zr  Zr80  1  0.49305264  0.09869173  0.09526485  1
  Zr  Zr81  1  0.28905155  0.89375942  0.30003602  1
  Zr  Zr82  1  0.01202809  -0.00027772  0.40446918  1
  Zr  Zr83  1  0.42078977  0.40187718  -0.00332683  1
  Zr  Zr84  1  0.79543963  -0.00329257  0.79866691  1
  Zr  Zr85  1  0.49201820  0.30132837  0.70423524  1
  Zr  Zr86  1  0.09903792  0.30727433  0.30400458  1
  Zr  Zr87  1  0.79184183  0.19814335  0.80794452  1
  Zr  Zr88  1  0.01485970  0.79114514  0.58867675  1
  Zr  Zr89  1  0.31015362  0.29423001  0.90045273  1
  Zr  Zr90  1  0.50440098  0.09872686  0.28725234  1
  Zr  Zr91  1  0.90713632  0.49783103  0.31675538  1
  Zr  Zr92  1  0.70455527  0.29235410  0.30803050  1
  Zr  Zr93  1  0.90430288  0.89778415  0.49956443  1
  Zr  Zr94  1  0.39870322  0.79303040  0.00164902  1
  Zr  Zr95  1  0.09676772  0.30393763  0.08771530  1
  Zr  Zr96  1  0.80517421  0.40029200  0.80001093  1
  Zr  Zr97  1  0.09860559  0.49305936  0.49466918  1
  Zr  Zr98  1  0.60729582  0.40979141  0.21511044  1
  Zr  Zr99  1  0.88968626  0.10991559  0.30088864  1
  Ta  Ta100  1  0.21378665  0.60910571  0.40191600  1
  Ta  Ta101  1  0.80512027  0.60691112  -0.00028508  1
  Ta  Ta102  1  0.49522656  0.49565418  0.49775166  1
  Ta  Ta103  1  -0.00493605  0.78981077  -0.00296330  1
  Ta  Ta104  1  0.89299156  0.50442819  0.50452131  1
  Ta  Ta105  1  0.59713141  0.39993668  0.81310002  1
  Ta  Ta106  1  0.81084042  0.60049940  0.80589608  1
  Ta  Ta107  1  0.90639310  0.10238831  0.89943236  1
  Ta  Ta108  1  0.09753302  0.30249768  0.90472543  1
  Ta  Ta109  1  0.89882431  0.30628896  0.09068284  1
  Ta  Ta110  1  0.30213088  0.30248036  0.09544471  1
  Ta  Ta111  1  0.69765857  0.30221241  0.50034068  1
  Ta  Ta112  1  0.90023930  0.49507410  0.08927032  1
  Ta  Ta113  1  0.59423102  0.19801527  0.59245024  1
  Ta  Ta114  1  0.78961990  0.01446241  -0.00679537  1
  Ta  Ta115  1  0.09964694  0.90303419  0.69584274  1
  Ta  Ta116  1  0.50271546  0.30712332  0.49761038  1
  Ta  Ta117  1  0.89583362  0.69915010  0.69786430  1
  Ta  Ta118  1  0.09814425  0.29408798  0.69523214  1
  Ta  Ta119  1  0.29396069  0.69409957  0.90216087  1
  Ta  Ta120  1  0.59494649  0.39879341  0.60041771  1
  Ta  Ta121  1  0.49774171  0.49889178  0.30876537  1
  Ta  Ta122  1  0.20257029  0.20239690  0.19409120  1
  Ta  Ta123  1  -0.00186835  0.40378124  0.19348575  1
  Ta  Ta124  1  0.29337482  0.69237189  0.09604535  1
  Ta  Ta125  1  0.19783948  0.40275901  0.18884626  1
  Ta  Ta126  1  0.78883425  0.80395732  0.60160784  1
  Ta  Ta127  1  0.68770725  0.90663068  0.50049859  1
  Ta  Ta128  1  0.40389212  0.59997137  0.60128765  1
  Ta  Ta129  1  0.70471959  0.49865485  0.90588511  1
  Ta  Ta130  1  0.79098815  0.19934386  -0.00614878  1
  Ta  Ta131  1  0.79482241  0.60739683  0.40444135  1
  Ta  Ta132  1  0.88603818  0.70205409  0.50745349  1
  Ta  Ta133  1  0.50080453  0.70309560  0.89726426  1
  Ta  Ta134  1  0.70700278  0.50042225  0.09343234  1
  Ta  Ta135  1  0.29966968  0.10112763  0.50546089  1
  Ta  Ta136  1  0.49539105  0.89904100  0.90319828  1
  Ta  Ta137  1  0.00839230  0.00460800  0.79602697  1
  Ta  Ta138  1  0.19896875  0.00169239  0.79090652  1
  Ta  Ta139  1  0.90227322  0.28746191  0.69248381  1
  Ta  Ta140  1  0.79795544  0.79763085  0.79752132  1
  Ta  Ta141  1  0.20269813  0.19667995  0.40576016  1
  Ta  Ta142  1  0.39674054  -0.00726672  0.59964238  1
  Ta  Ta143  1  0.70420490  0.69926251  0.89938186  1
  Ta  Ta144  1  0.60609446  0.79247656  0.19807815  1
  Ta  Ta145  1  0.60435851  0.79322516  -0.00067955  1
  Ta  Ta146  1  0.78435570  -0.00476459  0.60145552  1
  Ta  Ta147  1  0.50096472  0.49680008  0.69947373  1
  Ta  Ta148  1  0.19368988  -0.00015104  0.19773654  1
  Ta  Ta149  1  0.69942065  0.89252353  0.90292418  1
  Ti  Ti150  1  0.61484423  0.59845636  0.20402755  1
  Ti  Ti151  1  0.51299982  0.49809811  0.10817560  1
  Ti  Ti152  1  0.19759680  0.79468077  -0.00228727  1
  Ti  Ti153  1  0.00340224  0.20157558  0.79712456  1
  Ti  Ti154  1  0.79936300  0.78290964  0.18485081  1
  Ti  Ti155  1  0.18693906  0.59099370  0.79961071  1
  Ti  Ti156  1  0.40830061  0.39918211  0.80575095  1
  Ti  Ti157  1  0.00075138  0.59620645  0.79880770  1
  Ti  Ti158  1  0.40344175  0.39624231  0.40324562  1
  Ti  Ti159  1  0.30164368  0.09898667  0.09252211  1
  Ti  Ti160  1  0.19191134  0.58693642  -0.00057069  1
  Ti  Ti161  1  0.29549455  0.49084465  0.09357531  1
  Ti  Ti162  1  0.10198045  0.90062380  0.09191881  1
  Ti  Ti163  1  0.09429588  0.10467231  0.68634317  1
  Ti  Ti164  1  0.50274726  0.30185288  0.29997968  1
  Ti  Ti165  1  0.10727183  0.10535170  0.29546502  1
  Ti  Ti166  1  0.10497312  0.69987871  0.70083718  1
  Ti  Ti167  1  0.40282439  0.40471881  0.19655642  1
  Ti  Ti168  1  0.20580602  0.80844300  0.59296815  1
  Ti  Ti169  1  0.20286868  0.39805403  0.60682318  1
  Ti  Ti170  1  0.89695065  0.30081798  0.30700110  1
  Ti  Ti171  1  0.31137306  0.50371492  0.50055520  1
  Ti  Ti172  1  0.20150387  0.79929972  0.19396657  1
  Ti  Ti173  1  0.60776318  0.00306967  0.18908196  1
  Ti  Ti174  1  0.30466819  0.10242577  0.70198192  1
  Ti  Ti175  1  0.39481937  -0.00508710  0.19788151  1
  Ti  Ti176  1  0.49010562  0.69278841  0.49630838  1
  Ti  Ti177  1  0.39337945  0.59460214  0.19516585  1
  Ti  Ti178  1  0.78841727  0.19389485  0.58903974  1
  Ti  Ti179  1  0.50924764  0.90536030  0.29471086  1
  Ti  Ti180  1  0.39441504  -0.01859451  0.78799493  1
  Ti  Ti181  1  0.89806262  0.49640034  0.90547200  1
  Ti  Ti182  1  0.79501529  0.20143988  0.18796435  1
  Ti  Ti183  1  0.30187683  0.70216186  0.50046123  1
  Ti  Ti184  1  0.60698977  0.00378194  -0.00611707  1
  Ti  Ti185  1  0.79298122  0.40580011  0.39801664  1
  Ti  Ti186  1  -0.00387214  -0.00093901  -0.00232244  1
  Ti  Ti187  1  0.10021996  0.88820034  0.30899322  1
  Ti  Ti188  1  0.70431291  0.70479731  0.30019246  1
  Ti  Ti189  1  0.79498850  0.01046226  0.18688038  1
  Ti  Ti190  1  0.80484980  0.40590735  0.60706031  1
  Ti  Ti191  1  0.79042970  0.79849563  0.41040322  1
  Ti  Ti192  1  0.20659857  0.20447500  0.00159308  1
  Ti  Ti193  1  0.10661514  0.69519002  0.89818840  1
  Ti  Ti194  1  0.39906230  0.39956156  0.59891054  1
  Ti  Ti195  1  0.39673732  0.20196385  0.19369315  1
  Ti  Ti196  1  0.90013770  0.71267010  0.31449861  1
  Ti  Ti197  1  0.50530185  0.91084181  0.50212068  1
  Ti  Ti198  1  0.59769456  0.59611162  0.80448790  1
  Ti  Ti199  1  0.29787658  0.29790151  0.50850633  1
  Mo  Mo200  1  0.20299902  0.19660908  0.60010971  1
  Mo  Mo201  1  0.79826604  0.78885557  -0.00815065  1
  Mo  Mo202  1  0.69777941  0.10441863  0.09949674  1
  Mo  Mo203  1  0.09740827  0.49696039  0.09541374  1
  Mo  Mo204  1  0.29843413  0.30524135  0.69521682  1
  Mo  Mo205  1  0.49293569  0.90072868  0.70322445  1
  Mo  Mo206  1  0.19744748  0.00388815  0.00211989  1
  Mo  Mo207  1  0.10791968  0.10602377  0.50981095  1
  Mo  Mo208  1  0.70080791  0.31158210  0.90601470  1
  Mo  Mo209  1  0.59452687  0.39819627  0.40475302  1
  Mo  Mo210  1  0.10622441  0.89525196  0.50150871  1
  Mo  Mo211  1  0.69639785  0.89778717  0.69676193  1
  Mo  Mo212  1  0.89889100  0.69770094  0.89250484  1
  Mo  Mo213  1  -0.00396198  0.20254208  -0.00561238  1
  Mo  Mo214  1  0.69061343  0.09892647  0.50403861  1
  Mo  Mo215  1  0.70406574  0.70809339  0.49974054  1
  Mo  Mo216  1  0.09850305  0.50081731  0.90099354  1
  Mo  Mo217  1  0.50099188  0.30056889  0.90163469  1
  Mo  Mo218  1  0.10342621  0.50101587  0.70264990  1
  Mo  Mo219  1  0.00087057  0.40684368  -0.00363015  1
  Mo  Mo220  1  0.80424249  0.60378855  0.60140188  1
  Mo  Mo221  1  0.01528020  0.00158242  0.60313524  1
  Mo  Mo222  1  0.11822284  0.70264727  0.50166684  1
  Mo  Mo223  1  0.29482958  0.90137355  0.70250287  1
  Mo  Mo224  1  0.69493829  0.09270119  0.89972292  1
  Mo  Mo225  1  0.49729523  0.09267962  0.50596574  1
  Mo  Mo226  1  0.70273993  0.50616214  0.30436380  1
  Mo  Mo227  1  0.60721084  0.40485789  -0.00206331  1
  Mo  Mo228  1  0.00318902  0.20217900  0.60343092  1
  Mo  Mo229  1  0.70258745  0.69615813  0.09753548  1
  Mo  Mo230  1  0.59921508  0.20283425  0.19991697  1
  Mo  Mo231  1  0.59418402  -0.00494668  0.39900184  1
  Mo  Mo232  1  0.59176380  0.00122812  0.59581715  1
  Mo  Mo233  1  -0.01222625  0.39422899  0.40537665  1
  Mo  Mo234  1  0.49946850  0.69259357  0.70572085  1
  Mo  Mo235  1  0.39756984  0.59936479  0.41076961  1
  Mo  Mo236  1  -0.00047160  0.80153704  0.40061060  1
  Mo  Mo237  1  0.39995958  -0.00300309  -0.00004434  1
  Mo  Mo238  1  0.20078767  0.79971692  0.41525623  1
  Mo  Mo239  1  0.19727616  0.40245116  0.00126509  1
  Mo  Mo240  1  0.89862147  0.51021418  0.70096260  1
  Mo  Mo241  1  0.39981659  0.79768330  0.80682646  1
  Mo  Mo242  1  0.39842595  0.20073503  0.00631193  1
  Mo  Mo243  1  0.30278021  0.90003232  0.50409255  1
  Mo  Mo244  1  0.29711942  0.69807581  0.29480717  1
  Mo  Mo245  1  0.50915497  0.50236759  0.89323521  1
  Mo  Mo246  1  0.79425042  0.20383760  0.41122530  1
  Mo  Mo247  1  0.80243775  0.40485262  -0.00058393  1
  Mo  Mo248  1  0.90061564  0.69898615  0.08882538  1
  Mo  Mo249  1  0.39681374  0.20535805  0.79986704  1
