# generated using pymatgen
data_HfZrTaTiMo
_symmetry_space_group_name_H-M   'P 1'
_cell_length_a   16.89200934
_cell_length_b   16.88916350
_cell_length_c   16.87975318
_cell_angle_alpha   90.02045611
_cell_angle_beta   90.03848448
_cell_angle_gamma   89.94999511
_symmetry_Int_Tables_number   1
_chemical_formula_structural   HfZrTaTiMo
_chemical_formula_sum   'Hf50 Zr50 Ta50 Ti50 Mo50'
_cell_volume   4815.65375932
_cell_formula_units_Z   50
loop_
 _symmetry_equiv_pos_site_id
 _symmetry_equiv_pos_as_xyz
  1  'x, y, z'
loop_
 _atom_site_type_symbol
 _atom_site_label
 _atom_site_symmetry_multiplicity
 _atom_site_fract_x
 _atom_site_fract_y
 _atom_site_fract_z
 _atom_site_occupancy
  Hf  Hf0  1  0.51638538  0.70711095  0.69802028  1
  Hf  Hf1  1  0.80135102  0.59042526  0.79400861  1
  Hf  Hf2  1  0.62055859  0.80979584  0.80395604  1
  Hf  Hf3  1  0.80065578  0.40055161  0.19851789  1
  Hf  Hf4  1  0.29541302  0.29704352  0.69521427  1
  Hf  Hf5  1  0.89898056  0.09391396  0.28312461  1
  Hf  Hf6  1  -0.00613997  -0.00778524  0.60247981  1
  Hf  Hf7  1  0.29583090  0.10086157  0.30031117  1
  Hf  Hf8  1  0.29905626  0.49980750  0.70356033  1
  Hf  Hf9  1  0.69346267  0.30095587  0.29340778  1
  Hf  Hf10  1  0.89390396  0.10320809  0.90737111  1
  Hf  Hf11  1  0.70136226  0.09429608  0.69285352  1
  Hf  Hf12  1  0.60625015  0.20082961  0.80420054  1
  Hf  Hf13  1  0.10209271  0.10280340  0.50309979  1
  Hf  Hf14  1  0.28719396  0.89533508  0.70084442  1
  Hf  Hf15  1  0.08191024  0.31798750  0.70080801  1
  Hf  Hf16  1  0.38842541  0.00063597  0.80815222  1
  Hf  Hf17  1  -0.00381763  0.79198006  0.59680465  1
  Hf  Hf18  1  0.60700949  0.80606354  0.00271324  1
  Hf  Hf19  1  0.51423178  0.91288074  0.89119784  1
  Hf  Hf20  1  0.70439698  0.09626797  0.09407685  1
  Hf  Hf21  1  0.68232474  0.30214526  0.08492777  1
  Hf  Hf22  1  0.09421722  0.70666115  0.30389652  1
  Hf  Hf23  1  0.79607903  -0.01440726  0.81076807  1
  Hf  Hf24  1  0.59503969  0.80702735  0.19817529  1
  Hf  Hf25  1  0.39913653  0.40664769  -0.00704738  1
  Hf  Hf26  1  0.69579961  0.70566142  0.49520915  1
  Hf  Hf27  1  0.29292288  0.10646955  0.10025149  1
  Hf  Hf28  1  0.50106034  0.69268650  0.10189686  1
  Hf  Hf29  1  0.29745692  0.69482576  0.09617288  1
  Hf  Hf30  1  0.50031928  0.09706688  0.30838933  1
  Hf  Hf31  1  -0.00843800  0.59647406  0.41664587  1
  Hf  Hf32  1  0.80255757  -0.00653592  0.39587785  1
  Hf  Hf33  1  0.50400102  0.29856276  0.49981441  1
  Hf  Hf34  1  0.30009883  0.30017382  0.09905660  1
  Hf  Hf35  1  0.09356204  0.10138106  0.29439126  1
  Hf  Hf36  1  0.20709643  0.80940577  0.39304995  1
  Hf  Hf37  1  0.19027104  -0.00075184  0.00203363  1
  Hf  Hf38  1  0.40536320  -0.00469249  0.19821366  1
  Hf  Hf39  1  0.28596976  0.10022492  0.69894714  1
  Hf  Hf40  1  0.70505522  0.69608237  0.10060404  1
  Hf  Hf41  1  0.19439197  0.40221206  0.59502018  1
  Hf  Hf42  1  0.89334822  0.09947047  0.50022037  1
  Hf  Hf43  1  0.39699820  -0.00586666  0.60082626  1
  Hf  Hf44  1  -0.00438215  -0.00257427  0.80590170  1
  Hf  Hf45  1  0.30652796  0.49537159  0.49557149  1
  Hf  Hf46  1  0.69628017  0.69924788  0.29981778  1
  Hf  Hf47  1  0.59709348  0.40318222  0.39683144  1
  Hf  Hf48  1  0.90313932  0.29228532  0.09128229  1
  Hf  Hf49  1  0.20097392  0.40482973  0.80778215  1
  Zr  Zr50  1  0.90994209  0.49919777  0.89303713  1
  Zr  Zr51  1  -0.00531460  0.20282780  0.80405862  1
  Zr  Zr52  1  0.90088064  0.70924975  0.09740724  1
  Zr  Zr53  1  0.92320740  0.48301828  0.69520999  1
  Zr  Zr54  1  0.00297077  -0.01377836  0.39374659  1
  Zr  Zr55  1  0.00819544  0.60620098  0.00005896  1
  Zr  Zr56  1  0.19220098  0.20345967  0.80377311  1
  Zr  Zr57  1  0.89693424  0.50381778  0.09345271  1
  Zr  Zr58  1  0.80446866  0.79758529  0.59650654  1
  Zr  Zr59  1  0.60721990  0.59350794  0.59649826  1
  Zr  Zr60  1  0.89944183  0.29444214  0.29415837  1
  Zr  Zr61  1  0.40432443  0.20474316  0.80738532  1
  Zr  Zr62  1  -0.00187207  -0.00133459  0.00795396  1
  Zr  Zr63  1  0.10106666  0.70424797  0.49967113  1
  Zr  Zr64  1  0.19160777  0.59796572  0.60182214  1
  Zr  Zr65  1  0.29382356  0.89869280  0.09795859  1
  Zr  Zr66  1  0.39513484  0.80509595  0.79952161  1
  Zr  Zr67  1  -0.00931612  0.20602477  0.60508943  1
  Zr  Zr68  1  0.50953592  0.69701142  0.89319026  1
  Zr  Zr69  1  -0.00468195  0.40643291  0.40236249  1
  Zr  Zr70  1  0.51248123  0.08858414  0.70478406  1
  Zr  Zr71  1  0.00010603  0.40531386  0.19860123  1
  Zr  Zr72  1  0.40536941  0.20044291  0.60501492  1
  Zr  Zr73  1  0.81125457  0.59347942  0.59153654  1
  Zr  Zr74  1  0.51623187  0.09099017  0.50309209  1
  Zr  Zr75  1  -0.00559495  0.20215073  0.40033878  1
  Zr  Zr76  1  0.10814171  0.50277904  0.30325906  1
  Zr  Zr77  1  0.80759950  0.81076695  0.20249781  1
  Zr  Zr78  1  0.39825090  0.60766380  0.60009168  1
  Zr  Zr79  1  0.39187921  0.20393672  0.40868036  1
  Zr  Zr80  1  0.40089202  0.00280401  -0.00125316  1
  Zr  Zr81  1  -0.00028973  0.60147948  0.20233582  1
  Zr  Zr82  1  0.10174753  0.89182965  0.70345603  1
  Zr  Zr83  1  0.69127726  0.50756650  0.10235429  1
  Zr  Zr84  1  0.69890297  0.09534283  0.29988010  1
  Zr  Zr85  1  0.10536938  0.29596349  0.09778796  1
  Zr  Zr86  1  0.19791741  0.80303819  0.20493970  1
  Zr  Zr87  1  0.69600241  0.50657488  0.29644430  1
  Zr  Zr88  1  0.69539663  0.29565492  0.69114307  1
  Zr  Zr89  1  0.38516179  -0.00895239  0.40887687  1
  Zr  Zr90  1  0.39918849  0.80311934  0.21106024  1
  Zr  Zr91  1  0.50138014  0.71120590  0.49539863  1
  Zr  Zr92  1  0.50562504  0.49810684  0.70696708  1
  Zr  Zr93  1  0.79175681  0.39913506  -0.01414506  1
  Zr  Zr94  1  0.29615748  0.50128386  0.09744879  1
  Zr  Zr95  1  0.40144467  0.80660969  -0.00575746  1
  Zr  Zr96  1  0.51815216  0.30622927  0.91129660  1
  Zr  Zr97  1  0.89975262  0.70457183  0.89365949  1
  Zr  Zr98  1  0.58951716  0.19355238  0.19225850  1
  Zr  Zr99  1  0.39121283  0.60349481  0.80196183  1
  Ta  Ta100  1  0.51159745  0.89417876  0.50291390  1
  Ta  Ta101  1  0.70658258  0.90817694  0.10247726  1
  Ta  Ta102  1  0.80197386  0.38935756  0.79489672  1
  Ta  Ta103  1  0.20316455  0.39842262  0.20400385  1
  Ta  Ta104  1  0.09830050  0.88980767  0.89938603  1
  Ta  Ta105  1  0.79923090  0.20481040  0.80341957  1
  Ta  Ta106  1  0.70705193  0.69733314  0.89841294  1
  Ta  Ta107  1  0.79894175  0.19775320  0.18921671  1
  Ta  Ta108  1  0.69710348  0.90245934  0.30130431  1
  Ta  Ta109  1  0.70011087  0.10014076  0.50369623  1
  Ta  Ta110  1  0.19504013  -0.00391302  0.59374760  1
  Ta  Ta111  1  0.01059274  0.40171581  -0.00370292  1
  Ta  Ta112  1  0.20411207  0.39567022  0.40163705  1
  Ta  Ta113  1  0.69985510  0.90088173  0.69242951  1
  Ta  Ta114  1  0.69227243  0.90182476  0.49678202  1
  Ta  Ta115  1  0.80315016  -0.00767855  0.59695079  1
  Ta  Ta116  1  0.70816057  0.70159265  0.70428120  1
  Ta  Ta117  1  0.30288223  0.30396939  0.29880756  1
  Ta  Ta118  1  0.19725781  0.20063781  0.20285722  1
  Ta  Ta119  1  0.40028524  0.59580262  -0.00522344  1
  Ta  Ta120  1  0.09968940  0.09676440  0.69790696  1
  Ta  Ta121  1  0.59869571  0.59660167  -0.00291637  1
  Ta  Ta122  1  0.49177131  0.30534015  0.29789032  1
  Ta  Ta123  1  0.49472675  0.49620221  0.49487506  1
  Ta  Ta124  1  0.18988687  -0.00360695  0.20471163  1
  Ta  Ta125  1  0.10476786  0.70192866  0.89544515  1
  Ta  Ta126  1  0.90823535  0.69248134  0.70116240  1
  Ta  Ta127  1  0.59989750  0.39879163  0.59623672  1
  Ta  Ta128  1  0.89096743  0.09815213  0.70222725  1
  Ta  Ta129  1  0.80383418  0.80218877  0.39778510  1
  Ta  Ta130  1  0.28593584  0.69829817  0.90157451  1
  Ta  Ta131  1  0.50628445  0.50151450  0.89561238  1
  Ta  Ta132  1  0.20165892  0.20730124  0.40164683  1
  Ta  Ta133  1  0.40183160  0.60000031  0.39459882  1
  Ta  Ta134  1  0.40719518  0.59246238  0.20578099  1
  Ta  Ta135  1  0.80215456  0.39834701  0.59683856  1
  Ta  Ta136  1  0.59077848  0.59586432  0.39618662  1
  Ta  Ta137  1  0.79549890  0.20344341  0.40004137  1
  Ta  Ta138  1  0.30481947  0.49584472  0.30239740  1
  Ta  Ta139  1  0.49758126  0.30489885  0.09832649  1
  Ta  Ta140  1  0.40776177  0.19748263  0.00319651  1
  Ta  Ta141  1  0.59347207  -0.00485771  0.19465155  1
  Ta  Ta142  1  0.11316491  0.50051625  0.09351553  1
  Ta  Ta143  1  0.90543903  0.70757307  0.30881299  1
  Ta  Ta144  1  0.20713783  0.59848839  0.40264611  1
  Ta  Ta145  1  0.50823515  0.90143519  0.31713716  1
  Ta  Ta146  1  0.10185130  0.30058104  0.50023142  1
  Ta  Ta147  1  0.40397081  0.39382008  0.59969879  1
  Ta  Ta148  1  0.10307521  0.29772498  0.29917585  1
  Ta  Ta149  1  0.11336000  0.50655208  0.90341514  1
  Ti  Ti150  1  0.50306626  0.70071476  0.30379105  1
  Ti  Ti151  1  0.29358093  0.88913373  0.51015932  1
  Ti  Ti152  1  -0.00310414  0.79949711  0.80171482  1
  Ti  Ti153  1  0.90172417  0.89042848  0.49214551  1
  Ti  Ti154  1  0.19559605  -0.00293180  0.81040287  1
  Ti  Ti155  1  0.89359745  0.89075502  0.70779865  1
  Ti  Ti156  1  0.40282291  0.40590043  0.20108814  1
  Ti  Ti157  1  0.69964228  0.49527458  0.69967369  1
  Ti  Ti158  1  0.70102191  0.29617108  0.49973479  1
  Ti  Ti159  1  0.81191801  0.60096846  0.20993979  1
  Ti  Ti160  1  0.70110012  0.49590906  0.49557516  1
  Ti  Ti161  1  0.59949906  -0.00141827  0.00725130  1
  Ti  Ti162  1  0.60686080  0.39635299  0.79822921  1
  Ti  Ti163  1  0.29971174  0.70577434  0.50141249  1
  Ti  Ti164  1  0.19890978  -0.00496059  0.39955750  1
  Ti  Ti165  1  0.81009384  -0.00845986  0.00452906  1
  Ti  Ti166  1  0.69071142  0.49938008  0.89304275  1
  Ti  Ti167  1  0.28281863  0.70843442  0.70209545  1
  Ti  Ti168  1  0.80280437  0.40287733  0.40124025  1
  Ti  Ti169  1  0.10221829  0.89315743  0.49893246  1
  Ti  Ti170  1  0.79061191  0.20450486  -0.00878000  1
  Ti  Ti171  1  0.28618805  0.10840951  0.50955717  1
  Ti  Ti172  1  0.19345318  0.80207041  -0.00247333  1
  Ti  Ti173  1  0.80212946  0.20346806  0.60010825  1
  Ti  Ti174  1  0.08857480  0.89601071  0.11118817  1
  Ti  Ti175  1  -0.00232022  0.80801377  0.00228442  1
  Ti  Ti176  1  0.60423171  0.20206299  0.39994333  1
  Ti  Ti177  1  0.10146724  0.69966770  0.70443581  1
  Ti  Ti178  1  0.80549396  0.59897058  0.40178879  1
  Ti  Ti179  1  0.20295362  0.60028704  0.20394196  1
  Ti  Ti180  1  0.29328162  0.29683041  0.91172828  1
  Ti  Ti181  1  0.40073885  0.80184512  0.60484747  1
  Ti  Ti182  1  0.10119140  0.10333857  0.90371308  1
  Ti  Ti183  1  0.79657787  0.59735404  -0.00797031  1
  Ti  Ti184  1  0.51045074  0.09878073  0.90437838  1
  Ti  Ti185  1  0.29036737  0.10901677  0.90700004  1
  Ti  Ti186  1  0.90524670  0.30123629  0.90112945  1
  Ti  Ti187  1  0.39487587  0.80256214  0.39791579  1
  Ti  Ti188  1  0.40034960  0.39481283  0.80229737  1
  Ti  Ti189  1  0.10455400  0.30187773  0.91072237  1
  Ti  Ti190  1  0.80222288  0.81464454  -0.00958902  1
  Ti  Ti191  1  0.58192907  0.41263904  0.19556467  1
  Ti  Ti192  1  0.69617187  0.09275283  0.90458529  1
  Ti  Ti193  1  0.89639595  0.30543917  0.50337426  1
  Ti  Ti194  1  0.51490069  0.90321548  0.69468273  1
  Ti  Ti195  1  0.30295136  0.69260770  0.30234446  1
  Ti  Ti196  1  0.00696700  0.19130417  0.00662083  1
  Ti  Ti197  1  0.01557010  0.59444094  0.79287857  1
  Ti  Ti198  1  0.10319658  0.70332139  0.09958608  1
  Ti  Ti199  1  0.40251388  0.20004079  0.19755852  1
  Mo  Mo200  1  0.60485346  0.80245040  0.60445958  1
  Mo  Mo201  1  0.61516420  0.59872752  0.80181938  1
  Mo  Mo202  1  0.29935978  0.90806353  0.30520923  1
  Mo  Mo203  1  0.89565830  0.10408785  0.09714466  1
  Mo  Mo204  1  0.09960263  0.50268958  0.70449082  1
  Mo  Mo205  1  0.49376852  0.49912554  0.29984687  1
  Mo  Mo206  1  0.90453264  0.89700325  0.29445963  1
  Mo  Mo207  1  0.20167893  0.60638827  -0.00125575  1
  Mo  Mo208  1  0.50194066  0.30916739  0.69924510  1
  Mo  Mo209  1  0.00344288  0.59878212  0.60557700  1
  Mo  Mo210  1  -0.00345558  -0.00736081  0.19425815  1
  Mo  Mo211  1  0.70618234  0.90490079  0.91193851  1
  Mo  Mo212  1  0.19001752  0.20037116  0.59733985  1
  Mo  Mo213  1  0.60659611  -0.00537912  0.59766448  1
  Mo  Mo214  1  0.20233332  0.40071651  -0.00293431  1
  Mo  Mo215  1  0.90457116  0.89452209  0.90377171  1
  Mo  Mo216  1  0.00650608  0.39683135  0.82134466  1
  Mo  Mo217  1  0.27983992  0.89525978  0.89671334  1
  Mo  Mo218  1  0.19932163  0.79832834  0.59846698  1
  Mo  Mo219  1  0.19470265  0.79405686  0.80232123  1
  Mo  Mo220  1  -0.00061199  0.40527702  0.58063509  1
  Mo  Mo221  1  0.90014309  0.90544583  0.10099389  1
  Mo  Mo222  1  0.89286353  0.49444482  0.50062275  1
  Mo  Mo223  1  0.30416063  0.50538972  0.89838936  1
  Mo  Mo224  1  0.49600594  0.50079586  0.09833133  1
  Mo  Mo225  1  0.70246237  0.30143485  0.89540683  1
  Mo  Mo226  1  0.00053849  0.19111729  0.18774951  1
  Mo  Mo227  1  0.79981566  -0.00059337  0.19408848  1
  Mo  Mo228  1  0.39989249  0.39970663  0.39804590  1
  Mo  Mo229  1  0.10242898  0.49815131  0.50162094  1
  Mo  Mo230  1  0.58749589  0.60499696  0.20210300  1
  Mo  Mo231  1  0.50773532  0.90437014  0.09687997  1
  Mo  Mo232  1  0.59821999  0.18468164  -0.00260217  1
  Mo  Mo233  1  0.29691013  0.30072500  0.49900050  1
  Mo  Mo234  1  0.60807033  0.20262887  0.59360761  1
  Mo  Mo235  1  0.19480278  0.60207053  0.79966767  1
  Mo  Mo236  1  0.09777181  0.90189337  0.29797749  1
  Mo  Mo237  1  0.59453124  0.41728938  -0.00079537  1
  Mo  Mo238  1  0.61003842  0.00062119  0.80196595  1
  Mo  Mo239  1  0.88874870  0.50856624  0.30694144  1
  Mo  Mo240  1  0.00039905  0.80587732  0.20220416  1
  Mo  Mo241  1  0.60617889  -0.00305697  0.40047841  1
  Mo  Mo242  1  0.80475532  0.79702947  0.79701747  1
  Mo  Mo243  1  0.89731162  0.69940419  0.49800602  1
  Mo  Mo244  1  0.60425117  0.79997052  0.39604515  1
  Mo  Mo245  1  0.09672338  0.10086345  0.10709964  1
  Mo  Mo246  1  -0.00489148  0.80211129  0.40055344  1
  Mo  Mo247  1  0.49872869  0.10161919  0.09594568  1
  Mo  Mo248  1  0.89280838  0.30028448  0.70087903  1
  Mo  Mo249  1  0.20108467  0.19722410  0.00035563  1
