# generated using pymatgen
data_HfZrTaTiMo
_symmetry_space_group_name_H-M   'P 1'
_cell_length_a   16.89051236
_cell_length_b   16.88917851
_cell_length_c   16.88812467
_cell_angle_alpha   89.97435841
_cell_angle_beta   90.01594000
_cell_angle_gamma   90.01645974
_symmetry_Int_Tables_number   1
_chemical_formula_structural   HfZrTaTiMo
_chemical_formula_sum   'Hf50 Zr50 Ta50 Ti50 Mo50'
_cell_volume   4817.62174043
_cell_formula_units_Z   50
loop_
 _symmetry_equiv_pos_site_id
 _symmetry_equiv_pos_as_xyz
  1  'x, y, z'
loop_
 _atom_site_type_symbol
 _atom_site_label
 _atom_site_symmetry_multiplicity
 _atom_site_fract_x
 _atom_site_fract_y
 _atom_site_fract_z
 _atom_site_occupancy
  Hf  Hf0  1  0.59479133  0.59707082  0.60649502  1
  Hf  Hf1  1  0.60552911  0.21452788  0.19174409  1
  Hf  Hf2  1  0.69184589  0.10811906  0.69550285  1
  Hf  Hf3  1  0.10670642  0.10289349  0.69833526  1
  Hf  Hf4  1  0.11134943  0.70345537  0.30456084  1
  Hf  Hf5  1  0.00785162  0.79878564  0.59897691  1
  Hf  Hf6  1  0.78990596  0.58964935  0.20875800  1
  Hf  Hf7  1  0.59728208  0.38861867  0.01005881  1
  Hf  Hf8  1  0.30255239  0.50871069  0.50187539  1
  Hf  Hf9  1  0.91255071  0.11296065  0.69849948  1
  Hf  Hf10  1  0.01036805  0.19336791  0.00070825  1
  Hf  Hf11  1  0.31415964  0.70767625  0.11443315  1
  Hf  Hf12  1  0.10920105  0.69709340  0.49429529  1
  Hf  Hf13  1  0.01726587  0.38720361  0.39104042  1
  Hf  Hf14  1  0.69409794  0.10033120  0.89997685  1
  Hf  Hf15  1  0.40493759  0.40385817  0.61098226  1
  Hf  Hf16  1  0.90264657  0.70435348  0.70418909  1
  Hf  Hf17  1  0.90766683  0.89655115  0.70847470  1
  Hf  Hf18  1  0.10931735  0.90593318  0.29798043  1
  Hf  Hf19  1  0.01363908  0.60576127  0.79981067  1
  Hf  Hf20  1  0.10115535  0.90186632  0.10879303  1
  Hf  Hf21  1  0.89407261  0.49507130  0.69621776  1
  Hf  Hf22  1  0.49628068  0.89360878  0.69560283  1
  Hf  Hf23  1  -0.00652668  0.79945479  0.19745874  1
  Hf  Hf24  1  0.19657297  0.19629712  0.39395196  1
  Hf  Hf25  1  0.50302188  0.49334107  0.90248757  1
  Hf  Hf26  1  0.39712884  0.19717708  0.40590394  1
  Hf  Hf27  1  0.70502859  0.09286750  0.09614497  1
  Hf  Hf28  1  0.30395292  0.29804779  0.29798326  1
  Hf  Hf29  1  0.88459681  0.69863356  0.08648373  1
  Hf  Hf30  1  0.29298338  0.89948899  0.70538307  1
  Hf  Hf31  1  0.20476330  0.60097280  0.00436343  1
  Hf  Hf32  1  0.01193437  0.40330720  0.59903441  1
  Hf  Hf33  1  0.69774728  0.10280960  0.29343926  1
  Hf  Hf34  1  0.88975664  0.48640124  0.09881135  1
  Hf  Hf35  1  -0.00102629  0.00436146  0.58979542  1
  Hf  Hf36  1  0.49351315  0.90448498  0.49448000  1
  Hf  Hf37  1  0.78835178  0.79370240  0.40692195  1
  Hf  Hf38  1  0.70256170  0.90539255  0.90827635  1
  Hf  Hf39  1  0.20057467  0.40060428  0.59653492  1
  Hf  Hf40  1  0.00004980  0.80157822  0.40398814  1
  Hf  Hf41  1  0.20284832  0.00289777  0.00321031  1
  Hf  Hf42  1  0.90189869  0.49438934  0.30573458  1
  Hf  Hf43  1  0.68109805  0.69389156  0.29322145  1
  Hf  Hf44  1  0.01164683  0.19826086  0.21599083  1
  Hf  Hf45  1  0.89761627  0.68710646  0.31368994  1
  Hf  Hf46  1  0.30608190  0.69647732  0.90074903  1
  Hf  Hf47  1  0.89826582  0.30633642  0.50052515  1
  Hf  Hf48  1  0.60388309  0.20759671  0.39633442  1
  Hf  Hf49  1  0.80332915  0.20269842  0.59547490  1
  Zr  Zr50  1  0.69480999  0.30698450  0.88555641  1
  Zr  Zr51  1  0.00001162  0.60141404  0.19809130  1
  Zr  Zr52  1  0.19068358  0.39473996  0.21222887  1
  Zr  Zr53  1  0.00962994  0.59708710  0.60357599  1
  Zr  Zr54  1  0.50158756  0.69687621  0.90943488  1
  Zr  Zr55  1  0.30588261  0.70074673  0.69733078  1
  Zr  Zr56  1  0.89189026  0.09453408  0.90564530  1
  Zr  Zr57  1  0.09767035  0.29035823  0.70281732  1
  Zr  Zr58  1  0.90657475  0.30416420  0.11059075  1
  Zr  Zr59  1  0.90000099  0.89443197  0.90208166  1
  Zr  Zr60  1  0.79353253  0.59998122  0.80324670  1
  Zr  Zr61  1  0.40045994  0.00460843  0.79982255  1
  Zr  Zr62  1  -0.00007894  0.01256133  0.39193216  1
  Zr  Zr63  1  0.50167750  0.29529598  0.51148993  1
  Zr  Zr64  1  0.20511727  0.80268836  0.00293060  1
  Zr  Zr65  1  0.49113297  0.30434328  0.28942472  1
  Zr  Zr66  1  0.90135073  0.30194771  0.88500787  1
  Zr  Zr67  1  0.20923541  0.60255609  0.20672125  1
  Zr  Zr68  1  0.80492429  -0.00249873  0.20003626  1
  Zr  Zr69  1  0.69526713  0.50028813  0.09566796  1
  Zr  Zr70  1  0.79562311  0.79808316  0.19702555  1
  Zr  Zr71  1  0.79601725  0.00051653  0.79202447  1
  Zr  Zr72  1  0.11792950  0.50142634  0.89414120  1
  Zr  Zr73  1  0.09456000  0.49213026  0.10560995  1
  Zr  Zr74  1  0.59389144  0.20793862  0.00129370  1
  Zr  Zr75  1  0.79209496  0.79703183  0.60148237  1
  Zr  Zr76  1  0.69155983  0.90867727  0.49888947  1
  Zr  Zr77  1  0.89949764  0.90166740  0.30157232  1
  Zr  Zr78  1  0.39361244  0.00707492  0.59747786  1
  Zr  Zr79  1  0.10077835  0.90180185  0.70535548  1
  Zr  Zr80  1  0.59993076  0.79777257  0.80020733  1
  Zr  Zr81  1  0.58563264  0.79282216  0.39992978  1
  Zr  Zr82  1  0.30147225  0.29720918  0.70499089  1
  Zr  Zr83  1  0.00932373  0.79275797  -0.00568870  1
  Zr  Zr84  1  0.79911705  0.21039677  0.00155939  1
  Zr  Zr85  1  0.49287798  0.09874501  0.10993313  1
  Zr  Zr86  1  0.59984051  0.40117507  0.39759577  1
  Zr  Zr87  1  0.68362055  0.90378089  0.29475075  1
  Zr  Zr88  1  0.29950437  0.29858327  0.89806631  1
  Zr  Zr89  1  0.89739459  0.50128721  0.49132233  1
  Zr  Zr90  1  0.11542628  0.29286582  0.89475908  1
  Zr  Zr91  1  -0.00165326  0.60043537  -0.00889046  1
  Zr  Zr92  1  0.70412337  0.49450302  0.50304133  1
  Zr  Zr93  1  0.80161868  0.00386056  0.59683011  1
  Zr  Zr94  1  0.30750306  0.49629645  0.30474105  1
  Zr  Zr95  1  0.40325543  0.61112727  0.39165232  1
  Zr  Zr96  1  0.48853099  0.69855381  0.51108467  1
  Zr  Zr97  1  0.50446841  0.69787715  0.10596266  1
  Zr  Zr98  1  0.69040129  0.69605835  0.09047849  1
  Zr  Zr99  1  0.00094706  0.39958502  -0.01319122  1
  Ta  Ta100  1  0.40847047  0.59361391  0.79790337  1
  Ta  Ta101  1  0.89859271  0.89976709  0.49735988  1
  Ta  Ta102  1  0.69369999  0.10657555  0.49934496  1
  Ta  Ta103  1  0.50032273  0.50208502  0.29112774  1
  Ta  Ta104  1  0.40135403  0.39423304  0.00576192  1
  Ta  Ta105  1  0.39789574  0.19989933  0.00363404  1
  Ta  Ta106  1  0.39377179  -0.00032591  0.00499704  1
  Ta  Ta107  1  0.40078967  0.59004615  0.00473694  1
  Ta  Ta108  1  0.00572536  0.00239497  0.00146691  1
  Ta  Ta109  1  0.58545212  -0.00282533  0.00106090  1
  Ta  Ta110  1  0.29551847  0.69978096  0.49940232  1
  Ta  Ta111  1  0.20864116  0.39647877  0.00851941  1
  Ta  Ta112  1  0.69698594  0.49100471  0.70076707  1
  Ta  Ta113  1  0.20769383  0.00472793  0.19673254  1
  Ta  Ta114  1  0.30836715  0.49561654  0.89868663  1
  Ta  Ta115  1  0.58993320  0.00477960  0.79812282  1
  Ta  Ta116  1  0.59258974  0.00557222  0.60399029  1
  Ta  Ta117  1  0.10424108  0.29725289  0.10515130  1
  Ta  Ta118  1  0.20202315  0.19150676  0.19880406  1
  Ta  Ta119  1  0.49557179  0.10266604  0.90215750  1
  Ta  Ta120  1  0.40468063  0.19739056  0.79695557  1
  Ta  Ta121  1  0.49696252  0.09614994  0.29576766  1
  Ta  Ta122  1  0.30122441  0.89983139  0.89970232  1
  Ta  Ta123  1  0.80020448  0.20219093  0.39792441  1
  Ta  Ta124  1  0.30027564  0.10447225  0.90135577  1
  Ta  Ta125  1  -0.00241006  0.19730022  0.40110546  1
  Ta  Ta126  1  0.69290010  0.90246318  0.09650971  1
  Ta  Ta127  1  0.79083165  0.79625965  0.80245223  1
  Ta  Ta128  1  0.30359488  0.29601605  0.10698656  1
  Ta  Ta129  1  0.79210509  0.60280403  0.59997902  1
  Ta  Ta130  1  0.58578410  0.20125016  0.78963898  1
  Ta  Ta131  1  0.59877494  0.59586924  0.79735698  1
  Ta  Ta132  1  0.60148152  0.79648501  0.59880948  1
  Ta  Ta133  1  0.21034474  0.19627668  0.59100788  1
  Ta  Ta134  1  0.59280276  0.81072639  0.00207795  1
  Ta  Ta135  1  0.11010196  0.90642865  0.49226923  1
  Ta  Ta136  1  0.90391808  0.09745492  0.10544813  1
  Ta  Ta137  1  0.10256479  0.10076559  0.49868841  1
  Ta  Ta138  1  0.30803698  0.09505883  0.29296661  1
  Ta  Ta139  1  0.19156991  0.78987845  0.80517322  1
  Ta  Ta140  1  0.80141209  0.01206000  0.40479507  1
  Ta  Ta141  1  0.20448912  -0.00028085  0.59065923  1
  Ta  Ta142  1  0.30375262  0.50430487  0.70774498  1
  Ta  Ta143  1  0.30292432  0.90238607  0.29326921  1
  Ta  Ta144  1  0.50392976  0.10114232  0.50023847  1
  Ta  Ta145  1  0.49890659  0.49892028  0.10763033  1
  Ta  Ta146  1  0.49289205  0.90826095  0.28720611  1
  Ta  Ta147  1  0.30833275  0.49319435  0.10525932  1
  Ta  Ta148  1  0.19835071  0.59843297  0.60959428  1
  Ta  Ta149  1  0.89674605  0.69054238  0.49806648  1
  Ti  Ti150  1  0.59421403  0.40047685  0.60642393  1
  Ti  Ti151  1  0.21459260  0.80663815  0.40038728  1
  Ti  Ti152  1  0.79934417  0.40021189  0.79514465  1
  Ti  Ti153  1  0.72606947  0.31573471  0.11069217  1
  Ti  Ti154  1  0.20259385  0.38890660  0.40841185  1
  Ti  Ti155  1  0.89389458  0.30007811  0.29568096  1
  Ti  Ti156  1  0.49152596  0.30077293  0.89313313  1
  Ti  Ti157  1  0.49488943  0.50404998  0.50192847  1
  Ti  Ti158  1  0.69271449  0.90130050  0.70035600  1
  Ti  Ti159  1  0.59823074  0.59637686  0.40100925  1
  Ti  Ti160  1  0.59397211  0.00745097  0.39776287  1
  Ti  Ti161  1  0.39331141  0.80206859  0.39135121  1
  Ti  Ti162  1  0.10108664  0.89766800  0.89732922  1
  Ti  Ti163  1  0.40327731  0.81496136  0.00948544  1
  Ti  Ti164  1  0.40010179  0.19639652  0.60399298  1
  Ti  Ti165  1  0.00838058  0.00655235  0.81148403  1
  Ti  Ti166  1  0.20008591  0.80331346  0.59752987  1
  Ti  Ti167  1  0.19810143  0.00559269  0.80993170  1
  Ti  Ti168  1  0.69514016  0.69905913  0.91000319  1
  Ti  Ti169  1  0.10883259  0.50948008  0.48672138  1
  Ti  Ti170  1  0.49302941  0.70014356  0.69941862  1
  Ti  Ti171  1  0.10876974  0.70464139  0.10769623  1
  Ti  Ti172  1  0.10093914  0.50992378  0.31061757  1
  Ti  Ti173  1  0.09769080  0.09425080  0.10897677  1
  Ti  Ti174  1  0.10138850  0.28716222  0.50415178  1
  Ti  Ti175  1  0.20271041  0.19223231  0.00912942  1
  Ti  Ti176  1  0.78725407  0.39389987  0.38846001  1
  Ti  Ti177  1  0.29548328  0.10176670  0.70293882  1
  Ti  Ti178  1  0.40087918  0.39614512  0.41033395  1
  Ti  Ti179  1  0.79643028  0.20441921  0.79271658  1
  Ti  Ti180  1  0.49458801  0.90375930  0.90086890  1
  Ti  Ti181  1  0.00562848  0.41005106  0.79562350  1
  Ti  Ti182  1  0.01123350  0.18948620  0.81297543  1
  Ti  Ti183  1  0.79917666  0.58673820  -0.01583027  1
  Ti  Ti184  1  0.39406824  -0.00117048  0.39712639  1
  Ti  Ti185  1  0.89437364  0.10568824  0.29417218  1
  Ti  Ti186  1  0.89444304  0.90378820  0.08791521  1
  Ti  Ti187  1  0.90719361  0.30093414  0.69663047  1
  Ti  Ti188  1  0.89330966  0.70707646  0.89723637  1
  Ti  Ti189  1  0.60815836  0.40052283  0.20388055  1
  Ti  Ti190  1  0.38735563  0.80723106  0.58974126  1
  Ti  Ti191  1  0.69327470  0.49251210  0.89643023  1
  Ti  Ti192  1  0.58398919  0.39677868  0.78534292  1
  Ti  Ti193  1  0.39958611  0.80027901  0.80541100  1
  Ti  Ti194  1  0.29652811  0.09455357  0.49251962  1
  Ti  Ti195  1  0.69474600  0.30334349  0.69229027  1
  Ti  Ti196  1  0.69568935  0.69736705  0.70040920  1
  Ti  Ti197  1  0.49245659  0.70338133  0.28042495  1
  Ti  Ti198  1  0.20307128  0.40724094  0.79181001  1
  Ti  Ti199  1  0.70122100  0.30277851  0.50740755  1
  Mo  Mo200  1  0.29739610  0.89773174  0.49231559  1
  Mo  Mo201  1  0.59520597  0.59053098  0.20471026  1
  Mo  Mo202  1  0.11123398  0.09592305  0.29936938  1
  Mo  Mo203  1  0.78911864  0.80206058  -0.00554624  1
  Mo  Mo204  1  0.30045830  0.29926206  0.50199423  1
  Mo  Mo205  1  0.50093197  0.49959956  0.70540689  1
  Mo  Mo206  1  0.79768368  0.40698472  -0.02010552  1
  Mo  Mo207  1  0.89148672  0.49558354  0.89130306  1
  Mo  Mo208  1  0.10753245  0.09445110  0.90346434  1
  Mo  Mo209  1  0.30388939  0.71334771  0.30281659  1
  Mo  Mo210  1  0.59126810  0.80997186  0.19301312  1
  Mo  Mo211  1  0.49935064  0.29784321  0.70123120  1
  Mo  Mo212  1  0.11084871  0.49957761  0.70290755  1
  Mo  Mo213  1  0.49835940  0.10425320  0.69573942  1
  Mo  Mo214  1  0.00807301  0.79324081  0.80441115  1
  Mo  Mo215  1  0.59427409  0.00119971  0.19643646  1
  Mo  Mo216  1  0.21073195  0.60080864  0.79888486  1
  Mo  Mo217  1  0.79543262  0.39388903  0.61089518  1
  Mo  Mo218  1  0.10947370  0.70147695  0.69924797  1
  Mo  Mo219  1  0.59623691  0.59149409  -0.00871997  1
  Mo  Mo220  1  0.00070559  0.39340220  0.21114240  1
  Mo  Mo221  1  0.89858320  0.10728303  0.49322754  1
  Mo  Mo222  1  0.40154466  0.39986435  0.80487775  1
  Mo  Mo223  1  0.80494985  0.20096911  0.20464389  1
  Mo  Mo224  1  0.30525349  0.90478842  0.10205516  1
  Mo  Mo225  1  0.49829353  0.90152208  0.10093810  1
  Mo  Mo226  1  0.00477597  0.20170964  0.58933102  1
  Mo  Mo227  1  0.20610474  0.60466326  0.40407903  1
  Mo  Mo228  1  0.69512501  0.69016206  0.50145932  1
  Mo  Mo229  1  0.39512714  0.19654312  0.19921071  1
  Mo  Mo230  1  0.40104799  0.39962213  0.19485212  1
  Mo  Mo231  1  0.10889206  0.69845778  0.89746607  1
  Mo  Mo232  1  0.10545250  0.29157860  0.30374525  1
  Mo  Mo233  1  0.69144237  0.49780079  0.30368289  1
  Mo  Mo234  1  0.00169854  0.00593211  0.19417524  1
  Mo  Mo235  1  0.20800037  0.80635075  0.20481706  1
  Mo  Mo236  1  0.29816496  0.10400364  0.09885050  1
  Mo  Mo237  1  0.40134845  0.80925771  0.20289380  1
  Mo  Mo238  1  0.48778148  0.30403158  0.10236195  1
  Mo  Mo239  1  0.01010486  0.59787571  0.40307071  1
  Mo  Mo240  1  0.20806482  0.18481168  0.79613966  1
  Mo  Mo241  1  0.79795159  0.39922831  0.21697640  1
  Mo  Mo242  1  0.78416499  0.60115952  0.40619498  1
  Mo  Mo243  1  0.70710344  0.29996068  0.29555613  1
  Mo  Mo244  1  0.80479566  -0.00175663  0.00700072  1
  Mo  Mo245  1  0.40352910  0.59617311  0.19934886  1
  Mo  Mo246  1  0.39744488  0.59813143  0.60596011  1
  Mo  Mo247  1  0.20821713  0.00258105  0.39767441  1
  Mo  Mo248  1  0.60269406  0.20086039  0.59755753  1
  Mo  Mo249  1  0.39541328  -0.00029308  0.19765831  1
