# generated using pymatgen
data_HfZrTaTiMo
_symmetry_space_group_name_H-M   'P 1'
_cell_length_a   16.89342554
_cell_length_b   16.89517021
_cell_length_c   16.89530293
_cell_angle_alpha   90.00768508
_cell_angle_beta   90.01474211
_cell_angle_gamma   89.97051642
_symmetry_Int_Tables_number   1
_chemical_formula_structural   HfZrTaTiMo
_chemical_formula_sum   'Hf50 Zr50 Ta50 Ti50 Mo50'
_cell_volume   4822.21090266
_cell_formula_units_Z   50
loop_
 _symmetry_equiv_pos_site_id
 _symmetry_equiv_pos_as_xyz
  1  'x, y, z'
loop_
 _atom_site_type_symbol
 _atom_site_label
 _atom_site_symmetry_multiplicity
 _atom_site_fract_x
 _atom_site_fract_y
 _atom_site_fract_z
 _atom_site_occupancy
  Hf  Hf0  1  0.41205009  0.40896731  0.39741136  1
  Hf  Hf1  1  0.79022876  0.79866791  0.60356867  1
  Hf  Hf2  1  0.19428163  0.59184390  0.81008039  1
  Hf  Hf3  1  0.59498498  0.20397936  0.20206923  1
  Hf  Hf4  1  0.10107580  0.29882904  0.10334663  1
  Hf  Hf5  1  0.50338490  0.50435083  0.69778389  1
  Hf  Hf6  1  0.50372272  0.09775695  0.09457196  1
  Hf  Hf7  1  -0.00628341  -0.00810802  0.59429131  1
  Hf  Hf8  1  0.49168581  0.09971375  0.70771851  1
  Hf  Hf9  1  0.89545986  0.08390306  0.70717721  1
  Hf  Hf10  1  0.90076125  0.30184574  0.70057366  1
  Hf  Hf11  1  -0.00325702  0.39831165  -0.00518341  1
  Hf  Hf12  1  0.39612188  0.80499570  0.60113059  1
  Hf  Hf13  1  0.30857732  0.29608933  0.50031196  1
  Hf  Hf14  1  0.60056616  -0.00911149  0.20891382  1
  Hf  Hf15  1  0.60716592  0.60925615  -0.00740851  1
  Hf  Hf16  1  0.70140690  0.50400184  0.89483375  1
  Hf  Hf17  1  0.20347105  0.40270500  0.39700577  1
  Hf  Hf18  1  0.39519109  0.59532331  -0.00120837  1
  Hf  Hf19  1  0.01141150  0.40752361  0.79860477  1
  Hf  Hf20  1  0.70007081  0.10962350  0.30663620  1
  Hf  Hf21  1  0.09540303  0.50448463  0.10200429  1
  Hf  Hf22  1  0.30700993  0.90618578  0.31422772  1
  Hf  Hf23  1  0.80013435  0.79362488  -0.00358361  1
  Hf  Hf24  1  0.00099962  0.19491561  0.59789935  1
  Hf  Hf25  1  0.60375794  -0.01220688  -0.00533800  1
  Hf  Hf26  1  0.19683466  0.20517584  0.60459383  1
  Hf  Hf27  1  0.90331520  0.29696121  0.49464873  1
  Hf  Hf28  1  0.79573268  0.59539936  0.39881922  1
  Hf  Hf29  1  0.30695160  0.09691714  0.49847326  1
  Hf  Hf30  1  0.20524493  0.59749983  0.39375246  1
  Hf  Hf31  1  0.69666992  0.90420899  0.70212349  1
  Hf  Hf32  1  0.00089521  0.80608911  0.40279105  1
  Hf  Hf33  1  0.69703138  0.30022252  0.09656701  1
  Hf  Hf34  1  0.09421553  0.50593121  0.49533138  1
  Hf  Hf35  1  0.69053985  0.09565972  0.69920410  1
  Hf  Hf36  1  0.69040642  0.11242481  0.90923967  1
  Hf  Hf37  1  0.68908176  0.29300269  0.49091040  1
  Hf  Hf38  1  -0.00922458  0.81034082  0.60519446  1
  Hf  Hf39  1  -0.01086136  0.20066122  -0.00189879  1
  Hf  Hf40  1  -0.00169145  0.40206255  0.38993040  1
  Hf  Hf41  1  0.90274711  0.50010487  0.50449873  1
  Hf  Hf42  1  -0.00514143  0.00067689  0.40156701  1
  Hf  Hf43  1  0.78449818  0.39667048  0.60658609  1
  Hf  Hf44  1  0.59500218  0.81047212  0.59300427  1
  Hf  Hf45  1  0.59726236  0.80394892  0.39237186  1
  Hf  Hf46  1  0.69864923  0.10631205  0.09789057  1
  Hf  Hf47  1  0.88757196  0.70053647  0.71623429  1
  Hf  Hf48  1  0.40191731  0.80075075  0.20312074  1
  Hf  Hf49  1  0.31265292  0.29190150  0.30465468  1
  Zr  Zr50  1  0.09353611  0.69297480  0.30135928  1
  Zr  Zr51  1  0.30937083  0.09608922  0.88804994  1
  Zr  Zr52  1  0.10085121  0.70676614  0.69835012  1
  Zr  Zr53  1  0.79579211  0.40581076  0.39452986  1
  Zr  Zr54  1  0.90211730  0.69191658  0.49835931  1
  Zr  Zr55  1  0.30344775  0.09726176  0.70350992  1
  Zr  Zr56  1  0.20488539  0.59979852  -0.00019315  1
  Zr  Zr57  1  0.79614250  0.19384472  0.59928770  1
  Zr  Zr58  1  0.59495602  0.20894378  0.80386257  1
  Zr  Zr59  1  0.10987436  0.08514042  0.89840486  1
  Zr  Zr60  1  0.80690551  0.39123766  -0.00522541  1
  Zr  Zr61  1  0.30311114  0.91274038  0.09555913  1
  Zr  Zr62  1  0.70249469  0.50554633  0.10353842  1
  Zr  Zr63  1  0.19173905  0.79764128  0.00349873  1
  Zr  Zr64  1  0.00592455  0.80453784  0.19764377  1
  Zr  Zr65  1  0.51083843  0.70121568  0.10071630  1
  Zr  Zr66  1  0.89456545  0.89720256  0.89266739  1
  Zr  Zr67  1  0.90028141  0.51080103  0.10195635  1
  Zr  Zr68  1  0.80049902  0.00213752  -0.00038278  1
  Zr  Zr69  1  0.29910779  0.70461713  0.70194960  1
  Zr  Zr70  1  0.20635998  0.79710213  0.19990247  1
  Zr  Zr71  1  0.10381943  0.09833310  0.49118864  1
  Zr  Zr72  1  0.21556978  0.19393806  0.19744113  1
  Zr  Zr73  1  0.39876748  0.79681968  -0.00047417  1
  Zr  Zr74  1  0.20751870  0.19671228  0.00302447  1
  Zr  Zr75  1  0.20261695  0.59488532  0.60383066  1
  Zr  Zr76  1  0.10327626  0.70388175  0.50393788  1
  Zr  Zr77  1  0.51087103  0.49951148  0.09954249  1
  Zr  Zr78  1  0.40606801  -0.00624567  0.60315961  1
  Zr  Zr79  1  0.18903080  0.80511490  0.80843659  1
  Zr  Zr80  1  0.20822091  0.40874270  0.19951615  1
  Zr  Zr81  1  0.19513368  0.39744639  0.60879824  1
  Zr  Zr82  1  0.10949784  0.30080343  0.90110945  1
  Zr  Zr83  1  0.09662219  0.28856447  0.30020635  1
  Zr  Zr84  1  0.40547539  0.40036921  0.19685893  1
  Zr  Zr85  1  0.86938184  0.89923184  0.48452768  1
  Zr  Zr86  1  0.40219692  0.39999446  0.60443792  1
  Zr  Zr87  1  0.28971114  0.91449027  0.89888020  1
  Zr  Zr88  1  0.59671682  0.59154814  0.39578969  1
  Zr  Zr89  1  0.50150111  0.70262895  0.70263179  1
  Zr  Zr90  1  0.00202797  0.20036761  0.80100686  1
  Zr  Zr91  1  0.89851058  0.89726162  0.10529307  1
  Zr  Zr92  1  0.80255219  0.00514290  0.20578457  1
  Zr  Zr93  1  0.89084739  0.50250957  0.70650984  1
  Zr  Zr94  1  0.60265838  -0.00219353  0.40335055  1
  Zr  Zr95  1  0.40475273  0.20324896  -0.00297319  1
  Zr  Zr96  1  0.70320374  0.69607868  0.28729579  1
  Zr  Zr97  1  0.79741206  0.20890900  0.80914987  1
  Zr  Zr98  1  0.48275800  0.90302148  0.47988857  1
  Zr  Zr99  1  0.77794342  0.59922136  0.60638629  1
  Ta  Ta100  1  0.09952476  0.09833052  0.29796235  1
  Ta  Ta101  1  0.00278190  0.79524579  -0.00471225  1
  Ta  Ta102  1  0.89306753  0.89362292  0.30026716  1
  Ta  Ta103  1  0.00596379  0.60230763  0.80913532  1
  Ta  Ta104  1  0.20094513  0.20460786  0.79216756  1
  Ta  Ta105  1  0.59071500  -0.00488679  0.80908417  1
  Ta  Ta106  1  0.89548971  0.50680884  0.89403242  1
  Ta  Ta107  1  0.19819138  -0.01002854  0.59573991  1
  Ta  Ta108  1  0.09561793  0.09506364  0.10602989  1
  Ta  Ta109  1  0.00975633  0.39820223  0.60631214  1
  Ta  Ta110  1  0.50496644  0.89760344  0.09939967  1
  Ta  Ta111  1  0.40543645  0.00305769  0.20541069  1
  Ta  Ta112  1  -0.00213665  0.79933304  0.80676924  1
  Ta  Ta113  1  0.80619927  0.20513584  0.19727265  1
  Ta  Ta114  1  0.50860408  0.29612828  0.31134161  1
  Ta  Ta115  1  0.39999655  0.59667270  0.80649360  1
  Ta  Ta116  1  0.40590869  0.40385943  0.80398143  1
  Ta  Ta117  1  0.49606381  0.69415826  0.30023824  1
  Ta  Ta118  1  0.89755230  0.29175325  0.30137254  1
  Ta  Ta119  1  0.49682962  0.10048634  0.30795756  1
  Ta  Ta120  1  0.21033147  0.41153479  -0.00492531  1
  Ta  Ta121  1  0.30337800  0.30472666  0.89244743  1
  Ta  Ta122  1  0.50309280  0.50268985  0.50324628  1
  Ta  Ta123  1  0.80472756  0.61121608  -0.00615223  1
  Ta  Ta124  1  0.89558247  0.69932777  0.29489560  1
  Ta  Ta125  1  -0.00992872  0.39631936  0.20030354  1
  Ta  Ta126  1  0.60022443  0.39931978  0.21177354  1
  Ta  Ta127  1  0.30482377  0.70198042  0.89648532  1
  Ta  Ta128  1  0.70078209  0.29792141  0.30388302  1
  Ta  Ta129  1  0.39766346  0.59978763  0.19847729  1
  Ta  Ta130  1  0.50498899  0.70195603  0.89308665  1
  Ta  Ta131  1  0.80365383  0.39594593  0.20422478  1
  Ta  Ta132  1  0.30424107  0.70335022  0.49550481  1
  Ta  Ta133  1  0.00294942  -0.00474845  0.00149543  1
  Ta  Ta134  1  0.50574990  0.29896425  0.49962484  1
  Ta  Ta135  1  0.30408225  0.49867517  0.70644822  1
  Ta  Ta136  1  0.20403989  0.00541907  0.20416917  1
  Ta  Ta137  1  0.39814147  0.40589156  -0.00670140  1
  Ta  Ta138  1  0.49101320  0.69517364  0.49336965  1
  Ta  Ta139  1  0.60171860  0.39573147  0.79481212  1
  Ta  Ta140  1  0.78564023  0.39492867  0.79870829  1
  Ta  Ta141  1  0.69934298  0.88649819  0.10226213  1
  Ta  Ta142  1  0.09379194  0.69100177  0.10210159  1
  Ta  Ta143  1  0.10189494  0.09143816  0.69987707  1
  Ta  Ta144  1  0.70467596  0.70530166  0.88517214  1
  Ta  Ta145  1  0.10828353  0.91119900  0.30594607  1
  Ta  Ta146  1  0.30983209  0.50706249  0.49982611  1
  Ta  Ta147  1  0.59962055  0.80504059  0.20574055  1
  Ta  Ta148  1  0.00374586  0.59323221  0.61675513  1
  Ta  Ta149  1  0.21288560  0.60233863  0.19557112  1
  Ti  Ti150  1  0.40478847  0.19616260  0.19733701  1
  Ti  Ti151  1  0.19944253  0.80250165  0.40355810  1
  Ti  Ti152  1  0.50575082  0.50263071  0.89460134  1
  Ti  Ti153  1  0.30550578  0.09819605  0.30827789  1
  Ti  Ti154  1  0.69697800  0.50032035  0.28934175  1
  Ti  Ti155  1  -0.00783421  0.19918281  0.19866070  1
  Ti  Ti156  1  0.31258987  0.50647466  0.30078769  1
  Ti  Ti157  1  0.00547883  -0.01532401  0.79846169  1
  Ti  Ti158  1  0.40192629  0.80687679  0.80005696  1
  Ti  Ti159  1  0.41447622  0.19400464  0.41023601  1
  Ti  Ti160  1  0.29487021  0.90064295  0.49147850  1
  Ti  Ti161  1  0.09593385  0.29796415  0.49258395  1
  Ti  Ti162  1  0.09121628  0.50858059  0.29122143  1
  Ti  Ti163  1  0.80600313  0.18992012  0.40547362  1
  Ti  Ti164  1  0.90347349  0.09925121  0.10119640  1
  Ti  Ti165  1  0.20063035  0.40346004  0.79971142  1
  Ti  Ti166  1  0.90066745  0.69680797  0.10930189  1
  Ti  Ti167  1  0.49728070  0.30085226  0.90044837  1
  Ti  Ti168  1  0.60838139  0.60218782  0.79083604  1
  Ti  Ti169  1  0.59059510  0.19358006  0.59586603  1
  Ti  Ti170  1  0.49422298  0.29387818  0.69624364  1
  Ti  Ti171  1  0.78639072  -0.00557165  0.80985120  1
  Ti  Ti172  1  0.10357107  0.89997020  0.69676088  1
  Ti  Ti173  1  0.30580529  0.09050129  0.09390590  1
  Ti  Ti174  1  0.90099748  0.09271746  0.89689093  1
  Ti  Ti175  1  0.90396610  0.10440279  0.30555966  1
  Ti  Ti176  1  0.60427753  0.80399856  0.80062889  1
  Ti  Ti177  1  0.20107347  0.19834341  0.39890525  1
  Ti  Ti178  1  0.59965815  0.39388173  -0.01190788  1
  Ti  Ti179  1  -0.00131050  0.60787582  -0.01148571  1
  Ti  Ti180  1  0.79357789  -0.00201510  0.59399155  1
  Ti  Ti181  1  0.10253016  0.90910867  0.10137243  1
  Ti  Ti182  1  0.81095994  0.20880351  -0.00196521  1
  Ti  Ti183  1  0.90335854  0.51374195  0.29168200  1
  Ti  Ti184  1  0.69469969  0.09388708  0.50175457  1
  Ti  Ti185  1  0.30826818  0.29792773  0.70672159  1
  Ti  Ti186  1  0.29551348  0.90499425  0.70723121  1
  Ti  Ti187  1  0.00141041  0.00106467  0.20473064  1
  Ti  Ti188  1  0.72107991  0.89371276  0.31139889  1
  Ti  Ti189  1  0.30599659  0.30609058  0.09484582  1
  Ti  Ti190  1  0.60320151  0.60787108  0.59877517  1
  Ti  Ti191  1  0.50426033  0.30265261  0.09536395  1
  Ti  Ti192  1  0.30887324  0.69933694  0.30835974  1
  Ti  Ti193  1  0.69650640  0.70802809  0.49123611  1
  Ti  Ti194  1  0.70258801  0.70101500  0.10582665  1
  Ti  Ti195  1  0.50544500  0.88701999  0.90129488  1
  Ti  Ti196  1  0.60059962  0.39382185  0.60786347  1
  Ti  Ti197  1  0.68404026  0.49083000  0.50076761  1
  Ti  Ti198  1  0.41607238  -0.00023544  -0.01256724  1
  Ti  Ti199  1  0.39929603  0.60241686  0.60068153  1
  Mo  Mo200  1  0.18937282  -0.00226503  0.78439029  1
  Mo  Mo201  1  -0.00526087  0.59803950  0.39130788  1
  Mo  Mo202  1  0.79880760  0.79643882  0.19827900  1
  Mo  Mo203  1  0.39947062  0.21782351  0.79995722  1
  Mo  Mo204  1  0.39846533  0.01282267  0.39743478  1
  Mo  Mo205  1  0.59946592  0.40139914  0.39881220  1
  Mo  Mo206  1  0.69303597  0.90363696  0.50227396  1
  Mo  Mo207  1  0.59899900  0.00230113  0.59859607  1
  Mo  Mo208  1  0.69164480  0.70265346  0.70510872  1
  Mo  Mo209  1  0.29996773  0.69460262  0.10221408  1
  Mo  Mo210  1  0.79566245  0.80204529  0.79870624  1
  Mo  Mo211  1  0.59813028  0.19761371  0.40416570  1
  Mo  Mo212  1  0.40637724  0.20524116  0.60116793  1
  Mo  Mo213  1  0.10336922  0.29697335  0.70100537  1
  Mo  Mo214  1  0.09433301  0.69993002  0.90616172  1
  Mo  Mo215  1  0.89217586  0.09694656  0.49873065  1
  Mo  Mo216  1  0.20646098  0.81473031  0.59297212  1
  Mo  Mo217  1  0.60666722  0.79696253  -0.00210474  1
  Mo  Mo218  1  0.90034245  0.69754208  0.89956966  1
  Mo  Mo219  1  0.30357178  0.49860355  0.10099434  1
  Mo  Mo220  1  0.69564700  0.89058466  0.89847494  1
  Mo  Mo221  1  0.79929310  0.01419538  0.40001675  1
  Mo  Mo222  1  0.19071037  0.00305158  0.01618147  1
  Mo  Mo223  1  0.40004210  0.59871578  0.39931711  1
  Mo  Mo224  1  0.49302462  0.89973035  0.29301477  1
  Mo  Mo225  1  0.20168168  0.00422318  0.39712298  1
  Mo  Mo226  1  0.50416230  0.50186367  0.29556885  1
  Mo  Mo227  1  0.69506531  0.30523508  0.90356341  1
  Mo  Mo228  1  0.68778542  0.29866357  0.69445074  1
  Mo  Mo229  1  0.59723051  0.59943492  0.20059833  1
  Mo  Mo230  1  0.80184824  0.59917308  0.19531971  1
  Mo  Mo231  1  0.39661685  0.78873061  0.39823484  1
  Mo  Mo232  1  0.89156771  0.90223092  0.70622386  1
  Mo  Mo233  1  0.79520540  0.78749912  0.39630802  1
  Mo  Mo234  1  0.68730186  0.49908860  0.70223878  1
  Mo  Mo235  1  0.59212295  0.21168002  0.00157188  1
  Mo  Mo236  1  -0.00399968  0.19649828  0.39533599  1
  Mo  Mo237  1  0.11256252  0.89878828  0.49817281  1
  Mo  Mo238  1  -0.00203606  0.60016309  0.19955769  1
  Mo  Mo239  1  0.50328435  0.10517284  0.50442906  1
  Mo  Mo240  1  0.50032392  0.09711170  0.89929277  1
  Mo  Mo241  1  0.89633812  0.30783251  0.89321180  1
  Mo  Mo242  1  0.79439505  0.59945067  0.80457433  1
  Mo  Mo243  1  0.50303521  0.89874081  0.71093461  1
  Mo  Mo244  1  0.90116453  0.29718813  0.10890714  1
  Mo  Mo245  1  0.41374836  -0.02043869  0.80388981  1
  Mo  Mo246  1  0.09796128  0.50134457  0.90328746  1
  Mo  Mo247  1  0.10327527  0.49791842  0.70396849  1
  Mo  Mo248  1  0.09087575  0.90061591  0.90444494  1
  Mo  Mo249  1  0.30403072  0.49537278  0.89427537  1
