# generated using pymatgen
data_HfZrTaTiMo
_symmetry_space_group_name_H-M   'P 1'
_cell_length_a   16.89057983
_cell_length_b   16.88023449
_cell_length_c   16.88417944
_cell_angle_alpha   89.95356532
_cell_angle_beta   90.00954464
_cell_angle_gamma   89.98604960
_symmetry_Int_Tables_number   1
_chemical_formula_structural   HfZrTaTiMo
_chemical_formula_sum   'Hf50 Zr50 Ta50 Ti50 Mo50'
_cell_volume   4813.96392183
_cell_formula_units_Z   50
loop_
 _symmetry_equiv_pos_site_id
 _symmetry_equiv_pos_as_xyz
  1  'x, y, z'
loop_
 _atom_site_type_symbol
 _atom_site_label
 _atom_site_symmetry_multiplicity
 _atom_site_fract_x
 _atom_site_fract_y
 _atom_site_fract_z
 _atom_site_occupancy
  Hf  Hf0  1  0.89003533  0.29765311  0.49484391  1
  Hf  Hf1  1  0.60285883  0.20637005  0.59753134  1
  Hf  Hf2  1  0.10233791  0.29256366  0.49382622  1
  Hf  Hf3  1  0.50423325  0.69278326  0.70760621  1
  Hf  Hf4  1  0.89450295  0.70924094  0.49441673  1
  Hf  Hf5  1  0.90222075  0.89619212  0.09344983  1
  Hf  Hf6  1  0.39926181  0.59545318  0.40610517  1
  Hf  Hf7  1  0.70157471  0.50408751  0.28959874  1
  Hf  Hf8  1  0.30384208  0.09044377  0.91081772  1
  Hf  Hf9  1  -0.00113977  0.79461791  0.79901443  1
  Hf  Hf10  1  0.10136418  0.50526154  0.70514213  1
  Hf  Hf11  1  -0.00178415  0.40010599  0.59805413  1
  Hf  Hf12  1  0.21177238  0.59484055  0.59849209  1
  Hf  Hf13  1  0.40060069  0.41507295  0.60216398  1
  Hf  Hf14  1  0.49874167  0.29931080  0.49582505  1
  Hf  Hf15  1  0.19850205  0.39919752  0.18842876  1
  Hf  Hf16  1  0.20127331  0.40256258  0.39590084  1
  Hf  Hf17  1  0.29095055  0.69775203  0.30022007  1
  Hf  Hf18  1  0.00839046  0.80146553  0.19220343  1
  Hf  Hf19  1  0.51583931  0.10529612  0.29819370  1
  Hf  Hf20  1  0.70434887  0.70762656  0.49409535  1
  Hf  Hf21  1  0.20847529  0.40743433  0.59813065  1
  Hf  Hf22  1  0.41240913  0.39440395  0.00972167  1
  Hf  Hf23  1  0.41234497  0.17402095  0.79612237  1
  Hf  Hf24  1  0.89386144  0.29370942  0.70988024  1
  Hf  Hf25  1  0.88954239  0.89317419  0.90723602  1
  Hf  Hf26  1  0.88931305  0.89558297  0.49633658  1
  Hf  Hf27  1  0.00672923  -0.00198502  0.80163378  1
  Hf  Hf28  1  0.60154744  0.79893099  0.60207160  1
  Hf  Hf29  1  0.30793585  0.29533742  0.70929417  1
  Hf  Hf30  1  -0.01077359  0.18111058  0.19351013  1
  Hf  Hf31  1  0.00496280  0.79823603  0.60710529  1
  Hf  Hf32  1  0.50090442  0.50008665  0.29408703  1
  Hf  Hf33  1  0.10629982  0.29581318  0.70910939  1
  Hf  Hf34  1  0.20838361  0.40416811  0.80491221  1
  Hf  Hf35  1  -0.00819769  0.19456108  0.38857983  1
  Hf  Hf36  1  0.40551371  0.01221364  0.19473688  1
  Hf  Hf37  1  0.29532415  0.89333930  0.50728506  1
  Hf  Hf38  1  0.78459944  -0.00058247  0.80613568  1
  Hf  Hf39  1  0.40279981  0.79944778  0.19534593  1
  Hf  Hf40  1  0.59327908  0.39399126  0.19433808  1
  Hf  Hf41  1  -0.00023004  0.40440351  0.80950527  1
  Hf  Hf42  1  0.40499529  0.79782926  0.39746822  1
  Hf  Hf43  1  0.78782981  0.40068007  0.59893877  1
  Hf  Hf44  1  0.39465855  0.19478113  0.39152707  1
  Hf  Hf45  1  0.40199571  0.00676857  0.60417957  1
  Hf  Hf46  1  0.19768824  0.00493773  0.39345143  1
  Hf  Hf47  1  0.89074241  0.09878881  0.49643197  1
  Hf  Hf48  1  0.30443653  0.29024640  0.90598261  1
  Hf  Hf49  1  0.10331702  0.29045433  0.29093738  1
  Zr  Zr50  1  0.39889198  0.59728213  0.60036730  1
  Zr  Zr51  1  0.00629744  0.19563761  0.00266613  1
  Zr  Zr52  1  0.48896599  0.90042768  0.70520977  1
  Zr  Zr53  1  0.70063016  0.69913952  0.10149641  1
  Zr  Zr54  1  0.69625762  0.29993709  0.71181838  1
  Zr  Zr55  1  0.60456769  0.00485781  0.60343227  1
  Zr  Zr56  1  0.81187846  0.00911579  0.19444059  1
  Zr  Zr57  1  0.29396345  0.91425478  0.09140111  1
  Zr  Zr58  1  0.70340890  0.10986640  0.30360121  1
  Zr  Zr59  1  0.30098286  0.49694373  0.09426585  1
  Zr  Zr60  1  0.89423390  0.09942183  0.89593732  1
  Zr  Zr61  1  0.10352656  0.90083667  0.49967839  1
  Zr  Zr62  1  0.30970533  0.49909854  0.90576014  1
  Zr  Zr63  1  0.11025434  0.10341336  0.70669186  1
  Zr  Zr64  1  0.89003587  0.89948408  0.70167728  1
  Zr  Zr65  1  0.29114401  0.10423670  0.50314397  1
  Zr  Zr66  1  0.29757433  0.89973338  0.89594801  1
  Zr  Zr67  1  0.81242233  0.59507029  -0.00643598  1
  Zr  Zr68  1  0.59770667  0.60063694  0.40469715  1
  Zr  Zr69  1  0.58742547  0.01079083  0.80200237  1
  Zr  Zr70  1  0.19703810  0.79150902  0.00408539  1
  Zr  Zr71  1  0.79537323  0.59989176  0.60260185  1
  Zr  Zr72  1  0.60444747  0.80861496  0.80711916  1
  Zr  Zr73  1  0.40358393  0.60619142  0.19794120  1
  Zr  Zr74  1  0.70555797  0.89981869  0.30290415  1
  Zr  Zr75  1  0.79799148  0.41263274  0.80890795  1
  Zr  Zr76  1  0.70091011  0.70775014  0.90568259  1
  Zr  Zr77  1  0.49998279  0.28866875  0.90169483  1
  Zr  Zr78  1  0.80785455  0.19637258  0.00943315  1
  Zr  Zr79  1  -0.00632490  0.59318447  0.39508952  1
  Zr  Zr80  1  0.60629764  0.39664136  0.40405554  1
  Zr  Zr81  1  0.70162208  0.50629584  0.10313093  1
  Zr  Zr82  1  -0.00393494  0.60313576  0.60297887  1
  Zr  Zr83  1  0.89887262  0.70692381  0.29742943  1
  Zr  Zr84  1  0.19058128  0.60544755  0.18765219  1
  Zr  Zr85  1  0.49718972  0.69266090  0.90522617  1
  Zr  Zr86  1  0.59556950  0.00290312  -0.00003005  1
  Zr  Zr87  1  0.69461036  0.10903002  0.10519237  1
  Zr  Zr88  1  0.10869763  0.70352436  0.49566400  1
  Zr  Zr89  1  0.30063133  0.29634911  0.49548476  1
  Zr  Zr90  1  0.00699662  0.00400268  0.00611016  1
  Zr  Zr91  1  0.80588689  0.61421152  0.79527904  1
  Zr  Zr92  1  0.00180867  0.00017402  0.60317059  1
  Zr  Zr93  1  0.59039355  0.40856759  0.80110911  1
  Zr  Zr94  1  0.09438856  0.50499800  0.29015789  1
  Zr  Zr95  1  0.39848915  0.00276774  0.39626520  1
  Zr  Zr96  1  -0.00404107  0.19625829  0.60368804  1
  Zr  Zr97  1  0.59840591  0.39901785  0.00334242  1
  Zr  Zr98  1  0.29589738  0.90197392  0.29142875  1
  Zr  Zr99  1  0.89734444  0.30719894  0.10863587  1
  Ta  Ta100  1  0.00153660  0.40308683  -0.00026271  1
  Ta  Ta101  1  0.70484235  0.90134747  0.49864755  1
  Ta  Ta102  1  0.80175386  0.59391502  0.39488082  1
  Ta  Ta103  1  0.70193435  0.29742749  0.10716333  1
  Ta  Ta104  1  0.70170179  0.29382542  0.90719666  1
  Ta  Ta105  1  0.60159614  -0.00493629  0.19533259  1
  Ta  Ta106  1  0.49525509  0.30295732  0.70139010  1
  Ta  Ta107  1  0.30273878  0.49453992  0.29357676  1
  Ta  Ta108  1  0.50548837  0.90181459  0.49527473  1
  Ta  Ta109  1  0.69454923  0.11037070  0.90576951  1
  Ta  Ta110  1  0.70331696  0.89554963  0.70221297  1
  Ta  Ta111  1  0.10729554  0.29617465  0.90242917  1
  Ta  Ta112  1  0.49791886  0.29348039  0.29708153  1
  Ta  Ta113  1  0.89873972  0.29986877  0.90029589  1
  Ta  Ta114  1  0.49902635  0.90050743  0.09842412  1
  Ta  Ta115  1  0.60032862  0.80227349  0.39830595  1
  Ta  Ta116  1  0.59513298  0.41030526  0.59933282  1
  Ta  Ta117  1  0.19523695  0.59628184  -0.00162099  1
  Ta  Ta118  1  0.40039184  0.79813376  0.00351630  1
  Ta  Ta119  1  0.90094072  0.50072251  0.70243502  1
  Ta  Ta120  1  0.10365541  0.89415497  0.90610108  1
  Ta  Ta121  1  0.60013012  0.80449578  0.19662397  1
  Ta  Ta122  1  0.29468813  0.89710286  0.70487044  1
  Ta  Ta123  1  0.39809423  0.79549379  0.60162612  1
  Ta  Ta124  1  0.70215022  0.70124759  0.29568432  1
  Ta  Ta125  1  0.19215720  0.80027457  0.19179076  1
  Ta  Ta126  1  0.10328360  0.10522371  0.49314327  1
  Ta  Ta127  1  0.69046081  0.51050517  0.90434972  1
  Ta  Ta128  1  0.90673485  0.50066321  0.10745730  1
  Ta  Ta129  1  0.10973120  0.69795346  0.70899654  1
  Ta  Ta130  1  0.69871741  0.10429607  0.48798135  1
  Ta  Ta131  1  0.19511430  0.19243331  0.00257894  1
  Ta  Ta132  1  -0.00171721  0.00431436  0.39104337  1
  Ta  Ta133  1  0.30071134  0.28718598  0.09956749  1
  Ta  Ta134  1  0.50818618  0.90305140  0.29916592  1
  Ta  Ta135  1  0.10037639  0.69630655  0.89931676  1
  Ta  Ta136  1  0.50026903  0.70420455  0.50261082  1
  Ta  Ta137  1  0.48362918  0.90624423  0.90582549  1
  Ta  Ta138  1  0.79006196  0.19836113  0.59813168  1
  Ta  Ta139  1  0.80294042  0.40291303  -0.00093115  1
  Ta  Ta140  1  0.51146288  0.10065323  0.49067304  1
  Ta  Ta141  1  0.90349147  0.70145935  0.09473849  1
  Ta  Ta142  1  0.09868271  0.90911288  0.28786674  1
  Ta  Ta143  1  -0.00351649  0.59914812  0.80896228  1
  Ta  Ta144  1  -0.00860101  0.39879480  0.39183175  1
  Ta  Ta145  1  0.29967798  0.29518360  0.28893408  1
  Ta  Ta146  1  0.40358327  0.39161145  0.19575204  1
  Ta  Ta147  1  0.90481730  0.90172046  0.29962383  1
  Ta  Ta148  1  0.29701200  0.70642722  0.49854376  1
  Ta  Ta149  1  0.79943373  0.40260042  0.39309932  1
  Ti  Ti150  1  0.10470317  0.49779007  0.90905147  1
  Ti  Ti151  1  0.50785692  0.69901936  0.09423037  1
  Ti  Ti152  1  0.80338495  0.00221069  0.39540108  1
  Ti  Ti153  1  0.80034645  0.80246976  0.19618132  1
  Ti  Ti154  1  0.41386169  0.18505956  0.01405925  1
  Ti  Ti155  1  0.09761252  0.69892459  0.29780402  1
  Ti  Ti156  1  0.50450993  0.51896711  0.09540825  1
  Ti  Ti157  1  0.79258596  0.00688260  0.60284934  1
  Ti  Ti158  1  0.19624804  0.00137980  0.80892409  1
  Ti  Ti159  1  0.90511928  0.71021626  0.90927667  1
  Ti  Ti160  1  0.70225480  0.10777614  0.70510974  1
  Ti  Ti161  1  0.40613637  0.19314341  0.60311166  1
  Ti  Ti162  1  0.89520821  0.49617250  0.49701514  1
  Ti  Ti163  1  0.89015680  0.10480477  0.70586101  1
  Ti  Ti164  1  0.59760029  0.80908136  0.00084155  1
  Ti  Ti165  1  0.81415592  0.59851116  0.20297008  1
  Ti  Ti166  1  0.00164352  0.59200524  -0.00312972  1
  Ti  Ti167  1  0.29488119  0.10207184  0.10090373  1
  Ti  Ti168  1  0.70237601  0.29463488  0.29590976  1
  Ti  Ti169  1  0.20364403  0.59968149  0.80610819  1
  Ti  Ti170  1  0.49911260  0.51145940  0.90149359  1
  Ti  Ti171  1  -0.00096589  0.40410501  0.20031083  1
  Ti  Ti172  1  0.70762796  0.89879160  0.08876270  1
  Ti  Ti173  1  0.59532066  0.19387605  0.80199027  1
  Ti  Ti174  1  0.19712338  -0.00067112  0.60449749  1
  Ti  Ti175  1  0.29302758  0.70652390  0.70495195  1
  Ti  Ti176  1  0.20384631  0.59167814  0.40199714  1
  Ti  Ti177  1  0.69978589  0.50241816  0.49772569  1
  Ti  Ti178  1  0.39397773  0.79559802  0.80264299  1
  Ti  Ti179  1  0.10438066  0.09862014  0.29170124  1
  Ti  Ti180  1  0.79699954  0.78650543  0.62144939  1
  Ti  Ti181  1  0.59621450  0.59546272  0.60017905  1
  Ti  Ti182  1  0.10284263  0.30089541  0.09535267  1
  Ti  Ti183  1  0.30427242  0.69552218  0.09219331  1
  Ti  Ti184  1  0.11332353  0.08726109  0.10942486  1
  Ti  Ti185  1  0.11992100  0.88729529  0.70855429  1
  Ti  Ti186  1  0.00513685  0.19535399  0.80932114  1
  Ti  Ti187  1  0.29525310  0.09351299  0.70719463  1
  Ti  Ti188  1  0.28502011  0.11189409  0.28248749  1
  Ti  Ti189  1  0.09641547  0.49809459  0.49566196  1
  Ti  Ti190  1  0.39841808  0.40464150  0.39748606  1
  Ti  Ti191  1  0.00501756  0.80807127  0.39399248  1
  Ti  Ti192  1  0.30212084  0.69379050  0.90224493  1
  Ti  Ti193  1  0.39629226  0.58898618  0.79136928  1
  Ti  Ti194  1  0.08610887  0.69376729  0.08897736  1
  Ti  Ti195  1  0.88725238  0.29920264  0.29414967  1
  Ti  Ti196  1  0.19469683  0.80368659  0.38924329  1
  Ti  Ti197  1  0.20306204  0.20041815  0.60511661  1
  Ti  Ti198  1  0.51142869  0.70228402  0.29666605  1
  Ti  Ti199  1  0.68951440  0.51298074  0.70788469  1
  Mo  Mo200  1  0.20609075  0.79442622  0.61113354  1
  Mo  Mo201  1  0.79890660  0.80072488  0.80021226  1
  Mo  Mo202  1  0.59713063  0.61255705  0.19934572  1
  Mo  Mo203  1  0.10119420  0.90078533  0.09970741  1
  Mo  Mo204  1  0.09099536  0.49733422  0.09039512  1
  Mo  Mo205  1  0.39356582  -0.00219492  0.79729935  1
  Mo  Mo206  1  0.89541716  0.49103311  0.29349396  1
  Mo  Mo207  1  0.70088610  0.30054123  0.49514832  1
  Mo  Mo208  1  0.00361487  0.79412997  -0.00344999  1
  Mo  Mo209  1  0.79616680  0.20834659  0.40016168  1
  Mo  Mo210  1  0.69357577  0.70114727  0.70053851  1
  Mo  Mo211  1  0.30021542  0.50191664  0.48472386  1
  Mo  Mo212  1  0.79824224  0.39954007  0.20095298  1
  Mo  Mo213  1  0.70039081  0.90305646  0.90718701  1
  Mo  Mo214  1  0.90516468  0.49779681  0.90540021  1
  Mo  Mo215  1  0.60146644  0.60018161  0.80110157  1
  Mo  Mo216  1  0.50174938  0.50149252  0.70274448  1
  Mo  Mo217  1  0.00423515  -0.00120382  0.20182173  1
  Mo  Mo218  1  0.79656312  0.80314773  0.39150803  1
  Mo  Mo219  1  0.30049810  0.50084165  0.71313303  1
  Mo  Mo220  1  0.60419457  -0.00486315  0.40296893  1
  Mo  Mo221  1  -0.00489386  0.60421571  0.18951819  1
  Mo  Mo222  1  0.79990952  0.79891750  0.00382337  1
  Mo  Mo223  1  0.39946027  0.60599003  0.00177391  1
  Mo  Mo224  1  0.50295131  0.09889500  0.10520833  1
  Mo  Mo225  1  0.20042391  0.79136659  0.80434025  1
  Mo  Mo226  1  0.19690216  0.19789511  0.38607982  1
  Mo  Mo227  1  0.40255343  0.00257063  0.00460041  1
  Mo  Mo228  1  0.19401709  0.00308000  0.00126598  1
  Mo  Mo229  1  0.50351100  0.50000172  0.50179880  1
  Mo  Mo230  1  0.89789805  0.09666801  0.30315191  1
  Mo  Mo231  1  0.49942506  0.28282451  0.10680650  1
  Mo  Mo232  1  0.90848497  0.69642720  0.70341250  1
  Mo  Mo233  1  0.59636393  0.60028255  0.00046493  1
  Mo  Mo234  1  0.39773842  0.20000302  0.19699739  1
  Mo  Mo235  1  0.60145079  0.20751807  0.40052605  1
  Mo  Mo236  1  0.19909405  0.00184303  0.19840798  1
  Mo  Mo237  1  0.19384196  0.39055879  0.00030213  1
  Mo  Mo238  1  0.80024330  0.20533059  0.20633604  1
  Mo  Mo239  1  0.60086889  0.20249423  0.00434732  1
  Mo  Mo240  1  0.50481958  0.10689288  0.68662748  1
  Mo  Mo241  1  0.79230029  0.19852345  0.80382986  1
  Mo  Mo242  1  0.59785440  0.20588390  0.20013097  1
  Mo  Mo243  1  0.19729630  0.19865391  0.18939209  1
  Mo  Mo244  1  0.40571204  0.40696428  0.79854293  1
  Mo  Mo245  1  0.20819716  0.19755193  0.80877573  1
  Mo  Mo246  1  0.78928603  -0.00218429  -0.00148084  1
  Mo  Mo247  1  0.49988957  0.09691630  0.91188696  1
  Mo  Mo248  1  0.11058199  0.09917419  0.89906535  1
  Mo  Mo249  1  0.89916616  0.09370783  0.09913281  1
