# generated using pymatgen
data_HfZrTaTiMo
_symmetry_space_group_name_H-M   'P 1'
_cell_length_a   16.88485857
_cell_length_b   16.89629670
_cell_length_c   16.88438541
_cell_angle_alpha   90.01274096
_cell_angle_beta   90.04812208
_cell_angle_gamma   90.02034069
_symmetry_Int_Tables_number   1
_chemical_formula_structural   HfZrTaTiMo
_chemical_formula_sum   'Hf50 Zr50 Ta50 Ti50 Mo50'
_cell_volume   4816.97087154
_cell_formula_units_Z   50
loop_
 _symmetry_equiv_pos_site_id
 _symmetry_equiv_pos_as_xyz
  1  'x, y, z'
loop_
 _atom_site_type_symbol
 _atom_site_label
 _atom_site_symmetry_multiplicity
 _atom_site_fract_x
 _atom_site_fract_y
 _atom_site_fract_z
 _atom_site_occupancy
  Hf  Hf0  1  0.39759657  0.40000835  0.39636742  1
  Hf  Hf1  1  0.79541890  0.00530601  0.20203396  1
  Hf  Hf2  1  -0.00166307  0.00877510  0.59699121  1
  Hf  Hf3  1  0.40070805  -0.00893776  0.40390321  1
  Hf  Hf4  1  0.59036644  0.40422964  0.40176039  1
  Hf  Hf5  1  0.30144939  0.69446287  0.70157948  1
  Hf  Hf6  1  0.38654363  0.19979454  0.60781110  1
  Hf  Hf7  1  0.19839846  0.59231137  0.60413044  1
  Hf  Hf8  1  0.50480223  0.10383093  0.69794443  1
  Hf  Hf9  1  0.90892881  0.30580005  0.09824724  1
  Hf  Hf10  1  0.29117607  0.10850826  0.49630088  1
  Hf  Hf11  1  0.79798476  0.19888454  0.00271794  1
  Hf  Hf12  1  0.00213685  0.58763063  0.59828204  1
  Hf  Hf13  1  0.90274212  0.09917823  0.89008200  1
  Hf  Hf14  1  0.80337847  0.59802274  -0.00749706  1
  Hf  Hf15  1  0.80877076  0.19756044  0.20273656  1
  Hf  Hf16  1  0.30220855  0.69242368  0.10199753  1
  Hf  Hf17  1  0.39511079  0.79876766  0.80880887  1
  Hf  Hf18  1  0.70622623  0.69409531  0.10770371  1
  Hf  Hf19  1  0.89974266  0.69739139  0.70459815  1
  Hf  Hf20  1  0.59681907  0.79755099  0.00751407  1
  Hf  Hf21  1  0.20340352  0.20597787  0.19846614  1
  Hf  Hf22  1  0.49312926  0.69453440  0.10431792  1
  Hf  Hf23  1  0.50051139  0.30365437  0.70651800  1
  Hf  Hf24  1  0.79791786  0.79496041  0.59528229  1
  Hf  Hf25  1  0.20515443  0.80203551  0.59820049  1
  Hf  Hf26  1  0.59939672  0.20916081  0.39874481  1
  Hf  Hf27  1  0.50533682  0.10483419  0.90201815  1
  Hf  Hf28  1  0.10574944  0.09753204  0.89539645  1
  Hf  Hf29  1  0.09675035  0.89468391  0.49973854  1
  Hf  Hf30  1  0.79360654  0.40792435  -0.00726431  1
  Hf  Hf31  1  0.69988200  0.30912360  0.29951272  1
  Hf  Hf32  1  0.70175186  0.10272032  0.69396618  1
  Hf  Hf33  1  0.80852160  0.78946911  -0.00881793  1
  Hf  Hf34  1  0.59713406  0.59248737  0.59890200  1
  Hf  Hf35  1  0.20208904  0.39733632  0.80471582  1
  Hf  Hf36  1  0.40338661  0.58486230  0.80744194  1
  Hf  Hf37  1  0.10347109  0.68993245  0.89389645  1
  Hf  Hf38  1  0.00086023  0.79081419  -0.00177245  1
  Hf  Hf39  1  0.21194337  0.22054805  -0.00256020  1
  Hf  Hf40  1  0.18949993  0.21193312  0.60687414  1
  Hf  Hf41  1  0.39485553  -0.00436891  0.59804493  1
  Hf  Hf42  1  0.40041630  -0.00520267  0.00122289  1
  Hf  Hf43  1  0.50990896  0.09554136  0.50787018  1
  Hf  Hf44  1  0.50600124  0.70277316  0.70781260  1
  Hf  Hf45  1  0.10878406  0.10916382  0.31085634  1
  Hf  Hf46  1  0.91990889  0.31459583  0.29960937  1
  Hf  Hf47  1  0.89988365  0.89767847  0.49918393  1
  Hf  Hf48  1  0.48314049  0.70102580  0.29978031  1
  Hf  Hf49  1  0.00344852  0.78506872  0.19550069  1
  Zr  Zr50  1  0.40170105  0.20838059  0.00730948  1
  Zr  Zr51  1  0.69591636  0.09853478  0.90072845  1
  Zr  Zr52  1  -0.00069515  0.79868885  0.80356697  1
  Zr  Zr53  1  0.39419942  0.21278884  0.19344298  1
  Zr  Zr54  1  0.19860548  0.79623241  -0.00669241  1
  Zr  Zr55  1  0.70655378  0.89864243  0.70524571  1
  Zr  Zr56  1  0.50554150  0.89944639  0.89631428  1
  Zr  Zr57  1  0.80803529  0.20304592  0.40557522  1
  Zr  Zr58  1  0.40036833  0.40847723  0.60323726  1
  Zr  Zr59  1  0.80687385  0.40659568  0.19871671  1
  Zr  Zr60  1  0.39359837  -0.00374753  0.19511221  1
  Zr  Zr61  1  0.19418119  0.59775314  0.20103425  1
  Zr  Zr62  1  0.60621956  0.79715585  0.40064864  1
  Zr  Zr63  1  0.00322712  -0.00664889  -0.00477700  1
  Zr  Zr64  1  0.59675574  0.40786749  0.80761663  1
  Zr  Zr65  1  0.88679105  0.90719711  0.87769497  1
  Zr  Zr66  1  0.20287127  -0.00330092  0.20028451  1
  Zr  Zr67  1  0.69016953  0.70076049  0.88870540  1
  Zr  Zr68  1  0.79309224  0.40151617  0.80289948  1
  Zr  Zr69  1  0.00210397  0.20833517  0.41375802  1
  Zr  Zr70  1  0.29475436  0.09808980  0.89460873  1
  Zr  Zr71  1  0.89562571  0.89330044  0.10417443  1
  Zr  Zr72  1  0.60573717  0.60366181  0.40311873  1
  Zr  Zr73  1  0.69956676  0.89786788  0.89162230  1
  Zr  Zr74  1  0.79442692  0.00279607  0.01105306  1
  Zr  Zr75  1  0.50033042  0.30056605  0.50991261  1
  Zr  Zr76  1  0.39495482  0.40206732  -0.01101940  1
  Zr  Zr77  1  0.29270055  0.49810586  0.49899313  1
  Zr  Zr78  1  0.10003691  0.31098557  0.09986933  1
  Zr  Zr79  1  0.29267108  0.90486328  0.70836812  1
  Zr  Zr80  1  0.49138999  0.69890317  0.50211760  1
  Zr  Zr81  1  0.40206901  0.20720509  0.39575325  1
  Zr  Zr82  1  0.09773495  0.89171582  0.30916693  1
  Zr  Zr83  1  0.90252433  0.29969563  0.89638328  1
  Zr  Zr84  1  0.09817220  0.69032378  0.31209060  1
  Zr  Zr85  1  0.19838697  0.79672349  0.19695870  1
  Zr  Zr86  1  0.80422278  0.01051084  0.39633524  1
  Zr  Zr87  1  0.69040018  0.30541533  0.09604858  1
  Zr  Zr88  1  0.20597269  -0.01099548  0.40794341  1
  Zr  Zr89  1  0.70728066  0.50221014  0.29614540  1
  Zr  Zr90  1  0.68706928  0.10414983  0.28976413  1
  Zr  Zr91  1  0.20522923  0.40059324  0.20423379  1
  Zr  Zr92  1  0.10109836  0.69583528  0.49859631  1
  Zr  Zr93  1  0.49922227  0.09353152  0.28807967  1
  Zr  Zr94  1  0.71038690  0.48622039  0.50118598  1
  Zr  Zr95  1  0.59693159  0.59968557  0.20239133  1
  Zr  Zr96  1  0.60253315  -0.01055470  0.39592229  1
  Zr  Zr97  1  0.89344506  0.89110079  0.29818488  1
  Zr  Zr98  1  0.00114283  0.00680265  0.20507796  1
  Zr  Zr99  1  0.79951396  0.59482554  0.59778065  1
  Ta  Ta100  1  0.49895700  0.89328727  0.29345755  1
  Ta  Ta101  1  0.00263477  0.59016817  0.79640549  1
  Ta  Ta102  1  0.70126832  0.10247771  0.50725841  1
  Ta  Ta103  1  0.00553117  0.39858648  0.79652829  1
  Ta  Ta104  1  0.39908540  0.59601852  -0.00649325  1
  Ta  Ta105  1  0.79663564  0.20560248  0.79485557  1
  Ta  Ta106  1  0.40139083  0.80546231  0.59845356  1
  Ta  Ta107  1  -0.00157564  0.59662257  0.19995825  1
  Ta  Ta108  1  0.48902304  0.50395086  0.29358222  1
  Ta  Ta109  1  -0.01302560  0.78837025  0.39974514  1
  Ta  Ta110  1  0.60541331  0.20609257  0.79934125  1
  Ta  Ta111  1  0.70531851  0.30398654  0.68953375  1
  Ta  Ta112  1  0.90516372  0.50173180  0.09915658  1
  Ta  Ta113  1  0.90735634  0.50080047  0.89530332  1
  Ta  Ta114  1  0.69623373  0.70045942  0.70375994  1
  Ta  Ta115  1  0.79371704  0.78866819  0.39783769  1
  Ta  Ta116  1  0.08785134  0.48763835  0.30699626  1
  Ta  Ta117  1  0.80599541  0.00630372  0.59644254  1
  Ta  Ta118  1  0.39509611  0.79423695  -0.00450967  1
  Ta  Ta119  1  0.10164402  0.09675978  0.70509080  1
  Ta  Ta120  1  0.10562228  0.10226547  0.09062977  1
  Ta  Ta121  1  0.00437808  0.40664253  -0.00665357  1
  Ta  Ta122  1  0.30155621  0.69809595  0.49562587  1
  Ta  Ta123  1  0.29638162  0.10550916  0.30574055  1
  Ta  Ta124  1  0.00640112  0.20579396  0.79244848  1
  Ta  Ta125  1  0.00031373  0.60176884  -0.00019226  1
  Ta  Ta126  1  0.60640132  0.79910588  0.20901603  1
  Ta  Ta127  1  0.20367277  0.59482507  -0.00411494  1
  Ta  Ta128  1  0.90025740  0.10731630  0.69982920  1
  Ta  Ta129  1  0.69765910  0.50455538  0.09828299  1
  Ta  Ta130  1  0.90325351  0.69204982  0.49799586  1
  Ta  Ta131  1  0.39910732  0.00648708  0.79427865  1
  Ta  Ta132  1  0.00950735  0.20247390  0.20215817  1
  Ta  Ta133  1  0.30321541  0.69740467  0.31058731  1
  Ta  Ta134  1  -0.00734105  0.01319892  0.40391790  1
  Ta  Ta135  1  0.70167253  0.90475515  0.50337762  1
  Ta  Ta136  1  0.79971830  0.59311991  0.80154859  1
  Ta  Ta137  1  0.58169242  0.22142719  0.19447497  1
  Ta  Ta138  1  0.10222305  0.69839419  0.70303163  1
  Ta  Ta139  1  0.59887003  0.00311113  0.79327242  1
  Ta  Ta140  1  0.50576261  0.90103568  0.69765103  1
  Ta  Ta141  1  0.80708744  0.60320807  0.39826432  1
  Ta  Ta142  1  0.89983026  0.29904195  0.69529881  1
  Ta  Ta143  1  0.00756176  0.20228684  -0.00378341  1
  Ta  Ta144  1  0.09735157  0.90406776  0.70411667  1
  Ta  Ta145  1  0.09855166  0.50137130  0.09641018  1
  Ta  Ta146  1  0.90110868  0.48871313  0.69813177  1
  Ta  Ta147  1  0.91362438  0.10687524  0.09844278  1
  Ta  Ta148  1  0.60115632  0.80169193  0.59471674  1
  Ta  Ta149  1  0.30179509  0.49964589  0.09663805  1
  Ti  Ti150  1  0.29868021  0.30851135  0.70365339  1
  Ti  Ti151  1  0.89916631  0.90540966  0.70225380  1
  Ti  Ti152  1  0.19871788  0.59068773  0.39958624  1
  Ti  Ti153  1  0.70257545  0.89080847  0.11162825  1
  Ti  Ti154  1  0.40208010  0.40002903  0.19404279  1
  Ti  Ti155  1  0.68132423  0.10762039  0.10328141  1
  Ti  Ti156  1  0.10779229  0.91083844  0.88702677  1
  Ti  Ti157  1  0.29552382  0.89688613  0.09136820  1
  Ti  Ti158  1  0.70241126  0.49709379  0.69938715  1
  Ti  Ti159  1  0.10157768  0.30271601  0.89861167  1
  Ti  Ti160  1  0.29180498  0.90740208  0.90018355  1
  Ti  Ti161  1  0.10293191  0.49166169  0.70073774  1
  Ti  Ti162  1  0.29998477  0.88688038  0.30591501  1
  Ti  Ti163  1  0.59205137  0.58864796  -0.00314346  1
  Ti  Ti164  1  0.40167810  0.59001397  0.40531053  1
  Ti  Ti165  1  0.09986748  0.48619611  0.49288474  1
  Ti  Ti166  1  0.50238147  0.69752160  0.89960698  1
  Ti  Ti167  1  0.89408808  0.69029305  0.11075243  1
  Ti  Ti168  1  0.10335820  0.49839695  0.90244221  1
  Ti  Ti169  1  0.20079213  0.00429863  0.60418676  1
  Ti  Ti170  1  0.29055038  0.30084353  0.30946916  1
  Ti  Ti171  1  0.20105284  0.79653008  0.80265919  1
  Ti  Ti172  1  0.59883821  0.40550873  0.60072333  1
  Ti  Ti173  1  0.00656345  0.39521386  0.59974791  1
  Ti  Ti174  1  0.30023657  0.49291639  0.70457318  1
  Ti  Ti175  1  0.20543152  0.59236397  0.80322056  1
  Ti  Ti176  1  0.39451924  0.80312902  0.19649592  1
  Ti  Ti177  1  -0.00003460  0.79725995  0.60270051  1
  Ti  Ti178  1  0.89621837  0.30904993  0.51395595  1
  Ti  Ti179  1  0.58924657  0.40954162  0.00005707  1
  Ti  Ti180  1  0.59851752  0.58729646  0.80104448  1
  Ti  Ti181  1  0.51030217  0.09892785  0.09896295  1
  Ti  Ti182  1  0.58537608  0.40677983  0.19338575  1
  Ti  Ti183  1  0.81296507  0.40034083  0.40703983  1
  Ti  Ti184  1  0.10505497  0.90446563  0.09422473  1
  Ti  Ti185  1  0.60213007  -0.00698331  0.01013270  1
  Ti  Ti186  1  0.10445797  0.10527578  0.50205354  1
  Ti  Ti187  1  0.90979734  0.50415635  0.30557855  1
  Ti  Ti188  1  0.68881603  0.29568758  0.90529463  1
  Ti  Ti189  1  0.39257558  0.20388644  0.79995881  1
  Ti  Ti190  1  0.28161437  0.30825718  0.49726764  1
  Ti  Ti191  1  0.20124317  0.20580604  0.79346970  1
  Ti  Ti192  1  0.40494219  0.59249844  0.60405317  1
  Ti  Ti193  1  0.50127324  0.89641553  0.10686617  1
  Ti  Ti194  1  0.61080783  0.20969470  0.59723102  1
  Ti  Ti195  1  0.30214468  0.50581477  0.29776258  1
  Ti  Ti196  1  0.50046916  0.29751425  0.89954402  1
  Ti  Ti197  1  0.39714597  0.81019393  0.41268062  1
  Ti  Ti198  1  0.00153697  0.20427412  0.60179607  1
  Ti  Ti199  1  0.29020635  0.09413599  0.09310754  1
  Mo  Mo200  1  0.79647805  0.78998706  0.20769442  1
  Mo  Mo201  1  0.29956704  0.31580289  0.10161421  1
  Mo  Mo202  1  0.29435096  0.10339644  0.70286310  1
  Mo  Mo203  1  -0.00476087  0.59120823  0.40260167  1
  Mo  Mo204  1  0.90473325  0.68731610  0.89210235  1
  Mo  Mo205  1  0.49822378  0.31531175  0.29163465  1
  Mo  Mo206  1  0.19487537  0.39968360  0.39826574  1
  Mo  Mo207  1  0.50063751  0.50284788  0.90302995  1
  Mo  Mo208  1  0.70516179  0.30021824  0.50527484  1
  Mo  Mo209  1  0.19428842  0.40057002  0.60627027  1
  Mo  Mo210  1  -0.00167129  0.40188601  0.41371085  1
  Mo  Mo211  1  0.69900327  0.89358193  0.29789921  1
  Mo  Mo212  1  0.39241166  0.59185030  0.20216508  1
  Mo  Mo213  1  0.80271635  0.20471642  0.59898054  1
  Mo  Mo214  1  0.90607566  0.49477303  0.49918082  1
  Mo  Mo215  1  0.21293831  0.79269526  0.40403999  1
  Mo  Mo216  1  0.69421146  0.50656800  0.90567606  1
  Mo  Mo217  1  0.49639987  0.50216861  0.50035747  1
  Mo  Mo218  1  0.29446819  0.49947910  0.90117761  1
  Mo  Mo219  1  0.29926803  0.69344266  0.90025824  1
  Mo  Mo220  1  0.59463018  0.20710147  0.00129604  1
  Mo  Mo221  1  0.80560261  0.39758927  0.60355670  1
  Mo  Mo222  1  0.60060611  -0.01739343  0.18789470  1
  Mo  Mo223  1  0.09903232  0.30977217  0.50706677  1
  Mo  Mo224  1  0.80025093  0.78338492  0.79327870  1
  Mo  Mo225  1  0.50314384  0.89709681  0.50579939  1
  Mo  Mo226  1  0.30388080  0.30062090  0.88565159  1
  Mo  Mo227  1  0.71093857  0.69943479  0.29955824  1
  Mo  Mo228  1  0.89881096  0.69043721  0.30079294  1
  Mo  Mo229  1  0.19781003  0.21228627  0.40415673  1
  Mo  Mo230  1  0.19861175  0.00060636  0.79653094  1
  Mo  Mo231  1  0.59447861  0.80131583  0.79272066  1
  Mo  Mo232  1  0.60521813  -0.00573445  0.59846121  1
  Mo  Mo233  1  0.30054956  0.89438955  0.50550615  1
  Mo  Mo234  1  0.80107731  0.01536286  0.78520350  1
  Mo  Mo235  1  0.19918214  0.40863461  -0.00622635  1
  Mo  Mo236  1  0.10386451  0.30569489  0.31025357  1
  Mo  Mo237  1  0.50258881  0.50044975  0.70078232  1
  Mo  Mo238  1  0.00214608  0.00461053  0.78905901  1
  Mo  Mo239  1  0.09706104  0.68737955  0.09330762  1
  Mo  Mo240  1  0.70642749  0.70199796  0.50342671  1
  Mo  Mo241  1  0.00438503  0.40907525  0.19699121  1
  Mo  Mo242  1  0.80980240  0.59697468  0.20221416  1
  Mo  Mo243  1  0.89996311  0.10513377  0.50987636  1
  Mo  Mo244  1  0.20112399  -0.00656136  -0.00140533  1
  Mo  Mo245  1  0.49637680  0.50140629  0.09810670  1
  Mo  Mo246  1  0.39709898  0.39653836  0.80121652  1
  Mo  Mo247  1  0.49713484  0.31403343  0.09638425  1
  Mo  Mo248  1  0.09433714  0.30070092  0.70251018  1
  Mo  Mo249  1  0.91326494  0.10766716  0.29385762  1
