# generated using pymatgen
data_HfZrTaTiMo
_symmetry_space_group_name_H-M   'P 1'
_cell_length_a   16.87457121
_cell_length_b   16.88050403
_cell_length_c   16.88668688
_cell_angle_alpha   89.99580000
_cell_angle_beta   89.99433556
_cell_angle_gamma   90.01709656
_symmetry_Int_Tables_number   1
_chemical_formula_structural   HfZrTaTiMo
_chemical_formula_sum   'Hf50 Zr50 Ta50 Ti50 Mo50'
_cell_volume   4810.19390717
_cell_formula_units_Z   50
loop_
 _symmetry_equiv_pos_site_id
 _symmetry_equiv_pos_as_xyz
  1  'x, y, z'
loop_
 _atom_site_type_symbol
 _atom_site_label
 _atom_site_symmetry_multiplicity
 _atom_site_fract_x
 _atom_site_fract_y
 _atom_site_fract_z
 _atom_site_occupancy
  Hf  Hf0  1  0.90367693  0.90277136  0.90772640  1
  Hf  Hf1  1  0.40412162  0.79848204  0.79512210  1
  Hf  Hf2  1  0.09012714  0.89608955  0.30086257  1
  Hf  Hf3  1  0.79496443  0.59830371  0.80390375  1
  Hf  Hf4  1  0.30027095  0.09791983  0.89767472  1
  Hf  Hf5  1  0.30531758  0.51009374  0.70789003  1
  Hf  Hf6  1  0.39971463  0.39438686  -0.00463276  1
  Hf  Hf7  1  0.09099551  0.49896990  0.69417018  1
  Hf  Hf8  1  0.80466682  0.59947711  0.20209476  1
  Hf  Hf9  1  0.40362142  0.00629604  0.79644026  1
  Hf  Hf10  1  0.29568951  0.69525022  0.89221743  1
  Hf  Hf11  1  0.00211325  0.19989510  0.79842595  1
  Hf  Hf12  1  0.90445680  0.50158422  0.51198165  1
  Hf  Hf13  1  0.59633443  -0.00092594  0.80342402  1
  Hf  Hf14  1  0.20393238  0.59859831  0.59347260  1
  Hf  Hf15  1  0.50626994  0.29301946  0.09820540  1
  Hf  Hf16  1  0.60351787  0.40382621  -0.00582980  1
  Hf  Hf17  1  0.59943395  0.78498407  -0.02127790  1
  Hf  Hf18  1  0.90261418  0.50422139  0.09340536  1
  Hf  Hf19  1  0.90276635  0.90121470  0.49875161  1
  Hf  Hf20  1  0.90317067  0.30135841  0.90525363  1
  Hf  Hf21  1  0.10717628  0.50431760  0.10700238  1
  Hf  Hf22  1  0.90600462  0.69651496  0.90844827  1
  Hf  Hf23  1  0.39672043  0.20032823  0.60372145  1
  Hf  Hf24  1  0.00063800  0.80233878  0.80106281  1
  Hf  Hf25  1  -0.00516007  0.40590994  0.20913472  1
  Hf  Hf26  1  0.29555884  0.90441254  0.70058265  1
  Hf  Hf27  1  -0.00146737  0.00050394  0.20347385  1
  Hf  Hf28  1  0.60069056  0.59081812  0.59263656  1
  Hf  Hf29  1  0.69804914  0.70249917  0.10793168  1
  Hf  Hf30  1  0.69662018  0.49914903  0.69701730  1
  Hf  Hf31  1  0.10543833  0.30202100  0.30586452  1
  Hf  Hf32  1  0.90077633  0.10016620  0.31022713  1
  Hf  Hf33  1  0.10290143  0.09521281  0.69763321  1
  Hf  Hf34  1  0.79592735  0.39871621  0.79797189  1
  Hf  Hf35  1  0.70097413  0.09570727  0.51561574  1
  Hf  Hf36  1  0.49999639  0.09568747  0.30501387  1
  Hf  Hf37  1  0.21102943  0.00365858  0.58841507  1
  Hf  Hf38  1  0.69557553  0.10593339  0.69498815  1
  Hf  Hf39  1  0.70751350  0.49194185  0.30888468  1
  Hf  Hf40  1  0.08824451  0.69224746  0.50231641  1
  Hf  Hf41  1  0.31081608  0.50764796  0.48639323  1
  Hf  Hf42  1  0.79704468  0.80206665  -0.00017263  1
  Hf  Hf43  1  0.40321600  -0.00215203  0.19474678  1
  Hf  Hf44  1  0.20509020  0.20517797  -0.00546839  1
  Hf  Hf45  1  0.49611844  0.50047264  0.11117053  1
  Hf  Hf46  1  0.29945202  0.09715503  0.30000578  1
  Hf  Hf47  1  0.80200386  0.20916693  0.79246744  1
  Hf  Hf48  1  0.49310607  0.50008327  0.87957717  1
  Hf  Hf49  1  0.10012528  0.30535525  0.10290162  1
  Zr  Zr50  1  0.70221277  0.10747626  0.91118969  1
  Zr  Zr51  1  0.60504968  0.20081594  0.39934337  1
  Zr  Zr52  1  0.70395767  0.30478677  0.50533122  1
  Zr  Zr53  1  0.88922522  0.10641989  0.09124289  1
  Zr  Zr54  1  0.39390358  0.20150520  0.40423336  1
  Zr  Zr55  1  0.49780169  0.89779990  0.89915292  1
  Zr  Zr56  1  0.60674373  0.62434269  0.80646403  1
  Zr  Zr57  1  0.70022431  0.90905262  0.69349658  1
  Zr  Zr58  1  0.20508988  0.20143478  0.20139376  1
  Zr  Zr59  1  0.20629189  0.79061318  0.39817256  1
  Zr  Zr60  1  0.09973613  0.69619583  0.69883576  1
  Zr  Zr61  1  0.19973309  0.80037713  0.79669167  1
  Zr  Zr62  1  0.60539270  0.59479393  -0.00136356  1
  Zr  Zr63  1  0.48850295  0.49754136  0.29721430  1
  Zr  Zr64  1  -0.01407193  0.78488211  0.38498165  1
  Zr  Zr65  1  0.09268335  0.89228436  0.50378304  1
  Zr  Zr66  1  0.59578147  0.79652511  0.40635103  1
  Zr  Zr67  1  0.29994146  0.50269416  0.11508528  1
  Zr  Zr68  1  0.79876058  -0.00386829  0.81118582  1
  Zr  Zr69  1  0.79865655  0.79490647  0.59871178  1
  Zr  Zr70  1  0.48751067  0.68998697  0.49295717  1
  Zr  Zr71  1  0.79282946  -0.00922589  0.39898729  1
  Zr  Zr72  1  0.39508676  -0.00963412  0.41742801  1
  Zr  Zr73  1  0.19368897  -0.00220154  0.19613059  1
  Zr  Zr74  1  0.60058043  0.59507307  0.39672732  1
  Zr  Zr75  1  0.90659081  0.68811251  0.69306054  1
  Zr  Zr76  1  0.50311824  0.88632843  0.10623313  1
  Zr  Zr77  1  0.09160569  0.10994134  0.09342917  1
  Zr  Zr78  1  0.40476180  0.60537186  -0.00112486  1
  Zr  Zr79  1  0.00053510  0.20584239  0.60378474  1
  Zr  Zr80  1  0.11371366  0.50200753  0.29952327  1
  Zr  Zr81  1  0.19287563  0.40192355  0.80378549  1
  Zr  Zr82  1  0.81054013  0.60253865  0.39843644  1
  Zr  Zr83  1  0.48199951  0.68327495  0.69570509  1
  Zr  Zr84  1  0.09805682  0.30721101  0.50029987  1
  Zr  Zr85  1  0.59499779  0.79593550  0.60821810  1
  Zr  Zr86  1  0.78083265  0.79239425  0.80321360  1
  Zr  Zr87  1  0.60979294  0.39487681  0.20058236  1
  Zr  Zr88  1  0.89300580  0.08719866  0.69287785  1
  Zr  Zr89  1  0.69762077  0.90001949  0.09968292  1
  Zr  Zr90  1  0.41033585  0.19569784  -0.00755634  1
  Zr  Zr91  1  0.20556937  0.40152636  -0.00213069  1
  Zr  Zr92  1  0.80097319  0.39830900  0.20042849  1
  Zr  Zr93  1  0.70768197  0.28143683  0.08853259  1
  Zr  Zr94  1  0.90475943  0.29440643  0.09327870  1
  Zr  Zr95  1  0.79962924  -0.00430756  0.20420908  1
  Zr  Zr96  1  0.39867467  0.81534159  0.58854100  1
  Zr  Zr97  1  0.89428918  0.10525802  0.50181922  1
  Zr  Zr98  1  0.39918337  0.39803291  0.59977256  1
  Zr  Zr99  1  0.19868376  0.00020635  0.40000621  1
  Ta  Ta100  1  0.29804867  0.89363347  0.09789129  1
  Ta  Ta101  1  0.89865114  0.30904533  0.49953086  1
  Ta  Ta102  1  0.00799660  0.59959743  0.00253857  1
  Ta  Ta103  1  0.00417588  -0.00062034  0.00048428  1
  Ta  Ta104  1  0.40240702  -0.00211386  0.00221139  1
  Ta  Ta105  1  0.40208826  0.00452997  0.59958220  1
  Ta  Ta106  1  0.89539805  0.30327016  0.31431465  1
  Ta  Ta107  1  0.30542708  0.89184960  0.29647383  1
  Ta  Ta108  1  0.90551963  0.49853758  0.89690753  1
  Ta  Ta109  1  0.50103699  0.30220685  0.49855370  1
  Ta  Ta110  1  0.69841752  0.09899981  0.09911564  1
  Ta  Ta111  1  0.19467892  0.00041489  0.80549639  1
  Ta  Ta112  1  0.19610415  0.79918687  0.20100564  1
  Ta  Ta113  1  0.90871625  0.70563611  0.09928477  1
  Ta  Ta114  1  0.69523604  0.29651222  0.89937653  1
  Ta  Ta115  1  0.50496205  0.10306662  0.50796051  1
  Ta  Ta116  1  0.49857929  0.89110339  0.30221752  1
  Ta  Ta117  1  0.59929437  -0.00077226  0.20388534  1
  Ta  Ta118  1  0.00041664  0.60975931  0.20679166  1
  Ta  Ta119  1  0.29425242  0.70457311  0.09987777  1
  Ta  Ta120  1  0.29688373  0.89924856  0.90725102  1
  Ta  Ta121  1  0.69226072  0.89189908  0.29807562  1
  Ta  Ta122  1  0.30733726  0.30030274  0.88741434  1
  Ta  Ta123  1  0.70877345  0.69132915  0.50318009  1
  Ta  Ta124  1  0.59726603  0.00238159  -0.00002140  1
  Ta  Ta125  1  0.09947438  0.70585574  0.09936869  1
  Ta  Ta126  1  0.20128993  0.40387370  0.59458170  1
  Ta  Ta127  1  0.39747985  0.79509655  0.00166124  1
  Ta  Ta128  1  -0.00276091  0.20220646  0.21380327  1
  Ta  Ta129  1  0.20002322  0.20183214  0.79625016  1
  Ta  Ta130  1  0.50184850  0.29872091  0.29925591  1
  Ta  Ta131  1  0.09577072  0.90280679  0.69570418  1
  Ta  Ta132  1  0.60206157  0.39815594  0.40438100  1
  Ta  Ta133  1  0.90745652  0.89533405  0.09967135  1
  Ta  Ta134  1  0.19941173  -0.00241586  0.00125349  1
  Ta  Ta135  1  0.40746959  0.20198913  0.79656775  1
  Ta  Ta136  1  0.20494120  0.20481826  0.60076631  1
  Ta  Ta137  1  -0.00269891  0.40977431  0.40132495  1
  Ta  Ta138  1  0.30346716  0.09692120  0.09556336  1
  Ta  Ta139  1  0.10293584  0.70378314  0.90887754  1
  Ta  Ta140  1  0.90637312  0.90012953  0.69362352  1
  Ta  Ta141  1  0.40121560  0.19977797  0.19684775  1
  Ta  Ta142  1  0.79220143  0.41073049  -0.00609866  1
  Ta  Ta143  1  0.19811604  0.60118529  -0.00121655  1
  Ta  Ta144  1  0.60319835  0.19400171  0.20442238  1
  Ta  Ta145  1  0.80985254  0.79956305  0.20962552  1
  Ta  Ta146  1  0.00912428  0.40931359  -0.00859802  1
  Ta  Ta147  1  0.09625220  0.10353565  0.49591062  1
  Ta  Ta148  1  0.10240901  0.89887490  0.90587976  1
  Ta  Ta149  1  0.90725569  0.50001622  0.69988476  1
  Ti  Ti150  1  0.59569678  0.21512297  0.60776001  1
  Ti  Ti151  1  0.09698878  0.88880915  0.09206521  1
  Ti  Ti152  1  0.50761732  0.10006569  0.09832341  1
  Ti  Ti153  1  0.90313316  0.69432308  0.50907118  1
  Ti  Ti154  1  0.59728754  0.40145161  0.59652005  1
  Ti  Ti155  1  0.00103380  0.20278171  0.40007533  1
  Ti  Ti156  1  -0.00034475  0.59514046  0.39040044  1
  Ti  Ti157  1  0.59000638  0.20498948  0.80674979  1
  Ti  Ti158  1  0.69749075  0.70384484  0.29971731  1
  Ti  Ti159  1  0.79275449  0.20641296  0.39862493  1
  Ti  Ti160  1  0.69766989  0.89718975  0.50107412  1
  Ti  Ti161  1  0.79665114  0.40178164  0.60466515  1
  Ti  Ti162  1  0.20339062  0.40742477  0.40408536  1
  Ti  Ti163  1  0.30073149  0.50301537  0.89184476  1
  Ti  Ti164  1  0.29752556  0.30534901  0.70512479  1
  Ti  Ti165  1  0.39635438  0.78832668  0.20647669  1
  Ti  Ti166  1  0.60331477  0.39447345  0.80009580  1
  Ti  Ti167  1  0.29709089  0.30385304  0.49868627  1
  Ti  Ti168  1  0.20165120  0.19463513  0.40739000  1
  Ti  Ti169  1  0.00358977  -0.00078085  0.80417715  1
  Ti  Ti170  1  0.79344560  0.59500788  -0.00205284  1
  Ti  Ti171  1  0.59677001  -0.00637874  0.40527028  1
  Ti  Ti172  1  0.60179805  0.60002880  0.20556084  1
  Ti  Ti173  1  0.40172989  0.39213617  0.39531988  1
  Ti  Ti174  1  0.09871879  0.10012116  0.90149109  1
  Ti  Ti175  1  0.91770692  0.32238773  0.69608945  1
  Ti  Ti176  1  0.39042270  0.38172924  0.19736088  1
  Ti  Ti177  1  0.20116266  0.60670003  0.39487095  1
  Ti  Ti178  1  0.00913917  0.59422137  0.81183804  1
  Ti  Ti179  1  0.58547535  -0.00949165  0.59714424  1
  Ti  Ti180  1  0.29638842  0.30350127  0.30061872  1
  Ti  Ti181  1  0.90333703  0.10257017  0.90994130  1
  Ti  Ti182  1  0.69653293  0.09528405  0.30105780  1
  Ti  Ti183  1  0.20271171  0.61565721  0.20704611  1
  Ti  Ti184  1  0.79522409  0.20263602  0.21522818  1
  Ti  Ti185  1  0.39251458  0.61811703  0.37306669  1
  Ti  Ti186  1  0.09506976  0.30020385  0.89848393  1
  Ti  Ti187  1  0.80126234  0.21958779  0.61276845  1
  Ti  Ti188  1  0.50538879  0.10281100  0.69667040  1
  Ti  Ti189  1  0.00158936  0.00018090  0.59534743  1
  Ti  Ti190  1  0.49941244  0.30967386  0.70783363  1
  Ti  Ti191  1  0.30758558  0.69851714  0.49830712  1
  Ti  Ti192  1  0.49382002  0.49882180  0.70121829  1
  Ti  Ti193  1  0.29601844  0.10383624  0.70278727  1
  Ti  Ti194  1  0.49235232  0.49716405  0.49431136  1
  Ti  Ti195  1  0.30123495  0.50018903  0.29338362  1
  Ti  Ti196  1  0.20559591  0.79564057  0.59844176  1
  Ti  Ti197  1  0.50029371  0.69918384  0.11342479  1
  Ti  Ti198  1  0.80138825  0.79585891  0.39453088  1
  Ti  Ti199  1  0.09970716  0.30786790  0.69911585  1
  Mo  Mo200  1  0.90505850  0.50040301  0.30456353  1
  Mo  Mo201  1  0.00477543  0.40305968  0.59679407  1
  Mo  Mo202  1  0.29529581  0.69852060  0.69281025  1
  Mo  Mo203  1  0.10047913  0.69625967  0.29485740  1
  Mo  Mo204  1  0.60128250  0.79551773  0.21056749  1
  Mo  Mo205  1  0.80285439  0.00044143  0.00498149  1
  Mo  Mo206  1  0.49750955  0.70161028  0.29067507  1
  Mo  Mo207  1  0.59821625  0.80184210  0.79774759  1
  Mo  Mo208  1  0.70609580  0.49457383  0.50305078  1
  Mo  Mo209  1  0.68476898  0.30318646  0.70185566  1
  Mo  Mo210  1  0.71218519  0.69694569  0.91029038  1
  Mo  Mo211  1  0.40087533  0.39474795  0.79706929  1
  Mo  Mo212  1  0.80216843  0.20228153  -0.01174206  1
  Mo  Mo213  1  0.50370170  0.30083524  0.89136496  1
  Mo  Mo214  1  0.70244435  0.49569213  0.89621324  1
  Mo  Mo215  1  0.70268207  0.29503484  0.30455474  1
  Mo  Mo216  1  0.70276019  0.50718660  0.10067073  1
  Mo  Mo217  1  0.39498340  0.60014121  0.79929431  1
  Mo  Mo218  1  0.20206347  0.80094722  0.00428421  1
  Mo  Mo219  1  0.69546502  0.90254534  0.90323336  1
  Mo  Mo220  1  0.49792703  0.90880928  0.69731351  1
  Mo  Mo221  1  0.59962524  0.19496331  0.00080534  1
  Mo  Mo222  1  0.39532647  0.59255430  0.59618932  1
  Mo  Mo223  1  0.50158251  0.10140580  0.90143076  1
  Mo  Mo224  1  0.79859303  -0.00805948  0.59641251  1
  Mo  Mo225  1  0.48638550  0.69995574  0.89416934  1
  Mo  Mo226  1  0.30656170  0.29316768  0.09927222  1
  Mo  Mo227  1  0.80362441  0.40067313  0.40716658  1
  Mo  Mo228  1  0.39820407  0.80025560  0.39282642  1
  Mo  Mo229  1  0.69868120  0.69350600  0.68851438  1
  Mo  Mo230  1  -0.00154167  0.80129680  0.60223699  1
  Mo  Mo231  1  0.00448299  0.80031007  0.00166353  1
  Mo  Mo232  1  0.00133373  0.00825800  0.40022013  1
  Mo  Mo233  1  0.00148424  0.59774142  0.59438526  1
  Mo  Mo234  1  0.09185115  0.10573294  0.31224607  1
  Mo  Mo235  1  0.29730398  0.89290830  0.49837195  1
  Mo  Mo236  1  0.39710189  0.61319214  0.19926139  1
  Mo  Mo237  1  0.00084300  0.79974190  0.19300511  1
  Mo  Mo238  1  0.10100566  0.50915942  0.90022796  1
  Mo  Mo239  1  0.19622796  0.60017391  0.80661354  1
  Mo  Mo240  1  0.29660411  0.70300113  0.29206725  1
  Mo  Mo241  1  0.10461319  0.50202519  0.49294096  1
  Mo  Mo242  1  0.89925400  0.69715513  0.29165328  1
  Mo  Mo243  1  0.29668498  0.11055024  0.50533013  1
  Mo  Mo244  1  0.00592406  0.19930894  -0.00918878  1
  Mo  Mo245  1  0.79765164  0.59606829  0.60149584  1
  Mo  Mo246  1  -0.00112232  0.40192910  0.80236260  1
  Mo  Mo247  1  0.21281147  0.39460814  0.20672295  1
  Mo  Mo248  1  0.89632254  0.89700560  0.29804938  1
  Mo  Mo249  1  0.50436219  0.90705964  0.49779976  1
