# generated using pymatgen
data_HfZrTaTiMo
_symmetry_space_group_name_H-M   'P 1'
_cell_length_a   16.89438552
_cell_length_b   16.87972178
_cell_length_c   16.88457227
_cell_angle_alpha   90.03178902
_cell_angle_beta   89.91823096
_cell_angle_gamma   90.00972903
_symmetry_Int_Tables_number   1
_chemical_formula_structural   HfZrTaTiMo
_chemical_formula_sum   'Hf50 Zr50 Ta50 Ti50 Mo50'
_cell_volume   4815.01043257
_cell_formula_units_Z   50
loop_
 _symmetry_equiv_pos_site_id
 _symmetry_equiv_pos_as_xyz
  1  'x, y, z'
loop_
 _atom_site_type_symbol
 _atom_site_label
 _atom_site_symmetry_multiplicity
 _atom_site_fract_x
 _atom_site_fract_y
 _atom_site_fract_z
 _atom_site_occupancy
  Hf  Hf0  1  0.59789070  0.60277756  -0.00792913  1
  Hf  Hf1  1  0.59362540  0.20251132  0.39352009  1
  Hf  Hf2  1  0.20544198  -0.00238274  0.80075063  1
  Hf  Hf3  1  0.59676127  0.19158606  0.00516426  1
  Hf  Hf4  1  0.10401397  0.30505723  0.69491174  1
  Hf  Hf5  1  0.40408376  0.00103426  0.20685217  1
  Hf  Hf6  1  0.89552833  0.10610239  0.29915802  1
  Hf  Hf7  1  0.51279395  0.09712374  0.50240965  1
  Hf  Hf8  1  0.40530975  0.80364817  0.21165065  1
  Hf  Hf9  1  0.59850978  0.39015328  0.60355161  1
  Hf  Hf10  1  0.60334270  0.81481047  0.00198701  1
  Hf  Hf11  1  0.00169798  0.40824209  0.79374945  1
  Hf  Hf12  1  0.20415008  0.79421292  0.79343538  1
  Hf  Hf13  1  -0.00001577  0.19505387  -0.00200910  1
  Hf  Hf14  1  -0.00311363  0.20930453  0.18959485  1
  Hf  Hf15  1  0.00770441  0.80069295  0.40109174  1
  Hf  Hf16  1  0.30281044  0.30023722  0.89096543  1
  Hf  Hf17  1  0.89524369  0.29796890  0.89900938  1
  Hf  Hf18  1  0.29300748  0.09817998  0.50076323  1
  Hf  Hf19  1  0.29976912  0.10642199  0.70339127  1
  Hf  Hf20  1  0.49831782  0.71095712  0.10296989  1
  Hf  Hf21  1  0.10384445  0.69468460  0.90484020  1
  Hf  Hf22  1  -0.00419175  0.59269675  0.19601429  1
  Hf  Hf23  1  0.30006368  0.31329512  0.51205926  1
  Hf  Hf24  1  0.20057212  0.40888167  0.40131910  1
  Hf  Hf25  1  0.29794822  0.70165752  0.10943639  1
  Hf  Hf26  1  0.30061849  0.30576619  0.29910380  1
  Hf  Hf27  1  0.69537532  0.29896099  0.09971779  1
  Hf  Hf28  1  0.68884868  0.09058161  0.69229966  1
  Hf  Hf29  1  0.69401151  0.08702608  0.88722677  1
  Hf  Hf30  1  0.29817432  0.49681927  0.89622973  1
  Hf  Hf31  1  0.30380871  0.50913060  0.50597469  1
  Hf  Hf32  1  0.70580118  0.29449762  0.49512000  1
  Hf  Hf33  1  0.10950626  0.90396801  0.50685064  1
  Hf  Hf34  1  0.19163561  0.20484271  0.40684217  1
  Hf  Hf35  1  0.39736763  0.40216077  0.00612932  1
  Hf  Hf36  1  0.79552944  0.80463196  0.20112652  1
  Hf  Hf37  1  0.30839628  0.70174924  0.90063992  1
  Hf  Hf38  1  0.19933371  -0.00559436  0.20224900  1
  Hf  Hf39  1  -0.00023174  0.59774959  0.00507915  1
  Hf  Hf40  1  0.49450903  0.09611857  0.89458867  1
  Hf  Hf41  1  0.09287868  0.31146202  0.29709921  1
  Hf  Hf42  1  0.59983866  0.39746654  0.21118918  1
  Hf  Hf43  1  0.79167389  0.18941396  -0.00062895  1
  Hf  Hf44  1  0.90310373  0.69860915  0.69913926  1
  Hf  Hf45  1  0.70207277  0.50145050  0.69935177  1
  Hf  Hf46  1  0.00769088  -0.00981776  0.19858733  1
  Hf  Hf47  1  0.29461797  0.89743204  0.50771747  1
  Hf  Hf48  1  0.00191987  0.20342212  0.59063848  1
  Hf  Hf49  1  0.00850808  0.79911062  0.79977685  1
  Zr  Zr50  1  0.29839119  0.30795123  0.10473956  1
  Zr  Zr51  1  0.09155612  0.10722764  0.30407589  1
  Zr  Zr52  1  0.10495934  0.30606320  0.89891088  1
  Zr  Zr53  1  0.59892904  0.59597266  0.20860429  1
  Zr  Zr54  1  0.69090028  0.70231081  0.30983539  1
  Zr  Zr55  1  0.70180514  0.49427447  0.89785182  1
  Zr  Zr56  1  0.39529482  0.79357420  0.39759609  1
  Zr  Zr57  1  0.89810352  0.89485916  0.09724913  1
  Zr  Zr58  1  0.49074332  0.29657465  0.89584336  1
  Zr  Zr59  1  -0.00511366  0.01817060  0.59682534  1
  Zr  Zr60  1  0.79517132  0.80030929  0.60090375  1
  Zr  Zr61  1  0.40328004  0.00279324  0.60202108  1
  Zr  Zr62  1  0.89895032  0.70917988  0.90541995  1
  Zr  Zr63  1  0.20103667  0.19710456  0.00222075  1
  Zr  Zr64  1  0.20201213  0.19515585  0.19995673  1
  Zr  Zr65  1  0.31263772  0.89348519  0.90041727  1
  Zr  Zr66  1  0.30634740  0.89375727  0.09785151  1
  Zr  Zr67  1  0.90499331  0.70093208  0.30050594  1
  Zr  Zr68  1  0.10968959  0.69343026  0.29532610  1
  Zr  Zr69  1  0.50012089  0.49645589  0.10707329  1
  Zr  Zr70  1  0.10149123  0.10082571  0.89113064  1
  Zr  Zr71  1  0.50514897  0.90067565  0.69620900  1
  Zr  Zr72  1  0.00281522  -0.00087822  0.40326900  1
  Zr  Zr73  1  0.10828932  0.90297982  0.68990739  1
  Zr  Zr74  1  0.40369179  0.20365200  0.60146601  1
  Zr  Zr75  1  0.19921511  0.59468308  0.78761331  1
  Zr  Zr76  1  0.70553349  0.49434327  0.09289834  1
  Zr  Zr77  1  0.90036737  0.90475640  0.70320009  1
  Zr  Zr78  1  0.77775212  -0.01086478  0.00542143  1
  Zr  Zr79  1  0.39766271  0.00418473  0.38728173  1
  Zr  Zr80  1  0.69840948  0.70342896  0.10315751  1
  Zr  Zr81  1  0.50638620  0.89488332  0.49388842  1
  Zr  Zr82  1  0.88913981  0.30966117  0.09643678  1
  Zr  Zr83  1  0.40004895  0.59849414  0.00497707  1
  Zr  Zr84  1  0.59826850  0.60381501  0.60610152  1
  Zr  Zr85  1  0.80551968  -0.00638887  0.40475258  1
  Zr  Zr86  1  0.89291182  0.08948671  0.10200438  1
  Zr  Zr87  1  0.80134101  0.38864117  0.78815178  1
  Zr  Zr88  1  -0.00253305  0.40992931  0.00385354  1
  Zr  Zr89  1  0.89742590  0.50759173  0.69089168  1
  Zr  Zr90  1  0.89573692  0.49876732  0.49974326  1
  Zr  Zr91  1  0.70102771  0.49811991  0.49767111  1
  Zr  Zr92  1  0.59551027  0.20236186  0.78593195  1
  Zr  Zr93  1  0.89557805  0.90232007  0.89791708  1
  Zr  Zr94  1  0.49619362  0.49497971  0.88403631  1
  Zr  Zr95  1  0.60776798  0.79924056  0.79256612  1
  Zr  Zr96  1  0.69423024  0.08970943  0.30085674  1
  Zr  Zr97  1  0.80216838  0.40663755  0.20867870  1
  Zr  Zr98  1  0.80712230  0.20101801  0.60902163  1
  Zr  Zr99  1  0.80097181  0.79752089  0.41082129  1
  Ta  Ta100  1  0.59496203  0.39917907  0.39887533  1
  Ta  Ta101  1  0.39847380  0.20023772  0.39575844  1
  Ta  Ta102  1  0.49456940  0.71123062  0.89375554  1
  Ta  Ta103  1  0.19806289  0.00071721  0.39467383  1
  Ta  Ta104  1  0.01394373  0.80514528  0.19701588  1
  Ta  Ta105  1  0.48460386  0.30554124  0.70185521  1
  Ta  Ta106  1  0.20370371  0.59623531  0.00920423  1
  Ta  Ta107  1  0.30480713  0.89324985  0.69496596  1
  Ta  Ta108  1  0.89696430  0.29883774  0.30979456  1
  Ta  Ta109  1  0.00956922  -0.00394912  -0.00267419  1
  Ta  Ta110  1  0.49582216  0.50167884  0.50156279  1
  Ta  Ta111  1  0.60070549  0.60757220  0.79606969  1
  Ta  Ta112  1  0.89848964  0.30437243  0.48815670  1
  Ta  Ta113  1  -0.00947560  0.19717576  0.78665011  1
  Ta  Ta114  1  0.20331253  0.40586542  0.78582061  1
  Ta  Ta115  1  0.40120793  0.19027717  0.20725621  1
  Ta  Ta116  1  0.49534963  0.29666360  0.11117044  1
  Ta  Ta117  1  0.19372495  0.20484554  0.59605263  1
  Ta  Ta118  1  0.79828579  0.60800774  0.80282990  1
  Ta  Ta119  1  0.20079727  0.79468137  0.40324110  1
  Ta  Ta120  1  0.40359441  0.40338344  0.40040865  1
  Ta  Ta121  1  0.40262144  0.00065467  0.79507901  1
  Ta  Ta122  1  0.19602197  0.79982615  0.00558572  1
  Ta  Ta123  1  0.39673551  0.60192705  0.39967002  1
  Ta  Ta124  1  0.80622257  0.60025245  0.00240079  1
  Ta  Ta125  1  0.60953007  0.79187809  0.59823486  1
  Ta  Ta126  1  0.80034362  0.60220543  0.40195726  1
  Ta  Ta127  1  0.20048368  -0.00350545  0.00076879  1
  Ta  Ta128  1  0.68986803  0.90009431  0.30400941  1
  Ta  Ta129  1  0.00157275  0.59299030  0.80286310  1
  Ta  Ta130  1  0.80026844  0.19604047  0.79219351  1
  Ta  Ta131  1  0.30534794  0.09386164  0.09749678  1
  Ta  Ta132  1  0.78975525  0.19679001  0.20096868  1
  Ta  Ta133  1  0.80033923  0.00218817  0.59810652  1
  Ta  Ta134  1  0.50170600  0.69297531  0.49695839  1
  Ta  Ta135  1  0.69659836  0.09932762  0.50076117  1
  Ta  Ta136  1  0.68984873  0.90666881  0.49970258  1
  Ta  Ta137  1  0.59532400  -0.00452256  0.00848628  1
  Ta  Ta138  1  0.00594703  0.59267134  0.40310804  1
  Ta  Ta139  1  0.80619522  0.59757803  0.20151177  1
  Ta  Ta140  1  0.69900514  0.29823387  0.89876270  1
  Ta  Ta141  1  0.10653995  0.50108701  0.50554216  1
  Ta  Ta142  1  0.59480830  0.39071116  -0.00256572  1
  Ta  Ta143  1  0.70192942  0.70267554  0.89929199  1
  Ta  Ta144  1  0.49953180  0.90121500  0.89671008  1
  Ta  Ta145  1  0.39621851  0.59944491  0.21427221  1
  Ta  Ta146  1  0.49316597  0.30195751  0.29855509  1
  Ta  Ta147  1  0.89479103  0.09070526  0.89101489  1
  Ta  Ta148  1  0.00318104  0.39747773  0.59529380  1
  Ta  Ta149  1  0.11347148  0.49677813  0.10823782  1
  Ti  Ti150  1  0.31185576  0.48891150  0.68866605  1
  Ti  Ti151  1  0.40074801  0.19650413  0.01026127  1
  Ti  Ti152  1  0.89892913  0.90030806  0.29544517  1
  Ti  Ti153  1  0.39483011  0.41297428  0.20867902  1
  Ti  Ti154  1  0.10637836  0.10128822  0.69501261  1
  Ti  Ti155  1  0.09690202  0.69214052  0.69533013  1
  Ti  Ti156  1  0.01337896  0.80411803  0.00922531  1
  Ti  Ti157  1  0.50060323  0.09592307  0.10684418  1
  Ti  Ti158  1  0.00397666  0.40372995  0.40510423  1
  Ti  Ti159  1  0.78588367  0.80506285  -0.00054846  1
  Ti  Ti160  1  0.20349314  0.59944150  0.60335505  1
  Ti  Ti161  1  0.49913413  0.50340626  0.31228356  1
  Ti  Ti162  1  0.49757846  0.30296106  0.49932347  1
  Ti  Ti163  1  0.11004220  0.50459756  0.29736012  1
  Ti  Ti164  1  0.89277907  0.11676440  0.48409251  1
  Ti  Ti165  1  0.10322244  0.89962605  0.90241336  1
  Ti  Ti166  1  0.89934929  0.49705221  0.31048630  1
  Ti  Ti167  1  0.70615424  0.29805764  0.30605611  1
  Ti  Ti168  1  0.31312406  0.69591392  0.69263106  1
  Ti  Ti169  1  0.00728376  0.79160984  0.59536574  1
  Ti  Ti170  1  0.28916872  0.69143067  0.30273245  1
  Ti  Ti171  1  0.70207574  0.50275965  0.31247509  1
  Ti  Ti172  1  0.49357682  0.70215179  0.69993871  1
  Ti  Ti173  1  0.40289448  0.60019858  0.79104551  1
  Ti  Ti174  1  0.90633970  0.89612908  0.50848096  1
  Ti  Ti175  1  0.51851808  0.90290479  0.30115887  1
  Ti  Ti176  1  -0.00519153  0.40910741  0.19921004  1
  Ti  Ti177  1  0.90842074  0.69271001  0.50138234  1
  Ti  Ti178  1  0.78865089  0.61636032  0.59497795  1
  Ti  Ti179  1  0.90000589  0.70546249  0.09990073  1
  Ti  Ti180  1  0.49109106  0.49593807  0.69534553  1
  Ti  Ti181  1  0.59517035  0.19436567  0.20276806  1
  Ti  Ti182  1  0.89133161  0.49940966  0.90214625  1
  Ti  Ti183  1  0.28694781  0.89082928  0.30119834  1
  Ti  Ti184  1  0.00976116  0.59574957  0.59911605  1
  Ti  Ti185  1  0.79020515  0.80451775  0.79620046  1
  Ti  Ti186  1  0.00110671  0.00472154  0.79757282  1
  Ti  Ti187  1  0.10258051  0.09311704  0.09674531  1
  Ti  Ti188  1  0.59938974  0.39478869  0.79310571  1
  Ti  Ti189  1  0.10837010  0.31711396  0.10104264  1
  Ti  Ti190  1  0.30715355  0.10230093  0.90134881  1
  Ti  Ti191  1  0.20082595  0.20554300  0.79366111  1
  Ti  Ti192  1  0.10957898  0.69773921  0.10705057  1
  Ti  Ti193  1  0.50853655  0.70122715  0.30889393  1
  Ti  Ti194  1  0.40702720  -0.00274871  0.00369109  1
  Ti  Ti195  1  0.11001422  0.49773533  0.90574162  1
  Ti  Ti196  1  0.10985457  0.68816817  0.49646244  1
  Ti  Ti197  1  0.40143912  0.78913378  0.59534354  1
  Ti  Ti198  1  0.20590625  0.78144282  0.59795899  1
  Ti  Ti199  1  0.80431430  0.38722734  0.60522605  1
  Mo  Mo200  1  0.79733424  0.40158285  0.39611546  1
  Mo  Mo201  1  0.20116090  0.79841057  0.20437415  1
  Mo  Mo202  1  0.29923972  0.10315324  0.30135984  1
  Mo  Mo203  1  0.40403581  0.60372749  0.60300784  1
  Mo  Mo204  1  0.59778017  0.79731336  0.40495005  1
  Mo  Mo205  1  0.79323446  -0.00494037  0.20452201  1
  Mo  Mo206  1  0.69561441  0.89947934  0.88513631  1
  Mo  Mo207  1  0.49997083  0.10634949  0.30021840  1
  Mo  Mo208  1  -0.00360883  0.21068596  0.40197841  1
  Mo  Mo209  1  0.59513340  0.00014307  0.19788889  1
  Mo  Mo210  1  0.79235459  0.40110517  -0.00796132  1
  Mo  Mo211  1  0.40258800  0.79831451  0.79102181  1
  Mo  Mo212  1  0.70120851  0.90392893  0.69210603  1
  Mo  Mo213  1  0.10868689  0.89241394  0.30260235  1
  Mo  Mo214  1  0.10447344  0.10285234  0.50123347  1
  Mo  Mo215  1  0.30502191  0.50468491  0.30561249  1
  Mo  Mo216  1  0.69386692  0.69958717  0.49928446  1
  Mo  Mo217  1  0.40568708  0.40402483  0.59800442  1
  Mo  Mo218  1  0.09916201  0.50303871  0.69008235  1
  Mo  Mo219  1  0.19840658  0.40576621  0.60121513  1
  Mo  Mo220  1  0.68965042  0.90479943  0.12191509  1
  Mo  Mo221  1  0.20201915  0.40789743  0.20501090  1
  Mo  Mo222  1  0.09657376  0.30991613  0.49864687  1
  Mo  Mo223  1  0.68939358  0.09722231  0.10988979  1
  Mo  Mo224  1  0.50009797  0.90514536  0.09962269  1
  Mo  Mo225  1  0.39502512  0.19656759  0.79721138  1
  Mo  Mo226  1  0.10492072  0.89593308  0.09489491  1
  Mo  Mo227  1  0.60127853  -0.00045697  0.39904307  1
  Mo  Mo228  1  0.90759857  0.29871284  0.69518349  1
  Mo  Mo229  1  0.89513337  0.09759061  0.70767837  1
  Mo  Mo230  1  0.59643071  0.20358365  0.59577072  1
  Mo  Mo231  1  0.20055178  0.01194218  0.60137166  1
  Mo  Mo232  1  0.79409818  -0.00346515  0.79275980  1
  Mo  Mo233  1  0.40667024  0.80236925  -0.00270265  1
  Mo  Mo234  1  0.69275534  0.29689481  0.69771070  1
  Mo  Mo235  1  0.70603550  0.69704191  0.70303382  1
  Mo  Mo236  1  0.29990155  0.69753944  0.50446599  1
  Mo  Mo237  1  0.59543556  0.80713435  0.20657891  1
  Mo  Mo238  1  0.79627858  0.20227670  0.39601230  1
  Mo  Mo239  1  0.39296651  0.40122702  0.78930576  1
  Mo  Mo240  1  0.20601067  0.59597846  0.20229650  1
  Mo  Mo241  1  0.89981402  0.50676134  0.10073319  1
  Mo  Mo242  1  0.29593826  0.30282005  0.70024442  1
  Mo  Mo243  1  0.29697324  0.50347533  0.11390992  1
  Mo  Mo244  1  0.49888098  0.10131374  0.69993987  1
  Mo  Mo245  1  0.20017526  0.60042037  0.40313406  1
  Mo  Mo246  1  0.59430069  -0.00597052  0.79843151  1
  Mo  Mo247  1  0.59294730  0.59439671  0.40431048  1
  Mo  Mo248  1  0.60517924  -0.00426299  0.59857434  1
  Mo  Mo249  1  0.20095598  0.40848666  0.00174907  1
