# generated using pymatgen
data_HfZrTaTiMo
_symmetry_space_group_name_H-M   'P 1'
_cell_length_a   16.89005001
_cell_length_b   16.89032567
_cell_length_c   16.89261237
_cell_angle_alpha   89.96584992
_cell_angle_beta   89.98070575
_cell_angle_gamma   90.00721950
_symmetry_Int_Tables_number   1
_chemical_formula_structural   HfZrTaTiMo
_chemical_formula_sum   'Hf50 Zr50 Ta50 Ti50 Mo50'
_cell_volume   4819.09702633
_cell_formula_units_Z   50
loop_
 _symmetry_equiv_pos_site_id
 _symmetry_equiv_pos_as_xyz
  1  'x, y, z'
loop_
 _atom_site_type_symbol
 _atom_site_label
 _atom_site_symmetry_multiplicity
 _atom_site_fract_x
 _atom_site_fract_y
 _atom_site_fract_z
 _atom_site_occupancy
  Hf  Hf0  1  0.61053919  0.19282732  0.39937929  1
  Hf  Hf1  1  0.29688506  0.10651731  0.90276808  1
  Hf  Hf2  1  0.19457910  0.60198541  0.79531146  1
  Hf  Hf3  1  0.09400052  0.89757805  0.29260123  1
  Hf  Hf4  1  0.19822120  0.00455181  0.59710656  1
  Hf  Hf5  1  0.30572308  0.50005184  0.69987758  1
  Hf  Hf6  1  0.80194937  0.00296115  0.39700055  1
  Hf  Hf7  1  0.49751965  0.11037231  0.70612184  1
  Hf  Hf8  1  0.08376509  0.10257059  0.69852192  1
  Hf  Hf9  1  0.30312195  0.70282929  0.90332167  1
  Hf  Hf10  1  -0.01447644  0.00178893  0.80317021  1
  Hf  Hf11  1  0.40779662  0.40023996  -0.00645630  1
  Hf  Hf12  1  0.30684164  0.89197405  0.29001313  1
  Hf  Hf13  1  0.40047542  0.39889639  0.40331566  1
  Hf  Hf14  1  0.60792257  0.59956441  -0.01013146  1
  Hf  Hf15  1  0.60105934  0.20534304  0.00421267  1
  Hf  Hf16  1  0.40670749  0.20172802  0.19626552  1
  Hf  Hf17  1  0.19974467  -0.00028864  0.40814897  1
  Hf  Hf18  1  0.29523648  0.10301159  0.29256967  1
  Hf  Hf19  1  0.41339808  0.79755708  0.40236394  1
  Hf  Hf20  1  0.79932136  0.79780105  0.79767830  1
  Hf  Hf21  1  0.90055927  0.28590082  0.69610699  1
  Hf  Hf22  1  0.70185928  0.89383510  0.90680385  1
  Hf  Hf23  1  0.89768437  0.29880928  0.10792238  1
  Hf  Hf24  1  0.10233183  0.10551436  0.29751728  1
  Hf  Hf25  1  0.69263965  0.50590491  0.69615943  1
  Hf  Hf26  1  0.19240738  0.79617322  0.39352689  1
  Hf  Hf27  1  -0.00000066  0.39529665  0.80640294  1
  Hf  Hf28  1  0.69312673  0.69400712  0.50123543  1
  Hf  Hf29  1  -0.00279127  0.80346901  0.39853745  1
  Hf  Hf30  1  0.59890463  0.80922208  0.39927268  1
  Hf  Hf31  1  -0.00847311  0.60530078  0.79400685  1
  Hf  Hf32  1  0.80028575  0.39921223  0.59351233  1
  Hf  Hf33  1  -0.01574640  0.80176352  0.79605260  1
  Hf  Hf34  1  0.89888054  0.70330138  0.92007199  1
  Hf  Hf35  1  0.80491720  0.60049634  0.39388796  1
  Hf  Hf36  1  0.09527354  0.70485070  0.90741760  1
  Hf  Hf37  1  -0.00844356  0.00304975  0.40292728  1
  Hf  Hf38  1  -0.01346180  -0.00465383  0.19943695  1
  Hf  Hf39  1  0.80049779  0.40323255  0.39478813  1
  Hf  Hf40  1  0.49504510  0.09986296  0.89948919  1
  Hf  Hf41  1  0.08578078  0.89900540  0.68407954  1
  Hf  Hf42  1  0.90760920  0.49986517  0.49739059  1
  Hf  Hf43  1  0.39051092  -0.01232221  0.80431715  1
  Hf  Hf44  1  0.70590982  0.29773902  0.29415983  1
  Hf  Hf45  1  0.20252920  0.80318302  0.79786549  1
  Hf  Hf46  1  0.29751879  0.29689360  0.09964285  1
  Hf  Hf47  1  0.80531611  0.81008827  0.40130170  1
  Hf  Hf48  1  0.70427188  0.29464038  0.69715673  1
  Hf  Hf49  1  0.61258614  0.00566473  0.59432400  1
  Zr  Zr50  1  0.39135171  0.00790167  0.59860095  1
  Zr  Zr51  1  0.09430699  0.89176664  0.91160053  1
  Zr  Zr52  1  0.59633364  0.39860620  0.59899512  1
  Zr  Zr53  1  0.30047596  0.89098564  0.50449037  1
  Zr  Zr54  1  0.10217685  0.10983301  0.09852904  1
  Zr  Zr55  1  0.71183977  0.10001259  0.70016577  1
  Zr  Zr56  1  0.50223960  0.49836797  0.09716230  1
  Zr  Zr57  1  0.59283487  0.79905326  0.01117610  1
  Zr  Zr58  1  0.50195665  0.10372496  0.50318062  1
  Zr  Zr59  1  0.19827467  -0.00365869  0.79971880  1
  Zr  Zr60  1  0.30762283  0.50419367  0.89448404  1
  Zr  Zr61  1  0.60191984  0.39952266  0.20065005  1
  Zr  Zr62  1  0.29765872  0.69680859  0.50822801  1
  Zr  Zr63  1  0.50461416  0.89648455  0.69732079  1
  Zr  Zr64  1  0.08505454  0.29808115  0.69110707  1
  Zr  Zr65  1  0.30760262  0.70654390  0.09602771  1
  Zr  Zr66  1  0.79867930  0.40380200  -0.00105484  1
  Zr  Zr67  1  0.59798554  0.40590904  0.81727230  1
  Zr  Zr68  1  0.70269175  0.70588837  0.29765824  1
  Zr  Zr69  1  0.20839330  0.20038484  0.59086317  1
  Zr  Zr70  1  0.20265690  -0.00857875  0.18691771  1
  Zr  Zr71  1  0.80113510  -0.00298968  0.02086090  1
  Zr  Zr72  1  0.60337113  0.60309508  0.19381421  1
  Zr  Zr73  1  0.79942568  0.19249271  0.00476856  1
  Zr  Zr74  1  0.09530030  0.50401264  0.90178099  1
  Zr  Zr75  1  0.09379243  0.70386975  0.51003221  1
  Zr  Zr76  1  0.29972791  0.50330342  0.50677751  1
  Zr  Zr77  1  0.19996935  0.39386723  0.40224626  1
  Zr  Zr78  1  0.60200720  -0.01081846  0.80177888  1
  Zr  Zr79  1  0.30761804  0.69882995  0.28848028  1
  Zr  Zr80  1  0.50511466  0.09470671  0.29573843  1
  Zr  Zr81  1  0.90094633  0.49393921  0.69817628  1
  Zr  Zr82  1  0.38822999  0.20306196  0.40766744  1
  Zr  Zr83  1  0.78998382  0.60128398  0.81330249  1
  Zr  Zr84  1  0.89586506  0.29826188  0.29033429  1
  Zr  Zr85  1  0.19178552  0.60098803  0.39445912  1
  Zr  Zr86  1  0.08522524  0.71472075  0.09073245  1
  Zr  Zr87  1  0.39634129  -0.01276323  0.00509873  1
  Zr  Zr88  1  -0.01168641  0.00273220  0.00458528  1
  Zr  Zr89  1  0.19186801  0.39044055  0.20068719  1
  Zr  Zr90  1  0.19872972  0.20549987  0.79259206  1
  Zr  Zr91  1  0.79483559  0.39326789  0.81140863  1
  Zr  Zr92  1  0.09607351  0.50443081  0.29180245  1
  Zr  Zr93  1  0.41106992  0.60312455  0.40561616  1
  Zr  Zr94  1  0.70835066  0.70838662  0.10300836  1
  Zr  Zr95  1  0.60751984  0.21004515  0.80868221  1
  Zr  Zr96  1  0.40626513  -0.00653715  0.39745942  1
  Zr  Zr97  1  0.19502416  0.40139727  -0.00183650  1
  Zr  Zr98  1  0.30029890  0.50751943  0.10428486  1
  Zr  Zr99  1  0.70312092  0.09370818  0.90095851  1
  Ta  Ta100  1  0.41757600  0.60581912  0.60450661  1
  Ta  Ta101  1  0.08959258  0.29769738  0.49957544  1
  Ta  Ta102  1  0.50423062  0.30000868  0.30324833  1
  Ta  Ta103  1  0.20249642  -0.00958304  0.00070358  1
  Ta  Ta104  1  0.09531727  0.29067196  0.90442082  1
  Ta  Ta105  1  -0.00101437  0.60556457  0.39466753  1
  Ta  Ta106  1  0.80122849  0.60410833  0.60079032  1
  Ta  Ta107  1  0.48981706  0.30280716  0.70311870  1
  Ta  Ta108  1  0.89966864  0.70077787  0.50163936  1
  Ta  Ta109  1  0.40448455  0.79642837  0.79907926  1
  Ta  Ta110  1  0.50292796  0.30017806  0.50144681  1
  Ta  Ta111  1  0.30028109  0.10402604  0.09688821  1
  Ta  Ta112  1  0.80834427  0.59814687  0.19787444  1
  Ta  Ta113  1  0.80337921  0.18837647  0.39729102  1
  Ta  Ta114  1  0.60504932  0.19419582  0.19653313  1
  Ta  Ta115  1  0.41261667  0.78803075  0.60308685  1
  Ta  Ta116  1  0.70309011  0.29711883  0.49565403  1
  Ta  Ta117  1  0.90429346  0.70552288  0.29207626  1
  Ta  Ta118  1  0.80139092  0.79688998  0.60266168  1
  Ta  Ta119  1  0.00358018  0.39516321  0.39421143  1
  Ta  Ta120  1  0.70764958  0.29868564  0.10820029  1
  Ta  Ta121  1  0.70165603  0.90340374  0.28702044  1
  Ta  Ta122  1  0.69540169  0.50555646  0.49614506  1
  Ta  Ta123  1  0.30480858  0.50382404  0.29259709  1
  Ta  Ta124  1  0.30261622  0.29958978  0.89232530  1
  Ta  Ta125  1  -0.00404751  0.60337879  0.60224417  1
  Ta  Ta126  1  0.40596796  -0.00682329  0.19181172  1
  Ta  Ta127  1  0.60071302  0.39998020  0.40162964  1
  Ta  Ta128  1  0.40228262  0.20366320  0.00046545  1
  Ta  Ta129  1  0.50274073  0.50138694  0.30441978  1
  Ta  Ta130  1  0.49698169  0.49932666  0.70411658  1
  Ta  Ta131  1  0.09664423  0.49547823  0.69075115  1
  Ta  Ta132  1  0.40272128  0.39759465  0.20770393  1
  Ta  Ta133  1  0.60226817  0.78822595  0.80434318  1
  Ta  Ta134  1  0.19089953  0.80150083  0.18913004  1
  Ta  Ta135  1  0.00130908  0.39434093  0.00760959  1
  Ta  Ta136  1  0.61129143  -0.00366498  0.39768306  1
  Ta  Ta137  1  0.39229182  0.21137389  0.60092759  1
  Ta  Ta138  1  0.19972634  0.39573588  0.79337550  1
  Ta  Ta139  1  0.50914039  0.70132586  0.29485225  1
  Ta  Ta140  1  0.19979445  0.39425472  0.60003939  1
  Ta  Ta141  1  0.90860732  0.28744841  0.90622825  1
  Ta  Ta142  1  0.59963559  -0.00416900  0.01233861  1
  Ta  Ta143  1  0.59653885  0.60452373  0.80511492  1
  Ta  Ta144  1  0.69487224  0.69819583  0.69653207  1
  Ta  Ta145  1  0.19609422  0.60440776  0.00524859  1
  Ta  Ta146  1  0.09242663  0.10817625  0.90400170  1
  Ta  Ta147  1  0.30522529  0.69847664  0.69883403  1
  Ta  Ta148  1  0.90212949  0.29745549  0.49692441  1
  Ta  Ta149  1  -0.00483921  0.19850047  0.39671068  1
  Ti  Ti150  1  0.09356213  0.49565349  0.50527952  1
  Ti  Ti151  1  0.09396402  0.70350799  0.69544156  1
  Ti  Ti152  1  0.90223050  0.49707466  0.10847647  1
  Ti  Ti153  1  0.70527527  0.89887989  0.50745047  1
  Ti  Ti154  1  0.30629712  0.10904913  0.70656170  1
  Ti  Ti155  1  -0.01498433  0.18487706  0.58760340  1
  Ti  Ti156  1  0.81097186  0.81130949  0.19790548  1
  Ti  Ti157  1  0.19110568  0.61159303  0.19675924  1
  Ti  Ti158  1  0.81095433  0.19158924  0.80821554  1
  Ti  Ti159  1  0.41205068  0.60463729  0.79816130  1
  Ti  Ti160  1  0.09389615  0.10161715  0.49922887  1
  Ti  Ti161  1  0.48763065  0.29733656  0.89141689  1
  Ti  Ti162  1  0.50410774  0.30284337  0.10197816  1
  Ti  Ti163  1  0.39872407  0.39699192  0.59802401  1
  Ti  Ti164  1  0.19770082  0.20476015  0.00128586  1
  Ti  Ti165  1  0.60689384  0.39607422  -0.00746342  1
  Ti  Ti166  1  0.89594907  0.90504632  0.68777697  1
  Ti  Ti167  1  0.70474191  0.49513816  0.10259743  1
  Ti  Ti168  1  0.09662825  0.50372700  0.10195331  1
  Ti  Ti169  1  0.59838668  0.79301468  0.60241844  1
  Ti  Ti170  1  0.29651421  0.29693025  0.29555264  1
  Ti  Ti171  1  0.80049478  0.18952016  0.58472474  1
  Ti  Ti172  1  0.69598064  0.50373355  0.30121277  1
  Ti  Ti173  1  0.60231238  0.20142034  0.59668672  1
  Ti  Ti174  1  0.19351585  0.59782821  0.60590383  1
  Ti  Ti175  1  0.49723951  0.70361934  0.90222305  1
  Ti  Ti176  1  -0.00396411  0.61079980  0.19750786  1
  Ti  Ti177  1  0.79793934  0.59680073  0.00625213  1
  Ti  Ti178  1  0.42163073  0.80664337  0.18654649  1
  Ti  Ti179  1  0.49773895  0.89167647  0.90439225  1
  Ti  Ti180  1  0.30321321  0.88963305  0.69476547  1
  Ti  Ti181  1  0.00724795  0.39432610  0.19804395  1
  Ti  Ti182  1  0.41265372  0.60427079  -0.00019066  1
  Ti  Ti183  1  0.50553221  0.90075702  0.50768418  1
  Ti  Ti184  1  0.80993155  -0.00591244  0.80387175  1
  Ti  Ti185  1  0.80897463  0.00825761  0.59218862  1
  Ti  Ti186  1  0.90263540  0.50015163  0.90728707  1
  Ti  Ti187  1  0.90969177  0.89974532  0.51375966  1
  Ti  Ti188  1  0.01107718  0.20856944  0.20392581  1
  Ti  Ti189  1  -0.00693640  0.59385659  0.01155207  1
  Ti  Ti190  1  0.41171964  0.60059806  0.19813080  1
  Ti  Ti191  1  0.70391036  0.89589151  0.69561491  1
  Ti  Ti192  1  0.89758206  0.11236218  0.11821977  1
  Ti  Ti193  1  0.90574535  0.49959903  0.29092994  1
  Ti  Ti194  1  0.80446138  0.80763831  0.00982543  1
  Ti  Ti195  1  0.60427255  -0.00463172  0.19400878  1
  Ti  Ti196  1  0.19683996  0.80040049  0.60177811  1
  Ti  Ti197  1  0.50088849  0.09649720  0.09837830  1
  Ti  Ti198  1  0.51082820  0.50595305  0.50213545  1
  Ti  Ti199  1  0.19676567  0.20581785  0.40337857  1
  Mo  Mo200  1  0.70474855  0.10174963  0.49743312  1
  Mo  Mo201  1  0.50413473  0.90246325  0.10340059  1
  Mo  Mo202  1  0.09547076  0.29851609  0.09746015  1
  Mo  Mo203  1  0.50375069  0.69709243  0.70509377  1
  Mo  Mo204  1  0.09780756  0.89833559  0.09651701  1
  Mo  Mo205  1  -0.01072159  0.79875781  0.60059457  1
  Mo  Mo206  1  0.70157666  0.09209274  0.29484041  1
  Mo  Mo207  1  -0.02131755  0.81175568  0.00357847  1
  Mo  Mo208  1  0.89955045  0.89243122  0.10543444  1
  Mo  Mo209  1  0.89757740  0.10167892  0.49662480  1
  Mo  Mo210  1  0.70154781  0.90128917  0.10833516  1
  Mo  Mo211  1  0.80040527  0.42004157  0.19918167  1
  Mo  Mo212  1  0.90057984  0.09999755  0.89596628  1
  Mo  Mo213  1  0.00159719  0.40158282  0.58884276  1
  Mo  Mo214  1  0.69868868  0.50338274  0.90593224  1
  Mo  Mo215  1  0.59889407  0.59826541  0.60251910  1
  Mo  Mo216  1  0.09507060  0.90098163  0.50347142  1
  Mo  Mo217  1  0.20332234  0.20042300  0.19836566  1
  Mo  Mo218  1  0.30381418  0.89317466  0.09788226  1
  Mo  Mo219  1  0.89456586  0.89855901  0.29619686  1
  Mo  Mo220  1  -0.00213870  0.20045899  0.00501346  1
  Mo  Mo221  1  0.50083988  0.50610137  0.89600795  1
  Mo  Mo222  1  0.29793988  0.30457409  0.50297380  1
  Mo  Mo223  1  0.71094109  0.29812941  0.90860865  1
  Mo  Mo224  1  0.70310457  0.70266958  0.90249480  1
  Mo  Mo225  1  0.90088408  0.10605048  0.29602580  1
  Mo  Mo226  1  0.89149706  0.89876190  0.90584803  1
  Mo  Mo227  1  -0.00605295  0.00269751  0.59368016  1
  Mo  Mo228  1  0.21317050  0.80666870  0.00334237  1
  Mo  Mo229  1  0.49816419  0.69977844  0.10172715  1
  Mo  Mo230  1  0.30483745  0.30965989  0.69934205  1
  Mo  Mo231  1  0.39679598  0.20578155  0.80074353  1
  Mo  Mo232  1  0.40660779  0.79988453  -0.00521771  1
  Mo  Mo233  1  0.29516049  0.10701789  0.49780538  1
  Mo  Mo234  1  0.89313734  0.09639876  0.69526049  1
  Mo  Mo235  1  0.30006190  0.88955629  0.90321399  1
  Mo  Mo236  1  0.09004980  0.70267502  0.28689965  1
  Mo  Mo237  1  0.60056953  0.59387820  0.39716447  1
  Mo  Mo238  1  0.89321719  0.69940342  0.69120156  1
  Mo  Mo239  1  0.51094507  0.69927080  0.50415737  1
  Mo  Mo240  1  0.09690395  0.29477052  0.30427599  1
  Mo  Mo241  1  0.39969075  0.39995954  0.79766345  1
  Mo  Mo242  1  0.59550906  0.80841536  0.20242757  1
  Mo  Mo243  1  0.50832050  0.89900332  0.29263768  1
  Mo  Mo244  1  0.89529301  0.69816681  0.10466759  1
  Mo  Mo245  1  -0.00674830  0.19501115  0.80762831  1
  Mo  Mo246  1  0.69119202  0.09820900  0.10841987  1
  Mo  Mo247  1  0.79080979  0.18255851  0.20285892  1
  Mo  Mo248  1  -0.00659269  0.80278051  0.19748833  1
  Mo  Mo249  1  0.79856457  -0.00011742  0.20494251  1
