# generated using pymatgen
data_HfZrTaTiMo
_symmetry_space_group_name_H-M   'P 1'
_cell_length_a   16.89613425
_cell_length_b   16.88406020
_cell_length_c   16.90085488
_cell_angle_alpha   89.97754141
_cell_angle_beta   90.03930247
_cell_angle_gamma   90.01152363
_symmetry_Int_Tables_number   1
_chemical_formula_structural   HfZrTaTiMo
_chemical_formula_sum   'Hf50 Zr50 Ta50 Ti50 Mo50'
_cell_volume   4821.39565307
_cell_formula_units_Z   50
loop_
 _symmetry_equiv_pos_site_id
 _symmetry_equiv_pos_as_xyz
  1  'x, y, z'
loop_
 _atom_site_type_symbol
 _atom_site_label
 _atom_site_symmetry_multiplicity
 _atom_site_fract_x
 _atom_site_fract_y
 _atom_site_fract_z
 _atom_site_occupancy
  Hf  Hf0  1  0.09876444  0.29635998  0.70062894  1
  Hf  Hf1  1  0.80479278  0.20588827  0.21136137  1
  Hf  Hf2  1  0.80025651  0.39757367  0.79974061  1
  Hf  Hf3  1  0.10664796  0.50157407  0.69389531  1
  Hf  Hf4  1  0.69280294  0.10176892  0.49308230  1
  Hf  Hf5  1  0.10368355  0.10033339  0.30368742  1
  Hf  Hf6  1  0.78145505  0.81213554  0.59889395  1
  Hf  Hf7  1  0.10121346  0.29190817  0.10334558  1
  Hf  Hf8  1  -0.00167472  0.59348269  0.00345287  1
  Hf  Hf9  1  0.89821565  0.90532564  0.50840432  1
  Hf  Hf10  1  0.69365858  0.30231046  0.69523895  1
  Hf  Hf11  1  0.69510213  0.10579109  0.10889060  1
  Hf  Hf12  1  0.20476103  0.19639575  -0.00040963  1
  Hf  Hf13  1  0.20288489  0.80560672  0.19730512  1
  Hf  Hf14  1  0.50069340  0.69209022  0.10258455  1
  Hf  Hf15  1  0.89378994  0.89957422  0.90126951  1
  Hf  Hf16  1  0.10253573  0.29200205  0.50400327  1
  Hf  Hf17  1  -0.00147375  0.39755061  0.19973548  1
  Hf  Hf18  1  0.38892261  0.00352551  0.00950187  1
  Hf  Hf19  1  0.10801395  0.89617555  0.89874632  1
  Hf  Hf20  1  0.20455568  0.00412133  0.01028748  1
  Hf  Hf21  1  0.00097508  0.39490115  0.40224668  1
  Hf  Hf22  1  -0.00238024  0.79148997  0.20036345  1
  Hf  Hf23  1  0.60057400  0.80889448  0.40563898  1
  Hf  Hf24  1  0.69921361  0.90216661  0.10158505  1
  Hf  Hf25  1  0.00619822  0.39943751  -0.00402841  1
  Hf  Hf26  1  0.30842264  0.29315941  0.10589539  1
  Hf  Hf27  1  0.49710999  0.91206251  0.30234133  1
  Hf  Hf28  1  0.39812170  0.39896414  0.20717633  1
  Hf  Hf29  1  0.50065776  0.50472619  0.90733463  1
  Hf  Hf30  1  0.49994517  0.50874858  0.29168811  1
  Hf  Hf31  1  0.69753280  0.49707910  0.28423096  1
  Hf  Hf32  1  0.49541105  0.29942094  0.70871381  1
  Hf  Hf33  1  0.80475334  0.20052922  0.59377925  1
  Hf  Hf34  1  0.40139124  0.59938198  0.40522053  1
  Hf  Hf35  1  0.20026846  0.40118143  -0.00136571  1
  Hf  Hf36  1  0.60468288  0.80292987  0.80013578  1
  Hf  Hf37  1  0.39371040  0.80643328  0.00554460  1
  Hf  Hf38  1  0.49986326  0.10151086  0.29697872  1
  Hf  Hf39  1  0.59993439  0.60407957  0.40697932  1
  Hf  Hf40  1  0.39812842  -0.00756213  0.58859949  1
  Hf  Hf41  1  0.02561673  0.79907648  0.40873461  1
  Hf  Hf42  1  0.89573856  0.69781180  0.69565404  1
  Hf  Hf43  1  0.00398063  0.79678470  0.79031098  1
  Hf  Hf44  1  0.50766323  0.91300065  0.10489726  1
  Hf  Hf45  1  0.09497653  0.10661735  0.11086954  1
  Hf  Hf46  1  0.89865769  0.10242457  0.89124894  1
  Hf  Hf47  1  0.19728338  0.79591281  0.59212909  1
  Hf  Hf48  1  0.39541538  0.79831271  0.80576918  1
  Hf  Hf49  1  0.31336313  0.29889382  0.89501550  1
  Zr  Zr50  1  0.30265985  0.09663289  0.70244055  1
  Zr  Zr51  1  0.09668144  0.09889951  0.69004031  1
  Zr  Zr52  1  0.49682769  0.90417900  0.70131566  1
  Zr  Zr53  1  0.11132338  0.70384268  0.90436433  1
  Zr  Zr54  1  0.50253634  0.09920542  0.89892213  1
  Zr  Zr55  1  0.49120607  0.70005553  0.69870786  1
  Zr  Zr56  1  0.59741872  0.59604509  0.80217910  1
  Zr  Zr57  1  0.00965997  0.80519756  0.60284184  1
  Zr  Zr58  1  0.89409694  0.69291198  0.89914723  1
  Zr  Zr59  1  0.89456034  0.71104144  0.49263895  1
  Zr  Zr60  1  0.00348654  0.60357892  0.39958842  1
  Zr  Zr61  1  0.50861230  0.91088162  0.90607019  1
  Zr  Zr62  1  0.80727668  0.39536095  0.59028520  1
  Zr  Zr63  1  0.78851620  -0.00431894  0.39995471  1
  Zr  Zr64  1  0.19966148  0.20470198  0.80337582  1
  Zr  Zr65  1  0.90203313  0.29546424  0.09627855  1
  Zr  Zr66  1  0.39529485  0.80819517  0.19579997  1
  Zr  Zr67  1  0.89765325  0.88792342  0.31294646  1
  Zr  Zr68  1  0.00519355  0.40426264  0.80136240  1
  Zr  Zr69  1  0.80562596  0.38968777  0.39188269  1
  Zr  Zr70  1  0.79640958  0.60758842  0.39380954  1
  Zr  Zr71  1  0.39950366  0.19319453  0.59602464  1
  Zr  Zr72  1  0.20179964  0.60058426  0.79497209  1
  Zr  Zr73  1  0.29384601  0.70094652  0.90740217  1
  Zr  Zr74  1  0.10896975  0.69364933  0.29101326  1
  Zr  Zr75  1  -0.00949006  -0.00714603  0.78182043  1
  Zr  Zr76  1  0.69510402  0.09436120  0.69537389  1
  Zr  Zr77  1  0.80456583  0.78573059  0.01473395  1
  Zr  Zr78  1  0.69818416  0.90532623  0.90734780  1
  Zr  Zr79  1  0.80436736  0.60698848  0.18588329  1
  Zr  Zr80  1  -0.00547446  0.00392424  0.01076841  1
  Zr  Zr81  1  0.20336569  0.60064747  0.40453582  1
  Zr  Zr82  1  0.79043139  0.59819432  0.58846184  1
  Zr  Zr83  1  0.80131129  0.19901389  -0.00106510  1
  Zr  Zr84  1  0.08896878  0.10683331  0.89636303  1
  Zr  Zr85  1  0.00166659  0.79919229  0.01080793  1
  Zr  Zr86  1  0.90200299  0.50204086  0.29102501  1
  Zr  Zr87  1  0.38748477  0.20247195  0.38838543  1
  Zr  Zr88  1  0.50018835  0.29866910  0.90560537  1
  Zr  Zr89  1  0.50159065  0.10619318  0.11245387  1
  Zr  Zr90  1  0.69438483  0.69517063  0.69910652  1
  Zr  Zr91  1  0.58940848  0.19782208  0.59733451  1
  Zr  Zr92  1  0.49996088  0.70123539  0.29290302  1
  Zr  Zr93  1  0.80137186  0.79328052  0.20730282  1
  Zr  Zr94  1  0.69382816  0.49546923  0.69482285  1
  Zr  Zr95  1  0.69255384  0.09117873  0.90081290  1
  Zr  Zr96  1  0.40613033  0.40488784  0.59667788  1
  Zr  Zr97  1  0.20543591  0.39907801  0.39637087  1
  Zr  Zr98  1  0.40495483  0.40819708  0.01122747  1
  Zr  Zr99  1  0.00525277  0.00046455  0.40529842  1
  Ta  Ta100  1  0.20288556  -0.00228093  0.40456515  1
  Ta  Ta101  1  0.59982938  0.40052468  0.80893151  1
  Ta  Ta102  1  0.28840278  0.89677970  0.89964949  1
  Ta  Ta103  1  0.30355435  0.69534735  0.29319455  1
  Ta  Ta104  1  0.90668850  0.29445420  0.70098108  1
  Ta  Ta105  1  0.80735453  0.20485946  0.40205603  1
  Ta  Ta106  1  0.79566520  0.80508379  0.79331980  1
  Ta  Ta107  1  0.20551043  0.39792249  0.20490511  1
  Ta  Ta108  1  0.58857605  0.60001202  0.58327569  1
  Ta  Ta109  1  0.39475517  0.80289805  0.40504062  1
  Ta  Ta110  1  0.30095229  0.30224498  0.50161636  1
  Ta  Ta111  1  0.11219174  0.68744470  0.09846997  1
  Ta  Ta112  1  0.39919159  0.41299933  0.79796469  1
  Ta  Ta113  1  -0.00686643  0.00016101  0.20522535  1
  Ta  Ta114  1  0.69953832  0.30465423  0.10453197  1
  Ta  Ta115  1  0.90609629  0.50185452  0.50162574  1
  Ta  Ta116  1  0.59383386  0.80094645  0.58843172  1
  Ta  Ta117  1  0.70088541  0.69236087  0.90613281  1
  Ta  Ta118  1  0.30390417  0.30410829  0.70250463  1
  Ta  Ta119  1  0.50290887  0.09393517  0.48310651  1
  Ta  Ta120  1  0.00153828  0.59974222  0.79453816  1
  Ta  Ta121  1  0.00065836  0.40171846  0.59650381  1
  Ta  Ta122  1  0.59461781  0.39711197  0.19199791  1
  Ta  Ta123  1  0.50010588  0.29746615  0.48623571  1
  Ta  Ta124  1  0.10265071  0.10066418  0.50425996  1
  Ta  Ta125  1  0.29225024  0.69119318  0.10066868  1
  Ta  Ta126  1  0.69231281  0.10988581  0.30473799  1
  Ta  Ta127  1  0.40281602  0.59947121  0.59385918  1
  Ta  Ta128  1  0.29735335  0.90759903  0.29857276  1
  Ta  Ta129  1  0.70531844  0.49939127  0.90823208  1
  Ta  Ta130  1  0.21459308  0.19746978  0.21301269  1
  Ta  Ta131  1  0.30096690  0.49862769  0.50383040  1
  Ta  Ta132  1  0.10482671  0.49950653  0.29072399  1
  Ta  Ta133  1  0.01153416  0.60606786  0.59696359  1
  Ta  Ta134  1  0.59938093  -0.01213186  0.58777259  1
  Ta  Ta135  1  0.10174731  0.29388177  0.29904974  1
  Ta  Ta136  1  0.59188880  0.39989016  0.39263624  1
  Ta  Ta137  1  0.50186468  0.69548853  0.91007373  1
  Ta  Ta138  1  0.60295902  0.20206916  0.80289478  1
  Ta  Ta139  1  0.29842028  0.69872005  0.69254597  1
  Ta  Ta140  1  0.79969902  0.19979049  0.79348132  1
  Ta  Ta141  1  0.80359931  0.00481001  0.20670941  1
  Ta  Ta142  1  -0.00808408  0.20102344  0.40457259  1
  Ta  Ta143  1  0.80566340  0.00716078  0.01561655  1
  Ta  Ta144  1  0.79753382  -0.00716534  0.78275425  1
  Ta  Ta145  1  0.89327698  0.49980547  0.90095142  1
  Ta  Ta146  1  0.68966474  0.29881424  0.48919886  1
  Ta  Ta147  1  0.39952724  0.40155925  0.39576905  1
  Ta  Ta148  1  0.20423392  0.39902449  0.60064129  1
  Ta  Ta149  1  0.90724452  0.29418263  0.89499200  1
  Ti  Ti150  1  0.20325378  -0.00096894  0.80060279  1
  Ti  Ti151  1  0.70073248  0.30128564  0.90269387  1
  Ti  Ti152  1  0.29665904  0.50930520  0.11065260  1
  Ti  Ti153  1  0.61586020  -0.00251966  0.21435624  1
  Ti  Ti154  1  0.79963656  0.59501844  0.80029585  1
  Ti  Ti155  1  0.39768866  0.59835236  0.79880551  1
  Ti  Ti156  1  0.10735890  0.90670600  0.29745285  1
  Ti  Ti157  1  0.30049073  0.50327344  0.69434550  1
  Ti  Ti158  1  0.50663966  0.51008045  0.10657408  1
  Ti  Ti159  1  0.10462883  0.50188157  0.50493784  1
  Ti  Ti160  1  0.89806322  0.09835417  0.30681414  1
  Ti  Ti161  1  0.59981016  0.20869238  0.00636267  1
  Ti  Ti162  1  0.39977464  0.80222739  0.58682832  1
  Ti  Ti163  1  0.89119458  0.49605331  0.09660696  1
  Ti  Ti164  1  0.10780065  0.50481412  0.10810927  1
  Ti  Ti165  1  0.30105635  0.69775239  0.50311213  1
  Ti  Ti166  1  0.39442658  0.59881498  0.00565813  1
  Ti  Ti167  1  0.38993450  -0.00295312  0.40263457  1
  Ti  Ti168  1  0.20894877  0.20173682  0.59916763  1
  Ti  Ti169  1  0.10978583  0.90439795  0.69669201  1
  Ti  Ti170  1  0.68898396  0.69224471  0.10077088  1
  Ti  Ti171  1  -0.00844596  0.19905893  0.21323364  1
  Ti  Ti172  1  0.50184056  0.50085363  0.69925161  1
  Ti  Ti173  1  0.90312079  0.50314254  0.69483083  1
  Ti  Ti174  1  0.10483510  0.50530475  0.89931489  1
  Ti  Ti175  1  0.59951819  0.79567973  0.00147687  1
  Ti  Ti176  1  0.69703360  0.48991482  0.49114713  1
  Ti  Ti177  1  -0.00861271  0.19686326  0.59774590  1
  Ti  Ti178  1  0.29538654  0.89411431  0.70218583  1
  Ti  Ti179  1  0.79845449  0.40000487  0.00049094  1
  Ti  Ti180  1  0.89771196  0.90430701  0.10824132  1
  Ti  Ti181  1  0.29485541  0.09916237  0.49654681  1
  Ti  Ti182  1  0.29986823  0.50435334  0.90231357  1
  Ti  Ti183  1  0.20338039  -0.00903663  0.58903847  1
  Ti  Ti184  1  0.50215361  0.29227777  0.29255163  1
  Ti  Ti185  1  0.10320454  0.90584856  0.10790738  1
  Ti  Ti186  1  0.20350811  0.19863993  0.39858085  1
  Ti  Ti187  1  0.30754833  0.10231016  0.89238850  1
  Ti  Ti188  1  0.90160978  0.09311827  0.50806890  1
  Ti  Ti189  1  0.60401677  0.80295486  0.20444859  1
  Ti  Ti190  1  0.20439553  0.40045602  0.80318072  1
  Ti  Ti191  1  0.40038431  0.19362940  0.00888270  1
  Ti  Ti192  1  0.59129365  0.40489895  0.58722344  1
  Ti  Ti193  1  0.60976375  0.59316640  0.00529988  1
  Ti  Ti194  1  0.60362412  0.40085757  0.00747203  1
  Ti  Ti195  1  0.69525468  0.70185835  0.29842889  1
  Ti  Ti196  1  0.69238513  0.29982169  0.29780897  1
  Ti  Ti197  1  0.20750425  0.80566914  0.40485545  1
  Ti  Ti198  1  0.50075759  0.09430890  0.70773824  1
  Ti  Ti199  1  0.39504934  -0.00428037  0.80329345  1
  Mo  Mo200  1  0.90626944  0.29482867  0.30302320  1
  Mo  Mo201  1  0.00278016  0.59468784  0.19188879  1
  Mo  Mo202  1  0.30106502  0.10216811  0.11391938  1
  Mo  Mo203  1  0.29731015  0.09290890  0.30314139  1
  Mo  Mo204  1  0.38171490  0.00679539  0.20322908  1
  Mo  Mo205  1  0.40480711  0.19893958  0.79686294  1
  Mo  Mo206  1  0.19987154  0.58601417  0.00441862  1
  Mo  Mo207  1  -0.00778372  0.20225004  0.79311263  1
  Mo  Mo208  1  0.91528792  0.68599032  0.10204059  1
  Mo  Mo209  1  0.49371707  0.90347653  0.49603820  1
  Mo  Mo210  1  0.00296249  0.00373360  0.59833650  1
  Mo  Mo211  1  0.00429927  0.20380367  -0.01007805  1
  Mo  Mo212  1  0.69143198  0.70670638  0.49698995  1
  Mo  Mo213  1  0.50013987  0.49384496  0.49471695  1
  Mo  Mo214  1  0.20132695  0.81080468  0.01861158  1
  Mo  Mo215  1  0.59656579  0.00238442  0.39726158  1
  Mo  Mo216  1  0.20830595  0.59691898  0.59759349  1
  Mo  Mo217  1  0.39959409  0.20139416  0.20166571  1
  Mo  Mo218  1  0.80092715  0.00214642  0.60013165  1
  Mo  Mo219  1  0.50572709  0.29726634  0.10265333  1
  Mo  Mo220  1  0.69373542  0.90263790  0.69548860  1
  Mo  Mo221  1  0.79662441  0.59181225  0.00024295  1
  Mo  Mo222  1  0.69504230  0.90557714  0.49789729  1
  Mo  Mo223  1  0.79411715  0.39570319  0.19223956  1
  Mo  Mo224  1  0.11121576  0.69714035  0.50175183  1
  Mo  Mo225  1  0.89107628  0.89925481  0.69641764  1
  Mo  Mo226  1  0.39315019  0.59778558  0.19705544  1
  Mo  Mo227  1  0.78236240  0.79853298  0.40198313  1
  Mo  Mo228  1  0.90036900  0.09892731  0.11353060  1
  Mo  Mo229  1  0.19368423  0.00185926  0.20702291  1
  Mo  Mo230  1  0.69801222  0.90049968  0.29885152  1
  Mo  Mo231  1  0.90637372  0.69934157  0.29840804  1
  Mo  Mo232  1  0.59758952  0.20703357  0.39485779  1
  Mo  Mo233  1  0.10350352  0.69471487  0.69823460  1
  Mo  Mo234  1  0.60012773  0.00177136  0.78346027  1
  Mo  Mo235  1  0.49224394  0.70625868  0.50214504  1
  Mo  Mo236  1  0.90613744  0.29839071  0.50324097  1
  Mo  Mo237  1  0.20381659  0.59251111  0.20104882  1
  Mo  Mo238  1  0.60711158  0.00486585  0.01997306  1
  Mo  Mo239  1  0.10775001  0.90862493  0.50242720  1
  Mo  Mo240  1  0.60219546  0.21231564  0.20450646  1
  Mo  Mo241  1  0.89428339  0.10081450  0.69169793  1
  Mo  Mo242  1  0.29751530  0.30272790  0.30235146  1
  Mo  Mo243  1  0.30113576  0.50140702  0.30052493  1
  Mo  Mo244  1  0.69960495  0.49135424  0.09388740  1
  Mo  Mo245  1  0.09847916  0.30318277  0.90155863  1
  Mo  Mo246  1  0.20269644  0.80476533  0.78229130  1
  Mo  Mo247  1  0.29866443  0.89672109  0.49263429  1
  Mo  Mo248  1  0.60589349  0.59841548  0.19355429  1
  Mo  Mo249  1  0.29380536  0.90623220  0.10335594  1
