# generated using pymatgen
data_HfZrTaTiMo
_symmetry_space_group_name_H-M   'P 1'
_cell_length_a   16.88779218
_cell_length_b   16.88047350
_cell_length_c   16.87331847
_cell_angle_alpha   89.98494024
_cell_angle_beta   90.04102159
_cell_angle_gamma   89.99003416
_symmetry_Int_Tables_number   1
_chemical_formula_structural   HfZrTaTiMo
_chemical_formula_sum   'Hf50 Zr50 Ta50 Ti50 Mo50'
_cell_volume   4810.14170711
_cell_formula_units_Z   50
loop_
 _symmetry_equiv_pos_site_id
 _symmetry_equiv_pos_as_xyz
  1  'x, y, z'
loop_
 _atom_site_type_symbol
 _atom_site_label
 _atom_site_symmetry_multiplicity
 _atom_site_fract_x
 _atom_site_fract_y
 _atom_site_fract_z
 _atom_site_occupancy
  Hf  Hf0  1  0.89096359  0.89891527  0.09533137  1
  Hf  Hf1  1  0.68956614  0.49361585  0.49728588  1
  Hf  Hf2  1  0.40405793  0.59991483  0.20229171  1
  Hf  Hf3  1  0.60628179  0.00698286  -0.00128439  1
  Hf  Hf4  1  0.80272641  0.40995855  0.19877160  1
  Hf  Hf5  1  0.79669190  0.60153868  0.39932560  1
  Hf  Hf6  1  -0.00670878  0.40367942  0.19535350  1
  Hf  Hf7  1  0.09176422  0.89781947  0.69774028  1
  Hf  Hf8  1  0.90122663  0.90888946  0.50113833  1
  Hf  Hf9  1  0.10710062  0.90646836  0.09632785  1
  Hf  Hf10  1  0.30920909  0.30175701  0.30269214  1
  Hf  Hf11  1  -0.00293789  0.20738594  0.00423976  1
  Hf  Hf12  1  -0.00352091  0.79984117  0.40485757  1
  Hf  Hf13  1  0.50065323  0.29357654  0.10664445  1
  Hf  Hf14  1  0.70463052  0.30362596  0.89004261  1
  Hf  Hf15  1  0.69596582  0.30670038  0.69647073  1
  Hf  Hf16  1  0.30419074  0.29534690  0.10737803  1
  Hf  Hf17  1  0.20442378  0.20328685  0.59661609  1
  Hf  Hf18  1  0.48699789  0.70361620  0.49681909  1
  Hf  Hf19  1  0.21716527  0.60582973  0.18850703  1
  Hf  Hf20  1  0.60113238  0.80129658  0.20294730  1
  Hf  Hf21  1  0.50465097  0.49607720  0.69497124  1
  Hf  Hf22  1  0.91367319  0.53055833  0.09632600  1
  Hf  Hf23  1  0.09835439  0.09287744  0.70350680  1
  Hf  Hf24  1  0.50645649  0.70119575  0.09682116  1
  Hf  Hf25  1  0.69796574  0.29823332  0.29997925  1
  Hf  Hf26  1  0.50205154  0.89161154  0.69564475  1
  Hf  Hf27  1  0.10856401  0.50501605  0.29658492  1
  Hf  Hf28  1  0.89030612  0.30014857  0.49901446  1
  Hf  Hf29  1  0.20035946  0.79208356  0.00447601  1
  Hf  Hf30  1  0.39530663  0.59571856  0.00958632  1
  Hf  Hf31  1  0.19756816  0.20475043  -0.00229489  1
  Hf  Hf32  1  0.40723377  0.40582089  0.20501391  1
  Hf  Hf33  1  0.52430102  0.49334598  0.10044314  1
  Hf  Hf34  1  0.40052310  0.40027975  0.00100831  1
  Hf  Hf35  1  0.20849368  0.80637666  0.40495690  1
  Hf  Hf36  1  -0.00852432  0.19372145  0.39798361  1
  Hf  Hf37  1  0.59598402  0.19810700  0.80539082  1
  Hf  Hf38  1  0.60458465  0.19167366  -0.00161345  1
  Hf  Hf39  1  -0.01208170  0.40542103  0.39176129  1
  Hf  Hf40  1  0.89333654  0.09700364  0.10272608  1
  Hf  Hf41  1  0.10676393  0.08897826  0.90163000  1
  Hf  Hf42  1  0.40619788  0.60012245  0.80475357  1
  Hf  Hf43  1  0.60044041  0.80258803  0.40152153  1
  Hf  Hf44  1  0.19981995  0.40065500  0.00293182  1
  Hf  Hf45  1  0.29118349  0.50236935  0.90269378  1
  Hf  Hf46  1  0.20508623  0.19660357  0.40554577  1
  Hf  Hf47  1  0.20295219  0.60188075  0.79707438  1
  Hf  Hf48  1  0.10597651  0.69914731  0.29558950  1
  Hf  Hf49  1  0.88667128  0.10097301  0.88965165  1
  Zr  Zr50  1  0.10742291  0.50036647  0.50671019  1
  Zr  Zr51  1  0.49137998  0.10113411  0.69912369  1
  Zr  Zr52  1  0.49290801  0.49903895  0.49966440  1
  Zr  Zr53  1  0.78359777  0.60181181  0.18524884  1
  Zr  Zr54  1  0.60557576  0.60979387  0.59740286  1
  Zr  Zr55  1  0.09644743  0.90098380  0.29917152  1
  Zr  Zr56  1  0.39676219  0.20631388  0.59045686  1
  Zr  Zr57  1  0.19848665  -0.01052569  0.58622742  1
  Zr  Zr58  1  0.70484675  0.90072167  0.50995351  1
  Zr  Zr59  1  0.90787646  0.69217365  0.27775090  1
  Zr  Zr60  1  0.68313973  0.32145322  0.10046626  1
  Zr  Zr61  1  -0.00155294  0.20069063  0.80025071  1
  Zr  Zr62  1  0.10354690  0.30519667  0.30047683  1
  Zr  Zr63  1  0.79477243  0.20152347  0.00554717  1
  Zr  Zr64  1  0.50437670  0.89448024  0.91094636  1
  Zr  Zr65  1  0.39947371  0.79559097  0.20246215  1
  Zr  Zr66  1  -0.00770938  0.59850479  0.39935670  1
  Zr  Zr67  1  0.39644692  0.79225386  0.80958820  1
  Zr  Zr68  1  0.41034450  0.39777755  0.81806614  1
  Zr  Zr69  1  0.20395024  0.80184100  0.59074735  1
  Zr  Zr70  1  0.88541856  0.89577692  0.70001840  1
  Zr  Zr71  1  -0.01061778  0.79709050  0.80691433  1
  Zr  Zr72  1  0.79893491  0.79488369  0.39775569  1
  Zr  Zr73  1  0.10435556  0.69525460  0.50337614  1
  Zr  Zr74  1  0.79812548  0.00136739  0.39305256  1
  Zr  Zr75  1  -0.01107993  0.40376291  0.61117059  1
  Zr  Zr76  1  0.81328288  0.41100348  0.79304961  1
  Zr  Zr77  1  0.49959579  0.10311625  0.29373586  1
  Zr  Zr78  1  -0.00495792  0.79808697  -0.00454333  1
  Zr  Zr79  1  0.50167615  0.30642609  0.69936110  1
  Zr  Zr80  1  0.40834442  0.20592748  0.40282819  1
  Zr  Zr81  1  0.61184826  -0.00063627  0.80430800  1
  Zr  Zr82  1  0.09040404  0.08840469  0.49349618  1
  Zr  Zr83  1  0.30001217  0.09368232  0.10139097  1
  Zr  Zr84  1  0.19471133  0.19729869  0.20266521  1
  Zr  Zr85  1  0.09656673  0.30326447  0.50104474  1
  Zr  Zr86  1  0.09773294  0.30594759  0.70315215  1
  Zr  Zr87  1  0.70264051  0.10526918  0.49882439  1
  Zr  Zr88  1  0.30641009  0.89316272  0.69391121  1
  Zr  Zr89  1  0.81062986  0.40664645  0.00892635  1
  Zr  Zr90  1  0.70202682  0.50533429  0.90225505  1
  Zr  Zr91  1  0.60479267  0.00333621  0.60531493  1
  Zr  Zr92  1  -0.00522978  -0.00748118  -0.01126071  1
  Zr  Zr93  1  0.39947981  -0.00641150  0.80938020  1
  Zr  Zr94  1  -0.01392650  0.60260527  0.60611764  1
  Zr  Zr95  1  0.70330318  0.70596545  0.70779152  1
  Zr  Zr96  1  0.30171168  0.09415019  0.70102347  1
  Zr  Zr97  1  0.10172044  0.69752462  0.69945339  1
  Zr  Zr98  1  0.79258044  0.79830691  0.19510974  1
  Zr  Zr99  1  0.21008859  0.20918854  0.80330167  1
  Ta  Ta100  1  0.09759442  0.09174826  0.29896376  1
  Ta  Ta101  1  0.90832156  0.51022040  0.90168166  1
  Ta  Ta102  1  0.30624924  0.50007551  0.69442942  1
  Ta  Ta103  1  0.30654883  0.08923677  0.49437711  1
  Ta  Ta104  1  0.50136743  0.50264987  0.31068413  1
  Ta  Ta105  1  0.30634475  0.69346588  0.68742981  1
  Ta  Ta106  1  0.21437683  0.60083843  0.40488075  1
  Ta  Ta107  1  0.90095218  0.90496943  0.29201912  1
  Ta  Ta108  1  0.30580421  0.49903867  0.30984637  1
  Ta  Ta109  1  0.21297778  0.39834942  0.60241201  1
  Ta  Ta110  1  0.20861078  0.79584246  0.19652263  1
  Ta  Ta111  1  0.79820249  0.40410266  0.39309603  1
  Ta  Ta112  1  0.69689577  0.89897445  0.09439531  1
  Ta  Ta113  1  0.30140412  0.90084132  0.10033885  1
  Ta  Ta114  1  0.30027620  0.09631713  0.90404126  1
  Ta  Ta115  1  0.89205262  0.29341495  0.29415532  1
  Ta  Ta116  1  0.30300506  0.09319590  0.30104456  1
  Ta  Ta117  1  0.88963901  0.49962167  0.50029439  1
  Ta  Ta118  1  0.89602655  0.09939045  0.29469545  1
  Ta  Ta119  1  0.60159798  0.79983499  0.59779122  1
  Ta  Ta120  1  0.39923373  0.20195828  -0.00608827  1
  Ta  Ta121  1  0.59911872  -0.00269210  0.39490126  1
  Ta  Ta122  1  0.80666001  0.60563305  0.79779024  1
  Ta  Ta123  1  0.59757911  0.20281175  0.40311072  1
  Ta  Ta124  1  -0.00283473  0.19790063  0.19838059  1
  Ta  Ta125  1  0.39690653  0.79663787  0.00414608  1
  Ta  Ta126  1  -0.00060567  0.40262301  0.00158934  1
  Ta  Ta127  1  0.78653138  0.00092834  -0.00607226  1
  Ta  Ta128  1  0.79823443  0.40636930  0.60091751  1
  Ta  Ta129  1  0.69857725  0.10332005  0.29532654  1
  Ta  Ta130  1  0.10233752  0.50882301  0.09282742  1
  Ta  Ta131  1  0.40211674  -0.00541154  0.20141867  1
  Ta  Ta132  1  0.09977540  0.09345253  0.10130871  1
  Ta  Ta133  1  0.20540567  -0.00845363  0.40033006  1
  Ta  Ta134  1  0.79935521  0.59936117  0.60282202  1
  Ta  Ta135  1  0.69222705  0.69659216  0.30078329  1
  Ta  Ta136  1  0.49672340  0.09858634  0.10326263  1
  Ta  Ta137  1  0.20178213  0.79760733  0.80661826  1
  Ta  Ta138  1  0.50951022  0.69684240  0.90658700  1
  Ta  Ta139  1  0.80211054  0.20079697  0.60196771  1
  Ta  Ta140  1  -0.00285485  0.00221920  0.19843067  1
  Ta  Ta141  1  0.10049428  0.69131407  0.90190975  1
  Ta  Ta142  1  0.40395173  -0.00790404  0.39936650  1
  Ta  Ta143  1  0.10525366  0.49913836  0.70469701  1
  Ta  Ta144  1  0.09557522  0.31422739  0.89717557  1
  Ta  Ta145  1  0.68814567  0.49962528  0.29881448  1
  Ta  Ta146  1  0.49831289  0.89790087  0.30227073  1
  Ta  Ta147  1  0.60458353  0.79663179  0.80287337  1
  Ta  Ta148  1  0.60017496  0.20358210  0.59253070  1
  Ta  Ta149  1  -0.01215730  0.19162657  0.60052895  1
  Ti  Ti150  1  0.79035629  -0.00848593  0.80019550  1
  Ti  Ti151  1  0.30586339  0.89977873  0.30013740  1
  Ti  Ti152  1  0.31207950  0.69929946  0.31367052  1
  Ti  Ti153  1  0.31079679  0.50255779  0.50473264  1
  Ti  Ti154  1  0.20325924  -0.00445212  0.20495333  1
  Ti  Ti155  1  0.70868804  0.88468912  0.90032289  1
  Ti  Ti156  1  0.09059260  0.68895814  0.09675743  1
  Ti  Ti157  1  0.79555845  0.20316516  0.19194481  1
  Ti  Ti158  1  0.69388733  0.49761164  0.70221805  1
  Ti  Ti159  1  0.21272092  0.40136216  0.41004389  1
  Ti  Ti160  1  0.88875760  0.69670432  0.90882460  1
  Ti  Ti161  1  -0.00621494  -0.01232281  0.80684340  1
  Ti  Ti162  1  0.31207290  0.30681440  0.70333275  1
  Ti  Ti163  1  0.50063253  0.90197460  0.10001385  1
  Ti  Ti164  1  0.20378175  0.39985109  0.79903158  1
  Ti  Ti165  1  0.60326573  -0.00387494  0.20068720  1
  Ti  Ti166  1  0.09473748  0.50290829  0.89851831  1
  Ti  Ti167  1  0.50218661  0.09445877  0.49799516  1
  Ti  Ti168  1  0.58293703  0.39866353  -0.03059494  1
  Ti  Ti169  1  0.89584196  0.29639402  0.70389871  1
  Ti  Ti170  1  0.61028191  0.79440690  -0.00068655  1
  Ti  Ti171  1  0.61556860  0.60437964  0.00391127  1
  Ti  Ti172  1  0.79871234  0.00989245  0.60775626  1
  Ti  Ti173  1  0.60242234  0.19759377  0.20030335  1
  Ti  Ti174  1  0.70989804  0.11309099  0.70834344  1
  Ti  Ti175  1  -0.00621465  0.60040648  0.79730089  1
  Ti  Ti176  1  0.40046318  -0.00189301  0.00501998  1
  Ti  Ti177  1  0.59236228  0.39014364  0.39477401  1
  Ti  Ti178  1  -0.01080386  0.79336580  0.59661629  1
  Ti  Ti179  1  0.69810215  0.30447976  0.50115649  1
  Ti  Ti180  1  0.78782022  -0.00097392  0.19842435  1
  Ti  Ti181  1  0.89449956  0.09946295  0.70480569  1
  Ti  Ti182  1  0.49606710  0.70254030  0.69720743  1
  Ti  Ti183  1  0.31056383  0.69414744  0.50476920  1
  Ti  Ti184  1  0.29684590  0.69472103  0.90734429  1
  Ti  Ti185  1  0.29317116  0.90349913  0.91327783  1
  Ti  Ti186  1  0.80075080  0.78538801  0.59645946  1
  Ti  Ti187  1  0.00274003  0.80025077  0.18931888  1
  Ti  Ti188  1  -0.00965195  0.00560797  0.59961930  1
  Ti  Ti189  1  0.09730276  0.30444282  0.10277057  1
  Ti  Ti190  1  0.59555845  0.60994554  0.39800340  1
  Ti  Ti191  1  0.90389694  0.30684559  0.89500860  1
  Ti  Ti192  1  0.50005068  0.31420733  0.50416451  1
  Ti  Ti193  1  0.79868319  0.19941699  0.39963798  1
  Ti  Ti194  1  0.48961431  0.10146400  0.90227669  1
  Ti  Ti195  1  0.20020582  -0.01435091  0.80526626  1
  Ti  Ti196  1  0.20674182  0.40796451  0.19454175  1
  Ti  Ti197  1  0.60064211  0.60313031  0.20224265  1
  Ti  Ti198  1  0.40528381  -0.01143652  0.58557865  1
  Ti  Ti199  1  0.59966456  0.60160559  0.80594924  1
  Mo  Mo200  1  0.21050431  0.59078277  0.59932822  1
  Mo  Mo201  1  0.29745163  0.30011074  0.90134330  1
  Mo  Mo202  1  0.39476933  0.40072258  0.59805748  1
  Mo  Mo203  1  0.19566488  0.60011746  -0.00165251  1
  Mo  Mo204  1  0.11369867  0.89340039  0.89413298  1
  Mo  Mo205  1  0.60641034  0.39683090  0.59485917  1
  Mo  Mo206  1  0.31963065  0.89597853  0.49260076  1
  Mo  Mo207  1  0.01499408  0.60133888  0.19703702  1
  Mo  Mo208  1  0.59765120  0.40264947  0.21745556  1
  Mo  Mo209  1  0.70105434  0.69859523  0.90167303  1
  Mo  Mo210  1  0.89817819  0.50701617  0.70305649  1
  Mo  Mo211  1  0.90622676  0.29447170  0.10556438  1
  Mo  Mo212  1  0.70680543  0.10165502  0.89003198  1
  Mo  Mo213  1  0.89216168  0.49853175  0.29841101  1
  Mo  Mo214  1  -0.00602890  -0.00029378  0.39009016  1
  Mo  Mo215  1  0.39790062  0.20186058  0.81491525  1
  Mo  Mo216  1  0.79707967  0.79638880  0.80853997  1
  Mo  Mo217  1  0.40053199  0.59955985  0.60400280  1
  Mo  Mo218  1  0.30314716  0.31181742  0.49879243  1
  Mo  Mo219  1  0.69787233  0.69744464  0.49938094  1
  Mo  Mo220  1  0.50330275  0.90077918  0.49812555  1
  Mo  Mo221  1  0.29519833  0.49628462  0.10455472  1
  Mo  Mo222  1  0.79901088  0.60795242  -0.00567847  1
  Mo  Mo223  1  0.40429753  0.19275492  0.19907498  1
  Mo  Mo224  1  0.69364940  0.90649535  0.29274244  1
  Mo  Mo225  1  0.39652688  0.60067349  0.39836961  1
  Mo  Mo226  1  0.89495953  0.69988138  0.70383223  1
  Mo  Mo227  1  0.90081497  0.70643075  0.08938958  1
  Mo  Mo228  1  0.80247527  0.20622580  0.79216286  1
  Mo  Mo229  1  0.40047793  0.80195552  0.39851288  1
  Mo  Mo230  1  0.69511581  0.70292183  0.09448382  1
  Mo  Mo231  1  0.50820907  0.51861761  0.90304701  1
  Mo  Mo232  1  0.79360229  0.79646183  -0.00108881  1
  Mo  Mo233  1  0.00414744  0.60403289  -0.01077602  1
  Mo  Mo234  1  0.49877879  0.28723294  0.90189580  1
  Mo  Mo235  1  0.30370336  0.70479726  0.09698759  1
  Mo  Mo236  1  0.40552316  0.79620335  0.59660998  1
  Mo  Mo237  1  0.87797549  0.90033120  0.89816786  1
  Mo  Mo238  1  0.89383432  0.10270438  0.50350360  1
  Mo  Mo239  1  0.70168592  0.89176650  0.70153129  1
  Mo  Mo240  1  0.89146647  0.69782941  0.50790838  1
  Mo  Mo241  1  0.50344348  0.69577450  0.30380005  1
  Mo  Mo242  1  0.40130829  0.40309207  0.40164478  1
  Mo  Mo243  1  0.69574403  0.09247425  0.11290719  1
  Mo  Mo244  1  0.69228154  0.50508859  0.09784261  1
  Mo  Mo245  1  0.50650304  0.30088260  0.30097175  1
  Mo  Mo246  1  0.20455986  -0.00386888  -0.00004641  1
  Mo  Mo247  1  0.60145238  0.40781539  0.79999702  1
  Mo  Mo248  1  0.07880460  0.90021323  0.50058811  1
  Mo  Mo249  1  0.00347206  0.41047409  0.80728540  1
