# generated using pymatgen
data_HfZrTaTiMo
_symmetry_space_group_name_H-M   'P 1'
_cell_length_a   16.89367159
_cell_length_b   16.89619989
_cell_length_c   16.89145360
_cell_angle_alpha   89.97050464
_cell_angle_beta   90.03791976
_cell_angle_gamma   90.03065855
_symmetry_Int_Tables_number   1
_chemical_formula_structural   HfZrTaTiMo
_chemical_formula_sum   'Hf50 Zr50 Ta50 Ti50 Mo50'
_cell_volume   4821.47474392
_cell_formula_units_Z   50
loop_
 _symmetry_equiv_pos_site_id
 _symmetry_equiv_pos_as_xyz
  1  'x, y, z'
loop_
 _atom_site_type_symbol
 _atom_site_label
 _atom_site_symmetry_multiplicity
 _atom_site_fract_x
 _atom_site_fract_y
 _atom_site_fract_z
 _atom_site_occupancy
  Hf  Hf0  1  0.61344572  0.18340569  -0.00468398  1
  Hf  Hf1  1  0.39309523  0.19427639  0.20696281  1
  Hf  Hf2  1  0.69136521  0.50418546  0.69307737  1
  Hf  Hf3  1  0.40195200  0.20125245  0.60253217  1
  Hf  Hf4  1  0.89708342  0.69452929  0.69734575  1
  Hf  Hf5  1  0.09794254  0.69697911  0.69729279  1
  Hf  Hf6  1  0.61290154  0.20083788  0.40575098  1
  Hf  Hf7  1  0.90545370  0.10033834  0.29388163  1
  Hf  Hf8  1  0.50776418  0.29819621  0.89717062  1
  Hf  Hf9  1  0.20582571  0.59003360  0.59671888  1
  Hf  Hf10  1  0.90034453  0.69955406  0.29803699  1
  Hf  Hf11  1  0.29928873  0.89899849  0.89692094  1
  Hf  Hf12  1  0.50279204  0.50774441  0.09982797  1
  Hf  Hf13  1  0.09456889  0.69514352  0.90839716  1
  Hf  Hf14  1  0.20685429  0.19969497  0.20014427  1
  Hf  Hf15  1  0.29971983  0.09613357  0.49540051  1
  Hf  Hf16  1  0.30609248  0.70359516  0.49610288  1
  Hf  Hf17  1  0.20645526  0.59543347  0.79914505  1
  Hf  Hf18  1  0.86919854  0.09955075  0.70070660  1
  Hf  Hf19  1  -0.00175806  0.59513314  0.80126946  1
  Hf  Hf20  1  0.79098761  0.00176288  0.00584099  1
  Hf  Hf21  1  0.29907960  0.89888520  0.10263514  1
  Hf  Hf22  1  0.10181235  0.49850473  0.90832269  1
  Hf  Hf23  1  0.90049012  0.10841998  0.48431057  1
  Hf  Hf24  1  -0.00851113  0.80341896  0.80207632  1
  Hf  Hf25  1  0.10196972  0.49814290  0.10107324  1
  Hf  Hf26  1  -0.01467547  0.39642640  0.00943240  1
  Hf  Hf27  1  0.89544251  0.29711264  0.70570853  1
  Hf  Hf28  1  0.08684530  0.69561385  0.29959751  1
  Hf  Hf29  1  0.20907423  0.60585503  0.19450511  1
  Hf  Hf30  1  0.40887941  -0.00540971  0.00116732  1
  Hf  Hf31  1  -0.00339227  0.58716853  0.59323457  1
  Hf  Hf32  1  0.90388331  0.10127830  0.10068445  1
  Hf  Hf33  1  0.89477390  0.50532332  0.90341577  1
  Hf  Hf34  1  0.09503889  0.10169464  0.49170791  1
  Hf  Hf35  1  0.10290693  0.30918256  0.10173006  1
  Hf  Hf36  1  0.89281593  0.09972096  0.89772975  1
  Hf  Hf37  1  0.70419519  0.51110386  0.10776968  1
  Hf  Hf38  1  0.41171435  0.79957025  0.60050082  1
  Hf  Hf39  1  0.78848941  0.38716280  0.39746286  1
  Hf  Hf40  1  0.00846145  0.18578336  0.79059311  1
  Hf  Hf41  1  0.69960204  0.50766641  0.90950585  1
  Hf  Hf42  1  0.60381754  0.80193137  0.79901503  1
  Hf  Hf43  1  0.79572138  0.79986918  0.59895450  1
  Hf  Hf44  1  0.20288715  0.19873463  0.38866376  1
  Hf  Hf45  1  0.09909683  0.30742338  0.69833761  1
  Hf  Hf46  1  0.20797427  0.79698316  0.60311150  1
  Hf  Hf47  1  0.50740739  0.88887335  0.29504802  1
  Hf  Hf48  1  0.30805515  0.31096635  0.49164154  1
  Hf  Hf49  1  0.09429717  0.09759556  0.10075817  1
  Zr  Zr50  1  0.09543538  0.90142693  0.90386337  1
  Zr  Zr51  1  0.08453875  0.69839558  0.49347017  1
  Zr  Zr52  1  0.17948670  0.01858052  0.79629235  1
  Zr  Zr53  1  0.39728538  0.20269325  -0.00127360  1
  Zr  Zr54  1  0.80085513  0.39794757  0.00371706  1
  Zr  Zr55  1  0.20167891  -0.00005958  0.59963571  1
  Zr  Zr56  1  0.20694212  0.20477838  -0.00452488  1
  Zr  Zr57  1  0.20066304  0.20259387  0.60538284  1
  Zr  Zr58  1  0.90567463  0.28963264  0.30879552  1
  Zr  Zr59  1  0.09547136  0.89468096  0.70205328  1
  Zr  Zr60  1  0.80141777  0.79570993  0.40273539  1
  Zr  Zr61  1  0.69863925  0.29861178  0.70230741  1
  Zr  Zr62  1  0.50390659  0.09275879  0.10335886  1
  Zr  Zr63  1  0.40192647  0.19272076  0.39531527  1
  Zr  Zr64  1  0.50320295  0.69738533  0.70146855  1
  Zr  Zr65  1  0.50357226  0.30255368  0.10103202  1
  Zr  Zr66  1  0.60626502  0.19668788  0.20662124  1
  Zr  Zr67  1  0.50689810  0.30279911  0.70159371  1
  Zr  Zr68  1  0.30572488  0.89817628  0.71168332  1
  Zr  Zr69  1  0.00200339  0.40439915  0.41348583  1
  Zr  Zr70  1  -0.00852674  0.00621102  0.61142872  1
  Zr  Zr71  1  0.80134807  -0.00847555  0.39677947  1
  Zr  Zr72  1  0.00199163  -0.01856735  0.38522878  1
  Zr  Zr73  1  0.19915839  0.79350335  0.00650802  1
  Zr  Zr74  1  0.40397564  0.41015395  0.79934276  1
  Zr  Zr75  1  0.69898732  0.30011052  0.09624815  1
  Zr  Zr76  1  0.09578425  0.30248588  0.90238152  1
  Zr  Zr77  1  0.80518708  0.39814424  0.58982538  1
  Zr  Zr78  1  0.49770422  0.31116662  0.31211056  1
  Zr  Zr79  1  0.78971658  0.20839876  0.57544373  1
  Zr  Zr80  1  0.40358654  0.60043340  0.40673737  1
  Zr  Zr81  1  0.50357998  0.10158357  0.71026192  1
  Zr  Zr82  1  0.30231220  0.09049863  0.89809224  1
  Zr  Zr83  1  0.09613529  0.49971651  0.29085621  1
  Zr  Zr84  1  0.30768313  0.70107947  0.29818867  1
  Zr  Zr85  1  0.69068791  0.89934356  0.50306743  1
  Zr  Zr86  1  0.50304685  0.49241181  0.49805395  1
  Zr  Zr87  1  0.61460311  0.40513290  0.21586247  1
  Zr  Zr88  1  0.40088220  0.78703031  -0.00405304  1
  Zr  Zr89  1  0.79420120  0.80448282  0.79587932  1
  Zr  Zr90  1  0.19229006  0.80518603  0.39125693  1
  Zr  Zr91  1  0.89809828  0.50561050  0.29738448  1
  Zr  Zr92  1  0.31364143  0.51139287  0.90348551  1
  Zr  Zr93  1  0.69061819  0.49732774  0.49909452  1
  Zr  Zr94  1  0.50731302  0.89418444  0.49502334  1
  Zr  Zr95  1  0.10366239  0.31447434  0.29128903  1
  Zr  Zr96  1  0.40698747  -0.00347223  0.60429770  1
  Zr  Zr97  1  0.78966062  0.60497776  0.80031419  1
  Zr  Zr98  1  0.39998879  0.00007358  0.39150107  1
  Zr  Zr99  1  0.09146933  0.89348559  0.50025780  1
  Ta  Ta100  1  0.29906186  0.32054186  0.29920276  1
  Ta  Ta101  1  0.39516825  0.41007846  0.60302095  1
  Ta  Ta102  1  0.79714954  0.40008145  0.80438151  1
  Ta  Ta103  1  0.50078469  0.70212398  0.29851062  1
  Ta  Ta104  1  0.79827786  0.60530006  0.58881332  1
  Ta  Ta105  1  0.39745452  0.59374507  0.60299887  1
  Ta  Ta106  1  0.30365100  0.49895220  0.30053254  1
  Ta  Ta107  1  0.89504368  0.49493574  0.69939378  1
  Ta  Ta108  1  0.50310481  0.30764844  0.50296533  1
  Ta  Ta109  1  0.20741111  0.40169191  0.79986353  1
  Ta  Ta110  1  0.19836655  -0.00357471  0.38579620  1
  Ta  Ta111  1  0.60435211  0.60702217  0.20653280  1
  Ta  Ta112  1  0.21554088  0.60920384  0.00523104  1
  Ta  Ta113  1  0.49962563  0.50597788  0.30026085  1
  Ta  Ta114  1  0.40090835  0.40848099  0.19820420  1
  Ta  Ta115  1  0.60235257  0.41265897  0.80678018  1
  Ta  Ta116  1  0.60564636  0.60440076  0.39235574  1
  Ta  Ta117  1  0.69898618  0.89985650  0.90705267  1
  Ta  Ta118  1  0.79105408  0.60613781  0.40096229  1
  Ta  Ta119  1  -0.01070165  0.80094480  0.00951994  1
  Ta  Ta120  1  0.20555946  0.78574517  0.80589783  1
  Ta  Ta121  1  0.09840432  0.48991764  0.69991412  1
  Ta  Ta122  1  0.38917537  0.20673904  0.80460660  1
  Ta  Ta123  1  0.80268652  0.61465178  0.01599053  1
  Ta  Ta124  1  0.50023639  0.69748731  0.10801764  1
  Ta  Ta125  1  0.29621234  0.08824212  0.10303310  1
  Ta  Ta126  1  0.79663113  0.20109855  0.19977174  1
  Ta  Ta127  1  0.59372435  0.60346608  0.81390188  1
  Ta  Ta128  1  0.31104810  0.69321642  0.70777321  1
  Ta  Ta129  1  0.80773341  0.39650625  0.20062210  1
  Ta  Ta130  1  0.19538948  0.59061049  0.40492203  1
  Ta  Ta131  1  0.09182674  0.09697941  0.28964217  1
  Ta  Ta132  1  0.19455013  0.79834460  0.19603686  1
  Ta  Ta133  1  0.70825485  0.09451357  0.30010844  1
  Ta  Ta134  1  0.40346047  0.40310403  -0.00041184  1
  Ta  Ta135  1  0.20480080  0.20812528  0.80055296  1
  Ta  Ta136  1  -0.00783676  -0.00782403  0.00180563  1
  Ta  Ta137  1  0.89454702  0.70671635  0.91015303  1
  Ta  Ta138  1  -0.00351415  0.20440452  0.59620850  1
  Ta  Ta139  1  0.60072817  0.79442012  0.00296406  1
  Ta  Ta140  1  0.51012286  0.89770523  0.90200574  1
  Ta  Ta141  1  0.50819956  0.89218375  0.10380814  1
  Ta  Ta142  1  0.69690759  0.89202917  0.29067749  1
  Ta  Ta143  1  0.89690643  0.28801372  0.89885874  1
  Ta  Ta144  1  0.30225497  0.89409150  0.29466952  1
  Ta  Ta145  1  0.60187413  0.19581649  0.59485641  1
  Ta  Ta146  1  0.39973335  -0.00341189  0.20210026  1
  Ta  Ta147  1  -0.00023866  0.80328051  0.19453330  1
  Ta  Ta148  1  0.88950882  0.90116999  0.90320434  1
  Ta  Ta149  1  0.69857462  0.88924660  0.10451190  1
  Ti  Ti150  1  0.60437982  0.00117217  0.39284052  1
  Ti  Ti151  1  0.30295130  0.09965508  0.70636551  1
  Ti  Ti152  1  0.20006784  0.41380603  0.41078403  1
  Ti  Ti153  1  0.79634432  -0.00205253  0.19633086  1
  Ti  Ti154  1  0.30490087  0.89601585  0.48921220  1
  Ti  Ti155  1  0.21625811  0.40412803  -0.00164879  1
  Ti  Ti156  1  -0.01395471  0.60074495  0.18368967  1
  Ti  Ti157  1  0.20568917  0.40889824  0.59888131  1
  Ti  Ti158  1  0.70325102  0.70623470  0.91246267  1
  Ti  Ti159  1  0.89906431  0.90032818  0.50440243  1
  Ti  Ti160  1  0.50483221  0.50756428  0.69907481  1
  Ti  Ti161  1  0.09418650  0.69760411  0.09994035  1
  Ti  Ti162  1  0.70758779  0.91695507  0.69748000  1
  Ti  Ti163  1  0.39920867  0.79655856  0.19548685  1
  Ti  Ti164  1  0.69143696  0.69654408  0.69005635  1
  Ti  Ti165  1  0.19434932  -0.00070637  0.00209037  1
  Ti  Ti166  1  0.60320687  0.78180269  0.40412800  1
  Ti  Ti167  1  0.50853708  0.09265934  0.29828901  1
  Ti  Ti168  1  0.30343199  0.31078990  0.10434852  1
  Ti  Ti169  1  0.59468766  0.61593223  0.58385993  1
  Ti  Ti170  1  0.89665972  0.89217964  0.28486190  1
  Ti  Ti171  1  0.89533591  0.50734387  0.49180840  1
  Ti  Ti172  1  0.60823311  -0.00193909  0.19648979  1
  Ti  Ti173  1  0.41586186  -0.00817242  0.80021207  1
  Ti  Ti174  1  0.89082287  0.89366684  0.10208610  1
  Ti  Ti175  1  0.08859568  0.10412937  0.91470506  1
  Ti  Ti176  1  0.61535718  0.18897714  0.80214048  1
  Ti  Ti177  1  0.70299048  0.08563492  0.50382982  1
  Ti  Ti178  1  -0.01170755  0.60357249  0.00977201  1
  Ti  Ti179  1  0.50416379  0.09702270  0.89575890  1
  Ti  Ti180  1  0.19686324  -0.00531072  0.20558722  1
  Ti  Ti181  1  -0.00643740  0.40127467  0.80317827  1
  Ti  Ti182  1  0.70285955  0.29880013  0.89668733  1
  Ti  Ti183  1  0.31263666  0.50885642  0.10058255  1
  Ti  Ti184  1  0.59745619  0.61238002  0.00159322  1
  Ti  Ti185  1  0.61000822  0.00005570  0.80354273  1
  Ti  Ti186  1  0.09369243  0.90550451  0.10479460  1
  Ti  Ti187  1  -0.00394276  0.39879702  0.59435321  1
  Ti  Ti188  1  0.59971021  0.00189950  0.61194175  1
  Ti  Ti189  1  0.59727030  0.40532543  -0.00537515  1
  Ti  Ti190  1  0.60499932  -0.00206820  0.00155101  1
  Ti  Ti191  1  0.70391001  0.70566231  0.28757962  1
  Ti  Ti192  1  0.50644976  0.09585358  0.50064981  1
  Ti  Ti193  1  0.40844646  0.79386711  0.80694291  1
  Ti  Ti194  1  -0.00181669  0.21164417  0.19235927  1
  Ti  Ti195  1  -0.01044851  -0.00100383  0.79772753  1
  Ti  Ti196  1  0.10121914  0.30055890  0.50007612  1
  Ti  Ti197  1  0.30065806  0.30814069  0.70139891  1
  Ti  Ti198  1  0.79565921  0.19535018  0.00205490  1
  Ti  Ti199  1  -0.01547259  0.79992498  0.59958535  1
  Mo  Mo200  1  0.22012982  0.40996463  0.18852392  1
  Mo  Mo201  1  0.78983827  0.20259865  0.81236697  1
  Mo  Mo202  1  0.29897039  0.49893952  0.49943668  1
  Mo  Mo203  1  0.51094188  0.89925855  0.71043764  1
  Mo  Mo204  1  0.89557120  0.50653411  0.10480257  1
  Mo  Mo205  1  0.50705483  0.50492847  0.90805691  1
  Mo  Mo206  1  0.01797956  0.20236616  0.39814684  1
  Mo  Mo207  1  0.50557917  0.69920745  0.90425881  1
  Mo  Mo208  1  0.30719658  0.69732318  0.10292818  1
  Mo  Mo209  1  -0.01081292  0.80074190  0.39199798  1
  Mo  Mo210  1  0.91668561  0.29466768  0.49714501  1
  Mo  Mo211  1  0.40566961  0.80073378  0.39572294  1
  Mo  Mo212  1  -0.00651879  0.59930029  0.40684856  1
  Mo  Mo213  1  0.40739418  0.59944165  0.20121981  1
  Mo  Mo214  1  0.59968915  0.40279549  0.39770386  1
  Mo  Mo215  1  0.89751580  0.29027075  0.10142779  1
  Mo  Mo216  1  0.70077941  0.09154595  0.89499874  1
  Mo  Mo217  1  0.30174309  0.49998083  0.69875975  1
  Mo  Mo218  1  0.70704647  0.29264499  0.30173297  1
  Mo  Mo219  1  0.67596444  0.31027997  0.49971965  1
  Mo  Mo220  1  0.50370565  0.70047526  0.49673034  1
  Mo  Mo221  1  0.10279963  0.49470007  0.50527721  1
  Mo  Mo222  1  0.78939532  -0.00215437  0.80498627  1
  Mo  Mo223  1  0.69427456  0.09690145  0.69678195  1
  Mo  Mo224  1  0.09996926  0.89690326  0.28382761  1
  Mo  Mo225  1  0.59136821  0.39625731  0.60791458  1
  Mo  Mo226  1  0.89723926  0.70508828  0.10366247  1
  Mo  Mo227  1  -0.00386797  -0.01098326  0.19206959  1
  Mo  Mo228  1  0.39865421  0.40647560  0.39799139  1
  Mo  Mo229  1  0.60500551  0.80146925  0.60809703  1
  Mo  Mo230  1  0.30254826  0.31140152  0.89876692  1
  Mo  Mo231  1  0.78840154  0.19654384  0.39543051  1
  Mo  Mo232  1  0.79403416  0.60651619  0.20271480  1
  Mo  Mo233  1  0.69551695  0.69904190  0.50000939  1
  Mo  Mo234  1  0.69731824  0.70357574  0.10331157  1
  Mo  Mo235  1  0.89668290  0.69693847  0.49758875  1
  Mo  Mo236  1  0.30880178  0.69828192  0.89554583  1
  Mo  Mo237  1  0.40874004  0.60312453  0.80017854  1
  Mo  Mo238  1  0.70300765  0.51047164  0.30121575  1
  Mo  Mo239  1  0.79662205  -0.00180159  0.59762355  1
  Mo  Mo240  1  0.70565629  0.09050288  0.10766785  1
  Mo  Mo241  1  -0.00451664  0.19785485  -0.00129102  1
  Mo  Mo242  1  0.79620735  0.80291134  0.00276131  1
  Mo  Mo243  1  0.89188711  0.90438752  0.70246234  1
  Mo  Mo244  1  0.10297093  0.10963864  0.69209749  1
  Mo  Mo245  1  0.40847026  0.60277937  0.00262756  1
  Mo  Mo246  1  -0.02047964  0.39998797  0.18727295  1
  Mo  Mo247  1  0.60289612  0.79500955  0.19746099  1
  Mo  Mo248  1  0.28992376  0.08506417  0.29154006  1
  Mo  Mo249  1  0.80030974  0.80141344  0.19607776  1
