# generated using pymatgen
data_HfZrTaTiMo
_symmetry_space_group_name_H-M   'P 1'
_cell_length_a   16.89238573
_cell_length_b   16.88280489
_cell_length_c   16.89698162
_cell_angle_alpha   90.00384616
_cell_angle_beta   89.97154122
_cell_angle_gamma   90.01622633
_symmetry_Int_Tables_number   1
_chemical_formula_structural   HfZrTaTiMo
_chemical_formula_sum   'Hf50 Zr50 Ta50 Ti50 Mo50'
_cell_volume   4818.86379173
_cell_formula_units_Z   50
loop_
 _symmetry_equiv_pos_site_id
 _symmetry_equiv_pos_as_xyz
  1  'x, y, z'
loop_
 _atom_site_type_symbol
 _atom_site_label
 _atom_site_symmetry_multiplicity
 _atom_site_fract_x
 _atom_site_fract_y
 _atom_site_fract_z
 _atom_site_occupancy
  Hf  Hf0  1  0.80364237  0.60580190  0.01232443  1
  Hf  Hf1  1  0.59754651  0.80296451  0.39545608  1
  Hf  Hf2  1  0.70798657  0.29183114  0.10952190  1
  Hf  Hf3  1  0.80056978  0.40181668  0.39706320  1
  Hf  Hf4  1  0.69922057  0.10270564  0.29336947  1
  Hf  Hf5  1  0.90792358  0.30007672  0.51172797  1
  Hf  Hf6  1  0.59774245  0.39352886  -0.00385300  1
  Hf  Hf7  1  -0.00113303  0.39926145  0.39785077  1
  Hf  Hf8  1  0.29631627  0.49838123  0.29361683  1
  Hf  Hf9  1  0.69789664  0.90344575  0.69627808  1
  Hf  Hf10  1  0.30499858  0.28879310  0.29828697  1
  Hf  Hf11  1  0.70240144  0.30632293  0.70091133  1
  Hf  Hf12  1  0.59899166  0.19708470  0.80311392  1
  Hf  Hf13  1  0.30087003  0.30253215  0.50385586  1
  Hf  Hf14  1  0.50441138  0.68971966  0.70885309  1
  Hf  Hf15  1  0.29597652  0.90181281  0.70242531  1
  Hf  Hf16  1  0.19290132  0.78785713  0.18886052  1
  Hf  Hf17  1  0.80595474  0.40319417  0.20832070  1
  Hf  Hf18  1  0.31834772  0.70126550  0.10390718  1
  Hf  Hf19  1  0.28764891  0.10775998  0.11789754  1
  Hf  Hf20  1  0.59393204  0.79943507  0.60049114  1
  Hf  Hf21  1  -0.00115393  -0.00536703  0.79550070  1
  Hf  Hf22  1  0.19445249  0.19453216  0.40129951  1
  Hf  Hf23  1  0.20883412  0.59568530  0.60356153  1
  Hf  Hf24  1  0.90461060  0.10633831  0.28828578  1
  Hf  Hf25  1  0.61027258  0.01203542  -0.00450430  1
  Hf  Hf26  1  0.60448872  0.60285646  0.20418038  1
  Hf  Hf27  1  0.20130012  0.00316461  0.39601133  1
  Hf  Hf28  1  0.00284588  0.00310065  0.39835309  1
  Hf  Hf29  1  0.49439364  0.30026731  0.49642098  1
  Hf  Hf30  1  0.39832686  0.79258015  0.60202544  1
  Hf  Hf31  1  0.79727269  0.79219533  0.39492731  1
  Hf  Hf32  1  0.69859662  0.69410889  0.50370970  1
  Hf  Hf33  1  0.29950726  0.30978035  0.69315427  1
  Hf  Hf34  1  0.39485358  0.59829005  0.40850941  1
  Hf  Hf35  1  0.49112114  0.11106811  0.31136099  1
  Hf  Hf36  1  0.19470506  0.20113823  -0.00035106  1
  Hf  Hf37  1  0.00258974  0.20898496  0.79435579  1
  Hf  Hf38  1  0.49816847  0.30341292  0.70162604  1
  Hf  Hf39  1  0.49362347  0.90203360  0.90138816  1
  Hf  Hf40  1  0.70137890  0.08741387  0.50768887  1
  Hf  Hf41  1  0.81306570  0.79741958  0.20918405  1
  Hf  Hf42  1  0.49047051  0.29580856  0.09913000  1
  Hf  Hf43  1  0.20647309  0.00130643  -0.00773614  1
  Hf  Hf44  1  0.89103872  0.89718517  0.90738431  1
  Hf  Hf45  1  0.30119974  0.30141241  0.09783203  1
  Hf  Hf46  1  0.40567683  0.19025807  0.61029946  1
  Hf  Hf47  1  0.10273348  0.69772298  0.70097884  1
  Hf  Hf48  1  0.88923208  0.90163251  0.51053035  1
  Hf  Hf49  1  0.20117408  0.41238731  0.79391717  1
  Zr  Zr50  1  0.58767280  -0.01133939  0.19785994  1
  Zr  Zr51  1  0.80964610  0.39558340  0.00042043  1
  Zr  Zr52  1  0.69627052  0.49947135  0.49574015  1
  Zr  Zr53  1  0.30692119  0.70293047  0.90633616  1
  Zr  Zr54  1  0.30476405  0.89150868  0.09107163  1
  Zr  Zr55  1  0.20106029  0.59775449  0.40654708  1
  Zr  Zr56  1  -0.00114480  -0.00048682  0.60297096  1
  Zr  Zr57  1  0.09785558  0.89743876  0.28846720  1
  Zr  Zr58  1  0.81279409  0.60142638  0.59799760  1
  Zr  Zr59  1  0.80009591  0.60020771  0.21627458  1
  Zr  Zr60  1  0.10327789  0.49742251  0.10559982  1
  Zr  Zr61  1  0.10035136  0.88929898  0.50373791  1
  Zr  Zr62  1  0.48829461  0.10837638  0.09862630  1
  Zr  Zr63  1  0.19613019  0.60758007  0.00153357  1
  Zr  Zr64  1  0.59916875  0.80561424  0.00163222  1
  Zr  Zr65  1  0.50245319  0.50821283  0.89940517  1
  Zr  Zr66  1  0.11393552  0.10240538  0.26377680  1
  Zr  Zr67  1  0.90011023  0.09903969  0.90052645  1
  Zr  Zr68  1  0.19701789  0.21343161  0.79395609  1
  Zr  Zr69  1  0.79287504  0.00699532  0.79915192  1
  Zr  Zr70  1  0.19240672  0.39605169  0.40400307  1
  Zr  Zr71  1  0.89727093  0.10380761  0.09922446  1
  Zr  Zr72  1  0.49861086  0.91339144  0.50563035  1
  Zr  Zr73  1  -0.01725210  0.79513891  0.39063962  1
  Zr  Zr74  1  0.30524320  0.88630121  0.29809358  1
  Zr  Zr75  1  0.60158917  0.20173851  -0.00836446  1
  Zr  Zr76  1  0.01110025  0.19635820  0.40456672  1
  Zr  Zr77  1  0.49162484  0.70668123  0.29334093  1
  Zr  Zr78  1  0.60023413  0.59776333  0.39383769  1
  Zr  Zr79  1  0.80308483  -0.01131426  0.38662257  1
  Zr  Zr80  1  0.20860616  0.78751377  0.40594808  1
  Zr  Zr81  1  0.10936288  0.89357259  0.69848614  1
  Zr  Zr82  1  0.00083211  0.79482157  0.80222054  1
  Zr  Zr83  1  0.89949341  0.89665320  0.09399665  1
  Zr  Zr84  1  0.69914790  0.69722731  0.70945073  1
  Zr  Zr85  1  0.39609614  0.00065772  0.20640256  1
  Zr  Zr86  1  0.80205162  0.20646929  0.40272740  1
  Zr  Zr87  1  0.00104612  0.60460946  -0.00288205  1
  Zr  Zr88  1  0.31403672  0.10039646  0.49529949  1
  Zr  Zr89  1  0.10510165  0.09771824  0.88933847  1
  Zr  Zr90  1  0.69754308  0.49673983  0.10237611  1
  Zr  Zr91  1  0.09529805  0.69202328  0.29776909  1
  Zr  Zr92  1  0.88791106  0.70681639  0.90094279  1
  Zr  Zr93  1  0.00049588  0.39588051  -0.00107431  1
  Zr  Zr94  1  0.39123277  0.00778126  0.80565559  1
  Zr  Zr95  1  0.60808067  0.20948282  0.40806401  1
  Zr  Zr96  1  0.79218294  0.19297938  -0.00690002  1
  Zr  Zr97  1  0.69534064  0.50624749  0.70398185  1
  Zr  Zr98  1  0.70460175  0.50470029  0.89433167  1
  Zr  Zr99  1  0.59773212  0.40044624  0.58961416  1
  Ta  Ta100  1  0.60313249  0.60803930  0.00385592  1
  Ta  Ta101  1  0.79908509  0.20060537  0.79340252  1
  Ta  Ta102  1  0.09352153  0.49582734  0.51140263  1
  Ta  Ta103  1  0.10449102  0.09814822  0.69765119  1
  Ta  Ta104  1  0.10140997  0.90102781  0.09713060  1
  Ta  Ta105  1  0.39160851  0.00519638  -0.00488677  1
  Ta  Ta106  1  0.28998506  0.10063924  0.70417343  1
  Ta  Ta107  1  0.50236888  0.70259813  0.09687307  1
  Ta  Ta108  1  -0.00836136  0.59508430  0.40416518  1
  Ta  Ta109  1  0.70483966  0.89906836  0.09702995  1
  Ta  Ta110  1  0.50242296  0.50579025  0.70136224  1
  Ta  Ta111  1  0.00386262  0.20419549  0.00224728  1
  Ta  Ta112  1  0.90302505  0.49438238  0.70462681  1
  Ta  Ta113  1  0.39881032  0.40515770  0.80255549  1
  Ta  Ta114  1  0.90074943  0.30561228  0.69984201  1
  Ta  Ta115  1  0.49982509  0.69922356  0.90040202  1
  Ta  Ta116  1  0.59573073  0.39504258  0.20631428  1
  Ta  Ta117  1  0.09675893  0.30020489  0.28561141  1
  Ta  Ta118  1  0.59279207  0.39769381  0.80540184  1
  Ta  Ta119  1  0.80275266  0.39962091  0.59904571  1
  Ta  Ta120  1  0.50205773  0.90608201  0.70557796  1
  Ta  Ta121  1  0.00910104  0.79320839  0.00385107  1
  Ta  Ta122  1  0.79571943  -0.00013371  0.19428690  1
  Ta  Ta123  1  0.59852426  0.80342832  0.80507945  1
  Ta  Ta124  1  0.69999704  0.90436042  0.50994488  1
  Ta  Ta125  1  0.70174912  0.71141906  0.10640032  1
  Ta  Ta126  1  0.90825812  0.49805504  0.10964733  1
  Ta  Ta127  1  0.49997644  0.49361173  0.30155616  1
  Ta  Ta128  1  0.20167562  0.00728197  0.59434727  1
  Ta  Ta129  1  0.89597806  0.09892758  0.50818261  1
  Ta  Ta130  1  0.40059892  0.40167912  -0.00306104  1
  Ta  Ta131  1  0.09050511  0.69249701  0.50700320  1
  Ta  Ta132  1  0.19127389  0.20004319  0.59430755  1
  Ta  Ta133  1  0.30368348  0.49568475  0.09859921  1
  Ta  Ta134  1  0.59826383  0.20148257  0.20139560  1
  Ta  Ta135  1  0.79697251  0.20138056  0.60291187  1
  Ta  Ta136  1  0.39840976  0.20277899  0.80426346  1
  Ta  Ta137  1  0.00410283  0.59597248  0.80286506  1
  Ta  Ta138  1  0.90894281  0.29403138  0.28364322  1
  Ta  Ta139  1  0.00902699  0.00028903  -0.00038416  1
  Ta  Ta140  1  0.30111963  0.30561072  0.90271336  1
  Ta  Ta141  1  0.40365679  0.40101365  0.20116000  1
  Ta  Ta142  1  0.40232075  0.40516434  0.40038371  1
  Ta  Ta143  1  0.09307603  0.49828694  0.29308613  1
  Ta  Ta144  1  0.40036953  0.80000262  0.80155811  1
  Ta  Ta145  1  0.39098123  0.59479636  0.79906551  1
  Ta  Ta146  1  0.00373925  0.40294411  0.79913407  1
  Ta  Ta147  1  0.10603347  0.89640506  0.90079246  1
  Ta  Ta148  1  0.49891251  0.50065789  0.10160864  1
  Ta  Ta149  1  0.30319382  0.90179837  0.50574292  1
  Ti  Ti150  1  0.40336036  0.00510625  0.61117551  1
  Ti  Ti151  1  0.20943831  0.78867698  0.59380728  1
  Ti  Ti152  1  0.49071248  0.10675146  0.90200129  1
  Ti  Ti153  1  -0.00892416  0.60849061  0.20002135  1
  Ti  Ti154  1  0.20145772  0.60256835  0.19529013  1
  Ti  Ti155  1  0.10622683  0.31172672  0.90270575  1
  Ti  Ti156  1  0.69358854  0.89339367  0.28909543  1
  Ti  Ti157  1  0.39822027  -0.00397273  0.39459312  1
  Ti  Ti158  1  0.80822548  0.59881809  0.39155035  1
  Ti  Ti159  1  0.30826914  0.69930250  0.29323373  1
  Ti  Ti160  1  0.88616256  0.89151671  0.70182151  1
  Ti  Ti161  1  0.40209375  0.41526800  0.60157596  1
  Ti  Ti162  1  0.59649223  0.00707596  0.80132374  1
  Ti  Ti163  1  0.39732471  0.59489303  0.60169916  1
  Ti  Ti164  1  0.70036016  0.70455146  0.90004307  1
  Ti  Ti165  1  0.80631707  0.59969989  0.80102043  1
  Ti  Ti166  1  0.89885055  0.30181909  0.89117645  1
  Ti  Ti167  1  0.71068948  0.30597653  0.88892022  1
  Ti  Ti168  1  0.70789527  0.89771571  0.90123592  1
  Ti  Ti169  1  0.40506471  0.59188152  0.19924201  1
  Ti  Ti170  1  0.29609860  0.49720651  0.90834994  1
  Ti  Ti171  1  0.69970858  0.30088188  0.29864593  1
  Ti  Ti172  1  0.69450260  0.09696548  0.69444821  1
  Ti  Ti173  1  -0.01333392  0.78786629  0.59860013  1
  Ti  Ti174  1  0.00707555  0.19661777  0.60000686  1
  Ti  Ti175  1  0.50468641  0.09742259  0.50153009  1
  Ti  Ti176  1  0.10403210  0.49928141  0.90110360  1
  Ti  Ti177  1  0.30039685  0.69740087  0.70638143  1
  Ti  Ti178  1  0.29727277  0.49207323  0.50678463  1
  Ti  Ti179  1  0.49638016  0.29960080  0.30361974  1
  Ti  Ti180  1  0.19990454  0.39717044  0.19801720  1
  Ti  Ti181  1  0.90418141  0.49757793  0.50456513  1
  Ti  Ti182  1  0.19351511  0.79499101  -0.00295384  1
  Ti  Ti183  1  0.59958543  -0.00596390  0.39560942  1
  Ti  Ti184  1  0.50159490  0.68759342  0.50625727  1
  Ti  Ti185  1  0.60101795  0.19673197  0.60132681  1
  Ti  Ti186  1  0.20074913  0.59810573  0.80177952  1
  Ti  Ti187  1  0.89781880  0.10568514  0.69337335  1
  Ti  Ti188  1  0.80110819  0.79217198  0.60143369  1
  Ti  Ti189  1  -0.00546765  0.60130063  0.60290581  1
  Ti  Ti190  1  0.43397444  0.82243203  0.18973082  1
  Ti  Ti191  1  0.40430143  0.59624931  0.00215675  1
  Ti  Ti192  1  0.40179440  0.79641163  0.41160318  1
  Ti  Ti193  1  0.89981335  0.49661465  0.89370694  1
  Ti  Ti194  1  0.20523604  0.79854476  0.81129624  1
  Ti  Ti195  1  0.09499194  0.50112499  0.69498861  1
  Ti  Ti196  1  0.89734250  0.69980817  0.70760164  1
  Ti  Ti197  1  -0.00080108  -0.00399192  0.18973745  1
  Ti  Ti198  1  0.09422705  0.31537707  0.68102932  1
  Ti  Ti199  1  0.09891548  0.29990741  0.10401129  1
  Mo  Mo200  1  0.00099013  0.39959920  0.19885596  1
  Mo  Mo201  1  0.40809661  0.80157858  -0.00203771  1
  Mo  Mo202  1  0.91356169  0.49800153  0.30117479  1
  Mo  Mo203  1  0.59735560  0.60410113  0.81039951  1
  Mo  Mo204  1  0.59719272  0.39769943  0.39159652  1
  Mo  Mo205  1  0.19945255  -0.00463355  0.79564435  1
  Mo  Mo206  1  0.19757623  0.21670150  0.19389564  1
  Mo  Mo207  1  0.39069549  0.19896490  -0.01234717  1
  Mo  Mo208  1  0.19454281  0.40422515  0.60086882  1
  Mo  Mo209  1  0.50154202  0.90634715  0.08213359  1
  Mo  Mo210  1  0.60448640  0.80154964  0.19807938  1
  Mo  Mo211  1  0.09694857  0.09576478  0.09154711  1
  Mo  Mo212  1  0.59631732  0.00415330  0.60720984  1
  Mo  Mo213  1  0.80870519  0.39794828  0.79732336  1
  Mo  Mo214  1  0.79090217  0.80083382  0.79937253  1
  Mo  Mo215  1  0.50016999  0.90216215  0.31649305  1
  Mo  Mo216  1  0.78935122  -0.00230907  0.00217035  1
  Mo  Mo217  1  0.90495380  0.29830021  0.10245600  1
  Mo  Mo218  1  0.70126229  0.70606726  0.30059978  1
  Mo  Mo219  1  0.90118546  0.68846434  0.30294101  1
  Mo  Mo220  1  0.30229464  0.10224723  0.30050543  1
  Mo  Mo221  1  0.79377645  0.79811679  0.00386470  1
  Mo  Mo222  1  0.89957862  0.69493074  0.50108091  1
  Mo  Mo223  1  -0.00284295  0.79274081  0.18991721  1
  Mo  Mo224  1  0.10510835  0.70105508  0.89559054  1
  Mo  Mo225  1  0.09399274  0.70149679  0.10124243  1
  Mo  Mo226  1  0.48817720  0.30234464  0.89750909  1
  Mo  Mo227  1  0.50203634  0.09876901  0.70267299  1
  Mo  Mo228  1  0.70628486  0.29886141  0.50774960  1
  Mo  Mo229  1  0.00232301  0.20589544  0.18284352  1
  Mo  Mo230  1  0.69868696  0.10055216  0.88706328  1
  Mo  Mo231  1  0.68805848  0.48614226  0.30381377  1
  Mo  Mo232  1  0.20365769  0.40183478  -0.00437308  1
  Mo  Mo233  1  0.69936626  0.09773277  0.10980737  1
  Mo  Mo234  1  0.40130543  0.20380475  0.20921406  1
  Mo  Mo235  1  0.30653314  0.69975453  0.50928335  1
  Mo  Mo236  1  0.90369618  0.91109455  0.28894620  1
  Mo  Mo237  1  -0.00268824  0.40776492  0.60348926  1
  Mo  Mo238  1  0.30010987  0.11052018  0.89666147  1
  Mo  Mo239  1  0.79706374  0.20057176  0.20161358  1
  Mo  Mo240  1  0.29699332  0.89348508  0.89835806  1
  Mo  Mo241  1  0.90310532  0.69950899  0.10452997  1
  Mo  Mo242  1  0.79932977  0.00632420  0.60593178  1
  Mo  Mo243  1  0.09984772  0.30194848  0.50966023  1
  Mo  Mo244  1  0.30665915  0.50325195  0.70242494  1
  Mo  Mo245  1  0.09619177  0.09933411  0.51048026  1
  Mo  Mo246  1  0.49165889  0.49913234  0.49980765  1
  Mo  Mo247  1  0.40346765  0.20303830  0.40629733  1
  Mo  Mo248  1  0.19895900  -0.01686371  0.19262705  1
  Mo  Mo249  1  0.58744598  0.59688190  0.59568239  1
