# generated using pymatgen
data_HfZrTaTiMo
_symmetry_space_group_name_H-M   'P 1'
_cell_length_a   16.88969001
_cell_length_b   16.88347148
_cell_length_c   16.89030026
_cell_angle_alpha   89.97763407
_cell_angle_beta   90.02550507
_cell_angle_gamma   90.06121498
_symmetry_Int_Tables_number   1
_chemical_formula_structural   HfZrTaTiMo
_chemical_formula_sum   'Hf50 Zr50 Ta50 Ti50 Mo50'
_cell_volume   4816.37699412
_cell_formula_units_Z   50
loop_
 _symmetry_equiv_pos_site_id
 _symmetry_equiv_pos_as_xyz
  1  'x, y, z'
loop_
 _atom_site_type_symbol
 _atom_site_label
 _atom_site_symmetry_multiplicity
 _atom_site_fract_x
 _atom_site_fract_y
 _atom_site_fract_z
 _atom_site_occupancy
  Hf  Hf0  1  0.90361714  0.09882830  0.90550915  1
  Hf  Hf1  1  0.19722531  0.00798494  0.40130063  1
  Hf  Hf2  1  0.90124755  0.09984411  0.10046931  1
  Hf  Hf3  1  0.90590897  0.49426589  0.30030994  1
  Hf  Hf4  1  0.59956675  0.19381485  0.39797370  1
  Hf  Hf5  1  0.89845181  0.90682242  0.29115894  1
  Hf  Hf6  1  0.59621627  0.19540958  0.59522472  1
  Hf  Hf7  1  0.80204616  0.60309693  0.40306282  1
  Hf  Hf8  1  0.00138653  0.39209968  0.00879754  1
  Hf  Hf9  1  0.78845701  0.79914335  0.20344880  1
  Hf  Hf10  1  0.88970931  0.10341554  0.69734579  1
  Hf  Hf11  1  0.09866476  0.71037074  0.09235803  1
  Hf  Hf12  1  0.39875597  0.80736898  0.00956670  1
  Hf  Hf13  1  0.60267878  0.39712582  0.80395288  1
  Hf  Hf14  1  0.60743427  0.19769099  -0.01223793  1
  Hf  Hf15  1  0.10357614  0.90055615  0.50794682  1
  Hf  Hf16  1  0.48943271  0.90211933  0.69833197  1
  Hf  Hf17  1  0.80192816  0.20010922  0.20278800  1
  Hf  Hf18  1  0.39870071  0.39206303  0.38865023  1
  Hf  Hf19  1  0.10680459  0.89949924  0.90428418  1
  Hf  Hf20  1  0.70393771  0.50559029  0.69910154  1
  Hf  Hf21  1  0.88578791  0.91508745  0.50057836  1
  Hf  Hf22  1  0.71614686  0.51058877  0.89448076  1
  Hf  Hf23  1  0.40067515  0.18965656  0.59104453  1
  Hf  Hf24  1  0.00926298  0.00317081  0.18967261  1
  Hf  Hf25  1  0.90704697  0.30562812  0.49482214  1
  Hf  Hf26  1  0.38565501  0.59633782  0.80035032  1
  Hf  Hf27  1  0.89954621  0.49747538  0.10421652  1
  Hf  Hf28  1  0.40692019  0.61044462  0.39889623  1
  Hf  Hf29  1  0.69113676  0.90411859  0.49996787  1
  Hf  Hf30  1  0.90647515  0.69939161  0.29349609  1
  Hf  Hf31  1  0.20312205  0.59595616  0.80182133  1
  Hf  Hf32  1  0.59199399  0.79193468  0.39339883  1
  Hf  Hf33  1  0.00302991  -0.00133354  0.80518910  1
  Hf  Hf34  1  0.60580206  0.80453427  0.80276432  1
  Hf  Hf35  1  0.70134271  0.09184866  0.50045034  1
  Hf  Hf36  1  0.00458265  0.20013452  0.59740477  1
  Hf  Hf37  1  0.39309686  0.19721145  0.00277682  1
  Hf  Hf38  1  0.70682251  0.69506633  0.70781641  1
  Hf  Hf39  1  0.49690126  0.29688203  0.70401318  1
  Hf  Hf40  1  0.83591021  0.60305752  0.60894710  1
  Hf  Hf41  1  0.39857797  0.38923132  0.19871472  1
  Hf  Hf42  1  0.70274254  0.09842412  0.69841117  1
  Hf  Hf43  1  0.09590145  0.69805469  0.70182231  1
  Hf  Hf44  1  0.30636855  0.06446651  0.92498808  1
  Hf  Hf45  1  0.10609102  0.30948197  0.49067471  1
  Hf  Hf46  1  0.49109915  0.89165543  0.50348488  1
  Hf  Hf47  1  0.20731021  0.19448869  0.81617707  1
  Hf  Hf48  1  0.29953442  0.49501054  0.09741038  1
  Hf  Hf49  1  0.89186417  0.90597735  0.70457635  1
  Zr  Zr50  1  0.00445670  0.00750285  0.59586970  1
  Zr  Zr51  1  0.48825372  0.29996595  0.89514843  1
  Zr  Zr52  1  0.49446112  0.29615126  0.49029706  1
  Zr  Zr53  1  0.20369746  0.40665876  0.61071751  1
  Zr  Zr54  1  0.70329448  0.29459778  0.70443146  1
  Zr  Zr55  1  0.59889777  0.61182168  -0.00084343  1
  Zr  Zr56  1  0.10205691  0.49955060  0.49349990  1
  Zr  Zr57  1  0.38740105  0.18084930  0.80112296  1
  Zr  Zr58  1  0.70126898  0.90460847  0.10691151  1
  Zr  Zr59  1  0.90537017  0.29421384  0.90321956  1
  Zr  Zr60  1  0.78982416  0.79827478  0.39556494  1
  Zr  Zr61  1  0.10901820  0.49290002  0.09644245  1
  Zr  Zr62  1  0.21487751  -0.00725928  0.79641833  1
  Zr  Zr63  1  0.01108361  0.19286359  0.39715038  1
  Zr  Zr64  1  0.10961282  0.10081731  0.69997346  1
  Zr  Zr65  1  0.29769773  0.29220685  0.69783959  1
  Zr  Zr66  1  0.60571974  0.00447649  0.80218111  1
  Zr  Zr67  1  0.48777059  0.70633990  0.69740409  1
  Zr  Zr68  1  0.20568049  0.80344151  0.39923793  1
  Zr  Zr69  1  0.91139865  0.30861445  0.30015684  1
  Zr  Zr70  1  -0.00977539  0.58848052  0.78889702  1
  Zr  Zr71  1  0.39827749  0.20242920  0.20300957  1
  Zr  Zr72  1  0.70153553  0.50158033  0.29514369  1
  Zr  Zr73  1  0.59635480  0.20202334  0.20221588  1
  Zr  Zr74  1  0.00586681  0.39975372  0.80762598  1
  Zr  Zr75  1  0.09606848  0.90075979  0.29486994  1
  Zr  Zr76  1  0.70361001  0.09350001  0.10439153  1
  Zr  Zr77  1  0.80165231  0.60744313  0.00393762  1
  Zr  Zr78  1  0.09190304  0.68757321  0.50411755  1
  Zr  Zr79  1  -0.01080869  0.79994449  0.40977603  1
  Zr  Zr80  1  0.49058415  0.71132766  0.89642854  1
  Zr  Zr81  1  0.49950644  0.50233149  0.09701682  1
  Zr  Zr82  1  0.89510012  0.70376338  0.89443828  1
  Zr  Zr83  1  0.20608423  0.60152297  0.39509620  1
  Zr  Zr84  1  0.59199929  0.59928476  0.80499769  1
  Zr  Zr85  1  0.48257250  0.91365769  0.90031272  1
  Zr  Zr86  1  0.09739035  0.70707407  0.29454047  1
  Zr  Zr87  1  0.60518195  0.40272609  -0.00766048  1
  Zr  Zr88  1  -0.00223891  0.41831449  0.61878630  1
  Zr  Zr89  1  0.00805393  0.59337717  0.19449461  1
  Zr  Zr90  1  0.20595262  0.60280567  0.19882354  1
  Zr  Zr91  1  0.50512546  0.50335436  0.29482165  1
  Zr  Zr92  1  0.80485397  0.40539791  0.59442212  1
  Zr  Zr93  1  0.60237619  0.39790252  0.59199136  1
  Zr  Zr94  1  0.39188541  0.60816166  -0.00187289  1
  Zr  Zr95  1  0.70322816  0.30795633  0.30105877  1
  Zr  Zr96  1  0.39733559  0.00231865  0.40266985  1
  Zr  Zr97  1  0.70587686  0.89996402  0.90709763  1
  Zr  Zr98  1  -0.01717097  0.78911368  0.60442421  1
  Zr  Zr99  1  0.69993478  0.69328639  0.50988421  1
  Ta  Ta100  1  0.89001017  0.09876640  0.49426153  1
  Ta  Ta101  1  0.00252274  -0.00701260  0.00373205  1
  Ta  Ta102  1  0.20019816  0.38696385  0.20707555  1
  Ta  Ta103  1  0.89888563  0.29236250  0.70686453  1
  Ta  Ta104  1  0.10216769  0.29607327  0.70684118  1
  Ta  Ta105  1  0.59404844  0.80402065  0.01063658  1
  Ta  Ta106  1  0.80345128  0.39741106  0.00053453  1
  Ta  Ta107  1  0.37416440  0.81041281  0.80228269  1
  Ta  Ta108  1  0.20820422  0.80958293  0.19262006  1
  Ta  Ta109  1  0.30888439  0.70566850  0.50434751  1
  Ta  Ta110  1  0.10460629  0.49965059  0.90651326  1
  Ta  Ta111  1  0.29873056  0.91421003  0.09523798  1
  Ta  Ta112  1  0.59514446  0.00061621  0.00433762  1
  Ta  Ta113  1  0.30299777  0.49787473  0.49381011  1
  Ta  Ta114  1  0.49317540  0.49543685  0.69720981  1
  Ta  Ta115  1  0.59659625  0.60673918  0.39909973  1
  Ta  Ta116  1  0.29612058  0.29992846  0.49009770  1
  Ta  Ta117  1  0.59204013  0.79582876  0.20366496  1
  Ta  Ta118  1  0.79690333  0.19776172  0.39744393  1
  Ta  Ta119  1  0.78595606  0.00459582  0.38209376  1
  Ta  Ta120  1  0.58518705  0.60086129  0.59690467  1
  Ta  Ta121  1  0.49779747  0.50039829  0.49744049  1
  Ta  Ta122  1  0.90100659  0.09816392  0.29779605  1
  Ta  Ta123  1  0.78976403  0.19633660  0.81558856  1
  Ta  Ta124  1  0.39631758  0.59550679  0.59737692  1
  Ta  Ta125  1  0.50108941  0.30151351  0.09197270  1
  Ta  Ta126  1  0.00601080  0.19670774  0.80313203  1
  Ta  Ta127  1  0.49714698  0.09601388  0.30494457  1
  Ta  Ta128  1  0.69977407  0.49972099  0.10608958  1
  Ta  Ta129  1  0.30071110  0.49862380  0.29687442  1
  Ta  Ta130  1  0.40475671  0.80644967  0.19854224  1
  Ta  Ta131  1  0.30939359  0.71103925  0.29789026  1
  Ta  Ta132  1  0.20298469  0.79761161  0.80161865  1
  Ta  Ta133  1  0.00892400  0.20789039  0.19329061  1
  Ta  Ta134  1  0.59722720  0.39533857  0.19631024  1
  Ta  Ta135  1  0.20832727  0.59586401  0.60716752  1
  Ta  Ta136  1  -0.00092792  0.59915585  -0.00766050  1
  Ta  Ta137  1  0.39634793  0.40301052  0.59634339  1
  Ta  Ta138  1  0.10593051  0.89383838  0.69754394  1
  Ta  Ta139  1  0.49891485  0.09558255  0.90022670  1
  Ta  Ta140  1  0.29941486  0.10164011  0.29432815  1
  Ta  Ta141  1  0.70092754  0.30478288  0.09714806  1
  Ta  Ta142  1  0.79756041  0.20543314  0.00188905  1
  Ta  Ta143  1  0.30326158  0.89456395  0.50597658  1
  Ta  Ta144  1  0.79895018  0.79837955  0.60212978  1
  Ta  Ta145  1  -0.00636104  0.80767824  -0.00235342  1
  Ta  Ta146  1  0.90427715  0.70707665  0.10194808  1
  Ta  Ta147  1  0.40519724  0.61347191  0.19834227  1
  Ta  Ta148  1  0.20038340  0.40011287  0.80558202  1
  Ta  Ta149  1  0.59765890  0.79562830  0.60208298  1
  Ti  Ti150  1  0.60007678  0.39789265  0.39872907  1
  Ti  Ti151  1  0.29967738  0.89962771  0.68457570  1
  Ti  Ti152  1  0.69255076  0.69913508  0.10459607  1
  Ti  Ti153  1  0.60241057  -0.00237092  0.21430231  1
  Ti  Ti154  1  0.20253132  0.60920370  -0.00788899  1
  Ti  Ti155  1  0.09769075  0.70207151  0.90014671  1
  Ti  Ti156  1  -0.00067291  0.80673117  0.80411604  1
  Ti  Ti157  1  0.00431046  0.00877450  0.40116695  1
  Ti  Ti158  1  0.79432143  0.60645940  0.19924136  1
  Ti  Ti159  1  0.09819450  0.48527158  0.30525605  1
  Ti  Ti160  1  0.10477308  0.09749285  0.91272543  1
  Ti  Ti161  1  0.79856721  0.00181664  0.80981560  1
  Ti  Ti162  1  0.11137520  0.10546590  0.09390233  1
  Ti  Ti163  1  0.89833921  0.89800683  0.10138504  1
  Ti  Ti164  1  0.10685262  0.29156773  0.90690485  1
  Ti  Ti165  1  0.19962317  0.38498125  -0.00218321  1
  Ti  Ti166  1  0.29951757  0.70319379  0.69515186  1
  Ti  Ti167  1  0.79566739  0.40140601  0.41039442  1
  Ti  Ti168  1  0.40399849  -0.00138182  0.19871911  1
  Ti  Ti169  1  0.38543536  0.40347278  0.79685720  1
  Ti  Ti170  1  0.48668291  0.49395610  0.90133889  1
  Ti  Ti171  1  0.49808193  0.09630037  0.70751795  1
  Ti  Ti172  1  0.00786749  0.20132247  0.00805388  1
  Ti  Ti173  1  0.79857963  0.80320101  0.80246219  1
  Ti  Ti174  1  0.39559207  0.00980799  0.59804473  1
  Ti  Ti175  1  0.69341683  0.50441922  0.49964691  1
  Ti  Ti176  1  0.20627670  0.00853869  0.59401513  1
  Ti  Ti177  1  0.19937874  -0.00173089  0.19762603  1
  Ti  Ti178  1  0.30456864  0.90226054  0.29708533  1
  Ti  Ti179  1  0.79810036  0.20850305  0.58854043  1
  Ti  Ti180  1  0.29910664  0.10839803  0.49036358  1
  Ti  Ti181  1  0.29702609  0.48746207  0.91049705  1
  Ti  Ti182  1  0.70323503  0.90553033  0.68991838  1
  Ti  Ti183  1  0.20656887  0.80323073  -0.00308503  1
  Ti  Ti184  1  0.20386938  0.20468321  0.38821035  1
  Ti  Ti185  1  0.19880068  0.19536823  0.59117998  1
  Ti  Ti186  1  0.50283718  0.09691777  0.10256966  1
  Ti  Ti187  1  0.20218395  0.79379316  0.60204445  1
  Ti  Ti188  1  0.10544032  0.10431699  0.29205989  1
  Ti  Ti189  1  0.80529331  -0.00160473  -0.00209005  1
  Ti  Ti190  1  0.58851932  0.00320885  0.59662200  1
  Ti  Ti191  1  0.92160080  0.50710368  0.48526585  1
  Ti  Ti192  1  0.80381256  0.39277091  0.18952422  1
  Ti  Ti193  1  0.29864129  0.70672045  0.10213326  1
  Ti  Ti194  1  0.79821753  0.79780705  0.00193241  1
  Ti  Ti195  1  0.19920725  0.20595599  0.19804981  1
  Ti  Ti196  1  0.49734781  0.90168865  0.30282262  1
  Ti  Ti197  1  0.29312722  0.29732447  0.09232606  1
  Ti  Ti198  1  0.29346792  0.09574491  0.10489270  1
  Ti  Ti199  1  0.80495431  0.39461841  0.80883630  1
  Mo  Mo200  1  -0.00131391  0.80879238  0.18430705  1
  Mo  Mo201  1  0.01090137  0.39101589  0.19991231  1
  Mo  Mo202  1  0.29649022  0.89612154  0.91217275  1
  Mo  Mo203  1  0.49820829  0.70348682  0.29626419  1
  Mo  Mo204  1  0.60030407  0.19362087  0.80172515  1
  Mo  Mo205  1  0.69814258  0.09741821  0.29895387  1
  Mo  Mo206  1  0.18500042  -0.00217808  0.01487654  1
  Mo  Mo207  1  0.68866313  0.90277337  0.29961977  1
  Mo  Mo208  1  0.88503163  0.48795499  0.72035210  1
  Mo  Mo209  1  0.60229006  0.60569279  0.19933266  1
  Mo  Mo210  1  0.20195257  0.19444344  0.00430056  1
  Mo  Mo211  1  0.00862257  0.39932474  0.39459496  1
  Mo  Mo212  1  0.28903813  0.70654033  0.90339465  1
  Mo  Mo213  1  0.49722280  0.69741442  0.50264076  1
  Mo  Mo214  1  0.11148706  0.10425318  0.49431921  1
  Mo  Mo215  1  0.49963836  0.70842429  0.10501080  1
  Mo  Mo216  1  0.89785592  0.71382364  0.71162106  1
  Mo  Mo217  1  0.69207010  0.69300002  0.29231050  1
  Mo  Mo218  1  0.39415515  0.19493296  0.39509160  1
  Mo  Mo219  1  0.20793982  0.40033330  0.39078172  1
  Mo  Mo220  1  0.39422248  -0.00251238  0.78220643  1
  Mo  Mo221  1  0.29666928  0.30897283  0.90479369  1
  Mo  Mo222  1  0.29534910  0.29384025  0.29996557  1
  Mo  Mo223  1  0.59449294  -0.00285307  0.39281113  1
  Mo  Mo224  1  0.50239777  0.08926903  0.49666817  1
  Mo  Mo225  1  0.70260819  0.09668779  0.90560352  1
  Mo  Mo226  1  0.39117862  0.39378168  -0.00028422  1
  Mo  Mo227  1  0.80354757  0.60272302  0.80151102  1
  Mo  Mo228  1  0.90303640  0.49708413  0.90881328  1
  Mo  Mo229  1  0.90048922  0.29677468  0.10109816  1
  Mo  Mo230  1  0.29936809  0.09500260  0.68275846  1
  Mo  Mo231  1  0.11327621  0.50133129  0.70894667  1
  Mo  Mo232  1  0.89936295  0.90094620  0.90491476  1
  Mo  Mo233  1  0.50241589  0.90628358  0.11257036  1
  Mo  Mo234  1  0.39340945  0.79602280  0.60165531  1
  Mo  Mo235  1  0.10725367  0.29231151  0.09948559  1
  Mo  Mo236  1  0.00049949  0.59552154  0.39138761  1
  Mo  Mo237  1  0.70679875  0.30018188  0.90271393  1
  Mo  Mo238  1  0.10395170  0.89545258  0.09718144  1
  Mo  Mo239  1  0.30572930  0.49912095  0.69908016  1
  Mo  Mo240  1  0.80468656  -0.00000786  0.20329240  1
  Mo  Mo241  1  0.10581676  0.29813185  0.29465538  1
  Mo  Mo242  1  0.41395288  0.00301862  0.02612642  1
  Mo  Mo243  1  0.00483573  0.59531455  0.60582935  1
  Mo  Mo244  1  0.70112626  0.71054864  0.90560300  1
  Mo  Mo245  1  0.79504170  -0.00145735  0.59803100  1
  Mo  Mo246  1  0.39784084  0.80362607  0.39591213  1
  Mo  Mo247  1  0.50354418  0.29637042  0.29501273  1
  Mo  Mo248  1  0.70706912  0.29953075  0.49103473  1
  Mo  Mo249  1  0.89987151  0.69314279  0.49133787  1
