# generated using pymatgen
data_HfZrTaTiMo
_symmetry_space_group_name_H-M   'P 1'
_cell_length_a   16.88293069
_cell_length_b   16.88260603
_cell_length_c   16.89367017
_cell_angle_alpha   89.98854277
_cell_angle_beta   90.04085898
_cell_angle_gamma   90.03072117
_symmetry_Int_Tables_number   1
_chemical_formula_structural   HfZrTaTiMo
_chemical_formula_sum   'Hf50 Zr50 Ta50 Ti50 Mo50'
_cell_volume   4815.16477070
_cell_formula_units_Z   50
loop_
 _symmetry_equiv_pos_site_id
 _symmetry_equiv_pos_as_xyz
  1  'x, y, z'
loop_
 _atom_site_type_symbol
 _atom_site_label
 _atom_site_symmetry_multiplicity
 _atom_site_fract_x
 _atom_site_fract_y
 _atom_site_fract_z
 _atom_site_occupancy
  Hf  Hf0  1  0.30262742  0.31406311  0.70210988  1
  Hf  Hf1  1  0.80334437  0.80790443  0.20125761  1
  Hf  Hf2  1  0.59629865  0.20405902  0.00063813  1
  Hf  Hf3  1  0.19367363  0.20460196  0.80109730  1
  Hf  Hf4  1  0.00198998  0.20404199  0.80565232  1
  Hf  Hf5  1  0.69918014  0.09501888  0.89831187  1
  Hf  Hf6  1  0.69991198  0.28867202  0.30263895  1
  Hf  Hf7  1  0.50206278  0.69788861  0.09623411  1
  Hf  Hf8  1  0.49790793  0.29818272  0.50552094  1
  Hf  Hf9  1  0.89553697  0.29543934  0.49418083  1
  Hf  Hf10  1  0.79865981  -0.01090140  0.78739778  1
  Hf  Hf11  1  0.81609299  0.00202926  0.20525103  1
  Hf  Hf12  1  0.59217430  0.60568938  0.60501950  1
  Hf  Hf13  1  0.50082051  0.10142088  0.69210045  1
  Hf  Hf14  1  0.09581667  0.08922686  0.89846259  1
  Hf  Hf15  1  0.29561910  0.09634867  0.70059954  1
  Hf  Hf16  1  0.50653536  0.50941937  0.07874610  1
  Hf  Hf17  1  0.80938972  -0.00829180  0.59612405  1
  Hf  Hf18  1  0.70013153  0.69864052  0.09996627  1
  Hf  Hf19  1  0.80164770  -0.00626862  0.00605613  1
  Hf  Hf20  1  0.29620297  0.09987355  0.09803015  1
  Hf  Hf21  1  0.60202687  0.39522220  0.60992025  1
  Hf  Hf22  1  0.39232628  0.79290681  0.00575375  1
  Hf  Hf23  1  0.69361626  0.50283844  0.90893503  1
  Hf  Hf24  1  0.20596689  0.60336264  0.40577291  1
  Hf  Hf25  1  0.09963120  0.50061720  0.10109679  1
  Hf  Hf26  1  0.39242083  -0.00518867  0.39931239  1
  Hf  Hf27  1  0.21122331  0.80591779  0.39433778  1
  Hf  Hf28  1  0.00228232  0.59543780  0.39590090  1
  Hf  Hf29  1  0.59795350  0.20056221  0.79813097  1
  Hf  Hf30  1  0.32231948  0.72423648  0.50421219  1
  Hf  Hf31  1  0.69794313  0.29035100  0.49574461  1
  Hf  Hf32  1  0.30620113  0.49475914  0.30021951  1
  Hf  Hf33  1  0.68922691  0.09465667  0.50018512  1
  Hf  Hf34  1  -0.00439159  0.80983808  0.39691774  1
  Hf  Hf35  1  0.70954470  0.30494204  0.90765046  1
  Hf  Hf36  1  0.21410877  0.60314759  0.59563798  1
  Hf  Hf37  1  0.90418458  0.69273372  0.28941213  1
  Hf  Hf38  1  0.29678745  0.89714126  0.89831369  1
  Hf  Hf39  1  0.69240901  0.90279012  0.30572142  1
  Hf  Hf40  1  0.39334190  0.20066847  0.59914499  1
  Hf  Hf41  1  0.30660935  0.90083916  0.70148198  1
  Hf  Hf42  1  0.10465643  0.70834093  0.69609046  1
  Hf  Hf43  1  0.01444402  0.80735492  -0.00080552  1
  Hf  Hf44  1  0.79595339  0.41316416  0.38613211  1
  Hf  Hf45  1  0.20854455  0.61573378  0.20293344  1
  Hf  Hf46  1  0.90464713  0.89875339  0.89524739  1
  Hf  Hf47  1  0.90561308  0.30597493  0.69929913  1
  Hf  Hf48  1  0.00601449  0.60380636  0.80364934  1
  Hf  Hf49  1  0.79551360  0.40230037  0.19360705  1
  Zr  Zr50  1  0.08418611  0.30626414  0.49419119  1
  Zr  Zr51  1  0.00216845  0.19601644  0.60135501  1
  Zr  Zr52  1  0.69908634  0.09818756  0.30550967  1
  Zr  Zr53  1  0.90395353  0.69418242  0.50847227  1
  Zr  Zr54  1  0.70199676  0.70398437  0.89936994  1
  Zr  Zr55  1  0.69691489  0.50551389  0.50063193  1
  Zr  Zr56  1  0.09654836  0.50387961  0.28657807  1
  Zr  Zr57  1  0.49595763  0.88782668  0.89684215  1
  Zr  Zr58  1  0.69864126  0.09784352  0.10104352  1
  Zr  Zr59  1  0.89786769  0.28703325  0.30730687  1
  Zr  Zr60  1  0.10041935  0.90913724  0.29457749  1
  Zr  Zr61  1  0.20763317  0.38336831  0.20303789  1
  Zr  Zr62  1  0.68852001  0.89856445  0.49992275  1
  Zr  Zr63  1  0.19366200  0.20328113  0.59967860  1
  Zr  Zr64  1  0.30585433  0.49893294  0.09373293  1
  Zr  Zr65  1  0.19053688  -0.01005852  0.00510633  1
  Zr  Zr66  1  0.79856689  0.20013628  0.79520288  1
  Zr  Zr67  1  0.90089078  0.09265784  0.90061425  1
  Zr  Zr68  1  0.79945094  0.80697248  0.60720223  1
  Zr  Zr69  1  0.49424726  0.09864723  0.29483134  1
  Zr  Zr70  1  0.40137191  0.60338557  0.40456819  1
  Zr  Zr71  1  0.49715307  0.30047134  0.30046728  1
  Zr  Zr72  1  0.10198179  0.28464550  0.10708519  1
  Zr  Zr73  1  0.69837369  0.70292103  0.30697058  1
  Zr  Zr74  1  0.10675562  0.91596150  0.50339383  1
  Zr  Zr75  1  0.60691616  0.59155591  0.20647437  1
  Zr  Zr76  1  0.79136889  0.39831502  0.61338499  1
  Zr  Zr77  1  0.80908988  0.80574629  0.40679172  1
  Zr  Zr78  1  0.00486786  0.61122888  0.00017711  1
  Zr  Zr79  1  0.41026838  0.01060247  0.80749269  1
  Zr  Zr80  1  0.60651121  0.40072888  0.19466683  1
  Zr  Zr81  1  0.31131797  0.50079249  0.89345462  1
  Zr  Zr82  1  0.40873708  0.39107266  -0.00474813  1
  Zr  Zr83  1  0.11360547  0.50128140  0.90046484  1
  Zr  Zr84  1  0.79377301  0.60004157  0.61011878  1
  Zr  Zr85  1  0.19794016  0.40226595  0.40027396  1
  Zr  Zr86  1  0.79419183  0.19253387  0.60644124  1
  Zr  Zr87  1  0.10072025  0.71009210  0.50308000  1
  Zr  Zr88  1  0.21481859  0.62212548  0.00387982  1
  Zr  Zr89  1  0.40440030  0.19637160  -0.01121632  1
  Zr  Zr90  1  0.38760086  0.20403543  0.20337620  1
  Zr  Zr91  1  0.90558342  0.48994897  0.50681964  1
  Zr  Zr92  1  0.89392296  0.50177542  0.90651456  1
  Zr  Zr93  1  0.02460903  0.57493644  0.60543941  1
  Zr  Zr94  1  -0.00440892  0.38697008  -0.00273728  1
  Zr  Zr95  1  0.59201600  -0.00745240  -0.00064651  1
  Zr  Zr96  1  0.19011807  0.42112552  0.59452882  1
  Zr  Zr97  1  0.20038032  0.38089432  -0.01032700  1
  Zr  Zr98  1  0.90043235  0.70509386  0.70758213  1
  Zr  Zr99  1  0.39972776  0.60678243  0.20007195  1
  Ta  Ta100  1  0.20585501  0.80380609  0.19289344  1
  Ta  Ta101  1  0.28979049  0.09704050  0.49884433  1
  Ta  Ta102  1  0.40344276  0.60105974  0.60305606  1
  Ta  Ta103  1  0.00441445  0.80393586  0.19687479  1
  Ta  Ta104  1  0.38525468  0.19807674  0.40030387  1
  Ta  Ta105  1  0.49814474  0.70765706  0.30411929  1
  Ta  Ta106  1  0.20875235  0.81277713  0.60279780  1
  Ta  Ta107  1  0.58923644  0.80849710  0.19836943  1
  Ta  Ta108  1  0.90094370  0.70254415  0.09970437  1
  Ta  Ta109  1  0.00721972  0.80744807  0.79986686  1
  Ta  Ta110  1  0.59222293  0.59858259  0.79980225  1
  Ta  Ta111  1  0.58877751  0.19472119  0.40273809  1
  Ta  Ta112  1  0.68619392  0.08915014  0.69052152  1
  Ta  Ta113  1  0.49503388  0.09597953  0.10095842  1
  Ta  Ta114  1  -0.00633016  0.00725375  0.39110671  1
  Ta  Ta115  1  0.91174578  0.08713212  0.70054700  1
  Ta  Ta116  1  0.20199402  0.00196382  0.20141635  1
  Ta  Ta117  1  -0.00386984  0.19645111  0.00254246  1
  Ta  Ta118  1  0.81407742  -0.00289579  0.40093556  1
  Ta  Ta119  1  0.40757537  0.60120441  0.79884283  1
  Ta  Ta120  1  0.80144142  0.39920232  0.80393487  1
  Ta  Ta121  1  0.49617704  0.49630324  0.50558383  1
  Ta  Ta122  1  0.29689098  0.30216798  0.49974279  1
  Ta  Ta123  1  0.59697587  0.40592099  0.39736883  1
  Ta  Ta124  1  0.80062259  0.60008136  0.00852653  1
  Ta  Ta125  1  0.49355622  0.49263445  0.70368013  1
  Ta  Ta126  1  -0.00694492  0.18604084  0.20084543  1
  Ta  Ta127  1  0.19804400  0.80478378  0.79823795  1
  Ta  Ta128  1  0.59980796  0.80247412  0.00500053  1
  Ta  Ta129  1  0.90409437  0.50568799  0.10561579  1
  Ta  Ta130  1  0.49340941  0.30131614  0.70307247  1
  Ta  Ta131  1  0.57882522  -0.00716072  0.40147876  1
  Ta  Ta132  1  0.58737670  -0.00946936  0.19807672  1
  Ta  Ta133  1  0.89358360  0.70935371  0.90068697  1
  Ta  Ta134  1  0.80636734  0.19491662  0.19274797  1
  Ta  Ta135  1  0.59335498  0.59922422  0.40269201  1
  Ta  Ta136  1  0.30809453  0.50053877  0.70337356  1
  Ta  Ta137  1  0.58896178  0.79429696  0.60095641  1
  Ta  Ta138  1  0.39763783  0.80374452  0.20166024  1
  Ta  Ta139  1  0.91051579  0.90060571  0.10241130  1
  Ta  Ta140  1  0.39801117  0.39732370  0.40518488  1
  Ta  Ta141  1  0.29716140  0.09995783  0.89686380  1
  Ta  Ta142  1  0.09314671  0.28508819  0.30473260  1
  Ta  Ta143  1  -0.00866103  0.39358463  0.20169229  1
  Ta  Ta144  1  0.68223338  0.89574572  0.70260557  1
  Ta  Ta145  1  0.00383070  0.40142409  0.80650783  1
  Ta  Ta146  1  0.10157199  0.10090046  0.48897510  1
  Ta  Ta147  1  0.49344234  0.09997100  0.50189760  1
  Ta  Ta148  1  0.09976922  0.31773747  0.70418425  1
  Ta  Ta149  1  0.69450738  0.70706619  0.70918124  1
  Ti  Ti150  1  0.60152414  0.19886344  0.19310405  1
  Ti  Ti151  1  0.50011719  0.29746742  0.10397490  1
  Ti  Ti152  1  0.39576077  -0.00615085  0.59169850  1
  Ti  Ti153  1  0.90510728  0.49671643  0.70658898  1
  Ti  Ti154  1  0.09801163  0.90935328  0.69680181  1
  Ti  Ti155  1  0.20089531  0.18840935  0.22051525  1
  Ti  Ti156  1  0.30674813  0.29689356  0.88470019  1
  Ti  Ti157  1  0.19397263  0.19697539  -0.00941189  1
  Ti  Ti158  1  0.29832288  0.89954070  0.09855915  1
  Ti  Ti159  1  0.09809875  0.08687169  0.69304280  1
  Ti  Ti160  1  0.30255904  0.90221276  0.29432579  1
  Ti  Ti161  1  0.59338403  0.79423968  0.80057813  1
  Ti  Ti162  1  0.79853053  0.58959782  0.20083556  1
  Ti  Ti163  1  0.39960236  0.39464509  0.19855948  1
  Ti  Ti164  1  0.09951422  0.70559388  0.29557663  1
  Ti  Ti165  1  0.60641201  0.39380953  0.00643059  1
  Ti  Ti166  1  0.89578893  0.29796471  0.09842866  1
  Ti  Ti167  1  0.30833673  0.70799476  0.70364607  1
  Ti  Ti168  1  0.80118519  0.80408753  0.00359870  1
  Ti  Ti169  1  0.00323361  -0.00251282  0.01052021  1
  Ti  Ti170  1  0.80816564  0.20239075  0.00581969  1
  Ti  Ti171  1  0.60147588  0.39915797  0.80075025  1
  Ti  Ti172  1  0.50006481  0.69028776  0.90566831  1
  Ti  Ti173  1  0.79903501  0.59530603  0.39395951  1
  Ti  Ti174  1  0.49477024  0.89246176  0.70258768  1
  Ti  Ti175  1  0.10321108  0.70849899  0.10426171  1
  Ti  Ti176  1  0.70085919  0.88987433  0.89162861  1
  Ti  Ti177  1  0.58272010  -0.01293251  0.59385487  1
  Ti  Ti178  1  0.59544764  -0.00179443  0.80142271  1
  Ti  Ti179  1  0.49782699  0.30457991  0.88649873  1
  Ti  Ti180  1  0.49211410  0.70515405  0.70343421  1
  Ti  Ti181  1  0.40238146  0.00087628  -0.00004849  1
  Ti  Ti182  1  0.20609588  0.60533152  0.79303527  1
  Ti  Ti183  1  0.47845088  0.88085837  0.50007368  1
  Ti  Ti184  1  0.58478229  0.79848280  0.40475291  1
  Ti  Ti185  1  0.90399691  0.10248332  0.49448039  1
  Ti  Ti186  1  0.49806606  0.49759836  0.30306287  1
  Ti  Ti187  1  0.39864776  -0.00605782  0.19698265  1
  Ti  Ti188  1  0.11168225  0.71038797  0.89711781  1
  Ti  Ti189  1  0.69586686  0.70145237  0.50056743  1
  Ti  Ti190  1  0.30580247  0.70417490  0.88961624  1
  Ti  Ti191  1  0.69735418  0.89815697  0.10291446  1
  Ti  Ti192  1  -0.00507280  0.40842613  0.38554537  1
  Ti  Ti193  1  0.79898452  0.60069608  0.80218437  1
  Ti  Ti194  1  0.19307803  -0.00505120  0.79901988  1
  Ti  Ti195  1  0.20405534  0.01020431  0.38950626  1
  Ti  Ti196  1  -0.00493732  0.81909354  0.60177154  1
  Ti  Ti197  1  0.09708693  0.09608754  0.10814105  1
  Ti  Ti198  1  0.69594485  0.50323362  0.71276457  1
  Ti  Ti199  1  0.29834558  0.29116630  0.09440232  1
  Mo  Mo200  1  0.39922004  0.20419955  0.79886608  1
  Mo  Mo201  1  0.60428173  0.60545315  -0.00705681  1
  Mo  Mo202  1  0.80051899  0.40350221  0.00767314  1
  Mo  Mo203  1  0.00278549  0.60935304  0.19323303  1
  Mo  Mo204  1  0.11462936  0.50195288  0.72101851  1
  Mo  Mo205  1  0.50010862  0.10193887  0.90116682  1
  Mo  Mo206  1  0.50443162  0.70139178  0.49959326  1
  Mo  Mo207  1  0.00570559  0.00282594  0.19530903  1
  Mo  Mo208  1  0.91068315  0.91053636  0.50174944  1
  Mo  Mo209  1  0.10161981  0.90002029  0.10556683  1
  Mo  Mo210  1  0.91282004  0.90142078  0.70024327  1
  Mo  Mo211  1  0.29978738  0.90825191  0.50430315  1
  Mo  Mo212  1  0.50860191  0.49893668  0.89255097  1
  Mo  Mo213  1  0.69735269  0.50462305  0.30410405  1
  Mo  Mo214  1  0.40715762  0.40209620  0.79914309  1
  Mo  Mo215  1  0.19825211  0.19905719  0.40015536  1
  Mo  Mo216  1  0.00109253  0.40293947  0.61270628  1
  Mo  Mo217  1  0.89894188  0.30146053  0.90398411  1
  Mo  Mo218  1  0.70671027  0.49962514  0.09094527  1
  Mo  Mo219  1  0.90651222  0.90185924  0.29656531  1
  Mo  Mo220  1  0.49593895  0.89793096  0.29859126  1
  Mo  Mo221  1  0.09876624  0.50135220  0.48162461  1
  Mo  Mo222  1  0.69418956  0.30118941  0.70881084  1
  Mo  Mo223  1  0.30412454  0.71281999  0.30047053  1
  Mo  Mo224  1  0.10132834  0.89915417  0.89192174  1
  Mo  Mo225  1  0.30350673  0.70836228  0.10375988  1
  Mo  Mo226  1  0.40207352  0.80675004  0.38717794  1
  Mo  Mo227  1  0.79610404  0.80454774  0.80098056  1
  Mo  Mo228  1  0.40532989  0.60442854  -0.01291713  1
  Mo  Mo229  1  0.00511542  -0.00522724  0.79069560  1
  Mo  Mo230  1  0.90658331  0.09891430  0.09747148  1
  Mo  Mo231  1  0.39906824  0.78946917  0.80165875  1
  Mo  Mo232  1  0.40568191  0.80216520  0.61293080  1
  Mo  Mo233  1  0.70614030  0.29456733  0.09865482  1
  Mo  Mo234  1  0.20298567  0.40055039  0.79963230  1
  Mo  Mo235  1  0.29615326  0.09464297  0.29972514  1
  Mo  Mo236  1  0.59421511  0.19765689  0.60110588  1
  Mo  Mo237  1  0.90224077  0.09926181  0.30051711  1
  Mo  Mo238  1  0.31220610  0.49654078  0.50523430  1
  Mo  Mo239  1  0.49183434  0.90031722  0.10105700  1
  Mo  Mo240  1  0.29534260  0.29579546  0.31204169  1
  Mo  Mo241  1  0.09719304  0.29210216  0.89742796  1
  Mo  Mo242  1  0.79595656  0.18416989  0.40036605  1
  Mo  Mo243  1  0.20135435  0.79989014  -0.00162297  1
  Mo  Mo244  1  0.19961646  0.00269177  0.60053491  1
  Mo  Mo245  1  0.00288003  0.00477723  0.59336037  1
  Mo  Mo246  1  0.10010021  0.10061144  0.29903337  1
  Mo  Mo247  1  0.89846231  0.50507934  0.28691720  1
  Mo  Mo248  1  0.39976264  0.40421354  0.59844764  1
  Mo  Mo249  1  -0.00114790  0.18793460  0.39655766  1
