# generated using pymatgen
data_HfZrTaTiMo
_symmetry_space_group_name_H-M   'P 1'
_cell_length_a   16.88565689
_cell_length_b   16.89006414
_cell_length_c   16.88790993
_cell_angle_alpha   90.00845444
_cell_angle_beta   89.95730169
_cell_angle_gamma   89.99033797
_symmetry_Int_Tables_number   1
_chemical_formula_structural   HfZrTaTiMo
_chemical_formula_sum   'Hf50 Zr50 Ta50 Ti50 Mo50'
_cell_volume   4816.42755022
_cell_formula_units_Z   50
loop_
 _symmetry_equiv_pos_site_id
 _symmetry_equiv_pos_as_xyz
  1  'x, y, z'
loop_
 _atom_site_type_symbol
 _atom_site_label
 _atom_site_symmetry_multiplicity
 _atom_site_fract_x
 _atom_site_fract_y
 _atom_site_fract_z
 _atom_site_occupancy
  Hf  Hf0  1  0.49511921  0.09437153  0.10140160  1
  Hf  Hf1  1  0.09376294  0.29267584  0.30558743  1
  Hf  Hf2  1  0.00011675  0.60262551  0.40132206  1
  Hf  Hf3  1  0.69973358  0.50295558  0.11153710  1
  Hf  Hf4  1  0.50124038  0.29422476  0.90073656  1
  Hf  Hf5  1  0.00726485  0.20356854  0.00442481  1
  Hf  Hf6  1  0.00257223  0.00518058  -0.00112035  1
  Hf  Hf7  1  0.71347414  0.28503284  0.89572136  1
  Hf  Hf8  1  0.90160338  0.50413475  0.69278042  1
  Hf  Hf9  1  0.30199972  0.09469680  0.29029462  1
  Hf  Hf10  1  0.80535625  0.19243416  0.19809716  1
  Hf  Hf11  1  0.38944729  0.80380882  0.60505098  1
  Hf  Hf12  1  0.80603645  0.80638658  0.60419235  1
  Hf  Hf13  1  0.80048288  0.39875479  -0.00287071  1
  Hf  Hf14  1  0.80177156  0.00563591  0.79998986  1
  Hf  Hf15  1  0.49890759  0.50122610  0.10503544  1
  Hf  Hf16  1  0.19307584  0.19906121  0.19892334  1
  Hf  Hf17  1  0.20542352  0.78443662  0.59101265  1
  Hf  Hf18  1  0.69868204  0.90527841  0.90190685  1
  Hf  Hf19  1  0.59078640  0.80496927  0.80494951  1
  Hf  Hf20  1  0.89686737  0.49985572  0.50061767  1
  Hf  Hf21  1  0.29945406  0.89895396  0.30262608  1
  Hf  Hf22  1  0.58360428  0.01098951  0.60365273  1
  Hf  Hf23  1  0.20520771  0.59753300  0.79478756  1
  Hf  Hf24  1  0.40194643  0.40321298  -0.00170902  1
  Hf  Hf25  1  0.59465732  0.19892924  0.40951143  1
  Hf  Hf26  1  0.49397386  0.08797564  0.89677376  1
  Hf  Hf27  1  0.00804342  0.60928835  0.59692982  1
  Hf  Hf28  1  0.18532726  0.19717232  0.59109847  1
  Hf  Hf29  1  0.49346035  0.68335251  0.88884726  1
  Hf  Hf30  1  0.30426644  0.90764369  0.10069217  1
  Hf  Hf31  1  0.10492480  0.89404033  0.49090144  1
  Hf  Hf32  1  0.69139939  0.70159358  0.49179669  1
  Hf  Hf33  1  0.81779564  -0.00395591  0.59763251  1
  Hf  Hf34  1  0.39928829  0.60199519  0.40214637  1
  Hf  Hf35  1  0.49643295  0.29880685  0.69679292  1
  Hf  Hf36  1  0.70059622  0.29205866  0.69771615  1
  Hf  Hf37  1  0.10507352  0.51249705  0.29458018  1
  Hf  Hf38  1  0.19740103  0.19944690  0.40484242  1
  Hf  Hf39  1  0.68887672  0.50299211  0.49387546  1
  Hf  Hf40  1  0.09819205  0.70066635  0.89642698  1
  Hf  Hf41  1  0.09931602  0.69274584  0.10640210  1
  Hf  Hf42  1  0.21704290  0.80004577  0.78793602  1
  Hf  Hf43  1  0.10874806  0.70348757  0.29531711  1
  Hf  Hf44  1  0.79711988  0.19985606  0.41075576  1
  Hf  Hf45  1  0.69421105  0.69550239  0.70206724  1
  Hf  Hf46  1  0.29805777  0.09918639  0.89921013  1
  Hf  Hf47  1  0.59320594  0.79513231  0.00665223  1
  Hf  Hf48  1  0.80351455  0.80116337  0.00560105  1
  Hf  Hf49  1  0.79633895  0.39485475  0.40185896  1
  Zr  Zr50  1  0.20482018  0.80012661  -0.00348704  1
  Zr  Zr51  1  0.29944299  0.08700708  0.50350513  1
  Zr  Zr52  1  0.10522291  0.10926997  0.88002716  1
  Zr  Zr53  1  0.80474714  0.80037306  0.20357162  1
  Zr  Zr54  1  0.59904233  0.40476387  0.80277595  1
  Zr  Zr55  1  0.79966618  0.39857192  0.20665358  1
  Zr  Zr56  1  0.30696254  0.29236035  0.09917271  1
  Zr  Zr57  1  0.00681804  0.39647994  0.20018453  1
  Zr  Zr58  1  0.59399805  0.59924657  0.00362305  1
  Zr  Zr59  1  0.90899949  0.09454163  0.31537646  1
  Zr  Zr60  1  0.80559980  -0.00459725  0.20392338  1
  Zr  Zr61  1  0.69981250  0.69838582  0.89557492  1
  Zr  Zr62  1  0.89745549  0.12411276  0.88931117  1
  Zr  Zr63  1  0.70314224  0.08922645  0.49959018  1
  Zr  Zr64  1  0.00436805  0.00555674  0.59192642  1
  Zr  Zr65  1  -0.00008987  0.40176220  0.79693224  1
  Zr  Zr66  1  0.69301719  0.90693977  0.70262518  1
  Zr  Zr67  1  0.79525637  0.39328214  0.59664334  1
  Zr  Zr68  1  0.30410701  0.09111813  0.09899755  1
  Zr  Zr69  1  0.80652835  0.39951580  0.79906503  1
  Zr  Zr70  1  0.40410448  0.79664610  -0.00445450  1
  Zr  Zr71  1  0.20393384  0.39950638  -0.00203000  1
  Zr  Zr72  1  0.00067121  -0.00243827  0.78789197  1
  Zr  Zr73  1  0.80480453  0.00724582  0.00295462  1
  Zr  Zr74  1  0.91055315  0.28911881  0.30867505  1
  Zr  Zr75  1  -0.00601500  0.80738652  0.59914347  1
  Zr  Zr76  1  0.79987412  0.60634440  0.00355661  1
  Zr  Zr77  1  0.88851308  0.70116492  0.49643191  1
  Zr  Zr78  1  0.20547707  0.61231468  0.41984172  1
  Zr  Zr79  1  0.68544681  0.29519269  0.29829871  1
  Zr  Zr80  1  -0.00426126  0.80220922  0.39200902  1
  Zr  Zr81  1  0.60445141  0.19555500  0.00030064  1
  Zr  Zr82  1  0.90608841  0.29970071  0.09717426  1
  Zr  Zr83  1  0.58680009  0.80098714  0.59839522  1
  Zr  Zr84  1  0.69827050  0.89626165  0.49214730  1
  Zr  Zr85  1  0.48481755  0.69375709  0.70709625  1
  Zr  Zr86  1  0.39486425  0.39932459  0.80385274  1
  Zr  Zr87  1  0.40088638  0.40307379  0.20442670  1
  Zr  Zr88  1  0.29047604  0.10413486  0.70306989  1
  Zr  Zr89  1  0.58941934  0.61361491  0.21124768  1
  Zr  Zr90  1  0.20244081  0.40335869  0.40377922  1
  Zr  Zr91  1  0.00123318  0.80318004  0.00785987  1
  Zr  Zr92  1  0.18625628  0.00723711  0.39182546  1
  Zr  Zr93  1  0.09852346  0.50969525  0.09480071  1
  Zr  Zr94  1  0.90651716  0.51019706  0.10348983  1
  Zr  Zr95  1  0.69033041  0.09817186  0.10850496  1
  Zr  Zr96  1  0.20613935  0.40170751  0.19517225  1
  Zr  Zr97  1  0.40194305  0.19721475  0.40463131  1
  Zr  Zr98  1  0.30363933  0.69352195  0.10598541  1
  Zr  Zr99  1  0.60180711  0.17844631  0.79335396  1
  Ta  Ta100  1  0.90816581  0.89261062  0.89503925  1
  Ta  Ta101  1  0.49951109  0.90351037  0.09958911  1
  Ta  Ta102  1  0.80413532  0.19994000  0.59363131  1
  Ta  Ta103  1  0.30017663  0.70605217  0.30178118  1
  Ta  Ta104  1  0.20387265  0.80462234  0.19986092  1
  Ta  Ta105  1  0.29517896  0.30025843  0.69427771  1
  Ta  Ta106  1  0.49045460  0.90741108  0.70993190  1
  Ta  Ta107  1  0.59100108  0.59694219  0.59924152  1
  Ta  Ta108  1  0.09829284  0.30331889  0.89692114  1
  Ta  Ta109  1  0.10079961  0.29525253  0.70251803  1
  Ta  Ta110  1  0.49688534  0.31073184  0.49875005  1
  Ta  Ta111  1  0.91467396  0.29524255  0.50478427  1
  Ta  Ta112  1  0.30538761  0.30585608  0.50549191  1
  Ta  Ta113  1  0.90687190  0.11467369  0.69580797  1
  Ta  Ta114  1  0.90775266  0.50675056  0.90501993  1
  Ta  Ta115  1  0.19979926  0.40095156  0.79687323  1
  Ta  Ta116  1  0.90784820  0.69944042  0.89633948  1
  Ta  Ta117  1  0.79367175  0.60150356  0.38863359  1
  Ta  Ta118  1  0.30583126  0.30080106  0.30688660  1
  Ta  Ta119  1  0.80574819  0.60019777  0.79828177  1
  Ta  Ta120  1  0.58975169  -0.00523024  0.39781855  1
  Ta  Ta121  1  0.19365632  -0.00081714  -0.00431243  1
  Ta  Ta122  1  0.00521923  0.00106931  0.20394708  1
  Ta  Ta123  1  0.40896800  0.20407330  0.20544080  1
  Ta  Ta124  1  0.50517385  0.49729044  0.31578537  1
  Ta  Ta125  1  0.49386593  0.50456876  0.69877584  1
  Ta  Ta126  1  0.40585203  0.19563068  0.59768340  1
  Ta  Ta127  1  0.00185737  0.60020307  0.79620824  1
  Ta  Ta128  1  0.69460214  0.09249946  0.30411655  1
  Ta  Ta129  1  0.80834014  0.80032826  0.79820453  1
  Ta  Ta130  1  0.10263403  0.69876253  0.69998091  1
  Ta  Ta131  1  0.09647765  0.50280383  0.90186605  1
  Ta  Ta132  1  0.10327335  0.50045767  0.50916379  1
  Ta  Ta133  1  0.69893551  0.50585104  0.89512008  1
  Ta  Ta134  1  0.19371192  0.19985187  0.00114688  1
  Ta  Ta135  1  0.10288360  0.89726241  0.89250787  1
  Ta  Ta136  1  0.20974251  0.59808677  -0.00496924  1
  Ta  Ta137  1  0.69081853  0.89727905  0.10623684  1
  Ta  Ta138  1  0.59734839  0.40045800  0.59884003  1
  Ta  Ta139  1  0.59592729  -0.00738067  0.20758881  1
  Ta  Ta140  1  0.49672703  0.49797299  0.50125328  1
  Ta  Ta141  1  0.50496168  0.10094570  0.29864977  1
  Ta  Ta142  1  0.30079907  0.49836097  0.69166468  1
  Ta  Ta143  1  0.69015796  0.50347645  0.30503462  1
  Ta  Ta144  1  0.59404732  0.19815670  0.59427538  1
  Ta  Ta145  1  0.00405014  0.40593085  0.40585600  1
  Ta  Ta146  1  0.30325514  0.90909460  0.89471366  1
  Ta  Ta147  1  0.40991572  0.79717671  0.20379041  1
  Ta  Ta148  1  0.69801293  0.70428289  0.11453729  1
  Ta  Ta149  1  0.69454516  0.89743315  0.30502518  1
  Ti  Ti150  1  0.01609235  0.18503593  0.42735089  1
  Ti  Ti151  1  0.69404076  0.50636758  0.70109467  1
  Ti  Ti152  1  0.89819872  0.69261909  0.29110997  1
  Ti  Ti153  1  0.90579704  0.90562271  0.10239548  1
  Ti  Ti154  1  0.29277286  0.28921126  0.89264839  1
  Ti  Ti155  1  0.19473976  -0.00735395  0.60720809  1
  Ti  Ti156  1  0.59480980  0.39828440  0.20468750  1
  Ti  Ti157  1  0.80571830  0.80637084  0.39069545  1
  Ti  Ti158  1  0.90684008  0.29172932  0.69907851  1
  Ti  Ti159  1  0.80262402  0.19486510  0.00890953  1
  Ti  Ti160  1  0.39773441  0.19793688  0.79336120  1
  Ti  Ti161  1  0.00847986  0.39473936  0.59769720  1
  Ti  Ti162  1  0.69338247  0.29831549  0.10529749  1
  Ti  Ti163  1  0.19699117  0.39734224  0.60053482  1
  Ti  Ti164  1  0.40887919  -0.00041358  0.40143908  1
  Ti  Ti165  1  0.89711243  0.50653852  0.29687018  1
  Ti  Ti166  1  0.70804145  0.10004539  0.69662371  1
  Ti  Ti167  1  0.39989113  0.19906933  -0.00021728  1
  Ti  Ti168  1  0.30231444  0.50315491  0.89760545  1
  Ti  Ti169  1  0.39884741  0.59311111  -0.00042581  1
  Ti  Ti170  1  0.40310410  0.79790228  0.39977874  1
  Ti  Ti171  1  0.90606087  0.69084119  0.10764350  1
  Ti  Ti172  1  0.49195432  0.90853456  0.89864698  1
  Ti  Ti173  1  -0.00212615  0.80513518  0.20169757  1
  Ti  Ti174  1  0.38957415  0.60644223  0.59545557  1
  Ti  Ti175  1  0.60086564  -0.00165353  -0.00208044  1
  Ti  Ti176  1  0.09941125  0.88838723  0.70157006  1
  Ti  Ti177  1  0.60240276  0.40082967  -0.00204005  1
  Ti  Ti178  1  0.30185031  0.50571120  0.29806459  1
  Ti  Ti179  1  0.49505685  0.89937061  0.49673502  1
  Ti  Ti180  1  0.31253333  0.69613828  0.88662052  1
  Ti  Ti181  1  0.19572503  -0.00553878  0.79043398  1
  Ti  Ti182  1  0.41330202  -0.00946131  0.21046799  1
  Ti  Ti183  1  0.39900691  -0.00128474  0.60251772  1
  Ti  Ti184  1  0.10090591  0.90134366  0.29387961  1
  Ti  Ti185  1  0.90478404  0.70271432  0.70652559  1
  Ti  Ti186  1  0.40321623  0.60432003  0.20735638  1
  Ti  Ti187  1  0.79377195  0.60264427  0.60079598  1
  Ti  Ti188  1  0.49715491  0.30667027  0.30862796  1
  Ti  Ti189  1  0.50068030  0.69813298  0.49434689  1
  Ti  Ti190  1  0.29774109  0.89756958  0.49255571  1
  Ti  Ti191  1  0.30215434  0.49622122  0.50820764  1
  Ti  Ti192  1  0.10518547  0.50087417  0.69460184  1
  Ti  Ti193  1  0.50837784  0.29569714  0.10384524  1
  Ti  Ti194  1  0.10174869  0.09466105  0.10735215  1
  Ti  Ti195  1  0.39296744  0.00004002  0.79121924  1
  Ti  Ti196  1  0.40027569  0.40046348  0.59981367  1
  Ti  Ti197  1  0.69188964  0.70637275  0.30817221  1
  Ti  Ti198  1  0.58808190  0.80302824  0.20851668  1
  Ti  Ti199  1  0.10579704  0.90350758  0.10430397  1
  Mo  Mo200  1  0.21512398  0.60269439  0.19970128  1
  Mo  Mo201  1  0.91185926  0.09977839  0.10434810  1
  Mo  Mo202  1  0.48706793  0.09862080  0.69802559  1
  Mo  Mo203  1  0.80322148  0.20065887  0.78523024  1
  Mo  Mo204  1  0.20271033  0.59556903  0.60356962  1
  Mo  Mo205  1  0.50307255  0.49719918  0.90243189  1
  Mo  Mo206  1  0.49748655  0.70325195  0.10787414  1
  Mo  Mo207  1  0.20677020  0.80349966  0.39543844  1
  Mo  Mo208  1  -0.00093825  -0.00445130  0.39775657  1
  Mo  Mo209  1  0.10200643  0.70035110  0.50151579  1
  Mo  Mo210  1  0.39533411  0.81351029  0.79971539  1
  Mo  Mo211  1  0.70184390  0.09615447  0.90080555  1
  Mo  Mo212  1  0.90366073  0.89958996  0.29318720  1
  Mo  Mo213  1  0.09960042  0.10599304  0.69581821  1
  Mo  Mo214  1  0.90555844  0.30779218  0.90159040  1
  Mo  Mo215  1  0.68994470  0.29909012  0.50696242  1
  Mo  Mo216  1  0.59793017  -0.00024251  0.80014224  1
  Mo  Mo217  1  0.79890297  -0.00630531  0.39783242  1
  Mo  Mo218  1  0.39427359  0.58307888  0.80051791  1
  Mo  Mo219  1  0.30107616  0.68574277  0.69667046  1
  Mo  Mo220  1  0.00291351  0.21082087  0.79296528  1
  Mo  Mo221  1  0.39925992  -0.00444945  -0.00533911  1
  Mo  Mo222  1  0.58673409  0.80122656  0.39464148  1
  Mo  Mo223  1  0.09841085  0.31234326  0.50330402  1
  Mo  Mo224  1  0.00187804  0.20234140  0.60055897  1
  Mo  Mo225  1  0.31024312  0.70445910  0.49800882  1
  Mo  Mo226  1  0.29708827  0.91207608  0.69614482  1
  Mo  Mo227  1  0.49541671  0.09431783  0.49869167  1
  Mo  Mo228  1  0.10162584  0.08853171  0.50191066  1
  Mo  Mo229  1  0.79394506  0.60715859  0.21212600  1
  Mo  Mo230  1  0.89837911  0.91157174  0.47569310  1
  Mo  Mo231  1  0.18915104  -0.00422846  0.19511351  1
  Mo  Mo232  1  0.60109487  0.59101533  0.79272697  1
  Mo  Mo233  1  0.90421551  0.10444851  0.50227897  1
  Mo  Mo234  1  0.00268338  0.79686433  0.79600090  1
  Mo  Mo235  1  0.49806118  0.89951061  0.30393026  1
  Mo  Mo236  1  0.49359696  0.70454495  0.30736607  1
  Mo  Mo237  1  0.00050090  0.39910549  -0.00958451  1
  Mo  Mo238  1  0.59427766  0.40016443  0.40339239  1
  Mo  Mo239  1  0.90210876  0.89766246  0.71242077  1
  Mo  Mo240  1  0.00344023  0.60299624  -0.00676634  1
  Mo  Mo241  1  0.39621214  0.40572506  0.40452722  1
  Mo  Mo242  1  0.30659616  0.51155144  0.09726320  1
  Mo  Mo243  1  0.09316619  0.10159168  0.29815654  1
  Mo  Mo244  1  0.10326222  0.29654309  0.09393944  1
  Mo  Mo245  1  0.58933891  0.20040208  0.20581158  1
  Mo  Mo246  1  0.20057342  0.21256316  0.79773888  1
  Mo  Mo247  1  -0.00733747  0.60591834  0.20613730  1
  Mo  Mo248  1  0.00485266  0.18771116  0.19176488  1
  Mo  Mo249  1  0.59534889  0.60342641  0.40399682  1
