# generated using pymatgen
data_HfZrTaTiMo
_symmetry_space_group_name_H-M   'P 1'
_cell_length_a   16.87974631
_cell_length_b   16.88797749
_cell_length_c   16.89264949
_cell_angle_alpha   90.04956867
_cell_angle_beta   89.97234592
_cell_angle_gamma   90.04087969
_symmetry_Int_Tables_number   1
_chemical_formula_structural   HfZrTaTiMo
_chemical_formula_sum   'Hf50 Zr50 Ta50 Ti50 Mo50'
_cell_volume   4815.49575121
_cell_formula_units_Z   50
loop_
 _symmetry_equiv_pos_site_id
 _symmetry_equiv_pos_as_xyz
  1  'x, y, z'
loop_
 _atom_site_type_symbol
 _atom_site_label
 _atom_site_symmetry_multiplicity
 _atom_site_fract_x
 _atom_site_fract_y
 _atom_site_fract_z
 _atom_site_occupancy
  Hf  Hf0  1  0.80172577  0.80239836  0.39843528  1
  Hf  Hf1  1  0.39632800  -0.01010263  0.40141134  1
  Hf  Hf2  1  0.59680192  0.60906807  0.39736799  1
  Hf  Hf3  1  0.90373833  0.70069087  0.50443040  1
  Hf  Hf4  1  0.79785507  0.39831669  0.61338921  1
  Hf  Hf5  1  0.60163321  0.40032779  0.39217701  1
  Hf  Hf6  1  0.69922028  0.70761774  0.89718883  1
  Hf  Hf7  1  0.40231257  0.79786973  0.20399738  1
  Hf  Hf8  1  0.00041022  -0.00257869  0.81158652  1
  Hf  Hf9  1  0.60250737  0.21279609  0.38490025  1
  Hf  Hf10  1  0.80350192  0.82373199  0.81851044  1
  Hf  Hf11  1  0.80030495  0.39592027  -0.00366194  1
  Hf  Hf12  1  0.20079054  0.80673198  0.59633593  1
  Hf  Hf13  1  0.60226429  0.60107545  -0.00315363  1
  Hf  Hf14  1  0.20654056  0.40042143  0.20807009  1
  Hf  Hf15  1  0.49826167  0.10230747  0.29813339  1
  Hf  Hf16  1  0.71276564  0.90897058  0.50034309  1
  Hf  Hf17  1  0.88986619  0.50537448  0.09884538  1
  Hf  Hf18  1  0.49873493  0.50599378  0.29886781  1
  Hf  Hf19  1  0.70581084  0.71046312  0.70610494  1
  Hf  Hf20  1  0.10543908  0.90648305  0.30026225  1
  Hf  Hf21  1  0.78951639  0.40404414  0.39135761  1
  Hf  Hf22  1  0.49690414  0.11057030  0.50241929  1
  Hf  Hf23  1  0.49902432  0.50040538  0.10152147  1
  Hf  Hf24  1  0.29668875  0.50713076  0.70316931  1
  Hf  Hf25  1  0.19583348  0.39651620  0.59915981  1
  Hf  Hf26  1  0.09851639  0.50096505  0.49673273  1
  Hf  Hf27  1  0.89820931  0.09161613  0.09729314  1
  Hf  Hf28  1  0.00440420  -0.00731969  0.58721470  1
  Hf  Hf29  1  0.79537908  -0.02005379  -0.00956091  1
  Hf  Hf30  1  0.10503076  0.70482323  0.08416444  1
  Hf  Hf31  1  0.39967919  0.19286069  -0.00003452  1
  Hf  Hf32  1  0.61101552  0.40653370  0.00041334  1
  Hf  Hf33  1  0.09295333  0.69693618  0.50135476  1
  Hf  Hf34  1  0.89940719  0.29336968  0.50307305  1
  Hf  Hf35  1  0.40004472  -0.00681605  0.60502639  1
  Hf  Hf36  1  0.19667518  0.19985130  0.59086335  1
  Hf  Hf37  1  0.08785034  0.29733977  0.49384997  1
  Hf  Hf38  1  0.29917907  0.09473726  0.70277639  1
  Hf  Hf39  1  0.90293891  0.70867930  0.70351287  1
  Hf  Hf40  1  0.08943707  0.50017895  0.30759368  1
  Hf  Hf41  1  0.50415867  0.89297718  0.50014300  1
  Hf  Hf42  1  0.79691313  0.59616841  0.39444350  1
  Hf  Hf43  1  0.79995807  0.20597791  0.19213588  1
  Hf  Hf44  1  0.60052973  0.40130346  0.60816250  1
  Hf  Hf45  1  0.09149707  0.69830273  0.31420176  1
  Hf  Hf46  1  0.89610352  0.70270488  0.90482849  1
  Hf  Hf47  1  0.49846527  0.29489727  0.70525445  1
  Hf  Hf48  1  0.29572114  0.90529970  0.29711551  1
  Hf  Hf49  1  0.21457481  0.78524264  0.19798824  1
  Zr  Zr50  1  0.30686732  0.90574088  0.90733617  1
  Zr  Zr51  1  0.28566963  0.71032987  0.89481743  1
  Zr  Zr52  1  0.80343356  0.19894698  0.38409834  1
  Zr  Zr53  1  0.59509262  0.60853519  0.60494087  1
  Zr  Zr54  1  0.20850744  0.80596834  0.40761875  1
  Zr  Zr55  1  0.90334575  0.30903553  0.29937338  1
  Zr  Zr56  1  0.10001411  0.50482005  0.89574029  1
  Zr  Zr57  1  0.89065950  0.09356332  0.49829681  1
  Zr  Zr58  1  -0.01655245  0.18693933  0.81077510  1
  Zr  Zr59  1  0.10103760  0.09975632  0.69917483  1
  Zr  Zr60  1  0.89931125  0.70109755  0.30067305  1
  Zr  Zr61  1  0.11351695  0.90368811  0.09828430  1
  Zr  Zr62  1  -0.00051179  0.59245775  0.61031787  1
  Zr  Zr63  1  -0.00316086  0.19863757  0.20002540  1
  Zr  Zr64  1  0.30866976  0.69214689  0.50283117  1
  Zr  Zr65  1  0.39426461  0.39836331  0.60121307  1
  Zr  Zr66  1  0.09868605  0.50245008  0.09653754  1
  Zr  Zr67  1  0.69902316  0.50641070  0.50768117  1
  Zr  Zr68  1  0.10062116  0.89503720  0.70135639  1
  Zr  Zr69  1  0.59844172  -0.00326470  0.61171545  1
  Zr  Zr70  1  0.50579740  0.69590299  0.10240558  1
  Zr  Zr71  1  0.49807624  0.30587368  0.09439939  1
  Zr  Zr72  1  0.30405715  0.10810928  0.49450439  1
  Zr  Zr73  1  0.30861331  0.49755442  0.09046719  1
  Zr  Zr74  1  0.29765869  0.28878554  0.70223277  1
  Zr  Zr75  1  0.38900717  0.61030942  0.21364290  1
  Zr  Zr76  1  0.80400490  0.19782303  -0.01173951  1
  Zr  Zr77  1  0.50335071  0.30436667  0.90109642  1
  Zr  Zr78  1  0.70967096  0.10907514  0.70116908  1
  Zr  Zr79  1  0.40605607  0.61090374  0.80109848  1
  Zr  Zr80  1  0.70407649  0.09151463  0.29251143  1
  Zr  Zr81  1  0.80154307  -0.01233003  0.19171030  1
  Zr  Zr82  1  0.09410391  0.30292770  0.31014582  1
  Zr  Zr83  1  0.20428333  0.20448411  0.20240916  1
  Zr  Zr84  1  0.19414074  0.39826717  -0.00320699  1
  Zr  Zr85  1  0.40153240  0.18867992  0.80962394  1
  Zr  Zr86  1  0.20566285  0.60088651  0.20504712  1
  Zr  Zr87  1  0.49036129  0.29746913  0.50146495  1
  Zr  Zr88  1  0.40663345  0.79798787  0.60377073  1
  Zr  Zr89  1  0.70405944  0.09869618  0.50281786  1
  Zr  Zr90  1  -0.00322634  0.20403529  0.00187718  1
  Zr  Zr91  1  -0.00497976  0.80469355  0.19690487  1
  Zr  Zr92  1  -0.00719837  0.39565206  0.80350815  1
  Zr  Zr93  1  0.59645687  -0.00765276  0.39158699  1
  Zr  Zr94  1  0.40099379  0.00188393  0.19624747  1
  Zr  Zr95  1  0.70448179  0.29007772  0.51341293  1
  Zr  Zr96  1  0.81145697  0.01027403  0.80742225  1
  Zr  Zr97  1  0.49279545  0.90275982  0.08618848  1
  Zr  Zr98  1  0.39863438  0.20268427  0.20165141  1
  Zr  Zr99  1  -0.00578261  0.60446318  0.19253183  1
  Ta  Ta100  1  0.40722121  0.60373174  0.60517889  1
  Ta  Ta101  1  0.00092587  0.00095133  0.19982954  1
  Ta  Ta102  1  0.49718464  0.49831526  0.89857468  1
  Ta  Ta103  1  0.49962761  0.50022072  0.70727552  1
  Ta  Ta104  1  0.10829288  0.09590304  0.10006442  1
  Ta  Ta105  1  0.10227251  0.70351901  0.70562493  1
  Ta  Ta106  1  0.20156653  -0.00562312  0.58355243  1
  Ta  Ta107  1  0.80085343  0.59625589  0.80165142  1
  Ta  Ta108  1  0.40706697  0.80344595  0.79834184  1
  Ta  Ta109  1  0.09209735  0.29425110  0.70378652  1
  Ta  Ta110  1  0.70329109  0.70811874  0.50426656  1
  Ta  Ta111  1  0.30149393  0.30019379  0.09158834  1
  Ta  Ta112  1  0.00296275  -0.00403879  -0.00131962  1
  Ta  Ta113  1  0.60076198  0.79503300  0.39676256  1
  Ta  Ta114  1  0.40131288  0.60540214  -0.00935282  1
  Ta  Ta115  1  0.69925941  0.69867484  0.28888682  1
  Ta  Ta116  1  0.89615250  0.49893493  0.70690565  1
  Ta  Ta117  1  0.10232774  0.29372100  0.89763129  1
  Ta  Ta118  1  0.50052869  0.89979006  0.89582729  1
  Ta  Ta119  1  0.10320278  0.09684365  0.30388164  1
  Ta  Ta120  1  -0.00451138  0.60194211  -0.00705525  1
  Ta  Ta121  1  0.69936666  0.29452294  0.88849484  1
  Ta  Ta122  1  0.39659076  0.39466811  0.21181898  1
  Ta  Ta123  1  0.00029099  0.00197962  0.39881709  1
  Ta  Ta124  1  0.21161399  0.59524918  0.39569795  1
  Ta  Ta125  1  -0.00534005  0.39646744  0.60825614  1
  Ta  Ta126  1  0.49166774  0.50526685  0.49833130  1
  Ta  Ta127  1  0.59981112  -0.00923591  0.19308031  1
  Ta  Ta128  1  0.60704488  0.40119439  0.20192831  1
  Ta  Ta129  1  0.70108361  0.89302214  0.29540624  1
  Ta  Ta130  1  0.29978103  0.90113073  0.70953224  1
  Ta  Ta131  1  0.41076817  0.79073449  0.39314361  1
  Ta  Ta132  1  0.89138942  0.28673380  0.70233146  1
  Ta  Ta133  1  0.19944576  -0.00099073  0.80666560  1
  Ta  Ta134  1  0.60139937  0.20613532  0.19557436  1
  Ta  Ta135  1  0.30568259  0.50136161  0.49870862  1
  Ta  Ta136  1  0.19841663  0.39477783  0.79830092  1
  Ta  Ta137  1  0.59838503  0.80172992  0.20105850  1
  Ta  Ta138  1  0.29639509  0.30069682  0.90376122  1
  Ta  Ta139  1  0.29255338  0.70523902  0.70274230  1
  Ta  Ta140  1  0.90549720  0.89948735  0.69584405  1
  Ta  Ta141  1  0.11287208  0.88916212  0.90566216  1
  Ta  Ta142  1  -0.00840314  0.39401840  -0.00171158  1
  Ta  Ta143  1  0.60575485  0.80406084  -0.00210524  1
  Ta  Ta144  1  0.30070322  0.49987734  0.89622001  1
  Ta  Ta145  1  0.39540628  0.40167523  0.80341236  1
  Ta  Ta146  1  -0.00558845  0.39631626  0.18607523  1
  Ta  Ta147  1  0.60378835  0.80297043  0.60333696  1
  Ta  Ta148  1  0.69183383  0.09648538  0.09428054  1
  Ta  Ta149  1  0.29068453  0.09323125  0.09013098  1
  Ti  Ti150  1  0.59957775  -0.00717443  0.80035832  1
  Ti  Ti151  1  0.29407750  0.09359151  0.90615364  1
  Ti  Ti152  1  0.60421828  -0.00511142  -0.00114987  1
  Ti  Ti153  1  0.19651006  0.19675086  0.80731009  1
  Ti  Ti154  1  0.89611919  0.50270632  0.50893398  1
  Ti  Ti155  1  0.79190462  0.59787444  -0.00158050  1
  Ti  Ti156  1  0.10387958  0.29612602  0.09532466  1
  Ti  Ti157  1  0.69817453  0.29653608  0.09516866  1
  Ti  Ti158  1  0.39016930  0.21671101  0.38792093  1
  Ti  Ti159  1  0.49977257  0.08294690  0.90295207  1
  Ti  Ti160  1  0.79757986  0.39484530  0.80089666  1
  Ti  Ti161  1  0.69940208  0.50539324  0.71003085  1
  Ti  Ti162  1  0.29798439  0.90542367  0.09124090  1
  Ti  Ti163  1  -0.00137395  0.82030302  0.41644806  1
  Ti  Ti164  1  0.79558961  0.80148996  0.19136311  1
  Ti  Ti165  1  0.80606953  0.81027149  0.59986635  1
  Ti  Ti166  1  0.59900799  0.20123938  0.61122173  1
  Ti  Ti167  1  0.50971858  0.70968864  0.70937943  1
  Ti  Ti168  1  0.20287348  0.60498105  -0.00546123  1
  Ti  Ti169  1  0.20166269  0.20376710  0.39997896  1
  Ti  Ti170  1  0.19163946  0.60416279  0.79894093  1
  Ti  Ti171  1  0.10991101  0.09881508  0.91397375  1
  Ti  Ti172  1  0.00090060  0.79970523  -0.00640023  1
  Ti  Ti173  1  0.89938536  0.90565674  0.30364780  1
  Ti  Ti174  1  0.19950805  0.59949353  0.60138165  1
  Ti  Ti175  1  0.60145053  0.19572860  -0.00314978  1
  Ti  Ti176  1  0.70115650  0.50097617  0.89197477  1
  Ti  Ti177  1  0.50652361  0.09666331  0.09533458  1
  Ti  Ti178  1  -0.00116183  0.60353017  0.80391539  1
  Ti  Ti179  1  0.00671770  0.79880253  0.80857081  1
  Ti  Ti180  1  0.49654389  0.09641170  0.70629898  1
  Ti  Ti181  1  0.89565310  0.50220411  0.89841886  1
  Ti  Ti182  1  0.60306244  0.40118576  0.79785647  1
  Ti  Ti183  1  0.59787244  0.60308830  0.80492559  1
  Ti  Ti184  1  -0.00284102  0.19105331  0.60041012  1
  Ti  Ti185  1  0.70436689  0.90165681  0.70361589  1
  Ti  Ti186  1  0.29024719  0.09501604  0.30052919  1
  Ti  Ti187  1  0.90083333  0.88976478  0.08988837  1
  Ti  Ti188  1  0.40288160  0.78814565  -0.00473072  1
  Ti  Ti189  1  0.09849315  0.49736435  0.70389623  1
  Ti  Ti190  1  0.39408231  0.39861429  0.39428865  1
  Ti  Ti191  1  0.69525944  0.09832945  0.89956934  1
  Ti  Ti192  1  -0.01756629  0.41372510  0.40673808  1
  Ti  Ti193  1  0.60096949  0.19403927  0.80307544  1
  Ti  Ti194  1  0.70377126  0.69899580  0.10268728  1
  Ti  Ti195  1  0.79929799  0.60184061  0.60879579  1
  Ti  Ti196  1  0.88835283  0.70236213  0.09183135  1
  Ti  Ti197  1  0.89601524  0.50416900  0.28956015  1
  Ti  Ti198  1  0.78991528  0.40363181  0.19513674  1
  Ti  Ti199  1  0.21386886  0.39759835  0.40146448  1
  Mo  Mo200  1  0.90198792  0.09159346  0.91191748  1
  Mo  Mo201  1  0.09953361  0.10177270  0.48900412  1
  Mo  Mo202  1  0.40404602  0.59955979  0.40783330  1
  Mo  Mo203  1  0.30410000  0.49687977  0.31239226  1
  Mo  Mo204  1  0.90805029  0.08839381  0.29673290  1
  Mo  Mo205  1  0.20117657  0.00720492  0.19869195  1
  Mo  Mo206  1  0.79395855  0.60416552  0.19486811  1
  Mo  Mo207  1  0.59937425  0.80955421  0.79859307  1
  Mo  Mo208  1  0.20116505  0.80405426  0.79662622  1
  Mo  Mo209  1  0.30403474  0.90160458  0.49956572  1
  Mo  Mo210  1  0.29586313  0.30245478  0.49178317  1
  Mo  Mo211  1  0.10172186  0.90414878  0.49517352  1
  Mo  Mo212  1  0.39605866  0.40488096  -0.00682531  1
  Mo  Mo213  1  0.70056581  0.50667713  0.10220172  1
  Mo  Mo214  1  0.69746208  0.29721801  0.71283136  1
  Mo  Mo215  1  0.90092760  0.89956768  0.50172092  1
  Mo  Mo216  1  0.40414317  0.19316231  0.60516806  1
  Mo  Mo217  1  0.40175295  -0.00291324  0.80325386  1
  Mo  Mo218  1  0.69934540  0.30616273  0.28390786  1
  Mo  Mo219  1  0.80603371  0.19775495  0.60938552  1
  Mo  Mo220  1  0.29790248  0.30203142  0.30254829  1
  Mo  Mo221  1  0.20614882  0.80044633  0.00159812  1
  Mo  Mo222  1  0.79776422  0.20126708  0.80423438  1
  Mo  Mo223  1  0.89523719  0.30494146  0.89571211  1
  Mo  Mo224  1  0.69332168  0.89349208  0.09889895  1
  Mo  Mo225  1  0.50482567  0.70565686  0.89977303  1
  Mo  Mo226  1  0.69867124  0.50684994  0.28667283  1
  Mo  Mo227  1  0.09451241  0.70097121  0.89620945  1
  Mo  Mo228  1  0.30459403  0.70086841  0.31381904  1
  Mo  Mo229  1  0.91975175  0.89516496  0.90609794  1
  Mo  Mo230  1  0.68208665  0.90409503  0.89957804  1
  Mo  Mo231  1  0.90107118  0.09638222  0.69105913  1
  Mo  Mo232  1  0.60747912  0.59989642  0.19898828  1
  Mo  Mo233  1  0.20030885  0.19912169  -0.00183678  1
  Mo  Mo234  1  0.49907520  0.30576457  0.29537604  1
  Mo  Mo235  1  0.50496759  0.89565239  0.29862931  1
  Mo  Mo236  1  0.40212769  0.00855168  -0.00260991  1
  Mo  Mo237  1  0.79647005  0.79831346  0.00775841  1
  Mo  Mo238  1  0.30323915  0.69949146  0.08243586  1
  Mo  Mo239  1  0.50231168  0.89890766  0.70809150  1
  Mo  Mo240  1  0.89446830  0.30962067  0.09817029  1
  Mo  Mo241  1  0.19843845  0.00668377  0.40089693  1
  Mo  Mo242  1  0.00323048  0.18451305  0.40035479  1
  Mo  Mo243  1  0.00078256  0.79989711  0.60210444  1
  Mo  Mo244  1  0.50633864  0.70203106  0.30155542  1
  Mo  Mo245  1  -0.00888204  0.58648251  0.40411127  1
  Mo  Mo246  1  0.50789245  0.70098277  0.50303660  1
  Mo  Mo247  1  0.80880750  -0.00499975  0.61308269  1
  Mo  Mo248  1  0.80774388  -0.00854996  0.38688039  1
  Mo  Mo249  1  0.19851644  0.00099111  -0.00297963  1
