# generated using pymatgen
data_HfZrTaTiMo
_symmetry_space_group_name_H-M   'P 1'
_cell_length_a   16.88229414
_cell_length_b   16.89494152
_cell_length_c   16.89344353
_cell_angle_alpha   89.98951994
_cell_angle_beta   89.94274540
_cell_angle_gamma   90.02610541
_symmetry_Int_Tables_number   1
_chemical_formula_structural   HfZrTaTiMo
_chemical_formula_sum   'Hf50 Zr50 Ta50 Ti50 Mo50'
_cell_volume   4818.43573355
_cell_formula_units_Z   50
loop_
 _symmetry_equiv_pos_site_id
 _symmetry_equiv_pos_as_xyz
  1  'x, y, z'
loop_
 _atom_site_type_symbol
 _atom_site_label
 _atom_site_symmetry_multiplicity
 _atom_site_fract_x
 _atom_site_fract_y
 _atom_site_fract_z
 _atom_site_occupancy
  Hf  Hf0  1  0.09751080  0.29380003  0.10226920  1
  Hf  Hf1  1  0.79426224  0.40538999  0.79870321  1
  Hf  Hf2  1  0.39012167  -0.00259962  0.39932046  1
  Hf  Hf3  1  0.89983617  0.69599000  0.49711873  1
  Hf  Hf4  1  0.49971130  0.49942558  0.90387212  1
  Hf  Hf5  1  0.00134042  0.39754914  0.39767603  1
  Hf  Hf6  1  0.39368613  0.80208678  0.39617876  1
  Hf  Hf7  1  0.50119728  0.10023609  0.30980640  1
  Hf  Hf8  1  0.20350472  0.39654551  0.40084964  1
  Hf  Hf9  1  0.69681101  0.90350353  0.70160412  1
  Hf  Hf10  1  0.29543064  0.69785284  0.49519611  1
  Hf  Hf11  1  0.19304047  0.00146005  0.20128508  1
  Hf  Hf12  1  0.89904660  0.50073401  0.49995212  1
  Hf  Hf13  1  0.50463958  0.70312989  0.49490498  1
  Hf  Hf14  1  0.50228265  0.30323741  0.10338030  1
  Hf  Hf15  1  0.30435368  0.10039831  0.09907133  1
  Hf  Hf16  1  0.89607298  0.90287829  0.90267387  1
  Hf  Hf17  1  0.29257039  0.69229681  0.69899566  1
  Hf  Hf18  1  -0.00628668  0.78827597  0.80162403  1
  Hf  Hf19  1  0.40071620  0.58582827  0.59110886  1
  Hf  Hf20  1  0.71273100  0.30543112  0.31921631  1
  Hf  Hf21  1  0.60563084  0.00634135  0.20160814  1
  Hf  Hf22  1  0.50665642  0.29862047  0.89046723  1
  Hf  Hf23  1  0.81222132  0.81643057  0.38656770  1
  Hf  Hf24  1  0.87467967  0.30474597  0.48872384  1
  Hf  Hf25  1  0.71870216  0.70507948  0.08696037  1
  Hf  Hf26  1  0.69754130  0.90609936  0.90472383  1
  Hf  Hf27  1  0.40992457  -0.00168791  0.79305935  1
  Hf  Hf28  1  0.09918252  0.89217553  0.10192595  1
  Hf  Hf29  1  -0.00204333  0.80232471  0.59703950  1
  Hf  Hf30  1  0.50316447  0.90236666  0.29946467  1
  Hf  Hf31  1  0.71048546  0.90077764  0.09386237  1
  Hf  Hf32  1  0.10894534  0.49654329  0.70743433  1
  Hf  Hf33  1  0.20366415  0.59278556  0.00272800  1
  Hf  Hf34  1  0.59383980  0.19361337  -0.00027649  1
  Hf  Hf35  1  0.58556026  0.19970192  0.61147427  1
  Hf  Hf36  1  0.80392144  0.00607634  0.20555000  1
  Hf  Hf37  1  0.30452365  0.89111967  0.91294889  1
  Hf  Hf38  1  0.19613149  0.00554937  0.00529504  1
  Hf  Hf39  1  0.30138994  0.30336090  0.69741866  1
  Hf  Hf40  1  -0.00488579  0.20154919  0.59885985  1
  Hf  Hf41  1  0.49305632  0.89889323  0.09287592  1
  Hf  Hf42  1  0.92842716  0.93250854  0.29777864  1
  Hf  Hf43  1  0.10010357  0.28855217  0.30393880  1
  Hf  Hf44  1  0.80633945  0.19559913  0.21548437  1
  Hf  Hf45  1  0.70933369  0.50815588  0.91360838  1
  Hf  Hf46  1  0.01089664  0.39098326  0.59659633  1
  Hf  Hf47  1  0.80486961  0.58534078  0.19872544  1
  Hf  Hf48  1  0.10079492  0.50270572  0.11845387  1
  Hf  Hf49  1  0.08376774  0.09265224  0.30715123  1
  Zr  Zr50  1  0.40060744  0.58935621  0.39973606  1
  Zr  Zr51  1  0.40167329  0.59456997  0.79888184  1
  Zr  Zr52  1  0.70587628  0.70353188  0.49712044  1
  Zr  Zr53  1  0.00267214  0.79740339  0.21316870  1
  Zr  Zr54  1  0.10139092  0.89355171  0.90103450  1
  Zr  Zr55  1  0.59706404  0.80147231  0.79950497  1
  Zr  Zr56  1  0.50347693  0.90966804  0.50036328  1
  Zr  Zr57  1  0.60559615  0.60337620  0.79946672  1
  Zr  Zr58  1  0.39885331  0.20341043  0.19994807  1
  Zr  Zr59  1  0.49030700  0.10476435  0.50379367  1
  Zr  Zr60  1  0.30599609  0.29807479  0.88876643  1
  Zr  Zr61  1  0.60179936  0.60199571  0.01101280  1
  Zr  Zr62  1  0.50379791  0.30890648  0.31111554  1
  Zr  Zr63  1  0.20394777  0.00420653  0.79730265  1
  Zr  Zr64  1  0.40013384  0.80429802  0.79401511  1
  Zr  Zr65  1  0.60225997  0.80007208  0.19455099  1
  Zr  Zr66  1  0.78508574  0.18937070  0.59799166  1
  Zr  Zr67  1  0.29360965  0.70732827  0.10102623  1
  Zr  Zr68  1  0.10187313  0.68921099  0.49227248  1
  Zr  Zr69  1  0.29343794  0.10321064  0.50472356  1
  Zr  Zr70  1  0.69995186  0.48809849  0.49422593  1
  Zr  Zr71  1  0.89763934  0.29864253  0.09752661  1
  Zr  Zr72  1  0.87003447  0.68875823  0.91787683  1
  Zr  Zr73  1  0.71545453  0.71065099  0.28715570  1
  Zr  Zr74  1  0.70669152  0.10165721  0.08968692  1
  Zr  Zr75  1  0.60184232  0.59725761  0.39194807  1
  Zr  Zr76  1  -0.00530330  0.60268952  0.80474230  1
  Zr  Zr77  1  0.09396290  0.10061707  0.89901960  1
  Zr  Zr78  1  0.89875054  0.49389098  0.90586702  1
  Zr  Zr79  1  0.19467497  0.80046641  0.59584894  1
  Zr  Zr80  1  0.30806405  0.10678207  0.89482620  1
  Zr  Zr81  1  0.20317485  0.39540861  0.00178154  1
  Zr  Zr82  1  0.39296022  0.39945946  0.00178800  1
  Zr  Zr83  1  -0.00353725  0.79295184  0.00001630  1
  Zr  Zr84  1  0.79632073  0.00092450  0.59437793  1
  Zr  Zr85  1  0.89552442  0.89951722  0.70261253  1
  Zr  Zr86  1  0.00770966  0.80560192  0.39989625  1
  Zr  Zr87  1  0.90061725  0.50066338  0.69652028  1
  Zr  Zr88  1  0.68969527  0.29401310  0.70781297  1
  Zr  Zr89  1  0.60753805  0.19989105  0.20449384  1
  Zr  Zr90  1  0.89837975  0.70291501  0.11151957  1
  Zr  Zr91  1  0.00278872  0.39770930  -0.00107330  1
  Zr  Zr92  1  0.18849427  0.20750158  0.60575904  1
  Zr  Zr93  1  0.50114258  0.69926362  0.69151531  1
  Zr  Zr94  1  0.49736321  0.49430241  0.11007839  1
  Zr  Zr95  1  0.40399012  0.60265522  0.20373249  1
  Zr  Zr96  1  0.70338395  0.29685730  0.90059062  1
  Zr  Zr97  1  0.89220728  0.29722080  0.70175455  1
  Zr  Zr98  1  0.10073797  0.90350011  0.70105517  1
  Zr  Zr99  1  0.20336594  0.20057674  0.19958308  1
  Ta  Ta100  1  0.70354512  0.70270128  0.69036970  1
  Ta  Ta101  1  0.29500975  0.49828836  0.29623507  1
  Ta  Ta102  1  0.50080011  0.90076280  0.90614697  1
  Ta  Ta103  1  0.10387712  0.69067928  0.70458350  1
  Ta  Ta104  1  0.49203123  0.70559127  0.91172376  1
  Ta  Ta105  1  0.29932102  0.90947193  0.68703899  1
  Ta  Ta106  1  0.39332846  0.59914906  0.00163096  1
  Ta  Ta107  1  0.79591047  0.01098609  0.80214145  1
  Ta  Ta108  1  0.10512212  0.50074938  0.89378393  1
  Ta  Ta109  1  0.42018339  0.19574973  0.78038568  1
  Ta  Ta110  1  0.79940092  0.00658324  0.39609732  1
  Ta  Ta111  1  0.29407636  0.49245542  0.69953837  1
  Ta  Ta112  1  0.30356298  0.29771327  0.50140260  1
  Ta  Ta113  1  0.00087911  0.20154461  0.79707295  1
  Ta  Ta114  1  0.61535298  0.40332821  0.20145038  1
  Ta  Ta115  1  0.60224116  0.80607186  0.59690081  1
  Ta  Ta116  1  0.60712661  0.59593219  0.20008752  1
  Ta  Ta117  1  0.29843000  0.70175837  0.90345765  1
  Ta  Ta118  1  0.81022656  0.19326922  -0.01104267  1
  Ta  Ta119  1  0.19272224  0.20266918  0.79430896  1
  Ta  Ta120  1  0.50252602  0.70389714  0.29738331  1
  Ta  Ta121  1  0.80705677  0.59993573  0.39006997  1
  Ta  Ta122  1  0.91090969  0.50205318  0.30073098  1
  Ta  Ta123  1  0.89076379  0.69866696  0.69095314  1
  Ta  Ta124  1  0.79122462  0.79302164  0.80350526  1
  Ta  Ta125  1  0.11346565  0.69406410  0.90268586  1
  Ta  Ta126  1  0.29637614  0.49788414  0.11419917  1
  Ta  Ta127  1  0.60301557  0.59138353  0.59766541  1
  Ta  Ta128  1  0.00432508  0.60059119  0.60198287  1
  Ta  Ta129  1  0.29171560  0.90528853  0.50419558  1
  Ta  Ta130  1  0.60960205  0.80831949  0.39401973  1
  Ta  Ta131  1  0.60852031  0.40050437  0.00528018  1
  Ta  Ta132  1  0.40153290  0.80893138  0.59876271  1
  Ta  Ta133  1  0.30647374  0.10251878  0.68923344  1
  Ta  Ta134  1  -0.00452086  0.00439140  0.59689419  1
  Ta  Ta135  1  0.70965575  0.30210052  0.09721463  1
  Ta  Ta136  1  0.39628186  0.80102753  0.20359135  1
  Ta  Ta137  1  0.19521470  0.80889305  0.38943490  1
  Ta  Ta138  1  0.10349129  0.69398489  0.10500197  1
  Ta  Ta139  1  0.29139368  0.69728119  0.29999765  1
  Ta  Ta140  1  0.20128258  0.20320580  -0.00014669  1
  Ta  Ta141  1  -0.00147275  0.39691238  0.20800677  1
  Ta  Ta142  1  0.09693943  0.10151951  0.49623151  1
  Ta  Ta143  1  0.89691903  0.10224415  0.70508536  1
  Ta  Ta144  1  0.29548860  0.10355123  0.30694093  1
  Ta  Ta145  1  0.19501295  -0.00237309  0.39826432  1
  Ta  Ta146  1  0.00180026  0.59496571  0.00905014  1
  Ta  Ta147  1  0.60206532  0.41017134  0.79563673  1
  Ta  Ta148  1  0.40205070  0.40105508  0.59427720  1
  Ta  Ta149  1  0.30091009  0.89568139  0.10013459  1
  Ti  Ti150  1  0.50705095  0.49114715  0.69009893  1
  Ti  Ti151  1  0.89771179  0.29524562  0.89527042  1
  Ti  Ti152  1  -0.00713303  0.00587384  0.79898858  1
  Ti  Ti153  1  0.38701491  0.39062235  0.20878939  1
  Ti  Ti154  1  0.40761292  0.00849575  -0.00177467  1
  Ti  Ti155  1  0.69667403  0.90729962  0.49283395  1
  Ti  Ti156  1  0.09629827  0.50352506  0.49443935  1
  Ti  Ti157  1  0.60354790  0.20111027  0.40611398  1
  Ti  Ti158  1  0.39217094  0.21022515  0.39902412  1
  Ti  Ti159  1  0.20034817  0.58775852  0.59420740  1
  Ti  Ti160  1  0.59481279  0.00348579  0.60941374  1
  Ti  Ti161  1  0.70437721  0.49292109  0.30333939  1
  Ti  Ti162  1  0.39526077  0.40614454  0.40748558  1
  Ti  Ti163  1  0.09936430  0.67631415  0.29699457  1
  Ti  Ti164  1  0.78551304  0.40195673  0.60867448  1
  Ti  Ti165  1  0.20248019  0.79822575  0.79898114  1
  Ti  Ti166  1  0.90647978  0.10008958  0.09903657  1
  Ti  Ti167  1  0.50140833  0.30835236  0.50235598  1
  Ti  Ti168  1  0.79957033  0.80868427  0.59263412  1
  Ti  Ti169  1  0.20005840  0.58621501  0.39540094  1
  Ti  Ti170  1  0.29347438  0.49925681  0.88634264  1
  Ti  Ti171  1  0.49528021  0.70373942  0.09947322  1
  Ti  Ti172  1  -0.00102116  0.19628046  -0.00742437  1
  Ti  Ti173  1  0.00446593  0.39091109  0.79821420  1
  Ti  Ti174  1  0.60212151  0.79511393  -0.00454249  1
  Ti  Ti175  1  0.10358703  0.30087251  0.89279270  1
  Ti  Ti176  1  0.40680816  0.40239890  0.79045105  1
  Ti  Ti177  1  -0.02011959  0.19988208  0.39701081  1
  Ti  Ti178  1  0.29563446  0.90097265  0.29321478  1
  Ti  Ti179  1  0.10272986  0.28589795  0.48842532  1
  Ti  Ti180  1  0.10081877  0.91349748  0.50045258  1
  Ti  Ti181  1  0.79344679  0.59590743  0.60166850  1
  Ti  Ti182  1  0.68651879  0.09482192  0.49302119  1
  Ti  Ti183  1  0.79060216  0.60318968  0.79018330  1
  Ti  Ti184  1  0.89812586  0.09811703  0.49478314  1
  Ti  Ti185  1  0.59257827  0.01105446  0.79757428  1
  Ti  Ti186  1  0.50378675  0.49242308  0.30100487  1
  Ti  Ti187  1  0.69748770  0.10492295  0.89139335  1
  Ti  Ti188  1  0.81153433  0.00906408  -0.00498296  1
  Ti  Ti189  1  0.40563143  0.19789624  0.00101692  1
  Ti  Ti190  1  0.19496717  0.79819238  0.21051949  1
  Ti  Ti191  1  -0.00751373  0.19470389  0.20360748  1
  Ti  Ti192  1  0.39888314  0.00151247  0.19960511  1
  Ti  Ti193  1  0.80781633  0.40064645  0.20251923  1
  Ti  Ti194  1  0.69181038  0.30532546  0.49903055  1
  Ti  Ti195  1  0.19826201  0.40000319  0.59101662  1
  Ti  Ti196  1  0.09652898  0.09615989  0.69575778  1
  Ti  Ti197  1  0.58823311  0.01149110  -0.00377587  1
  Ti  Ti198  1  -0.00281168  0.00282005  0.00654698  1
  Ti  Ti199  1  0.20396125  0.39223257  0.20751004  1
  Mo  Mo200  1  0.49818723  0.31277085  0.70093756  1
  Mo  Mo201  1  0.59360331  0.39796012  0.59927943  1
  Mo  Mo202  1  0.70511763  0.48970358  0.10597008  1
  Mo  Mo203  1  0.80267604  0.19060344  0.80512140  1
  Mo  Mo204  1  0.30296760  0.30223147  0.30794448  1
  Mo  Mo205  1  0.80099419  0.81766281  -0.00300420  1
  Mo  Mo206  1  0.10636908  0.91002791  0.29939644  1
  Mo  Mo207  1  0.70237059  0.90673020  0.30055238  1
  Mo  Mo208  1  0.90168198  0.90800605  0.10053328  1
  Mo  Mo209  1  0.20124743  0.39775048  0.80088296  1
  Mo  Mo210  1  0.90146875  0.10600021  0.30667550  1
  Mo  Mo211  1  0.60858737  -0.00045245  0.39853977  1
  Mo  Mo212  1  0.20361909  0.59787630  0.80516604  1
  Mo  Mo213  1  0.29284005  0.49173273  0.50270597  1
  Mo  Mo214  1  0.00192290  0.59494035  0.39933922  1
  Mo  Mo215  1  -0.00084392  0.00415900  0.42159129  1
  Mo  Mo216  1  0.39549745  -0.00082241  0.60020602  1
  Mo  Mo217  1  0.59702699  0.18861764  0.80060201  1
  Mo  Mo218  1  0.90445410  0.09954458  0.89721624  1
  Mo  Mo219  1  0.69790753  0.70107582  0.90065076  1
  Mo  Mo220  1  0.50361449  0.48866482  0.49949926  1
  Mo  Mo221  1  0.80511966  0.57853961  0.02060574  1
  Mo  Mo222  1  0.69877673  0.10284793  0.31605731  1
  Mo  Mo223  1  0.90746126  0.68744431  0.30389186  1
  Mo  Mo224  1  0.10390489  0.49591675  0.30099557  1
  Mo  Mo225  1  0.49844681  0.09299057  0.69526714  1
  Mo  Mo226  1  0.50211713  0.90389694  0.69488210  1
  Mo  Mo227  1  0.30032790  0.30032206  0.10086225  1
  Mo  Mo228  1  0.50163703  0.09855236  0.89741280  1
  Mo  Mo229  1  0.80447506  0.41208679  0.39106803  1
  Mo  Mo230  1  0.39982960  0.20980514  0.59938885  1
  Mo  Mo231  1  0.69724654  0.50443691  0.69462989  1
  Mo  Mo232  1  0.90213379  0.30174476  0.30029652  1
  Mo  Mo233  1  0.20093901  0.59996258  0.20710190  1
  Mo  Mo234  1  0.00263377  0.59623504  0.20512226  1
  Mo  Mo235  1  0.59756815  0.40020096  0.39925380  1
  Mo  Mo236  1  0.79324051  0.18776430  0.40680487  1
  Mo  Mo237  1  0.81524256  0.82075044  0.19818593  1
  Mo  Mo238  1  0.09890781  0.30382883  0.70831945  1
  Mo  Mo239  1  0.09174277  0.10807418  0.09514654  1
  Mo  Mo240  1  0.90536586  0.49381849  0.10601701  1
  Mo  Mo241  1  0.69404243  0.09631946  0.70853192  1
  Mo  Mo242  1  0.19347879  0.00631408  0.59658836  1
  Mo  Mo243  1  0.89880580  0.90786488  0.49853357  1
  Mo  Mo244  1  0.40286134  0.79664717  0.00450987  1
  Mo  Mo245  1  0.20080197  0.79444036  0.00350338  1
  Mo  Mo246  1  0.00428911  0.01251507  0.17750736  1
  Mo  Mo247  1  0.49388413  0.09382906  0.09735372  1
  Mo  Mo248  1  0.80137488  0.38948675  0.00299862  1
  Mo  Mo249  1  0.20213277  0.19781599  0.40145178  1
