# generated using pymatgen
data_HfZrTaTiMo
_symmetry_space_group_name_H-M   'P 1'
_cell_length_a   16.89543801
_cell_length_b   16.88316883
_cell_length_c   16.87255370
_cell_angle_alpha   89.96739920
_cell_angle_beta   90.01104423
_cell_angle_gamma   90.04141229
_symmetry_Int_Tables_number   1
_chemical_formula_structural   HfZrTaTiMo
_chemical_formula_sum   'Hf50 Zr50 Ta50 Ti50 Mo50'
_cell_volume   4812.86905512
_cell_formula_units_Z   50
loop_
 _symmetry_equiv_pos_site_id
 _symmetry_equiv_pos_as_xyz
  1  'x, y, z'
loop_
 _atom_site_type_symbol
 _atom_site_label
 _atom_site_symmetry_multiplicity
 _atom_site_fract_x
 _atom_site_fract_y
 _atom_site_fract_z
 _atom_site_occupancy
  Hf  Hf0  1  0.80328278  0.39899241  0.80184751  1
  Hf  Hf1  1  0.80118863  0.40532595  0.59778544  1
  Hf  Hf2  1  0.59527140  0.61132978  0.60089630  1
  Hf  Hf3  1  0.80372321  0.39780270  0.40436493  1
  Hf  Hf4  1  0.20181045  0.60161370  0.80309351  1
  Hf  Hf5  1  0.90499850  0.49904922  0.31065504  1
  Hf  Hf6  1  0.40057140  0.19723148  -0.00028762  1
  Hf  Hf7  1  0.29977487  0.50115304  0.09952939  1
  Hf  Hf8  1  -0.00449214  0.39575922  -0.00445889  1
  Hf  Hf9  1  0.89729435  0.29400741  0.11250632  1
  Hf  Hf10  1  0.29791902  0.49248495  0.48995318  1
  Hf  Hf11  1  0.49882276  0.49410260  0.30356852  1
  Hf  Hf12  1  0.08244090  0.90524008  0.30704882  1
  Hf  Hf13  1  0.70097580  0.10997015  0.69886867  1
  Hf  Hf14  1  0.40773572  0.00771830  0.60355383  1
  Hf  Hf15  1  0.08988107  0.69735617  0.69965016  1
  Hf  Hf16  1  0.59757644  0.40263506  0.59453545  1
  Hf  Hf17  1  0.49987180  0.28867526  0.30104930  1
  Hf  Hf18  1  0.19801338  0.19642151  0.40018065  1
  Hf  Hf19  1  0.79635962  0.00212159  0.79916103  1
  Hf  Hf20  1  0.07939492  0.09922821  0.29641303  1
  Hf  Hf21  1  -0.01550131  0.39588026  0.59926335  1
  Hf  Hf22  1  0.50093167  0.10378078  0.49197294  1
  Hf  Hf23  1  0.89818494  0.89724989  0.69812231  1
  Hf  Hf24  1  0.19874525  0.59573030  0.60044864  1
  Hf  Hf25  1  0.19512725  0.00791027  0.79444284  1
  Hf  Hf26  1  0.09114712  0.70312435  0.49485578  1
  Hf  Hf27  1  0.09141946  0.90007528  0.90352668  1
  Hf  Hf28  1  0.80125368  0.79866810  -0.00132793  1
  Hf  Hf29  1  0.59963549  0.59961002  0.20734433  1
  Hf  Hf30  1  0.31651551  0.69432186  0.90879227  1
  Hf  Hf31  1  0.50170227  0.49387052  0.09446406  1
  Hf  Hf32  1  0.29771383  0.29503200  0.10193816  1
  Hf  Hf33  1  0.10107072  0.49563258  0.10536288  1
  Hf  Hf34  1  0.19133154  0.60680137  0.00086912  1
  Hf  Hf35  1  0.68989462  0.90320978  0.10894385  1
  Hf  Hf36  1  0.81548872  0.81313515  0.20300510  1
  Hf  Hf37  1  0.30527423  0.90284147  0.70250103  1
  Hf  Hf38  1  -0.00337964  0.00662371  0.79485098  1
  Hf  Hf39  1  0.30378416  0.91250244  0.90343729  1
  Hf  Hf40  1  0.70177659  0.29700184  0.10013760  1
  Hf  Hf41  1  0.79599616  -0.00220769  0.59867544  1
  Hf  Hf42  1  0.40821268  0.60623300  0.39739487  1
  Hf  Hf43  1  0.89087685  0.69461415  0.49512430  1
  Hf  Hf44  1  0.60314400  -0.00021083  0.79609415  1
  Hf  Hf45  1  0.60751717  0.39896905  0.40459567  1
  Hf  Hf46  1  0.20036573  0.79952946  0.39121032  1
  Hf  Hf47  1  0.50849981  0.10152374  0.10116348  1
  Hf  Hf48  1  0.70352941  0.70298060  0.30157663  1
  Hf  Hf49  1  0.00995117  0.60637846  0.20824486  1
  Zr  Zr50  1  0.09692059  0.10421757  0.90551528  1
  Zr  Zr51  1  0.30343784  0.90759596  0.09551560  1
  Zr  Zr52  1  0.09658757  0.49796033  0.89667417  1
  Zr  Zr53  1  0.40818642  0.59351872  0.59564166  1
  Zr  Zr54  1  0.19839098  0.79657753  0.80478525  1
  Zr  Zr55  1  0.90310999  0.89701831  0.90312224  1
  Zr  Zr56  1  0.20193691  0.38801499  0.79768280  1
  Zr  Zr57  1  0.70205554  0.29687097  0.70171240  1
  Zr  Zr58  1  0.51183194  0.89356134  0.70087977  1
  Zr  Zr59  1  0.59339731  0.79660360  0.39900455  1
  Zr  Zr60  1  0.19375512  0.01321128  0.40830602  1
  Zr  Zr61  1  0.80633338  0.80518288  0.39455911  1
  Zr  Zr62  1  0.41441172  0.78825630  0.59822677  1
  Zr  Zr63  1  0.18856693  0.00429066  0.18961742  1
  Zr  Zr64  1  0.79378158  0.18959467  0.00901576  1
  Zr  Zr65  1  0.40221165  0.79726348  0.20843665  1
  Zr  Zr66  1  0.61076144  0.39627348  0.20852045  1
  Zr  Zr67  1  0.20067944  0.80449296  0.60091612  1
  Zr  Zr68  1  0.60642096  0.60687055  -0.00591992  1
  Zr  Zr69  1  0.20103918  0.01010339  0.59839437  1
  Zr  Zr70  1  0.49949155  0.50163429  0.90092933  1
  Zr  Zr71  1  0.40518226  0.79777502  0.39389672  1
  Zr  Zr72  1  0.29521185  0.69841769  0.49648441  1
  Zr  Zr73  1  0.39561624  0.39448233  0.20177318  1
  Zr  Zr74  1  0.30105992  0.91546851  0.30101785  1
  Zr  Zr75  1  0.69893915  0.70840110  0.10369394  1
  Zr  Zr76  1  0.39715674  0.39043797  0.79274663  1
  Zr  Zr77  1  0.40942139  0.80680112  -0.00078869  1
  Zr  Zr78  1  0.80409049  0.00180672  0.01339783  1
  Zr  Zr79  1  -0.00522750  0.20733259  0.79427556  1
  Zr  Zr80  1  0.70475141  0.50168489  0.89415259  1
  Zr  Zr81  1  0.20983142  0.38996820  0.60433352  1
  Zr  Zr82  1  0.19779278  0.38636908  -0.00130045  1
  Zr  Zr83  1  0.60453859  0.00545555  0.39651354  1
  Zr  Zr84  1  0.08727033  0.90372664  0.50006319  1
  Zr  Zr85  1  0.50363977  0.70439478  0.09894716  1
  Zr  Zr86  1  0.40949334  0.60475917  0.79213272  1
  Zr  Zr87  1  0.20630373  0.19377685  0.59804918  1
  Zr  Zr88  1  0.69227735  0.89128310  0.89919413  1
  Zr  Zr89  1  0.88763636  0.29517660  0.90829441  1
  Zr  Zr90  1  0.09392829  0.49727529  0.69885125  1
  Zr  Zr91  1  0.09430896  0.29751878  0.49736299  1
  Zr  Zr92  1  0.19522938  0.19722927  0.19971523  1
  Zr  Zr93  1  0.18884961  0.79487433  0.00351270  1
  Zr  Zr94  1  0.90175704  0.49636245  0.09852994  1
  Zr  Zr95  1  0.91083714  0.70254328  0.09607626  1
  Zr  Zr96  1  0.80643751  0.59960009  -0.01044031  1
  Zr  Zr97  1  0.09292255  0.49452724  0.48593183  1
  Zr  Zr98  1  0.18898064  0.79115764  0.19910088  1
  Zr  Zr99  1  0.50530645  0.29637325  0.90406182  1
  Ta  Ta100  1  0.69893445  0.89953259  0.50112148  1
  Ta  Ta101  1  0.60247457  0.00540075  0.00116296  1
  Ta  Ta102  1  0.50929659  0.29498754  0.09858568  1
  Ta  Ta103  1  0.70227574  0.70091623  0.50314635  1
  Ta  Ta104  1  0.30346895  0.69203497  0.10109306  1
  Ta  Ta105  1  0.80562397  0.59969503  0.20745228  1
  Ta  Ta106  1  0.41030679  0.79876124  0.80111337  1
  Ta  Ta107  1  0.50162593  0.09841433  0.90135037  1
  Ta  Ta108  1  -0.01224577  0.79546815  0.60008693  1
  Ta  Ta109  1  0.19411807  0.39298986  0.21096685  1
  Ta  Ta110  1  0.31392236  0.10234555  0.30079215  1
  Ta  Ta111  1  0.59620934  0.20085736  0.59441359  1
  Ta  Ta112  1  -0.01071662  0.39740573  0.79691984  1
  Ta  Ta113  1  0.50494417  0.90430576  0.50112783  1
  Ta  Ta114  1  0.69378778  0.10867869  0.90182872  1
  Ta  Ta115  1  0.80225361  0.39974797  0.20883651  1
  Ta  Ta116  1  0.59656959  0.60042022  0.40726112  1
  Ta  Ta117  1  0.40785911  0.00505288  0.19777066  1
  Ta  Ta118  1  0.50968099  0.49834586  0.70185141  1
  Ta  Ta119  1  0.70354431  0.29063081  0.49851213  1
  Ta  Ta120  1  0.08938632  0.89896736  0.69706809  1
  Ta  Ta121  1  0.39794982  0.60101646  0.20634705  1
  Ta  Ta122  1  0.00090654  0.39319639  0.21041599  1
  Ta  Ta123  1  0.70903636  0.49550993  0.10120044  1
  Ta  Ta124  1  0.31375018  0.90984990  0.49581810  1
  Ta  Ta125  1  0.30695131  0.50063270  0.90722598  1
  Ta  Ta126  1  -0.01210675  0.59597340  0.59564545  1
  Ta  Ta127  1  0.40447582  0.20573990  0.60304469  1
  Ta  Ta128  1  0.89513904  0.11136039  0.69400473  1
  Ta  Ta129  1  0.20442675  0.20097034  0.79433792  1
  Ta  Ta130  1  0.60781554  0.19902256  0.39604117  1
  Ta  Ta131  1  0.70180390  0.51497809  0.70061970  1
  Ta  Ta132  1  0.69953757  0.90805154  0.29381265  1
  Ta  Ta133  1  0.60545647  0.00310815  0.59968317  1
  Ta  Ta134  1  -0.00347285  0.79852162  0.21036770  1
  Ta  Ta135  1  -0.01144705  0.19917729  0.39808940  1
  Ta  Ta136  1  0.31404897  0.10663799  0.71100119  1
  Ta  Ta137  1  0.70822305  0.51391882  0.50104763  1
  Ta  Ta138  1  0.80226406  0.00251616  0.39535692  1
  Ta  Ta139  1  0.60479218  0.40046817  0.79707053  1
  Ta  Ta140  1  0.89585102  0.10177406  0.49923743  1
  Ta  Ta141  1  0.30479325  0.09837178  0.90126730  1
  Ta  Ta142  1  0.29401017  0.49762031  0.30143887  1
  Ta  Ta143  1  0.70646838  0.10643432  0.49764501  1
  Ta  Ta144  1  0.40722908  0.39595149  0.59784166  1
  Ta  Ta145  1  0.89111214  0.50990011  0.70257046  1
  Ta  Ta146  1  0.31145794  0.29553581  0.49363666  1
  Ta  Ta147  1  -0.00521218  0.79325992  0.79820817  1
  Ta  Ta148  1  0.79404227  0.79913583  0.60358914  1
  Ta  Ta149  1  0.90087146  0.90251785  0.49571522  1
  Ti  Ti150  1  0.50215415  0.11024759  0.70696653  1
  Ti  Ti151  1  0.30318033  0.70212973  0.70123912  1
  Ti  Ti152  1  0.08679625  0.29611318  0.30339954  1
  Ti  Ti153  1  0.49757107  0.10078415  0.29919470  1
  Ti  Ti154  1  0.18840137  0.00663875  0.00659599  1
  Ti  Ti155  1  0.19652610  0.19190200  0.00346740  1
  Ti  Ti156  1  0.09965221  0.49202442  0.30537598  1
  Ti  Ti157  1  0.39789498  0.39327251  -0.00150046  1
  Ti  Ti158  1  0.51547479  0.70712128  0.89419565  1
  Ti  Ti159  1  0.40003214  0.19593276  0.19754793  1
  Ti  Ti160  1  0.60239419  0.20602098  0.80565432  1
  Ti  Ti161  1  0.19774044  0.60351383  0.20668976  1
  Ti  Ti162  1  0.30535075  0.09336693  0.09543876  1
  Ti  Ti163  1  0.50652500  0.90119677  0.90248477  1
  Ti  Ti164  1  0.09193819  0.10777387  0.69017970  1
  Ti  Ti165  1  0.70838170  0.09832493  0.29223865  1
  Ti  Ti166  1  0.49997272  0.29476762  0.49419185  1
  Ti  Ti167  1  0.88934029  0.69322588  0.69874894  1
  Ti  Ti168  1  0.40923360  0.00193348  0.80376177  1
  Ti  Ti169  1  0.32006743  0.10275299  0.48822363  1
  Ti  Ti170  1  0.79042261  0.79191115  0.79336191  1
  Ti  Ti171  1  0.89882188  0.70007260  0.89156033  1
  Ti  Ti172  1  0.40438513  0.39767033  0.40421432  1
  Ti  Ti173  1  0.30655228  0.29362599  0.30578575  1
  Ti  Ti174  1  0.30507588  0.49732159  0.70085322  1
  Ti  Ti175  1  0.70813423  0.50678603  0.30664618  1
  Ti  Ti176  1  -0.00437964  0.18904862  0.01391885  1
  Ti  Ti177  1  -0.01074856  0.59751913  0.80374644  1
  Ti  Ti178  1  0.80550268  0.20741608  0.59864688  1
  Ti  Ti179  1  0.61263005  0.39452615  -0.00569269  1
  Ti  Ti180  1  -0.00352372  0.60674264  0.39550413  1
  Ti  Ti181  1  0.20032723  0.38884269  0.39143271  1
  Ti  Ti182  1  0.71582267  0.28524503  0.30317681  1
  Ti  Ti183  1  0.09335741  0.29453432  0.69395957  1
  Ti  Ti184  1  0.19551993  0.60645717  0.38447110  1
  Ti  Ti185  1  -0.00429543  0.00754298  0.59679779  1
  Ti  Ti186  1  0.89422564  0.10508385  0.89681446  1
  Ti  Ti187  1  0.89722029  0.29209384  0.49356190  1
  Ti  Ti188  1  0.50938736  0.90520264  0.10189941  1
  Ti  Ti189  1  0.50214026  0.29554825  0.70226937  1
  Ti  Ti190  1  -0.01896537  -0.00140270  0.19287264  1
  Ti  Ti191  1  0.07709475  0.89412585  0.09527402  1
  Ti  Ti192  1  0.50829905  0.90947955  0.29085868  1
  Ti  Ti193  1  0.30073052  0.28759598  0.89554149  1
  Ti  Ti194  1  -0.00952226  0.00957992  0.01187637  1
  Ti  Ti195  1  0.89109118  0.10731250  0.29577263  1
  Ti  Ti196  1  0.09291490  0.29121567  0.10647008  1
  Ti  Ti197  1  0.09673431  0.29105035  0.90068324  1
  Ti  Ti198  1  0.61006007  0.19311504  0.20211726  1
  Ti  Ti199  1  0.00450310  0.60599711  -0.00844567  1
  Mo  Mo200  1  0.40493362  0.19493472  0.80121248  1
  Mo  Mo201  1  0.69936318  0.70258871  0.88726728  1
  Mo  Mo202  1  0.90689464  0.90134092  0.10266631  1
  Mo  Mo203  1  0.40336071  0.20102875  0.39807134  1
  Mo  Mo204  1  -0.00336630  0.39192126  0.39885728  1
  Mo  Mo205  1  -0.01595670  0.00806220  0.40193835  1
  Mo  Mo206  1  0.79871979  0.19741198  0.80341986  1
  Mo  Mo207  1  0.89710912  0.10177738  0.11620136  1
  Mo  Mo208  1  -0.00200487  0.79182065  -0.00461855  1
  Mo  Mo209  1  0.90117826  0.91507845  0.30166197  1
  Mo  Mo210  1  0.70001179  0.70436213  0.70023113  1
  Mo  Mo211  1  0.51028875  0.70093467  0.70584286  1
  Mo  Mo212  1  0.89626413  0.30104494  0.69679309  1
  Mo  Mo213  1  0.60178127  0.79375650  0.79742687  1
  Mo  Mo214  1  0.59949337  0.00568944  0.20301014  1
  Mo  Mo215  1  0.90385633  0.50298345  0.89387723  1
  Mo  Mo216  1  0.90233223  0.69534441  0.30175950  1
  Mo  Mo217  1  0.08615666  0.09985927  0.09982768  1
  Mo  Mo218  1  0.09888949  0.69889936  0.10352888  1
  Mo  Mo219  1  0.09676172  0.70048326  0.30463656  1
  Mo  Mo220  1  0.80129089  0.60873586  0.79582366  1
  Mo  Mo221  1  0.79511297  0.59857348  0.39945980  1
  Mo  Mo222  1  0.30979754  0.29260875  0.69447253  1
  Mo  Mo223  1  0.79796011  0.19753650  0.20690397  1
  Mo  Mo224  1  0.29484570  0.68658085  0.29359360  1
  Mo  Mo225  1  0.59823992  0.80735706  -0.00493045  1
  Mo  Mo226  1  0.60081240  0.19818366  -0.00027983  1
  Mo  Mo227  1  -0.00664820  0.80043335  0.39941134  1
  Mo  Mo228  1  0.50528864  0.69194362  0.29767087  1
  Mo  Mo229  1  0.41208472  0.00403020  -0.00026864  1
  Mo  Mo230  1  0.69598072  0.09812671  0.10892489  1
  Mo  Mo231  1  0.59670223  0.80763599  0.20729980  1
  Mo  Mo232  1  0.70096303  0.89604609  0.69453651  1
  Mo  Mo233  1  0.08252870  0.69975365  0.89689753  1
  Mo  Mo234  1  0.40060774  0.59712370  0.00608064  1
  Mo  Mo235  1  -0.00540403  0.20177692  0.20453515  1
  Mo  Mo236  1  0.40893988  0.00054832  0.39544646  1
  Mo  Mo237  1  0.80051638  0.00591169  0.20432487  1
  Mo  Mo238  1  0.79952616  0.19537553  0.39950481  1
  Mo  Mo239  1  0.50375385  0.49440870  0.50079972  1
  Mo  Mo240  1  0.69590247  0.29946478  0.90232283  1
  Mo  Mo241  1  0.07629981  0.10375712  0.50078894  1
  Mo  Mo242  1  0.90034298  0.29917318  0.30342136  1
  Mo  Mo243  1  0.61025449  0.80365928  0.59920142  1
  Mo  Mo244  1  0.60495653  0.60500873  0.79401358  1
  Mo  Mo245  1  0.50899263  0.70448534  0.49929202  1
  Mo  Mo246  1  0.89783226  0.50755863  0.49993240  1
  Mo  Mo247  1  -0.00796770  0.19868188  0.59580352  1
  Mo  Mo248  1  0.79681039  0.40157920  0.00591679  1
  Mo  Mo249  1  0.79649366  0.60508113  0.60264147  1
