# generated using pymatgen
data_HfZrTaTiMo
_symmetry_space_group_name_H-M   'P 1'
_cell_length_a   16.89212775
_cell_length_b   16.88813096
_cell_length_c   16.88750794
_cell_angle_alpha   89.98863760
_cell_angle_beta   90.06373322
_cell_angle_gamma   90.00498743
_symmetry_Int_Tables_number   1
_chemical_formula_structural   HfZrTaTiMo
_chemical_formula_sum   'Hf50 Zr50 Ta50 Ti50 Mo50'
_cell_volume   4817.60548518
_cell_formula_units_Z   50
loop_
 _symmetry_equiv_pos_site_id
 _symmetry_equiv_pos_as_xyz
  1  'x, y, z'
loop_
 _atom_site_type_symbol
 _atom_site_label
 _atom_site_symmetry_multiplicity
 _atom_site_fract_x
 _atom_site_fract_y
 _atom_site_fract_z
 _atom_site_occupancy
  Hf  Hf0  1  0.30818232  0.71461503  0.69641382  1
  Hf  Hf1  1  0.49976523  0.49750501  0.29887123  1
  Hf  Hf2  1  0.50850183  0.08234036  0.48756749  1
  Hf  Hf3  1  0.90211103  0.28852761  0.90015741  1
  Hf  Hf4  1  0.90481256  0.69378054  0.89672260  1
  Hf  Hf5  1  0.80654095  0.79668437  0.39009894  1
  Hf  Hf6  1  0.79052750  0.42190238  0.60339985  1
  Hf  Hf7  1  0.90705694  0.09571603  0.09281532  1
  Hf  Hf8  1  0.80284051  -0.00804534  0.39351573  1
  Hf  Hf9  1  0.19934990  0.60615018  0.80142079  1
  Hf  Hf10  1  0.89626224  0.70057847  0.51384473  1
  Hf  Hf11  1  0.08314671  0.90929066  0.90688994  1
  Hf  Hf12  1  0.89596780  0.29987008  0.50780248  1
  Hf  Hf13  1  0.19726903  0.60245494  0.60458574  1
  Hf  Hf14  1  0.08536113  0.09820116  0.90951955  1
  Hf  Hf15  1  0.28475148  0.28501151  0.51777280  1
  Hf  Hf16  1  0.60128266  0.19278008  0.00311962  1
  Hf  Hf17  1  0.19854781  0.39157442  0.39994689  1
  Hf  Hf18  1  0.29346248  0.08953740  0.49987902  1
  Hf  Hf19  1  0.70387133  0.30440958  0.29666130  1
  Hf  Hf20  1  0.49046472  0.08645328  0.29831497  1
  Hf  Hf21  1  0.31075176  0.71996790  0.10505776  1
  Hf  Hf22  1  0.09298249  0.29881198  0.70002060  1
  Hf  Hf23  1  0.09053373  0.29479986  0.90217210  1
  Hf  Hf24  1  0.39546296  0.20189402  0.39742787  1
  Hf  Hf25  1  0.60923709  0.40544446  0.60100931  1
  Hf  Hf26  1  0.89979752  0.50467790  0.09916330  1
  Hf  Hf27  1  0.41796144  -0.00228557  0.61053952  1
  Hf  Hf28  1  0.90324283  0.09287728  0.49961588  1
  Hf  Hf29  1  0.39163556  0.38942639  0.40000843  1
  Hf  Hf30  1  0.79093266  0.60387748  0.79471321  1
  Hf  Hf31  1  0.60041440  -0.00684122  0.18951022  1
  Hf  Hf32  1  0.31541531  0.89732577  0.70714807  1
  Hf  Hf33  1  0.90343582  0.89939866  0.10030219  1
  Hf  Hf34  1  0.29391436  0.09693963  0.69461924  1
  Hf  Hf35  1  0.10039000  0.91854438  0.10282721  1
  Hf  Hf36  1  0.60251157  0.20030906  0.39706995  1
  Hf  Hf37  1  0.00327368  0.18661410  0.60550266  1
  Hf  Hf38  1  0.39374366  0.39641919  0.79688668  1
  Hf  Hf39  1  0.41035575  0.19439067  0.60159995  1
  Hf  Hf40  1  0.29438475  0.50347928  0.50096019  1
  Hf  Hf41  1  0.89437003  0.29233195  0.70201233  1
  Hf  Hf42  1  0.69771346  0.89828842  0.69965521  1
  Hf  Hf43  1  0.50670555  0.50541157  0.89689242  1
  Hf  Hf44  1  0.29176409  0.29273757  0.90719195  1
  Hf  Hf45  1  0.31073479  0.90557733  0.29672050  1
  Hf  Hf46  1  0.79721244  0.59823540  0.40141284  1
  Hf  Hf47  1  0.61579928  0.60128149  0.60538417  1
  Hf  Hf48  1  0.19265999  0.80539334  0.80048777  1
  Hf  Hf49  1  0.19149401  0.19522560  0.79378645  1
  Zr  Zr50  1  0.59510073  0.19714853  0.19752833  1
  Zr  Zr51  1  0.49466770  0.30437088  0.10593716  1
  Zr  Zr52  1  0.39638365  0.39359768  0.60859867  1
  Zr  Zr53  1  0.00364464  0.80002371  0.38901055  1
  Zr  Zr54  1  0.49932822  0.50143556  0.49715820  1
  Zr  Zr55  1  0.30204830  0.70554623  0.49942327  1
  Zr  Zr56  1  0.50771736  0.29689651  0.89866516  1
  Zr  Zr57  1  0.19844237  0.60510804  -0.00035608  1
  Zr  Zr58  1  0.60959224  0.40903806  0.00346876  1
  Zr  Zr59  1  0.30557515  0.89787201  0.50624124  1
  Zr  Zr60  1  0.70630715  0.30081313  0.09957243  1
  Zr  Zr61  1  0.29381662  0.09067688  0.29594258  1
  Zr  Zr62  1  0.70741182  0.29366877  0.50681886  1
  Zr  Zr63  1  0.00289296  0.60650444  0.19511120  1
  Zr  Zr64  1  0.40984213  0.61717737  0.20370602  1
  Zr  Zr65  1  0.30635041  0.50101129  0.10160768  1
  Zr  Zr66  1  -0.00561225  0.60750758  0.39234405  1
  Zr  Zr67  1  0.90530502  0.90033082  0.50469732  1
  Zr  Zr68  1  0.69010316  0.89742043  0.49791591  1
  Zr  Zr69  1  0.10114154  0.70349797  0.50359411  1
  Zr  Zr70  1  0.19653202  0.60638389  0.19285478  1
  Zr  Zr71  1  0.79593150  0.59942651  0.00096769  1
  Zr  Zr72  1  0.00006392  0.20291134  0.39624469  1
  Zr  Zr73  1  0.00046493  0.39499843  0.19571379  1
  Zr  Zr74  1  0.50211149  0.90074813  0.30936965  1
  Zr  Zr75  1  0.69749616  0.70108399  0.29326615  1
  Zr  Zr76  1  0.70462399  0.09597139  0.29361214  1
  Zr  Zr77  1  0.79966304  0.40855407  0.80592560  1
  Zr  Zr78  1  0.70674850  0.09453887  0.50198910  1
  Zr  Zr79  1  0.40910894  0.60402519  0.60245375  1
  Zr  Zr80  1  0.39544624  0.19618199  0.79286636  1
  Zr  Zr81  1  0.10294889  0.29260945  0.29794018  1
  Zr  Zr82  1  0.51802627  0.29573965  0.70479938  1
  Zr  Zr83  1  0.29358918  0.51722562  0.30871388  1
  Zr  Zr84  1  0.49922406  0.09759727  0.89597987  1
  Zr  Zr85  1  0.70155055  0.10109954  0.89482009  1
  Zr  Zr86  1  0.39549789  0.39913286  0.00150145  1
  Zr  Zr87  1  0.79442923  0.79624582  -0.00146523  1
  Zr  Zr88  1  0.78661301  -0.00607837  -0.00211683  1
  Zr  Zr89  1  0.90616150  0.51223842  0.70086899  1
  Zr  Zr90  1  0.20495811  0.81215281  -0.00697088  1
  Zr  Zr91  1  0.39940559  -0.01004158  -0.00758499  1
  Zr  Zr92  1  0.19787892  0.39757860  0.19405866  1
  Zr  Zr93  1  0.00615372  0.79215282  0.20220221  1
  Zr  Zr94  1  0.40437989  0.60576433  0.79783228  1
  Zr  Zr95  1  0.09531683  0.49997349  0.70123842  1
  Zr  Zr96  1  0.40884243  0.60879390  0.00174092  1
  Zr  Zr97  1  0.90693889  0.09376176  0.28947302  1
  Zr  Zr98  1  0.19212641  -0.00560567  0.80072892  1
  Zr  Zr99  1  0.08753104  0.50311296  0.90136835  1
  Ta  Ta100  1  0.69809075  0.70588953  0.50213481  1
  Ta  Ta101  1  0.59618446  -0.00452797  0.79831856  1
  Ta  Ta102  1  0.09976300  0.08781919  0.29181195  1
  Ta  Ta103  1  0.08734421  0.70224489  0.70411024  1
  Ta  Ta104  1  0.89814083  0.90455222  0.89836095  1
  Ta  Ta105  1  0.09537248  0.90469841  0.49815811  1
  Ta  Ta106  1  0.09855856  0.50200264  0.30680452  1
  Ta  Ta107  1  0.90147289  0.09820982  0.89592342  1
  Ta  Ta108  1  0.31051051  0.71285500  0.89425373  1
  Ta  Ta109  1  0.09736644  0.49790951  0.49559102  1
  Ta  Ta110  1  0.80639150  0.40180875  0.19870421  1
  Ta  Ta111  1  0.59803027  0.60369041  0.19458551  1
  Ta  Ta112  1  0.60119620  0.18931972  0.60351016  1
  Ta  Ta113  1  0.29382575  0.09358940  0.09800215  1
  Ta  Ta114  1  0.60195382  0.60031700  0.39900005  1
  Ta  Ta115  1  0.79479901  0.80042103  0.80342281  1
  Ta  Ta116  1  0.70191691  0.50246382  0.29348111  1
  Ta  Ta117  1  0.49184862  0.09123780  0.09753464  1
  Ta  Ta118  1  -0.00546683  0.40079370  0.39921909  1
  Ta  Ta119  1  0.20126385  0.80397172  0.39433405  1
  Ta  Ta120  1  0.18560122  -0.00570520  0.60757664  1
  Ta  Ta121  1  0.20274160  0.39751471  0.80117801  1
  Ta  Ta122  1  0.09992531  0.08934113  0.49563273  1
  Ta  Ta123  1  0.89958792  0.70401389  0.70060954  1
  Ta  Ta124  1  0.51076262  0.71130414  0.49735150  1
  Ta  Ta125  1  0.29585100  0.50123255  0.89941089  1
  Ta  Ta126  1  0.59436580  0.79588801  0.19161403  1
  Ta  Ta127  1  0.51027913  0.50256980  0.70783445  1
  Ta  Ta128  1  0.50820230  0.29923936  0.49843705  1
  Ta  Ta129  1  0.80856019  0.20556324  0.39220508  1
  Ta  Ta130  1  0.90617763  0.90240700  0.28743136  1
  Ta  Ta131  1  0.30047739  0.90753819  0.10585138  1
  Ta  Ta132  1  0.61561973  0.40495787  0.79683208  1
  Ta  Ta133  1  0.19000358  0.40102181  0.00372194  1
  Ta  Ta134  1  0.60130343  0.80073588  0.79823954  1
  Ta  Ta135  1  0.60937381  0.40513737  0.40147108  1
  Ta  Ta136  1  0.80398794  0.40328007  0.39693827  1
  Ta  Ta137  1  -0.00561663  0.80456224  0.79938493  1
  Ta  Ta138  1  0.39177578  0.19955809  0.19806446  1
  Ta  Ta139  1  0.00701938  0.20211178  0.18527285  1
  Ta  Ta140  1  0.20055960  0.80727612  0.20931728  1
  Ta  Ta141  1  0.70418619  0.10086146  0.70411482  1
  Ta  Ta142  1  0.50023384  0.30431583  0.30081088  1
  Ta  Ta143  1  0.89663139  0.50252045  0.29702264  1
  Ta  Ta144  1  0.80532246  -0.00136892  0.61090159  1
  Ta  Ta145  1  0.90192506  0.50281209  0.49964455  1
  Ta  Ta146  1  0.68647773  0.70030855  0.89820972  1
  Ta  Ta147  1  0.70491039  0.29407976  0.89506596  1
  Ta  Ta148  1  0.80555089  0.40316369  -0.00252333  1
  Ta  Ta149  1  0.29308673  0.09411306  0.90536037  1
  Ti  Ti150  1  0.70130448  0.70278752  0.10370893  1
  Ti  Ti151  1  0.49939110  0.89799055  0.88882722  1
  Ti  Ti152  1  0.29949699  0.50018779  0.70323174  1
  Ti  Ti153  1  0.10505488  0.71188515  0.09281215  1
  Ti  Ti154  1  0.50809944  0.71194369  0.69649790  1
  Ti  Ti155  1  0.70942636  0.28448437  0.70422694  1
  Ti  Ti156  1  0.69720848  0.89139278  0.29388874  1
  Ti  Ti157  1  0.19782273  0.39911298  0.60824292  1
  Ti  Ti158  1  0.49994315  0.49989497  0.10676362  1
  Ti  Ti159  1  0.50793438  0.89232930  0.49815683  1
  Ti  Ti160  1  0.79665879  -0.00657988  0.80146531  1
  Ti  Ti161  1  0.40314467  0.61302136  0.39828865  1
  Ti  Ti162  1  -0.00797079  0.40457886  0.80631761  1
  Ti  Ti163  1  0.29361935  0.29292974  0.09949882  1
  Ti  Ti164  1  0.69306340  0.51005410  0.89964182  1
  Ti  Ti165  1  0.09258020  0.70289992  0.89889049  1
  Ti  Ti166  1  -0.00254467  0.39594457  0.00787109  1
  Ti  Ti167  1  0.19287180  -0.01156042  0.39670069  1
  Ti  Ti168  1  0.59930398  -0.00095557  0.61005823  1
  Ti  Ti169  1  0.59653763  0.80894031  -0.00285730  1
  Ti  Ti170  1  0.79589033  -0.01058959  0.19555101  1
  Ti  Ti171  1  0.39601574  0.19516427  0.00522837  1
  Ti  Ti172  1  0.89566410  0.10094350  0.71265652  1
  Ti  Ti173  1  0.18803883  0.19600105  0.01103994  1
  Ti  Ti174  1  0.09907649  0.29622826  0.50583581  1
  Ti  Ti175  1  0.70383646  0.50634772  0.10933415  1
  Ti  Ti176  1  0.70273214  0.09736919  0.10054510  1
  Ti  Ti177  1  0.38721586  0.38883913  0.21062292  1
  Ti  Ti178  1  0.40002029  0.79738888  0.39911962  1
  Ti  Ti179  1  0.60334015  0.40507148  0.20175378  1
  Ti  Ti180  1  0.79519495  0.79718381  0.61018497  1
  Ti  Ti181  1  0.69582885  0.89153251  0.09915754  1
  Ti  Ti182  1  0.40618773  0.80500268  -0.00726522  1
  Ti  Ti183  1  0.00206094  0.60086179  0.59926967  1
  Ti  Ti184  1  0.49226115  0.89480729  0.10280089  1
  Ti  Ti185  1  -0.00033523  0.40286038  0.59434822  1
  Ti  Ti186  1  0.19615952  0.19489992  0.19239586  1
  Ti  Ti187  1  0.50394244  0.71021705  0.30312633  1
  Ti  Ti188  1  0.12043616  0.69284118  0.30754911  1
  Ti  Ti189  1  0.80313432  0.20133097  0.00395859  1
  Ti  Ti190  1  0.00287742  -0.00238810  0.61584553  1
  Ti  Ti191  1  0.00215613  0.80775116  0.60929285  1
  Ti  Ti192  1  0.18637342  0.81099626  0.60671064  1
  Ti  Ti193  1  0.59672676  0.60820417  0.01177372  1
  Ti  Ti194  1  -0.00519040  0.79593360  0.00239591  1
  Ti  Ti195  1  0.89880667  0.90017906  0.70717537  1
  Ti  Ti196  1  0.19702783  0.19528862  0.39872288  1
  Ti  Ti197  1  0.81730871  0.21240529  0.19821964  1
  Ti  Ti198  1  0.00143491  0.60389030  0.00664486  1
  Ti  Ti199  1  0.50601880  0.70535624  0.89738158  1
  Mo  Mo200  1  0.90333289  0.49846643  0.90772259  1
  Mo  Mo201  1  0.10209398  0.10238445  0.10087607  1
  Mo  Mo202  1  0.28392087  0.29864027  0.69978301  1
  Mo  Mo203  1  0.69129091  0.89608783  0.89593546  1
  Mo  Mo204  1  0.80110674  0.19549559  0.79914746  1
  Mo  Mo205  1  0.51171639  0.09513643  0.70221674  1
  Mo  Mo206  1  0.80193756  0.18522644  0.60463701  1
  Mo  Mo207  1  0.90132633  0.70214990  0.09461745  1
  Mo  Mo208  1  0.19657813  0.60144694  0.40500112  1
  Mo  Mo209  1  -0.00179828  0.61017783  0.80173733  1
  Mo  Mo210  1  0.20128463  0.00068631  0.19846702  1
  Mo  Mo211  1  0.59572481  -0.01250848  0.00050371  1
  Mo  Mo212  1  -0.00987053  0.00129227  -0.00076863  1
  Mo  Mo213  1  0.00490155  0.00209676  0.19823016  1
  Mo  Mo214  1  0.30255371  0.71271065  0.30432263  1
  Mo  Mo215  1  0.89902863  0.29882139  0.09473427  1
  Mo  Mo216  1  0.79798465  0.80059939  0.19513173  1
  Mo  Mo217  1  0.40262876  -0.00193027  0.80252659  1
  Mo  Mo218  1  0.08748731  0.89717137  0.69939588  1
  Mo  Mo219  1  0.20493395  0.00562502  -0.00006508  1
  Mo  Mo220  1  0.80129400  0.60820184  0.59821804  1
  Mo  Mo221  1  0.29889971  0.28677624  0.29222678  1
  Mo  Mo222  1  0.79784727  0.60017978  0.19716695  1
  Mo  Mo223  1  0.70305864  0.70822886  0.70078808  1
  Mo  Mo224  1  -0.00386483  0.19942949  0.00423431  1
  Mo  Mo225  1  0.40501940  0.80594517  0.19966095  1
  Mo  Mo226  1  0.39809211  -0.00725428  0.41557594  1
  Mo  Mo227  1  0.50861267  0.71240484  0.09327073  1
  Mo  Mo228  1  0.09438117  0.49585576  0.09556929  1
  Mo  Mo229  1  0.42132270  0.80335031  0.60200290  1
  Mo  Mo230  1  0.18483386  0.18754459  0.59847529  1
  Mo  Mo231  1  0.88312296  0.69980630  0.28021707  1
  Mo  Mo232  1  0.30963569  0.90029446  0.89715730  1
  Mo  Mo233  1  0.70402155  0.50609706  0.48928234  1
  Mo  Mo234  1  0.69757976  0.51115608  0.70735597  1
  Mo  Mo235  1  0.60661820  -0.00958626  0.39101076  1
  Mo  Mo236  1  -0.01383815  -0.00197821  0.79714177  1
  Mo  Mo237  1  0.10364704  0.90396313  0.30132627  1
  Mo  Mo238  1  0.41373811  0.80145178  0.80359679  1
  Mo  Mo239  1  0.89839639  0.30480865  0.29613250  1
  Mo  Mo240  1  -0.00511715  0.19177135  0.79766240  1
  Mo  Mo241  1  0.59988309  0.60784150  0.79784815  1
  Mo  Mo242  1  0.00650025  -0.00473877  0.39204117  1
  Mo  Mo243  1  0.60198305  0.79743526  0.60192056  1
  Mo  Mo244  1  0.09978956  0.29487549  0.09287523  1
  Mo  Mo245  1  0.50668491  0.89726945  0.70330505  1
  Mo  Mo246  1  0.09188131  0.09329468  0.69983490  1
  Mo  Mo247  1  0.60229628  0.79479435  0.39644908  1
  Mo  Mo248  1  0.40020481  0.00121716  0.18667741  1
  Mo  Mo249  1  0.60994894  0.19915165  0.79657569  1
