# generated using pymatgen
data_HfZrTaTiMo
_symmetry_space_group_name_H-M   'P 1'
_cell_length_a   16.89230068
_cell_length_b   16.89730209
_cell_length_c   16.88465275
_cell_angle_alpha   89.99178534
_cell_angle_beta   90.00878789
_cell_angle_gamma   90.02899284
_symmetry_Int_Tables_number   1
_chemical_formula_structural   HfZrTaTiMo
_chemical_formula_sum   'Hf50 Zr50 Ta50 Ti50 Mo50'
_cell_volume   4819.45844231
_cell_formula_units_Z   50
loop_
 _symmetry_equiv_pos_site_id
 _symmetry_equiv_pos_as_xyz
  1  'x, y, z'
loop_
 _atom_site_type_symbol
 _atom_site_label
 _atom_site_symmetry_multiplicity
 _atom_site_fract_x
 _atom_site_fract_y
 _atom_site_fract_z
 _atom_site_occupancy
  Hf  Hf0  1  0.59827703  0.60388771  0.39588227  1
  Hf  Hf1  1  0.30775595  0.31477147  0.88808992  1
  Hf  Hf2  1  0.91181273  0.69830452  0.09502743  1
  Hf  Hf3  1  0.30369720  0.69728138  0.90382383  1
  Hf  Hf4  1  0.20058974  0.59869318  0.20358538  1
  Hf  Hf5  1  0.49850834  0.90912733  0.89390209  1
  Hf  Hf6  1  0.70034682  0.10754488  0.90798141  1
  Hf  Hf7  1  0.90500418  0.10442568  0.69303788  1
  Hf  Hf8  1  0.90176716  0.09649927  0.90709356  1
  Hf  Hf9  1  0.40021187  0.80990465  0.00309256  1
  Hf  Hf10  1  0.29895593  0.10589810  0.29934697  1
  Hf  Hf11  1  -0.00653010  0.79473950  0.60135182  1
  Hf  Hf12  1  0.70970327  0.10299913  0.10684866  1
  Hf  Hf13  1  0.68890353  0.89340358  0.49045647  1
  Hf  Hf14  1  0.40983989  0.38795818  0.20583111  1
  Hf  Hf15  1  0.19171077  0.00712283  0.80015778  1
  Hf  Hf16  1  0.09886384  0.10291859  0.29364515  1
  Hf  Hf17  1  0.19253611  0.59211286  0.60239250  1
  Hf  Hf18  1  0.09513818  0.30637842  0.10851274  1
  Hf  Hf19  1  0.20116731  0.59822815  0.40353397  1
  Hf  Hf20  1  0.90555852  0.49506518  0.30067741  1
  Hf  Hf21  1  0.69648127  0.68944973  0.90556025  1
  Hf  Hf22  1  0.59416462  0.79373418  0.79989731  1
  Hf  Hf23  1  0.69786831  0.49768773  0.29384660  1
  Hf  Hf24  1  0.10277870  0.09014032  0.10515462  1
  Hf  Hf25  1  0.18642149  0.19032215  0.59364357  1
  Hf  Hf26  1  0.59842037  -0.00290205  0.01161097  1
  Hf  Hf27  1  0.08888555  0.49019249  0.30399889  1
  Hf  Hf28  1  0.90928762  0.90328756  0.49111182  1
  Hf  Hf29  1  0.70595903  0.90345591  0.29744995  1
  Hf  Hf30  1  0.59523018  0.00074722  0.20167260  1
  Hf  Hf31  1  0.69490656  0.69331989  0.10198685  1
  Hf  Hf32  1  0.70239155  0.30430201  0.68248633  1
  Hf  Hf33  1  0.39852276  0.20265719  0.59204258  1
  Hf  Hf34  1  0.60314243  0.01454748  0.59591849  1
  Hf  Hf35  1  0.91818090  0.29988153  0.30850499  1
  Hf  Hf36  1  0.80567287  0.39875843  0.80439329  1
  Hf  Hf37  1  0.49888092  0.90084490  0.49505379  1
  Hf  Hf38  1  0.79773317  0.20802108  0.79862053  1
  Hf  Hf39  1  0.20513511  0.40460473  0.00060457  1
  Hf  Hf40  1  0.40409052  0.38922071  0.39919873  1
  Hf  Hf41  1  0.20236985  0.00169272  0.40204466  1
  Hf  Hf42  1  0.49764755  0.49145624  0.90589996  1
  Hf  Hf43  1  0.80877082  0.79305318  0.39998784  1
  Hf  Hf44  1  0.59534091  0.80511327  0.00417295  1
  Hf  Hf45  1  0.70435683  0.48360871  0.50400547  1
  Hf  Hf46  1  0.09828632  0.70774799  0.29639390  1
  Hf  Hf47  1  0.70092161  0.90280908  0.89564618  1
  Hf  Hf48  1  0.29091709  0.10146367  0.11066824  1
  Hf  Hf49  1  0.90711456  0.08875389  0.10956090  1
  Zr  Zr50  1  0.59391371  0.20110081  0.20500444  1
  Zr  Zr51  1  0.29764759  0.69590482  0.69757533  1
  Zr  Zr52  1  0.19267651  0.20788263  -0.00704382  1
  Zr  Zr53  1  0.49966063  0.71292171  0.49785647  1
  Zr  Zr54  1  0.29368670  0.30491038  0.69664723  1
  Zr  Zr55  1  0.80986567  0.60838850  0.59596785  1
  Zr  Zr56  1  0.50391314  0.10669762  0.90237905  1
  Zr  Zr57  1  0.30188781  0.70450639  0.10992861  1
  Zr  Zr58  1  0.80438181  0.79799238  -0.00021432  1
  Zr  Zr59  1  0.69444059  0.89366133  0.69469793  1
  Zr  Zr60  1  0.91060886  0.48899870  0.49969001  1
  Zr  Zr61  1  0.70403266  0.29641361  0.30054509  1
  Zr  Zr62  1  0.09029223  0.70087866  0.91339802  1
  Zr  Zr63  1  0.49484020  0.50443450  0.50834447  1
  Zr  Zr64  1  0.00371189  0.20206354  -0.00432991  1
  Zr  Zr65  1  0.80494845  0.79281338  0.59526795  1
  Zr  Zr66  1  0.80038522  0.60842507  0.40648675  1
  Zr  Zr67  1  0.68826398  0.71100445  0.29460042  1
  Zr  Zr68  1  0.30112039  0.10482502  0.90253103  1
  Zr  Zr69  1  0.19910994  0.80601305  0.80869421  1
  Zr  Zr70  1  0.49162400  0.69444099  0.69378353  1
  Zr  Zr71  1  0.08575462  0.50372163  0.90816724  1
  Zr  Zr72  1  0.49685304  0.11517827  0.47936861  1
  Zr  Zr73  1  0.49898609  0.68804738  0.10001437  1
  Zr  Zr74  1  0.59693155  0.59017414  0.79760481  1
  Zr  Zr75  1  0.39494083  0.60708243  0.39573745  1
  Zr  Zr76  1  0.29349258  0.30124100  0.50055976  1
  Zr  Zr77  1  0.60712579  0.39473646  0.80028133  1
  Zr  Zr78  1  0.79665885  0.00898064  0.59035291  1
  Zr  Zr79  1  0.60701649  0.60140491  0.59770653  1
  Zr  Zr80  1  0.39372546  0.01090367  0.59455477  1
  Zr  Zr81  1  0.39975915  0.21209440  0.01205245  1
  Zr  Zr82  1  0.50346999  0.29796909  0.89814113  1
  Zr  Zr83  1  -0.00704926  0.79709657  0.79884150  1
  Zr  Zr84  1  0.69603847  0.50263839  0.10346552  1
  Zr  Zr85  1  0.58878496  0.39261995  0.39585242  1
  Zr  Zr86  1  0.80909765  0.60598458  0.20369790  1
  Zr  Zr87  1  0.09823505  0.70570470  0.49948480  1
  Zr  Zr88  1  0.21024098  0.80039164  0.39115073  1
  Zr  Zr89  1  0.18464093  0.20235406  0.80119552  1
  Zr  Zr90  1  0.79593883  0.00855870  0.79054473  1
  Zr  Zr91  1  0.39637534  0.00547731  0.79666380  1
  Zr  Zr92  1  0.20340013  0.59286677  0.00872692  1
  Zr  Zr93  1  0.30121639  0.49412319  0.30274968  1
  Zr  Zr94  1  0.00709033  0.20335991  0.80076686  1
  Zr  Zr95  1  0.40345229  -0.00731107  0.20469544  1
  Zr  Zr96  1  0.90246398  0.90443432  0.90127232  1
  Zr  Zr97  1  0.29671326  0.90067602  0.69807982  1
  Zr  Zr98  1  0.80754496  0.59411022  0.79967558  1
  Zr  Zr99  1  0.19603586  0.59048243  0.80235039  1
  Ta  Ta100  1  0.19748889  0.39794082  0.20489592  1
  Ta  Ta101  1  0.70039190  0.29610035  0.49675915  1
  Ta  Ta102  1  0.09715322  0.90573776  0.90880215  1
  Ta  Ta103  1  0.09994568  0.89961930  0.49795272  1
  Ta  Ta104  1  0.81243856  0.80537085  0.19779957  1
  Ta  Ta105  1  0.29158395  0.89876023  0.11285274  1
  Ta  Ta106  1  0.81258527  0.59144457  -0.00515955  1
  Ta  Ta107  1  0.58648527  0.81184277  0.19269004  1
  Ta  Ta108  1  0.40081461  0.80023955  0.80404337  1
  Ta  Ta109  1  0.80022844  0.19571720  0.58899597  1
  Ta  Ta110  1  0.50677831  0.30076928  0.69230673  1
  Ta  Ta111  1  0.60380580  0.39028372  0.00899803  1
  Ta  Ta112  1  0.50105246  0.89964950  0.69463132  1
  Ta  Ta113  1  0.90802403  0.49481836  0.10028118  1
  Ta  Ta114  1  0.30446306  0.49221458  0.69869203  1
  Ta  Ta115  1  0.19124360  0.20053434  0.40253810  1
  Ta  Ta116  1  0.19184520  0.39406602  0.40229928  1
  Ta  Ta117  1  0.80242139  0.39548026  0.00240199  1
  Ta  Ta118  1  0.39451195  -0.00373490  0.00703821  1
  Ta  Ta119  1  0.81155419  0.20202095  0.20345063  1
  Ta  Ta120  1  0.00704601  0.00097763  0.39600248  1
  Ta  Ta121  1  -0.00022996  0.81067257  0.19815840  1
  Ta  Ta122  1  0.70541171  0.49094001  0.68990482  1
  Ta  Ta123  1  0.69955601  0.69973096  0.69791694  1
  Ta  Ta124  1  0.80592217  0.19576476  0.40402430  1
  Ta  Ta125  1  0.40428574  0.20416871  0.78751758  1
  Ta  Ta126  1  0.09633879  0.69808461  0.70237119  1
  Ta  Ta127  1  0.09691766  0.90136514  0.69321863  1
  Ta  Ta128  1  0.40841825  0.39955450  0.60093946  1
  Ta  Ta129  1  0.39875518  0.58755024  0.80072731  1
  Ta  Ta130  1  0.00862106  0.00439732  0.79711239  1
  Ta  Ta131  1  0.80289909  -0.00499287  0.01009031  1
  Ta  Ta132  1  0.18763415  0.40604566  0.79799248  1
  Ta  Ta133  1  0.70008507  0.49433294  0.91017053  1
  Ta  Ta134  1  0.29817870  0.49441817  0.50808177  1
  Ta  Ta135  1  0.80823009  0.39429793  0.19742977  1
  Ta  Ta136  1  0.09981913  0.70875650  0.10337107  1
  Ta  Ta137  1  0.80521577  0.39081733  0.40074680  1
  Ta  Ta138  1  0.60301783  0.01244047  0.78808318  1
  Ta  Ta139  1  0.39614775  0.80443801  0.59993149  1
  Ta  Ta140  1  0.59877251  0.00895329  0.38968921  1
  Ta  Ta141  1  -0.00293561  0.40333863  0.79623146  1
  Ta  Ta142  1  -0.01069289  0.59623700  0.79714415  1
  Ta  Ta143  1  0.80691792  0.78711263  0.79599796  1
  Ta  Ta144  1  0.71109955  0.09961603  0.30030639  1
  Ta  Ta145  1  0.50369674  0.49857305  0.10218939  1
  Ta  Ta146  1  0.49420435  0.10297108  0.10103338  1
  Ta  Ta147  1  0.30087514  0.89982460  0.49867685  1
  Ta  Ta148  1  0.19456665  0.00485710  0.59311673  1
  Ta  Ta149  1  0.90413040  0.09706307  0.30004103  1
  Ti  Ti150  1  0.58906190  0.39284925  0.20301605  1
  Ti  Ti151  1  0.29080007  0.29295561  0.29973974  1
  Ti  Ti152  1  -0.00619196  0.39958017  -0.00219268  1
  Ti  Ti153  1  0.00073613  0.59994192  0.60660935  1
  Ti  Ti154  1  0.60216658  0.20916054  0.01103341  1
  Ti  Ti155  1  0.40673227  0.20411301  0.20745359  1
  Ti  Ti156  1  0.90404580  0.91163416  0.29346483  1
  Ti  Ti157  1  0.29390174  0.10628227  0.69795374  1
  Ti  Ti158  1  0.49675735  0.68903070  0.90560029  1
  Ti  Ti159  1  0.00306239  0.60184290  0.19895383  1
  Ti  Ti160  1  0.90243630  0.48855364  0.68810612  1
  Ti  Ti161  1  0.80185359  0.00683692  0.40029524  1
  Ti  Ti162  1  0.08631867  0.30212984  0.49271889  1
  Ti  Ti163  1  0.91485653  0.70813439  0.30142264  1
  Ti  Ti164  1  0.39395528  0.58620525  -0.00145731  1
  Ti  Ti165  1  0.90277869  0.30301918  0.90334451  1
  Ti  Ti166  1  0.90447411  0.29900292  0.50219497  1
  Ti  Ti167  1  0.39981743  0.39815310  0.01286588  1
  Ti  Ti168  1  0.80344472  0.20973715  0.00546580  1
  Ti  Ti169  1  0.91104513  0.10181040  0.49087151  1
  Ti  Ti170  1  0.18620012  0.40494835  0.60162281  1
  Ti  Ti171  1  0.00444098  0.19672209  0.59217177  1
  Ti  Ti172  1  0.00236715  0.20253404  0.20278659  1
  Ti  Ti173  1  0.50417334  0.10873807  0.69725669  1
  Ti  Ti174  1  0.39156426  0.80090462  0.39049465  1
  Ti  Ti175  1  0.90194598  0.90669553  0.69798159  1
  Ti  Ti176  1  0.10161271  0.90379814  0.10549664  1
  Ti  Ti177  1  0.29240419  0.29726154  0.11351687  1
  Ti  Ti178  1  0.60862829  0.19926032  0.79178231  1
  Ti  Ti179  1  0.90549805  0.30277484  0.10557827  1
  Ti  Ti180  1  0.60277649  0.20045715  0.58843961  1
  Ti  Ti181  1  0.10477148  0.90290571  0.29237067  1
  Ti  Ti182  1  0.30438332  0.69944691  0.50833949  1
  Ti  Ti183  1  0.49804768  0.89474707  0.30556791  1
  Ti  Ti184  1  0.09233324  0.49200836  0.50113546  1
  Ti  Ti185  1  0.30699430  0.49530072  0.10925538  1
  Ti  Ti186  1  -0.00129879  0.60627858  0.40576162  1
  Ti  Ti187  1  0.20481712  -0.00692859  -0.00201788  1
  Ti  Ti188  1  0.08970014  0.49835540  0.10517234  1
  Ti  Ti189  1  0.09005092  0.30705670  0.69264334  1
  Ti  Ti190  1  0.49588404  0.70775855  0.29203741  1
  Ti  Ti191  1  0.90289362  0.30301028  0.68502320  1
  Ti  Ti192  1  -0.00077038  0.81042456  0.00607079  1
  Ti  Ti193  1  0.20200610  0.80834823  0.00323499  1
  Ti  Ti194  1  0.00903804  0.00433751  0.59596570  1
  Ti  Ti195  1  0.40359872  0.59616194  0.20805204  1
  Ti  Ti196  1  0.39587658  0.00239967  0.39489332  1
  Ti  Ti197  1  0.71059939  0.90090345  0.10916483  1
  Ti  Ti198  1  0.19865920  0.80261297  0.59857097  1
  Ti  Ti199  1  0.70475212  0.30116926  0.10603951  1
  Mo  Mo200  1  0.70522322  0.29789412  0.91527726  1
  Mo  Mo201  1  0.30951994  0.49409714  0.89615136  1
  Mo  Mo202  1  0.00130620  0.81202811  0.38996596  1
  Mo  Mo203  1  0.49651869  0.09863091  0.30006907  1
  Mo  Mo204  1  0.00061856  0.19536404  0.40643095  1
  Mo  Mo205  1  0.09543437  0.07999587  0.91289528  1
  Mo  Mo206  1  0.59791510  0.39607654  0.59717742  1
  Mo  Mo207  1  0.39751896  0.80102261  0.20841966  1
  Mo  Mo208  1  0.09460297  0.09490639  0.68768171  1
  Mo  Mo209  1  0.80647619  0.38901068  0.59625847  1
  Mo  Mo210  1  0.00292802  -0.00777031  0.20444254  1
  Mo  Mo211  1  0.00025087  0.39985228  0.19562877  1
  Mo  Mo212  1  0.40687687  0.40050450  0.78671995  1
  Mo  Mo213  1  0.30454361  0.70419632  0.29260448  1
  Mo  Mo214  1  0.70017791  0.10486445  0.48899677  1
  Mo  Mo215  1  0.19844962  0.20940181  0.20520484  1
  Mo  Mo216  1  0.00317414  0.39376273  0.40553841  1
  Mo  Mo217  1  0.38917478  0.59520678  0.60284247  1
  Mo  Mo218  1  0.91837191  0.70032270  0.49346835  1
  Mo  Mo219  1  0.59870623  0.58679809  0.00034636  1
  Mo  Mo220  1  0.59496381  0.80041531  0.60213980  1
  Mo  Mo221  1  0.58780110  0.59977913  0.20304212  1
  Mo  Mo222  1  0.49214915  0.90267092  0.10133896  1
  Mo  Mo223  1  0.09268835  0.09718197  0.49333276  1
  Mo  Mo224  1  0.19508777  0.80400006  0.19685570  1
  Mo  Mo225  1  0.61077905  0.19668339  0.39870462  1
  Mo  Mo226  1  0.09046125  0.49885169  0.69812930  1
  Mo  Mo227  1  0.00246260  0.39224051  0.60182766  1
  Mo  Mo228  1  0.90439322  0.89930183  0.10483018  1
  Mo  Mo229  1  0.50289565  0.30195105  0.10499541  1
  Mo  Mo230  1  0.90085497  0.69243601  0.90169857  1
  Mo  Mo231  1  0.50239794  0.50835323  0.28974644  1
  Mo  Mo232  1  0.29542545  0.89929613  0.91105434  1
  Mo  Mo233  1  0.38998154  0.20350430  0.39438593  1
  Mo  Mo234  1  0.80423259  -0.00022058  0.20450211  1
  Mo  Mo235  1  0.90158112  0.69130097  0.70061009  1
  Mo  Mo236  1  0.00268122  -0.00687134  0.00393362  1
  Mo  Mo237  1  0.09468681  0.32038830  0.89827850  1
  Mo  Mo238  1  0.49750621  0.49293620  0.70059663  1
  Mo  Mo239  1  0.68365881  0.71602415  0.50199445  1
  Mo  Mo240  1  0.89909560  0.49286917  0.90703479  1
  Mo  Mo241  1  -0.00218851  0.59726310  0.00790211  1
  Mo  Mo242  1  0.69645835  0.11546732  0.69270069  1
  Mo  Mo243  1  0.49711166  0.28005887  0.30987357  1
  Mo  Mo244  1  0.50586080  0.29795687  0.50331014  1
  Mo  Mo245  1  0.59372334  0.80704170  0.38630776  1
  Mo  Mo246  1  0.19983507  -0.00859909  0.20461394  1
  Mo  Mo247  1  0.30311613  0.89900059  0.30152032  1
  Mo  Mo248  1  0.10402574  0.29685709  0.30254414  1
  Mo  Mo249  1  0.29511893  0.09853181  0.49274563  1
