# generated using pymatgen
data_HfZrTaTiMo
_symmetry_space_group_name_H-M   'P 1'
_cell_length_a   16.88680533
_cell_length_b   16.88554503
_cell_length_c   16.88382131
_cell_angle_alpha   90.00078991
_cell_angle_beta   89.98853632
_cell_angle_gamma   90.03312310
_symmetry_Int_Tables_number   1
_chemical_formula_structural   HfZrTaTiMo
_chemical_formula_sum   'Hf50 Zr50 Ta50 Ti50 Mo50'
_cell_volume   4814.30106921
_cell_formula_units_Z   50
loop_
 _symmetry_equiv_pos_site_id
 _symmetry_equiv_pos_as_xyz
  1  'x, y, z'
loop_
 _atom_site_type_symbol
 _atom_site_label
 _atom_site_symmetry_multiplicity
 _atom_site_fract_x
 _atom_site_fract_y
 _atom_site_fract_z
 _atom_site_occupancy
  Hf  Hf0  1  0.80346007  0.19054287  0.40663559  1
  Hf  Hf1  1  0.40576769  0.80614319  -0.00192880  1
  Hf  Hf2  1  0.50189912  0.69393490  0.29799032  1
  Hf  Hf3  1  0.90600327  0.10437066  0.10675830  1
  Hf  Hf4  1  0.90430356  0.69392031  0.50111545  1
  Hf  Hf5  1  0.10327589  0.30883747  0.29871139  1
  Hf  Hf6  1  0.50754911  0.91563728  0.09540691  1
  Hf  Hf7  1  0.70626180  0.29296913  0.70637481  1
  Hf  Hf8  1  0.70246776  0.89779987  0.50702282  1
  Hf  Hf9  1  0.70286676  0.69964927  0.49784951  1
  Hf  Hf10  1  0.49604959  0.70163133  0.70154026  1
  Hf  Hf11  1  0.80197518  0.39613543  0.00164060  1
  Hf  Hf12  1  0.49141728  0.30342954  0.51405869  1
  Hf  Hf13  1  0.19025248  -0.00286041  -0.00126366  1
  Hf  Hf14  1  0.70438253  0.90946334  0.29186254  1
  Hf  Hf15  1  0.60096270  0.59101685  0.60182862  1
  Hf  Hf16  1  0.80433410  0.40088655  0.60707059  1
  Hf  Hf17  1  0.89838500  0.69456115  0.10263422  1
  Hf  Hf18  1  0.19511445  0.00532912  0.60532497  1
  Hf  Hf19  1  0.28488774  0.49683592  0.30685504  1
  Hf  Hf20  1  0.49889083  0.30100372  0.29598474  1
  Hf  Hf21  1  0.80467703  0.80750496  0.00051281  1
  Hf  Hf22  1  0.80191061  0.59871918  0.61065065  1
  Hf  Hf23  1  0.61243513  0.79489149  -0.00331622  1
  Hf  Hf24  1  0.80407070  0.39555792  0.80706106  1
  Hf  Hf25  1  0.79907966  0.40547686  0.19647082  1
  Hf  Hf26  1  0.50075489  0.90813430  0.28879749  1
  Hf  Hf27  1  0.09221410  0.69386822  0.69454750  1
  Hf  Hf28  1  0.09861187  0.49490555  0.70332371  1
  Hf  Hf29  1  0.19755069  0.79627316  0.59802308  1
  Hf  Hf30  1  0.19329899  0.78942633  0.80487633  1
  Hf  Hf31  1  0.39766597  0.20398895  0.80989321  1
  Hf  Hf32  1  0.70878484  0.68941909  0.29071784  1
  Hf  Hf33  1  0.30109813  0.89708093  0.70354265  1
  Hf  Hf34  1  0.19145987  0.79423485  -0.00142896  1
  Hf  Hf35  1  0.39739465  0.58643410  0.59670001  1
  Hf  Hf36  1  0.29349389  0.30648575  0.29786708  1
  Hf  Hf37  1  0.40220764  0.79392875  0.19712597  1
  Hf  Hf38  1  0.60549136  0.00776636  0.40094006  1
  Hf  Hf39  1  0.90368516  0.09831551  0.29652513  1
  Hf  Hf40  1  -0.01289692  0.80664991  0.20889360  1
  Hf  Hf41  1  0.19159150  0.80003161  0.20304491  1
  Hf  Hf42  1  0.90417037  0.71211269  0.89406212  1
  Hf  Hf43  1  0.50867263  0.70452332  0.50688039  1
  Hf  Hf44  1  0.49985888  0.68729457  0.09181742  1
  Hf  Hf45  1  0.29958664  0.90029657  0.49992871  1
  Hf  Hf46  1  0.49882472  0.69164341  0.89718431  1
  Hf  Hf47  1  0.20051501  0.59034181  0.80448035  1
  Hf  Hf48  1  0.50177815  0.30374471  0.09100486  1
  Hf  Hf49  1  0.19057657  0.59074621  -0.01020420  1
  Zr  Zr50  1  0.59746354  0.19803531  0.80807403  1
  Zr  Zr51  1  0.19399306  0.59305720  0.19543529  1
  Zr  Zr52  1  0.89904481  0.50379865  0.90072713  1
  Zr  Zr53  1  0.30071710  0.90356960  0.90003262  1
  Zr  Zr54  1  0.40571737  0.00055434  0.80423071  1
  Zr  Zr55  1  0.39728789  0.79975677  0.40028573  1
  Zr  Zr56  1  0.09421855  0.09605401  0.89515498  1
  Zr  Zr57  1  0.20426335  0.20999333  0.00612822  1
  Zr  Zr58  1  -0.01405076  -0.00621495  -0.00092893  1
  Zr  Zr59  1  0.29504970  0.30314734  0.51048602  1
  Zr  Zr60  1  0.30264964  0.68930136  0.09587165  1
  Zr  Zr61  1  0.90401193  0.50311085  0.50524985  1
  Zr  Zr62  1  0.19937267  0.20548193  0.80820058  1
  Zr  Zr63  1  0.60492484  0.80262981  0.39115844  1
  Zr  Zr64  1  0.19750306  0.19613368  0.39987120  1
  Zr  Zr65  1  0.49756684  0.09638138  0.70120243  1
  Zr  Zr66  1  0.40493244  0.59405539  0.40389881  1
  Zr  Zr67  1  0.09974846  0.29922740  0.70097862  1
  Zr  Zr68  1  0.49656211  0.31189560  0.90994228  1
  Zr  Zr69  1  -0.00047359  0.80690214  0.39338386  1
  Zr  Zr70  1  0.59854486  0.20026004  0.60942036  1
  Zr  Zr71  1  0.70368673  0.29888659  0.50590533  1
  Zr  Zr72  1  0.70357987  0.50746478  0.09622086  1
  Zr  Zr73  1  0.40568592  0.40967769  0.40571096  1
  Zr  Zr74  1  0.80364774  0.00310987  -0.00744944  1
  Zr  Zr75  1  0.59743189  0.40568377  0.19912630  1
  Zr  Zr76  1  0.49468149  0.09847176  0.51066960  1
  Zr  Zr77  1  0.59755676  0.59238223  0.19903445  1
  Zr  Zr78  1  0.70303375  0.71025256  0.70294872  1
  Zr  Zr79  1  0.30010899  0.90588895  0.29523384  1
  Zr  Zr80  1  0.79943963  0.20552725  -0.00450607  1
  Zr  Zr81  1  0.19509413  0.00279837  0.39680367  1
  Zr  Zr82  1  0.50018161  0.09893421  0.28154126  1
  Zr  Zr83  1  0.81736900  -0.00056533  0.59995521  1
  Zr  Zr84  1  0.30065726  0.90988974  0.10355650  1
  Zr  Zr85  1  0.90315083  0.29377545  0.50530086  1
  Zr  Zr86  1  0.08932666  0.90856057  0.49996577  1
  Zr  Zr87  1  0.69897665  0.29512493  0.29696090  1
  Zr  Zr88  1  0.09040304  0.90262098  0.70658239  1
  Zr  Zr89  1  0.90177183  0.29793819  0.29511192  1
  Zr  Zr90  1  0.00219490  0.59630461  0.38686218  1
  Zr  Zr91  1  0.60156553  0.19693582  0.40129479  1
  Zr  Zr92  1  0.50312955  0.90060604  0.51256631  1
  Zr  Zr93  1  0.38984838  0.20143909  0.18356397  1
  Zr  Zr94  1  0.00068436  0.40634710  0.39475622  1
  Zr  Zr95  1  0.39395967  0.19573095  0.39711145  1
  Zr  Zr96  1  0.31367818  0.68715464  0.89621941  1
  Zr  Zr97  1  0.81480447  0.80434949  0.38930904  1
  Zr  Zr98  1  0.00134058  0.20920373  -0.00802602  1
  Zr  Zr99  1  0.60379851  0.59632498  0.80436407  1
  Ta  Ta100  1  0.10285708  0.50231793  0.50789220  1
  Ta  Ta101  1  0.29629067  0.10577225  0.70272792  1
  Ta  Ta102  1  0.80077444  0.80125224  0.19593200  1
  Ta  Ta103  1  0.00666928  0.60059275  0.80816878  1
  Ta  Ta104  1  0.90075145  0.89684716  0.70760696  1
  Ta  Ta105  1  0.71003760  0.09872372  0.51275071  1
  Ta  Ta106  1  0.30617020  0.69335801  0.70104004  1
  Ta  Ta107  1  0.28928236  0.69230394  0.49795199  1
  Ta  Ta108  1  0.60851398  0.79774875  0.18860522  1
  Ta  Ta109  1  0.19939722  0.40000861  0.18597570  1
  Ta  Ta110  1  0.09672475  0.09715255  0.10682751  1
  Ta  Ta111  1  0.60355547  0.80567906  0.80396950  1
  Ta  Ta112  1  0.19181328  0.79441361  0.39615043  1
  Ta  Ta113  1  0.70126099  0.90575222  0.09723291  1
  Ta  Ta114  1  0.09893320  0.68938555  0.50079919  1
  Ta  Ta115  1  0.00065387  0.59921744  -0.00275235  1
  Ta  Ta116  1  0.80893121  0.80319162  0.60164251  1
  Ta  Ta117  1  0.08920646  0.10148342  0.70150118  1
  Ta  Ta118  1  0.08578646  0.89802030  0.10096521  1
  Ta  Ta119  1  0.79563001  0.40850715  0.39492879  1
  Ta  Ta120  1  0.09277157  0.49361616  0.09422668  1
  Ta  Ta121  1  0.07996232  0.88663814  0.89912820  1
  Ta  Ta122  1  0.71054734  0.09719965  0.28904371  1
  Ta  Ta123  1  0.70565374  0.90420078  0.89090784  1
  Ta  Ta124  1  0.49226327  0.49257707  0.70798678  1
  Ta  Ta125  1  0.30363538  0.30805676  0.70442284  1
  Ta  Ta126  1  0.51319666  0.90903037  0.90300009  1
  Ta  Ta127  1  0.09901975  0.69372541  0.29692314  1
  Ta  Ta128  1  0.09957739  0.30402655  0.50553685  1
  Ta  Ta129  1  -0.00805150  0.80220728  0.59746690  1
  Ta  Ta130  1  0.09179770  0.09749154  0.29588525  1
  Ta  Ta131  1  0.59626159  0.40149384  0.80250383  1
  Ta  Ta132  1  0.00852393  0.20648313  0.19725711  1
  Ta  Ta133  1  0.39676087  0.40702555  0.19257943  1
  Ta  Ta134  1  0.79459593  0.60980269  -0.00348695  1
  Ta  Ta135  1  0.59734729  0.40454428  0.60644898  1
  Ta  Ta136  1  0.08908355  0.10384414  0.50469390  1
  Ta  Ta137  1  0.39658941  0.00704230  0.39827913  1
  Ta  Ta138  1  0.71570299  0.09896905  0.70767904  1
  Ta  Ta139  1  0.08771756  0.70031679  0.09823246  1
  Ta  Ta140  1  0.60098883  0.40989850  0.40406114  1
  Ta  Ta141  1  0.90273926  0.28742777  0.70983621  1
  Ta  Ta142  1  0.30019340  0.49314505  0.08498553  1
  Ta  Ta143  1  0.90951915  0.30837883  0.10262194  1
  Ta  Ta144  1  0.70088424  0.49418403  0.70834441  1
  Ta  Ta145  1  0.29320518  0.69065289  0.30461654  1
  Ta  Ta146  1  0.30108303  0.10251573  0.51326941  1
  Ta  Ta147  1  0.40121387  0.58267875  0.19906424  1
  Ta  Ta148  1  -0.00174451  0.39990518  0.60653129  1
  Ta  Ta149  1  0.29998703  0.09906364  0.90429379  1
  Ti  Ti150  1  0.69626822  0.49610451  0.90153195  1
  Ti  Ti151  1  0.30634680  0.49134473  0.71075183  1
  Ti  Ti152  1  -0.00163293  0.59067559  0.19534070  1
  Ti  Ti153  1  0.60508189  -0.00140783  0.79863935  1
  Ti  Ti154  1  0.40668418  0.80471769  0.80188256  1
  Ti  Ti155  1  0.89884220  0.50169838  0.28438946  1
  Ti  Ti156  1  0.19594870  0.20258253  0.19354076  1
  Ti  Ti157  1  0.70327525  0.09697859  0.09774330  1
  Ti  Ti158  1  0.60603676  0.01052073  0.18747333  1
  Ti  Ti159  1  -0.00103000  0.40471312  -0.00348071  1
  Ti  Ti160  1  0.90621780  0.50506886  0.70712094  1
  Ti  Ti161  1  0.80206887  0.58976837  0.38951359  1
  Ti  Ti162  1  0.70882703  0.90155497  0.70581319  1
  Ti  Ti163  1  0.50740718  0.09573712  0.91429552  1
  Ti  Ti164  1  0.20430728  0.59630806  0.60453180  1
  Ti  Ti165  1  0.09741285  0.30825319  0.09797019  1
  Ti  Ti166  1  -0.00229405  0.39759433  0.80498290  1
  Ti  Ti167  1  0.81102990  -0.00006380  0.40561743  1
  Ti  Ti168  1  0.29631051  0.09505549  0.28670764  1
  Ti  Ti169  1  0.60906397  -0.00109665  0.61033514  1
  Ti  Ti170  1  0.00291608  0.19774604  0.40056305  1
  Ti  Ti171  1  0.70294477  0.49900406  0.50100350  1
  Ti  Ti172  1  0.70346503  0.09680122  0.89153988  1
  Ti  Ti173  1  0.81066417  -0.00824180  0.19229012  1
  Ti  Ti174  1  0.39160898  0.20023439  0.00066698  1
  Ti  Ti175  1  0.48671695  0.30944584  0.70223052  1
  Ti  Ti176  1  0.10414684  0.31642952  0.89788679  1
  Ti  Ti177  1  0.29259316  0.09387581  0.10251765  1
  Ti  Ti178  1  0.40369652  0.01357270  0.00522207  1
  Ti  Ti179  1  0.60813181  0.19610995  0.00555982  1
  Ti  Ti180  1  0.49642468  0.49339404  0.07503429  1
  Ti  Ti181  1  0.90092676  0.10579830  0.70440812  1
  Ti  Ti182  1  0.69441363  0.30099569  0.90301863  1
  Ti  Ti183  1  0.79691240  0.60417706  0.80522376  1
  Ti  Ti184  1  -0.00434995  0.19541717  0.60127310  1
  Ti  Ti185  1  0.20078887  0.40370888  0.60548823  1
  Ti  Ti186  1  0.19708868  0.00028137  0.80225373  1
  Ti  Ti187  1  0.50838674  0.89312563  0.69771023  1
  Ti  Ti188  1  0.90368899  0.70280756  0.70605406  1
  Ti  Ti189  1  0.39476840  0.79548615  0.60087160  1
  Ti  Ti190  1  0.19756551  0.19825170  0.60440910  1
  Ti  Ti191  1  0.60768932  0.59984231  -0.00747873  1
  Ti  Ti192  1  0.28425435  0.49732234  0.49800892  1
  Ti  Ti193  1  0.39524365  -0.00061976  0.60518496  1
  Ti  Ti194  1  -0.01168300  -0.00065120  0.80150313  1
  Ti  Ti195  1  0.59940364  0.58430575  0.39837792  1
  Ti  Ti196  1  0.79539468  0.20731175  0.18799906  1
  Ti  Ti197  1  0.18515522  -0.00321961  0.20113411  1
  Ti  Ti198  1  0.89576342  0.11211916  0.88192291  1
  Ti  Ti199  1  0.60758336  0.19849136  0.18627543  1
  Mo  Mo200  1  0.19430678  0.40012545  -0.00385526  1
  Mo  Mo201  1  0.10040502  0.49767116  0.28737761  1
  Mo  Mo202  1  0.09082064  0.69760087  0.90230377  1
  Mo  Mo203  1  -0.00068492  0.59787119  0.60901943  1
  Mo  Mo204  1  0.49733425  0.49702732  0.30397001  1
  Mo  Mo205  1  0.89925789  0.68259533  0.29163637  1
  Mo  Mo206  1  0.38961835  0.20311027  0.61372392  1
  Mo  Mo207  1  0.40191623  0.58387209  -0.00560314  1
  Mo  Mo208  1  0.00289159  0.40351855  0.19261122  1
  Mo  Mo209  1  0.39932905  0.58998137  0.79731274  1
  Mo  Mo210  1  0.49694031  0.49958015  0.90222599  1
  Mo  Mo211  1  0.40037804  0.01007271  0.19352474  1
  Mo  Mo212  1  0.70269937  0.70285539  0.09795325  1
  Mo  Mo213  1  0.60708076  0.80633103  0.61242542  1
  Mo  Mo214  1  0.19094310  0.40543492  0.41090293  1
  Mo  Mo215  1  0.80832092  0.19355879  0.60633784  1
  Mo  Mo216  1  0.80003408  0.80730426  0.79766474  1
  Mo  Mo217  1  0.91030399  0.09751339  0.49874125  1
  Mo  Mo218  1  -0.00119597  0.20144413  0.79896467  1
  Mo  Mo219  1  -0.00261230  0.79909046  0.00493648  1
  Mo  Mo220  1  0.89602699  0.89893971  0.10617215  1
  Mo  Mo221  1  0.90511567  0.50222710  0.09562907  1
  Mo  Mo222  1  0.00166581  -0.00116997  0.20244931  1
  Mo  Mo223  1  0.19315115  0.60035595  0.40329557  1
  Mo  Mo224  1  0.80121067  0.20023850  0.80430698  1
  Mo  Mo225  1  0.38759719  0.39629582  -0.00209504  1
  Mo  Mo226  1  0.90225354  0.90138667  0.50317289  1
  Mo  Mo227  1  0.20620142  0.40065352  0.80636224  1
  Mo  Mo228  1  0.29962100  0.30444200  0.90355791  1
  Mo  Mo229  1  0.51201042  0.49802308  0.50865238  1
  Mo  Mo230  1  0.70539012  0.70314217  0.89818252  1
  Mo  Mo231  1  0.80440227  0.00257570  0.79789919  1
  Mo  Mo232  1  0.69821205  0.29608069  0.09527307  1
  Mo  Mo233  1  0.09554958  0.90542271  0.29642648  1
  Mo  Mo234  1  0.89845646  0.89769469  0.88627164  1
  Mo  Mo235  1  0.89761975  0.91902344  0.30042161  1
  Mo  Mo236  1  0.29786745  0.30686553  0.09800422  1
  Mo  Mo237  1  0.50768888  0.10715223  0.08701625  1
  Mo  Mo238  1  -0.00279076  0.00640072  0.60575063  1
  Mo  Mo239  1  -0.00396839  0.79568248  0.79355483  1
  Mo  Mo240  1  -0.00546431  0.00641323  0.40103014  1
  Mo  Mo241  1  0.09628777  0.49200961  0.90039845  1
  Mo  Mo242  1  0.90949248  0.30317863  0.89908202  1
  Mo  Mo243  1  0.80685178  0.59927907  0.19659001  1
  Mo  Mo244  1  0.30352728  0.48706439  0.89700691  1
  Mo  Mo245  1  0.39664084  0.40435579  0.60734006  1
  Mo  Mo246  1  0.61112284  0.00708757  -0.00699874  1
  Mo  Mo247  1  0.70276639  0.50073213  0.30677230  1
  Mo  Mo248  1  0.39763569  0.40104838  0.80450518  1
  Mo  Mo249  1  0.60812319  0.40455337  -0.00620808  1
