# generated using pymatgen
data_HfZrTaTiMo
_symmetry_space_group_name_H-M   'P 1'
_cell_length_a   16.88029215
_cell_length_b   16.87886598
_cell_length_c   16.88964745
_cell_angle_alpha   89.98598773
_cell_angle_beta   89.97916383
_cell_angle_gamma   89.97093614
_symmetry_Int_Tables_number   1
_chemical_formula_structural   HfZrTaTiMo
_chemical_formula_sum   'Hf50 Zr50 Ta50 Ti50 Mo50'
_cell_volume   4812.20045916
_cell_formula_units_Z   50
loop_
 _symmetry_equiv_pos_site_id
 _symmetry_equiv_pos_as_xyz
  1  'x, y, z'
loop_
 _atom_site_type_symbol
 _atom_site_label
 _atom_site_symmetry_multiplicity
 _atom_site_fract_x
 _atom_site_fract_y
 _atom_site_fract_z
 _atom_site_occupancy
  Hf  Hf0  1  0.79667823  0.40374075  0.59596059  1
  Hf  Hf1  1  0.20200741  0.79107044  0.80609589  1
  Hf  Hf2  1  0.79255609  -0.00080735  0.40433800  1
  Hf  Hf3  1  0.39494488  0.19657355  0.20519376  1
  Hf  Hf4  1  0.79832082  0.19783952  0.40694636  1
  Hf  Hf5  1  0.79977260  0.60780277  0.59189146  1
  Hf  Hf6  1  0.60016362  0.59438243  0.00075106  1
  Hf  Hf7  1  0.09639732  0.29763172  0.70325406  1
  Hf  Hf8  1  0.50623307  0.09927851  0.91455390  1
  Hf  Hf9  1  0.30521742  0.10708350  0.68984933  1
  Hf  Hf10  1  0.31019322  0.29781533  0.50356670  1
  Hf  Hf11  1  0.69809407  0.91266256  0.89835450  1
  Hf  Hf12  1  0.60353463  0.80046943  0.01005231  1
  Hf  Hf13  1  0.09715762  0.29769298  0.90049052  1
  Hf  Hf14  1  -0.00251117  0.19969305  0.19043593  1
  Hf  Hf15  1  0.39103229  0.19079788  0.39850119  1
  Hf  Hf16  1  0.40412977  -0.00076418  0.79213223  1
  Hf  Hf17  1  0.90270346  0.29884259  0.70314727  1
  Hf  Hf18  1  0.10826306  0.50091871  0.09300705  1
  Hf  Hf19  1  0.90177251  0.69731296  0.69954451  1
  Hf  Hf20  1  0.20540515  0.60336251  0.60038776  1
  Hf  Hf21  1  0.10367760  0.30074502  0.29623802  1
  Hf  Hf22  1  0.49925760  0.29818736  0.50071445  1
  Hf  Hf23  1  0.80153530  0.79901447  0.79816699  1
  Hf  Hf24  1  0.69459719  0.09817863  0.91019983  1
  Hf  Hf25  1  0.59935054  0.80038218  0.59351520  1
  Hf  Hf26  1  0.10059584  0.49801465  0.70631496  1
  Hf  Hf27  1  0.40522637  0.00453530  0.59023048  1
  Hf  Hf28  1  0.39014776  0.19979791  0.00767420  1
  Hf  Hf29  1  0.00646909  0.60205884  0.81543979  1
  Hf  Hf30  1  0.59982501  0.59869278  0.19714002  1
  Hf  Hf31  1  0.90023630  0.50446290  0.70550300  1
  Hf  Hf32  1  0.49061466  0.50190680  0.88383833  1
  Hf  Hf33  1  0.49810744  0.70087008  0.90152120  1
  Hf  Hf34  1  0.50232462  0.29513815  0.09821146  1
  Hf  Hf35  1  0.20402249  0.60436646  0.40132291  1
  Hf  Hf36  1  0.60192265  -0.00815662  0.20628942  1
  Hf  Hf37  1  0.09750133  0.50085074  0.29852345  1
  Hf  Hf38  1  0.00117330  0.39385111  0.18542547  1
  Hf  Hf39  1  0.69989962  0.50842525  0.71310183  1
  Hf  Hf40  1  0.79970819  0.00167590  0.59863721  1
  Hf  Hf41  1  0.19670756  0.79524992  0.40032106  1
  Hf  Hf42  1  0.09855106  0.90041740  0.89953023  1
  Hf  Hf43  1  0.79881631  0.60407932  0.39724030  1
  Hf  Hf44  1  0.59594154  0.40863747  0.00166065  1
  Hf  Hf45  1  0.31526742  0.49741502  0.70495628  1
  Hf  Hf46  1  0.00196957  0.19458418  0.40156950  1
  Hf  Hf47  1  0.89943271  0.69699744  0.29466388  1
  Hf  Hf48  1  0.59963539  0.80281849  0.20458244  1
  Hf  Hf49  1  -0.00213402  0.00254295  0.40080167  1
  Zr  Zr50  1  0.91418098  0.50897108  0.48997974  1
  Zr  Zr51  1  0.70677936  0.30111512  0.30030805  1
  Zr  Zr52  1  -0.00691848  0.80059058  0.39423299  1
  Zr  Zr53  1  -0.00288799  0.80823413  0.18898847  1
  Zr  Zr54  1  0.00473867  0.79406194  0.00399078  1
  Zr  Zr55  1  0.80483331  0.00491671  0.01387067  1
  Zr  Zr56  1  0.29878101  0.49666732  0.90063921  1
  Zr  Zr57  1  0.49861868  0.49823413  0.50042021  1
  Zr  Zr58  1  0.09586264  0.49541114  0.49252846  1
  Zr  Zr59  1  0.19773495  0.00057219  0.79456014  1
  Zr  Zr60  1  0.78977873  0.80634415  0.19814267  1
  Zr  Zr61  1  0.89765843  0.90148472  0.89690721  1
  Zr  Zr62  1  -0.00363392  0.19351842  0.00441053  1
  Zr  Zr63  1  0.39674577  0.59417308  0.01239457  1
  Zr  Zr64  1  0.09435895  0.10379366  0.69546810  1
  Zr  Zr65  1  0.29057792  0.71199659  0.09795241  1
  Zr  Zr66  1  0.30220408  0.89278994  0.90944879  1
  Zr  Zr67  1  0.29734740  0.50407470  0.29143125  1
  Zr  Zr68  1  0.09548171  0.70267749  0.69597450  1
  Zr  Zr69  1  0.18826962  0.19419992  0.00906980  1
  Zr  Zr70  1  0.69797669  0.29230544  0.91004421  1
  Zr  Zr71  1  0.31202330  0.49494790  0.50008739  1
  Zr  Zr72  1  0.19693410  0.00259473  0.00645521  1
  Zr  Zr73  1  0.19898049  0.18969620  0.58081348  1
  Zr  Zr74  1  0.71682564  0.49951991  0.10049860  1
  Zr  Zr75  1  0.80765118  0.19788837  0.80502546  1
  Zr  Zr76  1  0.20362323  0.39736030  0.60433172  1
  Zr  Zr77  1  0.40000676  0.20304939  0.79946391  1
  Zr  Zr78  1  -0.00239039  0.00073351  0.01638457  1
  Zr  Zr79  1  0.09537313  0.30373814  0.49240583  1
  Zr  Zr80  1  0.59812049  0.60269577  0.59662529  1
  Zr  Zr81  1  0.69546105  0.09942740  0.30555111  1
  Zr  Zr82  1  0.70470442  0.29101199  0.09871059  1
  Zr  Zr83  1  0.60059526  0.79869227  0.79859881  1
  Zr  Zr84  1  0.30476808  0.89404595  0.49443986  1
  Zr  Zr85  1  0.59331070  0.19999070  0.79335289  1
  Zr  Zr86  1  0.89689914  0.49550788  0.29402865  1
  Zr  Zr87  1  0.50017209  0.50682347  0.30283110  1
  Zr  Zr88  1  0.09625050  0.90040541  0.50526463  1
  Zr  Zr89  1  0.30405276  0.70785985  0.29272175  1
  Zr  Zr90  1  0.40018717  0.40435413  0.19345141  1
  Zr  Zr91  1  0.60462132  0.40110846  0.39535036  1
  Zr  Zr92  1  0.70133969  0.90593069  0.70177819  1
  Zr  Zr93  1  0.59979015  0.39857434  0.80010572  1
  Zr  Zr94  1  0.06971473  0.68317018  0.49995513  1
  Zr  Zr95  1  0.11030378  0.91270311  0.29151451  1
  Zr  Zr96  1  0.49607368  0.69414487  0.70460348  1
  Zr  Zr97  1  0.50379021  0.90540723  0.90558800  1
  Zr  Zr98  1  0.80050249  0.19850133  0.59676512  1
  Zr  Zr99  1  0.30264825  0.09497375  0.90425233  1
  Ta  Ta100  1  0.21132060  0.39062663  0.38980937  1
  Ta  Ta101  1  0.50466502  0.29114933  0.30047830  1
  Ta  Ta102  1  0.89961073  0.50555345  0.09401327  1
  Ta  Ta103  1  0.89473651  0.69660150  0.90517768  1
  Ta  Ta104  1  0.59921701  0.40117917  0.19737443  1
  Ta  Ta105  1  0.20338898  0.60622039  0.80655590  1
  Ta  Ta106  1  -0.00444719  0.00414101  0.79328509  1
  Ta  Ta107  1  -0.00412141  0.40010739  0.60383188  1
  Ta  Ta108  1  0.20103567  0.20059466  0.20132871  1
  Ta  Ta109  1  0.70207364  0.30099788  0.69926778  1
  Ta  Ta110  1  0.00244932  0.60343582  0.18686284  1
  Ta  Ta111  1  0.89834853  0.30050168  0.30212502  1
  Ta  Ta112  1  0.89755568  0.10009254  0.29338696  1
  Ta  Ta113  1  0.40440223  -0.00680383  0.02096350  1
  Ta  Ta114  1  0.60351429  0.39872152  0.60386638  1
  Ta  Ta115  1  0.40366593  0.00021769  0.39983572  1
  Ta  Ta116  1  0.89175769  0.69178304  0.09586926  1
  Ta  Ta117  1  0.49618345  0.90004285  0.69113295  1
  Ta  Ta118  1  0.29085245  0.30578166  0.10568569  1
  Ta  Ta119  1  0.60279321  0.19747503  0.59945452  1
  Ta  Ta120  1  0.70517701  0.68710768  0.89861467  1
  Ta  Ta121  1  0.50807934  0.10320263  0.49217584  1
  Ta  Ta122  1  0.49061838  0.30334481  0.90575218  1
  Ta  Ta123  1  0.50414123  0.09840005  0.30398184  1
  Ta  Ta124  1  0.30039145  0.89128145  0.68875093  1
  Ta  Ta125  1  0.79642705  0.79767765  0.59113746  1
  Ta  Ta126  1  0.20083548  -0.00135661  0.59617486  1
  Ta  Ta127  1  0.89204215  0.90851527  0.29687975  1
  Ta  Ta128  1  -0.00740469  0.39994689  0.81345708  1
  Ta  Ta129  1  -0.00438243  0.39715982  -0.00217106  1
  Ta  Ta130  1  0.70154124  0.09950329  0.70148577  1
  Ta  Ta131  1  0.60270844  0.19569741  0.20049426  1
  Ta  Ta132  1  0.20041544  0.39500966  0.00041307  1
  Ta  Ta133  1  0.50685765  0.09567084  0.10498688  1
  Ta  Ta134  1  0.59953415  0.00390022  0.59339852  1
  Ta  Ta135  1  0.40833801  0.81089877  0.20026946  1
  Ta  Ta136  1  0.89546520  0.89839661  0.50026834  1
  Ta  Ta137  1  0.40699481  0.61410609  0.40380417  1
  Ta  Ta138  1  0.10588634  0.10017485  0.30137092  1
  Ta  Ta139  1  0.09642457  0.89695893  0.69532644  1
  Ta  Ta140  1  0.69266628  0.70220200  0.48758108  1
  Ta  Ta141  1  0.20339520  0.20282769  0.80719819  1
  Ta  Ta142  1  0.30260904  0.90298505  0.30030563  1
  Ta  Ta143  1  0.20755649  0.39011299  0.80621840  1
  Ta  Ta144  1  0.30359659  0.70750156  0.69304123  1
  Ta  Ta145  1  0.90146369  0.31253367  0.49032842  1
  Ta  Ta146  1  0.79756122  0.79982339  0.00292222  1
  Ta  Ta147  1  0.80262123  0.40040636  0.81236893  1
  Ta  Ta148  1  0.10251185  0.69926173  0.28514761  1
  Ta  Ta149  1  0.69824443  0.50107459  0.48989045  1
  Ti  Ti150  1  0.10135730  0.07959254  0.12887744  1
  Ti  Ti151  1  0.00016060  0.80000334  0.80253116  1
  Ti  Ti152  1  0.31154499  0.70694776  0.49962195  1
  Ti  Ti153  1  0.80805118  0.39042751  0.19287778  1
  Ti  Ti154  1  0.90199460  0.90302020  0.69779915  1
  Ti  Ti155  1  0.40352907  0.60704354  0.59486830  1
  Ti  Ti156  1  0.49816982  0.90183523  0.31176698  1
  Ti  Ti157  1  -0.00315490  0.19372291  0.80719961  1
  Ti  Ti158  1  0.79575486  0.80320034  0.39970766  1
  Ti  Ti159  1  0.49432108  0.49801766  0.70209984  1
  Ti  Ti160  1  -0.01337723  0.80103517  0.59612213  1
  Ti  Ti161  1  0.70725330  0.49984202  0.29694533  1
  Ti  Ti162  1  0.69744372  0.90923925  0.09687749  1
  Ti  Ti163  1  0.39727248  0.39341825  0.38622728  1
  Ti  Ti164  1  0.11615732  0.89556056  0.10776223  1
  Ti  Ti165  1  0.29853275  0.09272790  0.11102797  1
  Ti  Ti166  1  0.19828711  0.79712936  0.59578294  1
  Ti  Ti167  1  -0.00210267  0.00364819  0.60060806  1
  Ti  Ti168  1  0.90239141  0.09761995  0.50260242  1
  Ti  Ti169  1  0.59077755  0.00831507  0.78503393  1
  Ti  Ti170  1  0.00525593  0.60212241  -0.00041747  1
  Ti  Ti171  1  0.81188045  0.39353843  -0.00522658  1
  Ti  Ti172  1  0.40220155  0.80350474  0.00867557  1
  Ti  Ti173  1  0.10560009  0.49594620  0.90178591  1
  Ti  Ti174  1  0.50022405  0.70300716  0.30458263  1
  Ti  Ti175  1  0.40166965  0.60065954  0.19422853  1
  Ti  Ti176  1  0.20421771  0.01608502  0.41344946  1
  Ti  Ti177  1  0.70882312  0.69113287  0.09808912  1
  Ti  Ti178  1  0.70098603  0.69387332  0.70675171  1
  Ti  Ti179  1  0.69239108  0.89969613  0.49201792  1
  Ti  Ti180  1  0.79661686  0.00232774  0.19918431  1
  Ti  Ti181  1  0.19549396  0.61455751  -0.01078087  1
  Ti  Ti182  1  0.49429494  0.30253596  0.69324920  1
  Ti  Ti183  1  0.19934779  0.60237017  0.18872304  1
  Ti  Ti184  1  0.29572526  0.89822186  0.11069833  1
  Ti  Ti185  1  -0.00522237  0.19836638  0.59291837  1
  Ti  Ti186  1  0.89935551  0.09286284  0.89566830  1
  Ti  Ti187  1  0.89025561  0.50857187  0.90737602  1
  Ti  Ti188  1  0.69500815  0.69813527  0.30358260  1
  Ti  Ti189  1  0.40360811  -0.00305430  0.20529550  1
  Ti  Ti190  1  0.81456741  0.19363987  0.01362253  1
  Ti  Ti191  1  0.38325182  0.61778536  0.80601366  1
  Ti  Ti192  1  0.39595928  0.80193361  0.79871352  1
  Ti  Ti193  1  0.59316400  0.80270230  0.40030289  1
  Ti  Ti194  1  0.41257398  0.79897371  0.58793488  1
  Ti  Ti195  1  0.30912946  0.29955814  0.69619790  1
  Ti  Ti196  1  0.69685827  0.30182262  0.49820968  1
  Ti  Ti197  1  0.29227923  0.09288718  0.30058943  1
  Ti  Ti198  1  0.39326090  0.40174018  0.00500152  1
  Ti  Ti199  1  0.49721329  0.70278019  0.10463411  1
  Mo  Mo200  1  0.20011971  0.39820557  0.19356208  1
  Mo  Mo201  1  0.50551867  0.09878229  0.68802804  1
  Mo  Mo202  1  0.49812177  0.49776060  0.10350702  1
  Mo  Mo203  1  0.69936022  0.89613461  0.31012250  1
  Mo  Mo204  1  0.29383706  0.50157144  0.09679923  1
  Mo  Mo205  1  0.69248240  0.10072691  0.50425773  1
  Mo  Mo206  1  0.29847649  0.29695608  0.29731202  1
  Mo  Mo207  1  0.49986040  0.70483132  0.49112440  1
  Mo  Mo208  1  -0.00399135  0.59518039  0.61443418  1
  Mo  Mo209  1  0.29787325  0.30097844  0.90831434  1
  Mo  Mo210  1  0.41064697  0.19840881  0.59819262  1
  Mo  Mo211  1  0.20252711  0.19468498  0.39066150  1
  Mo  Mo212  1  0.79955388  0.40015388  0.40123041  1
  Mo  Mo213  1  -0.01018845  0.00075059  0.20398580  1
  Mo  Mo214  1  0.80239844  0.60066510  0.80807023  1
  Mo  Mo215  1  0.19750166  0.80181454  0.00396543  1
  Mo  Mo216  1  0.80352279  0.19761729  0.20132177  1
  Mo  Mo217  1  0.40964528  0.39734255  0.60950791  1
  Mo  Mo218  1  0.49802238  0.89989284  0.10713300  1
  Mo  Mo219  1  0.88832373  0.89815533  0.10648136  1
  Mo  Mo220  1  0.09144869  0.09990097  0.88663698  1
  Mo  Mo221  1  0.59847247  0.19969621  0.40118445  1
  Mo  Mo222  1  0.30022798  0.70496382  0.90196649  1
  Mo  Mo223  1  0.60416671  0.60679814  0.39288462  1
  Mo  Mo224  1  0.89674977  0.30285045  0.09725718  1
  Mo  Mo225  1  0.90204496  0.09824544  0.69811938  1
  Mo  Mo226  1  0.90136489  0.29954798  0.90392247  1
  Mo  Mo227  1  0.50423560  0.90193041  0.49485999  1
  Mo  Mo228  1  0.88945370  0.70800841  0.49767596  1
  Mo  Mo229  1  0.80834793  0.00659768  0.79238615  1
  Mo  Mo230  1  0.60147469  0.00123222  0.01633189  1
  Mo  Mo231  1  0.80276879  0.60098142  -0.00060712  1
  Mo  Mo232  1  0.30492075  0.09659560  0.49526911  1
  Mo  Mo233  1  0.39869644  0.38744195  0.79895019  1
  Mo  Mo234  1  0.00084639  0.60287993  0.37513137  1
  Mo  Mo235  1  0.69838837  0.10217075  0.10563593  1
  Mo  Mo236  1  0.71071703  0.49923579  0.90218514  1
  Mo  Mo237  1  0.89480089  0.10011940  0.11650548  1
  Mo  Mo238  1  0.40738042  0.80244889  0.39361939  1
  Mo  Mo239  1  0.60381568  0.59778839  0.80535345  1
  Mo  Mo240  1  0.59138035  0.19756201  0.00697540  1
  Mo  Mo241  1  -0.00027347  0.39520534  0.39098436  1
  Mo  Mo242  1  0.09715010  0.09573907  0.49824630  1
  Mo  Mo243  1  0.09793376  0.69956140  0.90371114  1
  Mo  Mo244  1  0.10355176  0.30520673  0.09803086  1
  Mo  Mo245  1  0.21411662  0.00266030  0.20332003  1
  Mo  Mo246  1  0.20313383  0.80620297  0.20117960  1
  Mo  Mo247  1  0.59536396  -0.00532900  0.40481050  1
  Mo  Mo248  1  0.79847522  0.60368728  0.19813542  1
  Mo  Mo249  1  0.10029028  0.69595127  0.09852977  1
