# generated using pymatgen
data_HfZrTaTiMo
_symmetry_space_group_name_H-M   'P 1'
_cell_length_a   16.89743110
_cell_length_b   16.89173029
_cell_length_c   16.89238465
_cell_angle_alpha   89.99229670
_cell_angle_beta   90.02453347
_cell_angle_gamma   89.94239202
_symmetry_Int_Tables_number   1
_chemical_formula_structural   HfZrTaTiMo
_chemical_formula_sum   'Hf50 Zr50 Ta50 Ti50 Mo50'
_cell_volume   4821.53719262
_cell_formula_units_Z   50
loop_
 _symmetry_equiv_pos_site_id
 _symmetry_equiv_pos_as_xyz
  1  'x, y, z'
loop_
 _atom_site_type_symbol
 _atom_site_label
 _atom_site_symmetry_multiplicity
 _atom_site_fract_x
 _atom_site_fract_y
 _atom_site_fract_z
 _atom_site_occupancy
  Hf  Hf0  1  0.89833297  0.50471260  0.89533096  1
  Hf  Hf1  1  0.29526751  0.90413438  0.90164592  1
  Hf  Hf2  1  0.10179566  0.29036585  0.08889163  1
  Hf  Hf3  1  0.32116204  0.09462461  0.26525285  1
  Hf  Hf4  1  0.39602396  0.60161387  0.80115376  1
  Hf  Hf5  1  0.50330923  0.70308621  0.90257218  1
  Hf  Hf6  1  0.90661869  0.29401299  0.30210729  1
  Hf  Hf7  1  0.71002913  0.10033303  0.09539656  1
  Hf  Hf8  1  0.20197818  0.39957615  0.19899086  1
  Hf  Hf9  1  0.50768769  0.10303613  0.51493830  1
  Hf  Hf10  1  0.70022449  0.70035908  0.69860042  1
  Hf  Hf11  1  0.60055697  0.59815343  0.80035318  1
  Hf  Hf12  1  0.60359763  0.00371881  -0.00462990  1
  Hf  Hf13  1  0.00034872  0.40265251  0.19908621  1
  Hf  Hf14  1  0.70635983  0.49570625  0.30109476  1
  Hf  Hf15  1  0.59641688  0.39386457  0.60192242  1
  Hf  Hf16  1  0.70221644  0.89792292  0.31196049  1
  Hf  Hf17  1  0.70439333  0.69368775  0.30397257  1
  Hf  Hf18  1  0.81176155  0.60536628  0.18638183  1
  Hf  Hf19  1  0.88908701  0.30071921  0.88612229  1
  Hf  Hf20  1  0.10017970  0.29071244  0.31049991  1
  Hf  Hf21  1  0.70507797  0.30138844  0.30279311  1
  Hf  Hf22  1  0.71956978  0.29893825  0.70726126  1
  Hf  Hf23  1  0.60661280  0.39998670  -0.00088831  1
  Hf  Hf24  1  0.50471314  0.10409303  0.30424205  1
  Hf  Hf25  1  0.20153432  0.59453300  -0.00901096  1
  Hf  Hf26  1  0.49961265  0.90819692  0.30324407  1
  Hf  Hf27  1  0.30248070  0.30012439  0.30280032  1
  Hf  Hf28  1  0.00097655  0.19803720  0.60051216  1
  Hf  Hf29  1  0.19805017  0.19616164  0.19424700  1
  Hf  Hf30  1  0.40142977  0.39794699  0.60061401  1
  Hf  Hf31  1  0.49605666  0.30521072  0.09731919  1
  Hf  Hf32  1  0.10494233  0.29894151  0.70096110  1
  Hf  Hf33  1  0.59234335  0.79092461  0.40526009  1
  Hf  Hf34  1  -0.00786687  0.59552461  0.59230250  1
  Hf  Hf35  1  0.90421312  0.69893804  0.70662430  1
  Hf  Hf36  1  0.10944734  0.29468773  0.89773615  1
  Hf  Hf37  1  0.29305426  0.50262771  0.48620738  1
  Hf  Hf38  1  0.09407163  0.50475510  0.70462637  1
  Hf  Hf39  1  0.19856250  0.40149382  0.59952367  1
  Hf  Hf40  1  0.49221796  0.30582822  0.89742671  1
  Hf  Hf41  1  -0.01022479  0.59906015  0.39836346  1
  Hf  Hf42  1  0.80424713  0.00194132  0.40107706  1
  Hf  Hf43  1  0.39926942  0.79807802  0.40865469  1
  Hf  Hf44  1  0.10499826  0.10126914  0.91221222  1
  Hf  Hf45  1  0.90586835  0.89319180  0.49371870  1
  Hf  Hf46  1  0.60710367  0.20690613  0.19821835  1
  Hf  Hf47  1  0.27506564  0.93219815  0.50804268  1
  Hf  Hf48  1  0.60108640  0.00629151  0.79546176  1
  Hf  Hf49  1  0.59551548  0.20253411  0.78825060  1
  Zr  Zr50  1  0.70243233  0.29102065  0.50843496  1
  Zr  Zr51  1  0.70162479  0.09900258  0.51310408  1
  Zr  Zr52  1  0.20245570  0.59327601  0.80312922  1
  Zr  Zr53  1  0.39426884  0.80071027  0.00175853  1
  Zr  Zr54  1  0.59598114  0.59983012  0.20435192  1
  Zr  Zr55  1  0.19985551  0.60855886  0.59360991  1
  Zr  Zr56  1  -0.00002628  -0.00561295  0.60208858  1
  Zr  Zr57  1  0.49626121  0.69643434  0.09983718  1
  Zr  Zr58  1  0.00321958  0.40203347  -0.00476608  1
  Zr  Zr59  1  0.88553109  0.08949630  0.70566123  1
  Zr  Zr60  1  0.10798536  0.28877072  0.49187098  1
  Zr  Zr61  1  0.00336412  0.00556858  0.39507026  1
  Zr  Zr62  1  0.80578479  0.79219639  0.00337715  1
  Zr  Zr63  1  0.40963595  0.40251853  0.40443463  1
  Zr  Zr64  1  0.09892303  0.69297271  0.29243514  1
  Zr  Zr65  1  0.60315373  0.40111366  0.80187620  1
  Zr  Zr66  1  0.69314854  0.71188733  0.89934344  1
  Zr  Zr67  1  0.40675663  0.00156655  -0.00295621  1
  Zr  Zr68  1  -0.01686835  0.60106123  0.01273067  1
  Zr  Zr69  1  0.70204837  0.89711205  0.09869642  1
  Zr  Zr70  1  0.59816838  0.79747806  0.59278740  1
  Zr  Zr71  1  0.19843654  0.80559621  0.40644341  1
  Zr  Zr72  1  0.80327026  0.79886274  0.59416160  1
  Zr  Zr73  1  0.29571749  0.29028642  0.50067446  1
  Zr  Zr74  1  0.08229265  0.69300293  0.89110436  1
  Zr  Zr75  1  0.60921120  0.00150835  0.20391687  1
  Zr  Zr76  1  0.08833850  0.89729872  0.29417160  1
  Zr  Zr77  1  0.29469906  0.90724543  0.29347408  1
  Zr  Zr78  1  0.29652254  0.69087905  0.10587657  1
  Zr  Zr79  1  0.11931046  0.08594353  0.50102221  1
  Zr  Zr80  1  0.09144110  0.70831834  0.49379882  1
  Zr  Zr81  1  0.30065303  0.10483214  0.90150456  1
  Zr  Zr82  1  -0.00761944  0.00208577  -0.00232460  1
  Zr  Zr83  1  0.48894510  0.10518206  0.10861476  1
  Zr  Zr84  1  0.80648771  0.40378964  0.41255077  1
  Zr  Zr85  1  0.38799871  0.01522480  0.40925168  1
  Zr  Zr86  1  0.29357989  0.69399446  0.29937244  1
  Zr  Zr87  1  0.39758052  0.80335798  0.58698190  1
  Zr  Zr88  1  0.19564734  0.00365334  0.80166192  1
  Zr  Zr89  1  0.49712429  0.49924644  0.70371687  1
  Zr  Zr90  1  0.51407923  0.89077069  0.89531107  1
  Zr  Zr91  1  0.29596210  0.91273557  0.10573474  1
  Zr  Zr92  1  0.90242132  0.90440517  0.10993456  1
  Zr  Zr93  1  0.30158150  0.91024933  0.69703415  1
  Zr  Zr94  1  0.70462272  0.49999887  0.09815778  1
  Zr  Zr95  1  0.19782658  0.79530328  0.80296795  1
  Zr  Zr96  1  -0.00535134  0.19600860  0.79877081  1
  Zr  Zr97  1  0.10818030  0.50743469  0.10526179  1
  Zr  Zr98  1  0.59160567  0.59367184  0.40933099  1
  Zr  Zr99  1  0.29993498  0.70591460  0.69399967  1
  Ta  Ta100  1  0.60467330  0.60041959  0.00172052  1
  Ta  Ta101  1  0.49379145  0.49916230  0.09538011  1
  Ta  Ta102  1  -0.00429334  0.79986445  -0.00116048  1
  Ta  Ta103  1  0.60187568  0.79181008  0.20455171  1
  Ta  Ta104  1  0.00074636  0.40512071  0.40311048  1
  Ta  Ta105  1  0.70919524  0.50138174  0.69601986  1
  Ta  Ta106  1  0.80152706  0.20115243  -0.00338597  1
  Ta  Ta107  1  0.59953352  0.20463762  0.40386451  1
  Ta  Ta108  1  0.29987347  0.30013151  0.70673254  1
  Ta  Ta109  1  0.30309189  0.30165247  0.09322600  1
  Ta  Ta110  1  0.50600658  0.89300916  0.10434235  1
  Ta  Ta111  1  0.29526779  0.50432675  0.29757507  1
  Ta  Ta112  1  0.70394121  0.90625109  0.69880569  1
  Ta  Ta113  1  0.49795185  0.29629304  0.29926275  1
  Ta  Ta114  1  0.19157716  0.80065972  0.19009505  1
  Ta  Ta115  1  0.49193068  0.50165295  0.91150824  1
  Ta  Ta116  1  0.21080371  0.40191300  -0.01063786  1
  Ta  Ta117  1  0.80427170  0.39889509  0.00116196  1
  Ta  Ta118  1  -0.00398374  0.39906881  0.59580021  1
  Ta  Ta119  1  0.59567625  0.39734053  0.40463739  1
  Ta  Ta120  1  0.18853859  0.80032793  0.00124032  1
  Ta  Ta121  1  0.30984951  0.49974504  0.09661346  1
  Ta  Ta122  1  0.50204292  0.11013688  0.89770827  1
  Ta  Ta123  1  0.50361760  0.90802035  0.69237721  1
  Ta  Ta124  1  0.39709981  0.20675455  -0.00511236  1
  Ta  Ta125  1  0.59642448  0.39954722  0.20362858  1
  Ta  Ta126  1  0.80828180  0.59898323  0.40997067  1
  Ta  Ta127  1  0.09310482  0.90159076  0.09769871  1
  Ta  Ta128  1  0.89914654  0.29356627  0.09928668  1
  Ta  Ta129  1  0.89681925  0.49890378  0.70407256  1
  Ta  Ta130  1  0.08976983  0.89566516  0.70671402  1
  Ta  Ta131  1  0.40521699  0.60561800  0.40190857  1
  Ta  Ta132  1  0.08972061  0.89901202  0.90000223  1
  Ta  Ta133  1  0.80644967  0.00544423  0.21153961  1
  Ta  Ta134  1  0.50894396  0.92012560  0.50217896  1
  Ta  Ta135  1  0.60521488  0.20322659  -0.00608849  1
  Ta  Ta136  1  0.70362375  0.10600332  0.30928207  1
  Ta  Ta137  1  0.17555240  0.01241105  0.19421856  1
  Ta  Ta138  1  0.89754063  0.10180034  0.10089027  1
  Ta  Ta139  1  0.40557250  0.80300222  0.79492214  1
  Ta  Ta140  1  0.81273492  0.40055952  0.60152399  1
  Ta  Ta141  1  0.40427655  0.60240953  0.58794753  1
  Ta  Ta142  1  0.79750114  0.60137894  0.80051730  1
  Ta  Ta143  1  0.00027877  0.40136296  0.79611704  1
  Ta  Ta144  1  0.21696357  0.16780514  0.38955639  1
  Ta  Ta145  1  0.70709463  0.10507445  0.89196133  1
  Ta  Ta146  1  0.40134005  0.40366725  0.20116605  1
  Ta  Ta147  1  0.80072042  0.79273210  0.20374149  1
  Ta  Ta148  1  0.89863276  0.49871764  0.29788852  1
  Ta  Ta149  1  0.80366994  0.19839422  0.19993113  1
  Ti  Ti150  1  0.20381659  0.40648364  0.80729530  1
  Ti  Ti151  1  0.59169090  0.59721944  0.59567800  1
  Ti  Ti152  1  0.40405109  0.79870248  0.20752898  1
  Ti  Ti153  1  0.00447920  0.18790309  0.19559609  1
  Ti  Ti154  1  0.40362057  0.19665985  0.61633209  1
  Ti  Ti155  1  -0.00999377  0.78589578  0.19713777  1
  Ti  Ti156  1  0.50170833  0.28922677  0.50643367  1
  Ti  Ti157  1  0.81529120  0.20591799  0.60568436  1
  Ti  Ti158  1  0.39943293  0.20238658  0.79533151  1
  Ti  Ti159  1  0.10385624  0.49813748  0.48942935  1
  Ti  Ti160  1  0.89028290  0.09392387  0.89238432  1
  Ti  Ti161  1  0.70909469  0.50315673  0.90020773  1
  Ti  Ti162  1  0.20910136  0.19795040  0.79629313  1
  Ti  Ti163  1  0.80266483  0.80499644  0.80168386  1
  Ti  Ti164  1  0.49862320  0.49510406  0.29912085  1
  Ti  Ti165  1  0.90271830  0.89206444  0.29939567  1
  Ti  Ti166  1  0.90582888  0.10632611  0.29837386  1
  Ti  Ti167  1  0.40729785  0.00948221  0.79322309  1
  Ti  Ti168  1  0.09615591  0.09437186  0.70696714  1
  Ti  Ti169  1  0.81224754  0.78538822  0.39966667  1
  Ti  Ti170  1  0.08946216  0.70410322  0.70319718  1
  Ti  Ti171  1  0.80247364  -0.00353471  -0.01029353  1
  Ti  Ti172  1  0.89832368  0.09913558  0.50382886  1
  Ti  Ti173  1  0.89858447  0.90243740  0.71107556  1
  Ti  Ti174  1  -0.00132690  0.80131730  0.60026600  1
  Ti  Ti175  1  0.30395850  0.70204863  0.90378066  1
  Ti  Ti176  1  0.38745478  0.40124509  0.80556639  1
  Ti  Ti177  1  -0.00933045  0.59743135  0.19864991  1
  Ti  Ti178  1  0.40328746  0.59613108  0.20848262  1
  Ti  Ti179  1  0.70451583  0.09816688  0.69406807  1
  Ti  Ti180  1  0.80621139  0.19650442  0.40249764  1
  Ti  Ti181  1  0.29254384  0.10173515  0.08872977  1
  Ti  Ti182  1  0.70747823  0.29973590  0.09757858  1
  Ti  Ti183  1  0.70360040  0.69133691  0.50131664  1
  Ti  Ti184  1  0.80635948  0.59505599  0.59403267  1
  Ti  Ti185  1  0.30041013  0.49997918  0.69714715  1
  Ti  Ti186  1  0.69998866  0.49835248  0.50853372  1
  Ti  Ti187  1  0.10818147  0.50392487  0.30462171  1
  Ti  Ti188  1  0.80717284  0.39703033  0.19315608  1
  Ti  Ti189  1  0.50143057  0.70586759  0.69836121  1
  Ti  Ti190  1  0.70212911  0.89878093  0.89192125  1
  Ti  Ti191  1  0.69643266  0.91162964  0.50431820  1
  Ti  Ti192  1  0.21010606  0.18535715  0.61222210  1
  Ti  Ti193  1  -0.01146057  0.19644763  -0.00247293  1
  Ti  Ti194  1  0.90907842  0.29443331  0.49556041  1
  Ti  Ti195  1  0.18865682  0.80859935  0.59747179  1
  Ti  Ti196  1  0.70790524  0.29834899  0.89590440  1
  Ti  Ti197  1  0.09729645  0.69966824  0.10081982  1
  Ti  Ti198  1  0.39982697  0.19691875  0.40521391  1
  Ti  Ti199  1  0.89667224  0.69791648  0.89515903  1
  Mo  Mo200  1  0.09255702  0.10411512  0.29740641  1
  Mo  Mo201  1  0.60415823  0.00178300  0.60682502  1
  Mo  Mo202  1  0.60789670  0.00700656  0.40608609  1
  Mo  Mo203  1  0.69861738  0.70060936  0.10003755  1
  Mo  Mo204  1  0.19806312  0.00654900  0.37675838  1
  Mo  Mo205  1  0.59831991  0.80534842  0.78223084  1
  Mo  Mo206  1  -0.01055715  0.79683247  0.39238873  1
  Mo  Mo207  1  0.30433491  0.10547350  0.51778776  1
  Mo  Mo208  1  0.39695506  0.40238335  0.00033024  1
  Mo  Mo209  1  0.90142079  0.49643975  0.50325075  1
  Mo  Mo210  1  0.80086228  0.40864503  0.79990227  1
  Mo  Mo211  1  0.90133825  0.70598656  0.10134473  1
  Mo  Mo212  1  -0.00467305  -0.00553577  0.80446473  1
  Mo  Mo213  1  0.20220963  0.59718055  0.19616254  1
  Mo  Mo214  1  0.30063111  0.30102338  0.89414404  1
  Mo  Mo215  1  0.89877543  0.69785074  0.29943730  1
  Mo  Mo216  1  0.89898498  0.89754319  0.89158069  1
  Mo  Mo217  1  0.59379402  0.20284980  0.60899064  1
  Mo  Mo218  1  0.79362489  -0.00677899  0.80354774  1
  Mo  Mo219  1  0.20882022  0.20244532  0.00155715  1
  Mo  Mo220  1  0.30575535  0.49520543  0.90143688  1
  Mo  Mo221  1  0.19211586  0.00469417  0.62377373  1
  Mo  Mo222  1  0.09655482  0.89857589  0.50831838  1
  Mo  Mo223  1  0.29793806  0.69234115  0.49704028  1
  Mo  Mo224  1  -0.00847231  0.80367378  0.80266858  1
  Mo  Mo225  1  0.18888971  -0.00299383  0.00609693  1
  Mo  Mo226  1  0.90498315  0.30569709  0.69550897  1
  Mo  Mo227  1  0.50261195  0.49960636  0.50256591  1
  Mo  Mo228  1  0.79474420  0.59922870  -0.00555633  1
  Mo  Mo229  1  0.79577481  0.19376914  0.80101028  1
  Mo  Mo230  1  0.48537397  0.29896170  0.70273178  1
  Mo  Mo231  1  0.39950950  0.59646021  -0.00430825  1
  Mo  Mo232  1  0.49365860  0.70185438  0.30013851  1
  Mo  Mo233  1  0.49613060  0.10122494  0.70335320  1
  Mo  Mo234  1  0.40227986  0.00960482  0.60647627  1
  Mo  Mo235  1  0.19257148  0.40861645  0.39361397  1
  Mo  Mo236  1  0.89678029  0.48822460  0.10218405  1
  Mo  Mo237  1  0.49728631  0.69530056  0.50262730  1
  Mo  Mo238  1  0.19718476  0.59878359  0.39433951  1
  Mo  Mo239  1  0.30602239  0.10598914  0.70450160  1
  Mo  Mo240  1  0.09078838  0.10153752  0.09646012  1
  Mo  Mo241  1  0.41307497  -0.01094790  0.19437199  1
  Mo  Mo242  1  -0.00736746  0.59859810  0.79537854  1
  Mo  Mo243  1  -0.00790580  0.00987042  0.19980063  1
  Mo  Mo244  1  0.60577214  0.79598517  0.01617874  1
  Mo  Mo245  1  0.80118323  -0.00801862  0.60032595  1
  Mo  Mo246  1  0.39946396  0.21497015  0.19175629  1
  Mo  Mo247  1  -0.00499772  0.19612580  0.40623706  1
  Mo  Mo248  1  0.89646215  0.70083101  0.50197922  1
  Mo  Mo249  1  0.09952379  0.49238348  0.89546532  1
