# generated using pymatgen
data_HfZrTaTiMo
_symmetry_space_group_name_H-M   'P 1'
_cell_length_a   16.88552112
_cell_length_b   16.87923450
_cell_length_c   16.88871112
_cell_angle_alpha   89.99171511
_cell_angle_beta   89.99682196
_cell_angle_gamma   90.00428445
_symmetry_Int_Tables_number   1
_chemical_formula_structural   HfZrTaTiMo
_chemical_formula_sum   'Hf50 Zr50 Ta50 Ti50 Mo50'
_cell_volume   4813.53036732
_cell_formula_units_Z   50
loop_
 _symmetry_equiv_pos_site_id
 _symmetry_equiv_pos_as_xyz
  1  'x, y, z'
loop_
 _atom_site_type_symbol
 _atom_site_label
 _atom_site_symmetry_multiplicity
 _atom_site_fract_x
 _atom_site_fract_y
 _atom_site_fract_z
 _atom_site_occupancy
  Hf  Hf0  1  0.20417062  0.39619724  0.59792424  1
  Hf  Hf1  1  0.89855077  0.69522213  0.30204841  1
  Hf  Hf2  1  0.20148698  0.60419735  0.39954386  1
  Hf  Hf3  1  0.30721499  0.50240279  0.90221128  1
  Hf  Hf4  1  0.29985135  0.29425536  0.30552997  1
  Hf  Hf5  1  0.31139944  0.09056561  0.29937370  1
  Hf  Hf6  1  0.49936043  0.09302012  0.48650415  1
  Hf  Hf7  1  0.39562487  0.80904369  0.39435981  1
  Hf  Hf8  1  -0.00173426  -0.00778589  0.41627741  1
  Hf  Hf9  1  0.79661288  0.58311485  0.41340390  1
  Hf  Hf10  1  0.59522624  0.39686280  0.80262545  1
  Hf  Hf11  1  0.30284534  0.50262012  0.09708275  1
  Hf  Hf12  1  0.09635075  0.90138261  0.29814198  1
  Hf  Hf13  1  0.39278056  0.79087334  0.00839734  1
  Hf  Hf14  1  0.20362569  0.80495064  0.59536224  1
  Hf  Hf15  1  -0.00380813  0.80645690  -0.00200622  1
  Hf  Hf16  1  0.60038192  0.20388108  0.00362161  1
  Hf  Hf17  1  0.50071727  0.90356430  0.70110815  1
  Hf  Hf18  1  0.51025936  0.29240296  0.29485623  1
  Hf  Hf19  1  0.50055605  0.69449373  0.30637357  1
  Hf  Hf20  1  0.89710244  0.49150178  0.28190910  1
  Hf  Hf21  1  -0.01343237  0.19359101  0.80874305  1
  Hf  Hf22  1  0.30566882  0.10572726  0.48868707  1
  Hf  Hf23  1  0.50272196  0.10518030  0.89736889  1
  Hf  Hf24  1  0.59583579  0.60011924  0.19116608  1
  Hf  Hf25  1  -0.00010949  0.20125314  0.00303553  1
  Hf  Hf26  1  0.49956758  0.70183488  0.49727883  1
  Hf  Hf27  1  0.59205110  0.80066345  0.00936461  1
  Hf  Hf28  1  0.40294940  0.80006306  0.20007941  1
  Hf  Hf29  1  0.49729993  0.70163861  0.68989155  1
  Hf  Hf30  1  0.40221840  0.19824016  0.60610489  1
  Hf  Hf31  1  0.20024298  0.20239400  0.00397662  1
  Hf  Hf32  1  0.20944758  0.79891681  0.20816900  1
  Hf  Hf33  1  0.89478528  0.90108575  0.70662734  1
  Hf  Hf34  1  0.69503559  0.29993115  0.11035525  1
  Hf  Hf35  1  0.48900991  0.49621708  0.08796498  1
  Hf  Hf36  1  0.40910497  0.40614061  0.39412817  1
  Hf  Hf37  1  0.19525853  0.19130497  0.19618069  1
  Hf  Hf38  1  0.39735487  0.39634984  0.60683866  1
  Hf  Hf39  1  0.89249588  0.91942452  0.10050720  1
  Hf  Hf40  1  0.89643620  0.29341561  0.29321827  1
  Hf  Hf41  1  0.10395649  0.70203159  0.10276029  1
  Hf  Hf42  1  0.61238724  0.59745157  0.60365094  1
  Hf  Hf43  1  0.60139417  0.57917902  0.39697963  1
  Hf  Hf44  1  0.39406353  0.60584251  0.79590606  1
  Hf  Hf45  1  0.78868796  0.19652629  0.80330024  1
  Hf  Hf46  1  0.19603130  0.00100064  0.39808432  1
  Hf  Hf47  1  0.70883264  0.90180446  0.90304275  1
  Hf  Hf48  1  0.61258509  0.19348089  0.40052313  1
  Hf  Hf49  1  0.79201195  0.00377497  0.40572958  1
  Zr  Zr50  1  0.10170242  0.89504547  0.71570139  1
  Zr  Zr51  1  -0.00684807  0.39695288  0.59587006  1
  Zr  Zr52  1  0.29850916  0.90161452  0.89464154  1
  Zr  Zr53  1  -0.00504866  0.79449116  0.19473652  1
  Zr  Zr54  1  0.19826545  0.00706246  0.00483059  1
  Zr  Zr55  1  0.89893701  0.90274356  0.30016725  1
  Zr  Zr56  1  0.19236517  0.39626799  -0.00149212  1
  Zr  Zr57  1  -0.00631770  0.59331317  0.40452543  1
  Zr  Zr58  1  0.89121859  0.50652797  0.90080455  1
  Zr  Zr59  1  0.09961900  0.50834508  0.70619532  1
  Zr  Zr60  1  -0.00387136  0.39217384  0.40666954  1
  Zr  Zr61  1  0.20512828  0.80223237  0.00231149  1
  Zr  Zr62  1  0.10255254  0.49820657  0.29305746  1
  Zr  Zr63  1  0.70385350  0.70417359  0.90486056  1
  Zr  Zr64  1  0.60114516  0.60241634  0.79535611  1
  Zr  Zr65  1  0.00056464  0.00971556  -0.00081349  1
  Zr  Zr66  1  0.70772347  0.48897292  0.27911248  1
  Zr  Zr67  1  0.61025577  0.00430405  0.59740314  1
  Zr  Zr68  1  0.00282028  0.81402270  0.58797925  1
  Zr  Zr69  1  0.69225380  0.71478489  0.49219491  1
  Zr  Zr70  1  0.00703459  0.00160130  0.59993532  1
  Zr  Zr71  1  0.88904824  0.29311336  0.69855007  1
  Zr  Zr72  1  0.30290484  0.10755581  0.89610883  1
  Zr  Zr73  1  0.49844112  0.90233573  0.89641350  1
  Zr  Zr74  1  0.00453561  0.18858925  0.59698569  1
  Zr  Zr75  1  0.60154974  0.00172840  0.00485973  1
  Zr  Zr76  1  0.20319526  0.40403845  0.40356643  1
  Zr  Zr77  1  0.09489807  0.51000213  0.51118029  1
  Zr  Zr78  1  0.01039205  0.39000809  0.18523288  1
  Zr  Zr79  1  0.00618572  0.60781654  0.80877316  1
  Zr  Zr80  1  0.80290412  0.19280296  0.40206254  1
  Zr  Zr81  1  0.89315922  0.29663127  0.10029861  1
  Zr  Zr82  1  0.80121600  0.39838911  0.41224588  1
  Zr  Zr83  1  0.79792144  0.79990214  0.19400822  1
  Zr  Zr84  1  0.20215103  0.61483509  0.60553429  1
  Zr  Zr85  1  0.80107764  0.39848467  -0.00301234  1
  Zr  Zr86  1  0.49583583  0.50326280  0.50889047  1
  Zr  Zr87  1  0.50308608  0.29381770  0.50085892  1
  Zr  Zr88  1  0.79790613  0.60184930  0.60320418  1
  Zr  Zr89  1  0.59748644  0.60026719  0.00131517  1
  Zr  Zr90  1  0.20247339  0.40057791  0.80743525  1
  Zr  Zr91  1  0.20224136  0.60983262  -0.01217914  1
  Zr  Zr92  1  -0.00031184  0.60327507  -0.00004985  1
  Zr  Zr93  1  -0.00436629  0.39635862  0.81336852  1
  Zr  Zr94  1  0.10306399  0.28992489  0.70505564  1
  Zr  Zr95  1  0.90075114  0.70770612  0.50229990  1
  Zr  Zr96  1  0.39963679  -0.00075561  0.59991216  1
  Zr  Zr97  1  0.40503237  0.20307760  0.19311658  1
  Zr  Zr98  1  0.00484806  0.18260788  0.39951201  1
  Zr  Zr99  1  0.70271192  0.69892505  0.29940518  1
  Ta  Ta100  1  0.30303587  0.29048591  0.49482858  1
  Ta  Ta101  1  0.29709950  0.29365792  0.70466495  1
  Ta  Ta102  1  0.50529560  0.10612419  0.71063035  1
  Ta  Ta103  1  0.40045964  0.00518030  0.00717063  1
  Ta  Ta104  1  0.30553854  0.30584701  0.09657351  1
  Ta  Ta105  1  0.59976562  0.79836928  0.79670850  1
  Ta  Ta106  1  0.10511776  0.28973383  0.30081679  1
  Ta  Ta107  1  0.10298701  0.90930627  0.10949480  1
  Ta  Ta108  1  0.20182393  0.80094339  0.40074638  1
  Ta  Ta109  1  0.89988072  0.08677649  0.28341680  1
  Ta  Ta110  1  0.50238663  0.10167970  0.10598982  1
  Ta  Ta111  1  0.70265349  0.29720103  0.29085593  1
  Ta  Ta112  1  0.88661168  0.08945632  0.70443318  1
  Ta  Ta113  1  0.20376034  0.60317224  0.20043884  1
  Ta  Ta114  1  0.10478707  0.10243105  0.89162256  1
  Ta  Ta115  1  0.30103689  0.91320623  0.11412358  1
  Ta  Ta116  1  0.00686405  0.18812220  0.19355483  1
  Ta  Ta117  1  0.40202095  0.20902944  0.80133275  1
  Ta  Ta118  1  0.40071279  0.39553615  0.79948669  1
  Ta  Ta119  1  0.69812401  0.29715368  0.50956162  1
  Ta  Ta120  1  0.69198151  0.90072920  0.30005525  1
  Ta  Ta121  1  0.20239815  0.19180981  0.59782477  1
  Ta  Ta122  1  0.49167005  0.69940314  0.90089996  1
  Ta  Ta123  1  0.29824557  0.90295396  0.70211930  1
  Ta  Ta124  1  0.89021755  0.71086103  0.90118169  1
  Ta  Ta125  1  0.50362040  0.09356211  0.29795724  1
  Ta  Ta126  1  0.69842395  0.49953833  0.89802648  1
  Ta  Ta127  1  0.30062942  0.50574478  0.70018066  1
  Ta  Ta128  1  0.39496274  0.79649590  0.79382159  1
  Ta  Ta129  1  -0.00503986  0.00297258  0.80690756  1
  Ta  Ta130  1  0.30599616  0.69317315  0.30446406  1
  Ta  Ta131  1  0.49332433  0.49938934  0.90199505  1
  Ta  Ta132  1  0.40332591  0.39938259  0.19845354  1
  Ta  Ta133  1  0.70516326  0.49039676  0.70776743  1
  Ta  Ta134  1  0.10342978  0.50269079  0.09773551  1
  Ta  Ta135  1  0.30850985  0.50536623  0.29448652  1
  Ta  Ta136  1  0.39468670  0.80338479  0.59907555  1
  Ta  Ta137  1  0.70682255  0.70211791  0.09506959  1
  Ta  Ta138  1  0.79730387  0.40141913  0.60167398  1
  Ta  Ta139  1  0.69760794  0.09538690  0.29068230  1
  Ta  Ta140  1  0.59503915  0.80233345  0.19576864  1
  Ta  Ta141  1  0.19812380  0.00301500  0.59756778  1
  Ta  Ta142  1  0.89935131  0.50719237  0.70050544  1
  Ta  Ta143  1  0.90430146  0.70800900  0.70495848  1
  Ta  Ta144  1  0.31167029  0.69703263  0.49738836  1
  Ta  Ta145  1  0.50663794  0.89687004  0.49202871  1
  Ta  Ta146  1  0.60753511  0.39812925  0.39846274  1
  Ta  Ta147  1  0.59962019  -0.00411289  0.19722807  1
  Ta  Ta148  1  0.79590332  0.60593867  0.79483843  1
  Ta  Ta149  1  0.29741753  0.10147835  0.70555777  1
  Ti  Ti150  1  0.80085329  0.18882581  0.19624382  1
  Ti  Ti151  1  0.70599350  0.49792584  0.09242840  1
  Ti  Ti152  1  0.40287222  0.60311206  0.19522761  1
  Ti  Ti153  1  0.50710751  0.29316983  0.70393465  1
  Ti  Ti154  1  0.58976738  0.40281202  0.19614677  1
  Ti  Ti155  1  0.39989296  0.00441799  0.79812845  1
  Ti  Ti156  1  0.79560974  0.79719919  0.79597793  1
  Ti  Ti157  1  0.70353899  0.90261136  0.70968963  1
  Ti  Ti158  1  0.60417571  0.40047155  0.60339484  1
  Ti  Ti159  1  0.78946367  -0.00233982  0.60043390  1
  Ti  Ti160  1  0.49612630  0.50046948  0.70034799  1
  Ti  Ti161  1  0.30885484  0.51016316  0.50296439  1
  Ti  Ti162  1  0.10066244  0.90079468  0.89457137  1
  Ti  Ti163  1  0.09309096  0.70697379  0.49394494  1
  Ti  Ti164  1  0.60613689  0.19132404  0.60651891  1
  Ti  Ti165  1  0.30627266  0.09509775  0.10612110  1
  Ti  Ti166  1  0.09682252  0.70940624  0.70757955  1
  Ti  Ti167  1  0.10603191  0.71901743  0.88583290  1
  Ti  Ti168  1  0.69973676  0.09600576  0.89936946  1
  Ti  Ti169  1  0.88483317  0.09009012  0.90414725  1
  Ti  Ti170  1  0.69381046  0.29735447  0.70066589  1
  Ti  Ti171  1  0.50230083  0.91078789  0.30418039  1
  Ti  Ti172  1  0.70645407  0.09506507  0.10258021  1
  Ti  Ti173  1  -0.00234476  0.59921653  0.18973952  1
  Ti  Ti174  1  0.11277806  0.28544879  0.49264951  1
  Ti  Ti175  1  0.09434876  0.70196748  0.30431923  1
  Ti  Ti176  1  0.40184231  0.20590445  0.00309515  1
  Ti  Ti177  1  0.10449187  0.10086034  0.70916999  1
  Ti  Ti178  1  0.78435931  0.18837482  0.60337511  1
  Ti  Ti179  1  0.70521078  0.90216967  0.09897741  1
  Ti  Ti180  1  0.69698443  0.30067071  0.90040440  1
  Ti  Ti181  1  0.30388605  0.90594961  0.49552944  1
  Ti  Ti182  1  0.10234699  0.29149143  0.89658860  1
  Ti  Ti183  1  0.49257109  0.90905942  0.10540715  1
  Ti  Ti184  1  0.00365454  0.39815165  -0.00275190  1
  Ti  Ti185  1  0.81141983  0.59719618  0.17475762  1
  Ti  Ti186  1  0.89248290  0.28776981  0.50790510  1
  Ti  Ti187  1  0.79980415  0.39538303  0.80169500  1
  Ti  Ti188  1  0.49430763  0.30365547  0.90574055  1
  Ti  Ti189  1  0.20270656  0.39656308  0.19687945  1
  Ti  Ti190  1  0.68904810  0.89909535  0.48953303  1
  Ti  Ti191  1  0.89002621  0.09417732  0.51293562  1
  Ti  Ti192  1  0.19942129  0.00309278  0.79876040  1
  Ti  Ti193  1  0.60981714  0.00679662  0.79489820  1
  Ti  Ti194  1  0.79848228  0.19555989  -0.00309125  1
  Ti  Ti195  1  0.60639232  0.80595240  0.60675164  1
  Ti  Ti196  1  0.88873943  0.90268787  0.89894764  1
  Ti  Ti197  1  0.80291518  0.81008971  0.40367406  1
  Ti  Ti198  1  0.79246035  0.80725668  0.60136587  1
  Ti  Ti199  1  0.59734754  0.39801824  -0.00107231  1
  Mo  Mo200  1  0.79814368  0.60128533  -0.00074352  1
  Mo  Mo201  1  0.70368029  0.71437768  0.70048692  1
  Mo  Mo202  1  0.59520131  0.80764879  0.39078171  1
  Mo  Mo203  1  0.60528002  0.19070223  0.19869879  1
  Mo  Mo204  1  0.30028681  0.70686071  0.69467624  1
  Mo  Mo205  1  0.20219775  0.61069000  0.79901811  1
  Mo  Mo206  1  0.40291735  -0.00815173  0.39522884  1
  Mo  Mo207  1  0.80271226  0.80436613  0.00230018  1
  Mo  Mo208  1  0.30364814  0.69301332  0.11359586  1
  Mo  Mo209  1  0.29817097  0.70263301  0.88579777  1
  Mo  Mo210  1  0.89555051  0.69712705  0.09028267  1
  Mo  Mo211  1  -0.00845136  0.80483461  0.80998376  1
  Mo  Mo212  1  0.50086432  0.30178153  0.09676389  1
  Mo  Mo213  1  0.20391322  0.19838044  0.79980999  1
  Mo  Mo214  1  0.29946695  0.89949765  0.30030538  1
  Mo  Mo215  1  0.40638033  0.20270153  0.39623972  1
  Mo  Mo216  1  0.79795182  0.00145710  0.80204764  1
  Mo  Mo217  1  0.50095792  0.69967499  0.10214844  1
  Mo  Mo218  1  0.69483133  0.48506917  0.51275915  1
  Mo  Mo219  1  0.20079195  0.00114899  0.20182175  1
  Mo  Mo220  1  0.39629902  0.60102221  0.60151280  1
  Mo  Mo221  1  0.49779605  0.49512111  0.28939130  1
  Mo  Mo222  1  0.09978575  0.49536088  0.90537173  1
  Mo  Mo223  1  0.89043150  0.29343859  0.90436579  1
  Mo  Mo224  1  0.09961526  0.09874817  0.09964449  1
  Mo  Mo225  1  0.40049757  0.39080772  -0.00403056  1
  Mo  Mo226  1  0.89863794  0.50206113  0.52060940  1
  Mo  Mo227  1  0.40693047  -0.00091339  0.19909264  1
  Mo  Mo228  1  0.69751578  0.10009019  0.70363168  1
  Mo  Mo229  1  0.39780697  0.59689349  0.39868524  1
  Mo  Mo230  1  0.90657386  0.50127040  0.09561589  1
  Mo  Mo231  1  0.79995043  0.39805218  0.19103888  1
  Mo  Mo232  1  0.79682802  0.00675263  0.00055978  1
  Mo  Mo233  1  0.89111696  0.10289287  0.10061415  1
  Mo  Mo234  1  0.20549984  0.79898887  0.79648533  1
  Mo  Mo235  1  0.87755354  0.90146793  0.50668897  1
  Mo  Mo236  1  0.00571609  0.79933194  0.39969617  1
  Mo  Mo237  1  0.78715513  0.00155261  0.19919225  1
  Mo  Mo238  1  0.00795711  0.00941071  0.19670793  1
  Mo  Mo239  1  0.11608056  0.89829609  0.49614061  1
  Mo  Mo240  1  -0.00246311  0.61532853  0.61075998  1
  Mo  Mo241  1  0.39976739  0.60957221  -0.00398786  1
  Mo  Mo242  1  0.09416040  0.09540002  0.29649079  1
  Mo  Mo243  1  0.11114377  0.09804511  0.49976324  1
  Mo  Mo244  1  0.10589299  0.29767372  0.10116273  1
  Mo  Mo245  1  0.59822484  0.20645773  0.80419336  1
  Mo  Mo246  1  0.69911112  0.10219026  0.50500829  1
  Mo  Mo247  1  0.19858473  0.19656494  0.39805820  1
  Mo  Mo248  1  0.31064582  0.30009183  0.90119477  1
  Mo  Mo249  1  0.60163012  -0.00219667  0.39327862  1
