# generated using pymatgen
data_HfZrTaTiMo
_symmetry_space_group_name_H-M   'P 1'
_cell_length_a   16.87332429
_cell_length_b   16.88123387
_cell_length_c   16.87663876
_cell_angle_alpha   90.03972470
_cell_angle_beta   90.12055732
_cell_angle_gamma   89.97109831
_symmetry_Int_Tables_number   1
_chemical_formula_structural   HfZrTaTiMo
_chemical_formula_sum   'Hf50 Zr50 Ta50 Ti50 Mo50'
_cell_volume   4807.17213602
_cell_formula_units_Z   50
loop_
 _symmetry_equiv_pos_site_id
 _symmetry_equiv_pos_as_xyz
  1  'x, y, z'
loop_
 _atom_site_type_symbol
 _atom_site_label
 _atom_site_symmetry_multiplicity
 _atom_site_fract_x
 _atom_site_fract_y
 _atom_site_fract_z
 _atom_site_occupancy
  Hf  Hf0  1  0.40354739  0.20583410  0.60099113  1
  Hf  Hf1  1  0.19996223  0.40353436  0.20970802  1
  Hf  Hf2  1  0.20229231  0.80088862  0.59941653  1
  Hf  Hf3  1  0.30458675  0.89666022  0.09451641  1
  Hf  Hf4  1  0.88840546  0.69765400  0.89413109  1
  Hf  Hf5  1  -0.01253310  0.80116836  -0.00205610  1
  Hf  Hf6  1  0.81113541  0.80127542  0.41069641  1
  Hf  Hf7  1  0.29585459  0.10626719  0.10146342  1
  Hf  Hf8  1  0.60155920  0.58842091  0.60565053  1
  Hf  Hf9  1  0.30503604  0.29735199  0.89735094  1
  Hf  Hf10  1  0.40822921  0.39198513  0.59795800  1
  Hf  Hf11  1  0.89756899  0.70142326  0.70036762  1
  Hf  Hf12  1  0.40146705  -0.00325615  0.41650617  1
  Hf  Hf13  1  0.20376483  -0.00728665  0.58725621  1
  Hf  Hf14  1  0.58985795  0.40032391  0.41026160  1
  Hf  Hf15  1  0.10106383  0.29019921  0.69187869  1
  Hf  Hf16  1  0.59404877  0.80025892  0.60080413  1
  Hf  Hf17  1  0.80095056  0.80137056  0.19614440  1
  Hf  Hf18  1  0.29659525  0.90571309  0.29882062  1
  Hf  Hf19  1  0.59082621  0.78843883  0.39524200  1
  Hf  Hf20  1  0.50936877  0.89366651  0.09320120  1
  Hf  Hf21  1  0.81157981  0.00608647  0.60658960  1
  Hf  Hf22  1  0.80080892  0.59567099  0.60068223  1
  Hf  Hf23  1  -0.00049579  0.60058647  0.59451988  1
  Hf  Hf24  1  -0.00640751  0.59513561  0.00302307  1
  Hf  Hf25  1  0.79699087  0.39181331  0.60272869  1
  Hf  Hf26  1  0.59710336  0.80927833  0.80260314  1
  Hf  Hf27  1  0.09748237  0.48794695  0.69764064  1
  Hf  Hf28  1  0.00094729  0.39186822  0.80166387  1
  Hf  Hf29  1  0.69996235  0.49705603  0.49514551  1
  Hf  Hf30  1  0.69815279  0.48769824  0.89688066  1
  Hf  Hf31  1  0.40345026  0.00297244  0.19527088  1
  Hf  Hf32  1  0.10732354  0.69580402  0.09909396  1
  Hf  Hf33  1  0.59692292  0.62365139  0.21111326  1
  Hf  Hf34  1  0.80154799  0.00623433  0.20220125  1
  Hf  Hf35  1  0.40942541  0.78931265  0.21265613  1
  Hf  Hf36  1  0.30883415  0.10136951  0.90423404  1
  Hf  Hf37  1  0.00415868  0.80335743  0.40496696  1
  Hf  Hf38  1  0.09582544  0.10804177  0.49924234  1
  Hf  Hf39  1  -0.01676856  -0.00154078  0.78971937  1
  Hf  Hf40  1  0.20550470  0.39279482  0.59819365  1
  Hf  Hf41  1  0.80275309  0.20009913  0.20388474  1
  Hf  Hf42  1  0.69583599  0.90423789  0.09223093  1
  Hf  Hf43  1  0.68624226  0.91001642  0.49676561  1
  Hf  Hf44  1  0.79734701  0.19999161  0.00747434  1
  Hf  Hf45  1  0.49996921  0.69137142  0.50091773  1
  Hf  Hf46  1  0.50207556  0.10016261  0.08921519  1
  Hf  Hf47  1  0.79166965  0.60556054  0.00925835  1
  Hf  Hf48  1  0.91049159  0.10361569  0.31025123  1
  Hf  Hf49  1  0.18779428  0.59053952  0.39738892  1
  Zr  Zr50  1  0.40010664  0.39576485  0.40499450  1
  Zr  Zr51  1  0.50881745  0.49551166  0.28920895  1
  Zr  Zr52  1  0.70001260  0.70280429  0.70874884  1
  Zr  Zr53  1  0.69882695  0.30997240  0.30148312  1
  Zr  Zr54  1  0.29411671  0.49747477  0.49694636  1
  Zr  Zr55  1  0.80489922  0.19944278  0.78835624  1
  Zr  Zr56  1  0.40960746  0.20810149  -0.00049167  1
  Zr  Zr57  1  0.10583516  0.89590253  0.10078171  1
  Zr  Zr58  1  0.10044338  0.10519285  0.89764256  1
  Zr  Zr59  1  0.89870683  0.30529655  0.90683166  1
  Zr  Zr60  1  0.00523628  0.40067369  0.21152619  1
  Zr  Zr61  1  0.90107832  0.69898779  0.29751921  1
  Zr  Zr62  1  0.20522264  0.59626487  0.79806937  1
  Zr  Zr63  1  0.10675582  0.50573956  0.09901515  1
  Zr  Zr64  1  0.09914103  0.89586454  0.89889974  1
  Zr  Zr65  1  0.00291066  0.59938008  0.79554199  1
  Zr  Zr66  1  0.29858335  0.29203386  0.30041199  1
  Zr  Zr67  1  0.20893391  -0.00685381  0.79325266  1
  Zr  Zr68  1  0.19365396  0.60109940  0.60596020  1
  Zr  Zr69  1  0.69618930  0.49197101  0.11622273  1
  Zr  Zr70  1  0.60045828  0.60182125  -0.00806222  1
  Zr  Zr71  1  0.89053053  0.48915635  0.90596975  1
  Zr  Zr72  1  0.02565342  0.00544101  0.21389906  1
  Zr  Zr73  1  0.10578969  0.29785854  0.09309175  1
  Zr  Zr74  1  0.89610888  0.09582733  0.90802245  1
  Zr  Zr75  1  0.50711434  0.90551945  0.30447432  1
  Zr  Zr76  1  0.69252531  0.10985942  0.69394809  1
  Zr  Zr77  1  0.21426205  0.40131291  -0.00298341  1
  Zr  Zr78  1  0.60448223  0.20109859  0.19118180  1
  Zr  Zr79  1  0.39566490  0.80494682  0.79136142  1
  Zr  Zr80  1  0.09243382  0.90482249  0.69105787  1
  Zr  Zr81  1  0.19988934  0.79559776  0.21320259  1
  Zr  Zr82  1  0.41015386  0.59527295  0.39542168  1
  Zr  Zr83  1  0.29490558  0.10985279  0.69311238  1
  Zr  Zr84  1  0.69527708  0.29872373  0.89793551  1
  Zr  Zr85  1  0.40297175  0.59313400  0.60536533  1
  Zr  Zr86  1  0.49805979  0.10895957  0.30351115  1
  Zr  Zr87  1  0.69856806  0.90126806  0.30135120  1
  Zr  Zr88  1  0.29480130  0.69345379  0.09140922  1
  Zr  Zr89  1  0.29551298  0.10593746  0.30100037  1
  Zr  Zr90  1  0.40738112  0.00121554  0.79694228  1
  Zr  Zr91  1  0.89867370  0.31418706  0.09896416  1
  Zr  Zr92  1  0.80593331  0.80874453  0.59668440  1
  Zr  Zr93  1  0.58385321  0.00722811  0.60115247  1
  Zr  Zr94  1  0.17819987  -0.00541596  0.38770798  1
  Zr  Zr95  1  0.80838970  0.00422395  0.41041813  1
  Zr  Zr96  1  0.49806329  0.70611952  0.08762461  1
  Zr  Zr97  1  0.10771632  0.69958388  0.90615141  1
  Zr  Zr98  1  0.49960122  0.49858761  0.09884365  1
  Zr  Zr99  1  0.20494086  -0.00313480  -0.00331982  1
  Ta  Ta100  1  0.49796785  0.69973997  0.89526405  1
  Ta  Ta101  1  0.59539527  0.00616496  0.80165862  1
  Ta  Ta102  1  0.90051787  0.90879766  0.10058259  1
  Ta  Ta103  1  0.50696549  0.30236005  0.89767022  1
  Ta  Ta104  1  0.60360486  0.00550621  0.19981679  1
  Ta  Ta105  1  0.69997464  0.09489428  0.09108555  1
  Ta  Ta106  1  0.19852706  0.79948182  0.40563933  1
  Ta  Ta107  1  0.91058122  0.90519883  0.30012235  1
  Ta  Ta108  1  0.30067453  0.50734280  0.10288266  1
  Ta  Ta109  1  0.29353987  0.10826122  0.49607427  1
  Ta  Ta110  1  0.00310374  0.20244784  0.20268512  1
  Ta  Ta111  1  -0.00434812  0.80255168  0.59362793  1
  Ta  Ta112  1  0.80498586  0.81850863  0.80299839  1
  Ta  Ta113  1  0.20093693  0.20529524  0.79702722  1
  Ta  Ta114  1  0.80475050  0.59925265  0.40239416  1
  Ta  Ta115  1  0.69718202  0.29232072  0.50610620  1
  Ta  Ta116  1  0.20296902  0.79721976  0.79048663  1
  Ta  Ta117  1  0.39588730  0.58971897  -0.01457527  1
  Ta  Ta118  1  0.30161575  0.69766574  0.89716046  1
  Ta  Ta119  1  0.89291223  0.49693110  0.10696862  1
  Ta  Ta120  1  -0.00470319  0.80233980  0.79325943  1
  Ta  Ta121  1  0.10455978  0.49284781  0.90443087  1
  Ta  Ta122  1  0.90739688  0.09651375  0.10163671  1
  Ta  Ta123  1  0.40374158  0.59277995  0.80240033  1
  Ta  Ta124  1  0.50549455  0.49040405  0.70938395  1
  Ta  Ta125  1  0.29762659  0.69838068  0.49691057  1
  Ta  Ta126  1  0.70074732  0.90920246  0.90263405  1
  Ta  Ta127  1  0.49575681  0.29743771  0.29275904  1
  Ta  Ta128  1  0.30555422  0.48932396  0.70775184  1
  Ta  Ta129  1  0.80311558  0.20437706  0.40841021  1
  Ta  Ta130  1  0.09924461  0.69981062  0.50044852  1
  Ta  Ta131  1  0.39550070  0.39531191  0.19214630  1
  Ta  Ta132  1  0.69470877  0.10888622  0.49889425  1
  Ta  Ta133  1  -0.00137817  0.59381490  0.40204184  1
  Ta  Ta134  1  0.89254434  0.49718058  0.30040725  1
  Ta  Ta135  1  0.09299709  0.10520410  0.68843625  1
  Ta  Ta136  1  0.89956321  0.49485240  0.49752455  1
  Ta  Ta137  1  0.39477669  0.80004798  0.40562577  1
  Ta  Ta138  1  0.00120821  0.59597523  0.20609843  1
  Ta  Ta139  1  0.69591248  0.09970134  0.90305763  1
  Ta  Ta140  1  0.69505845  0.10167927  0.31132687  1
  Ta  Ta141  1  0.39579373  0.80689505  0.59407905  1
  Ta  Ta142  1  0.39562625  -0.00468576  0.59764282  1
  Ta  Ta143  1  0.00214477  0.19981794  0.00589658  1
  Ta  Ta144  1  0.79829617  0.00064860  0.79906864  1
  Ta  Ta145  1  0.89899906  0.49090445  0.69859958  1
  Ta  Ta146  1  0.69968457  0.69442529  0.49566828  1
  Ta  Ta147  1  0.80047557  0.80670980  -0.00281296  1
  Ta  Ta148  1  0.69819709  0.90797179  0.70343252  1
  Ta  Ta149  1  0.00458937  0.40359402  0.40369125  1
  Ti  Ti150  1  0.70426983  0.70058404  0.30741256  1
  Ti  Ti151  1  0.10251651  0.29704280  0.90483077  1
  Ti  Ti152  1  0.90940757  0.29401940  0.69030736  1
  Ti  Ti153  1  0.50170379  0.49041475  0.89425151  1
  Ti  Ti154  1  0.59731015  0.39492291  0.00200297  1
  Ti  Ti155  1  0.69820284  0.70822710  0.89772807  1
  Ti  Ti156  1  0.59552666  0.00644171  -0.01106800  1
  Ti  Ti157  1  -0.00594689  0.21650740  0.40603731  1
  Ti  Ti158  1  0.79204874  0.58837487  0.79382522  1
  Ti  Ti159  1  0.10401038  0.10283449  0.09486377  1
  Ti  Ti160  1  0.59990868  0.59378515  0.79966398  1
  Ti  Ti161  1  0.49761342  0.90397348  0.90761440  1
  Ti  Ti162  1  0.49823579  0.90294076  0.69586528  1
  Ti  Ti163  1  0.49897217  0.69537513  0.70520810  1
  Ti  Ti164  1  0.89819942  0.30513697  0.30325788  1
  Ti  Ti165  1  0.70025701  0.30847137  0.10087812  1
  Ti  Ti166  1  0.10572686  0.29797752  0.31375534  1
  Ti  Ti167  1  -0.00175762  -0.00148587  0.00118249  1
  Ti  Ti168  1  0.18611665  0.19322385  0.20508065  1
  Ti  Ti169  1  -0.00421450  0.39443759  0.58812305  1
  Ti  Ti170  1  0.60286689  0.39352457  0.60720614  1
  Ti  Ti171  1  0.20482318  0.39337165  0.79970852  1
  Ti  Ti172  1  0.79754288  0.60325918  0.20301473  1
  Ti  Ti173  1  0.89948044  0.69918812  0.10449194  1
  Ti  Ti174  1  0.09782648  0.69381996  0.29977240  1
  Ti  Ti175  1  0.30478424  0.69620826  0.69780398  1
  Ti  Ti176  1  0.29884866  0.29136623  0.10443532  1
  Ti  Ti177  1  0.50292207  0.10854530  0.50168731  1
  Ti  Ti178  1  0.91222440  0.10623126  0.50626233  1
  Ti  Ti179  1  0.28614313  0.29015449  0.49373923  1
  Ti  Ti180  1  0.80589767  0.39467790  0.40515254  1
  Ti  Ti181  1  0.68768180  0.71912534  0.09651914  1
  Ti  Ti182  1  0.40418727  0.20609947  0.40977936  1
  Ti  Ti183  1  0.50438861  0.30398466  0.10213289  1
  Ti  Ti184  1  0.29767980  0.50056049  0.29625129  1
  Ti  Ti185  1  0.70193091  0.50025998  0.30264255  1
  Ti  Ti186  1  0.59180664  0.19463933  0.80046745  1
  Ti  Ti187  1  -0.00129960  0.19793894  0.79824796  1
  Ti  Ti188  1  0.40783054  0.20066744  0.79456166  1
  Ti  Ti189  1  0.39583328  0.80132629  -0.01423012  1
  Ti  Ti190  1  0.59703910  0.20638049  0.40601942  1
  Ti  Ti191  1  0.79121199  0.39150322  0.78118586  1
  Ti  Ti192  1  0.29856433  0.69066036  0.30605312  1
  Ti  Ti193  1  0.10204334  0.29683051  0.50048183  1
  Ti  Ti194  1  0.51125216  0.29752589  0.70474115  1
  Ti  Ti195  1  0.40288446  0.39436858  0.79794325  1
  Ti  Ti196  1  0.80660864  0.20351955  0.59619390  1
  Ti  Ti197  1  0.39801495  0.60074212  0.20094477  1
  Ti  Ti198  1  0.00070000  0.80006444  0.20020004  1
  Ti  Ti199  1  0.40092763  0.40253280  0.00051770  1
  Mo  Mo200  1  0.00792169  0.40050756  -0.00450329  1
  Mo  Mo201  1  0.19339270  0.20298021  0.40371920  1
  Mo  Mo202  1  0.89775501  0.30203214  0.49624940  1
  Mo  Mo203  1  0.20222433  0.59799109  0.21164118  1
  Mo  Mo204  1  0.40349529  0.20958454  0.19135920  1
  Mo  Mo205  1  0.49445898  0.69696403  0.30536570  1
  Mo  Mo206  1  0.59507359  0.39537536  0.79665408  1
  Mo  Mo207  1  0.30733867  0.49440937  0.89505140  1
  Mo  Mo208  1  0.00013477  -0.00402755  0.40526081  1
  Mo  Mo209  1  0.50840591  0.29528614  0.50161066  1
  Mo  Mo210  1  0.49428493  0.89533384  0.50238949  1
  Mo  Mo211  1  0.60496180  0.80232703  -0.01766035  1
  Mo  Mo212  1  0.89663088  0.90178653  0.69761687  1
  Mo  Mo213  1  -0.00372435  0.20326504  0.59637877  1
  Mo  Mo214  1  0.80021347  0.00144174  0.00189350  1
  Mo  Mo215  1  0.50608208  0.10576070  0.89641135  1
  Mo  Mo216  1  0.40639770  -0.00613746  -0.00481028  1
  Mo  Mo217  1  0.21184630  0.79746756  -0.01341664  1
  Mo  Mo218  1  0.79925403  0.40253470  0.21067658  1
  Mo  Mo219  1  0.61068889  0.59775110  0.40050553  1
  Mo  Mo220  1  -0.00133534  0.00408855  0.59546425  1
  Mo  Mo221  1  0.20071970  0.20149024  0.59841117  1
  Mo  Mo222  1  0.59443848  0.20578610  0.59849744  1
  Mo  Mo223  1  0.30125789  0.30172501  0.70901057  1
  Mo  Mo224  1  0.69992780  0.49264137  0.70587320  1
  Mo  Mo225  1  0.90152034  0.68967407  0.49907410  1
  Mo  Mo226  1  0.91258943  0.91389126  0.50176996  1
  Mo  Mo227  1  0.29784395  0.89651513  0.49611048  1
  Mo  Mo228  1  0.20001059  0.00850993  0.19901757  1
  Mo  Mo229  1  0.59666936  0.01619007  0.40423504  1
  Mo  Mo230  1  0.09538100  0.12509707  0.30870632  1
  Mo  Mo231  1  0.60712513  0.80275296  0.20604246  1
  Mo  Mo232  1  0.20907323  0.59647330  -0.00768168  1
  Mo  Mo233  1  0.90409657  0.10702783  0.69483250  1
  Mo  Mo234  1  0.59603781  0.39214611  0.20318263  1
  Mo  Mo235  1  0.09234805  0.49246084  0.50008492  1
  Mo  Mo236  1  0.19091397  0.39651726  0.40183959  1
  Mo  Mo237  1  0.09708671  0.89665829  0.49775683  1
  Mo  Mo238  1  0.09472925  0.71135272  0.69681912  1
  Mo  Mo239  1  0.69050801  0.29638380  0.69571467  1
  Mo  Mo240  1  0.78915135  0.40295648  0.01392439  1
  Mo  Mo241  1  0.09739502  0.88225384  0.29901261  1
  Mo  Mo242  1  0.09296434  0.50044038  0.30323339  1
  Mo  Mo243  1  0.30218674  0.89097178  0.89840931  1
  Mo  Mo244  1  0.50699168  0.49494300  0.51302652  1
  Mo  Mo245  1  0.89483663  0.90159456  0.90395891  1
  Mo  Mo246  1  0.60397788  0.20355296  -0.00294255  1
  Mo  Mo247  1  0.30366542  0.89796837  0.69413926  1
  Mo  Mo248  1  0.49486064  0.10485819  0.70281376  1
  Mo  Mo249  1  0.19735255  0.20169585  -0.00623092  1
