# generated using pymatgen
data_HfZrTaTiMo
_symmetry_space_group_name_H-M   'P 1'
_cell_length_a   16.88698566
_cell_length_b   16.87147175
_cell_length_c   16.88840543
_cell_angle_alpha   89.93400496
_cell_angle_beta   90.03604519
_cell_angle_gamma   89.97456250
_symmetry_Int_Tables_number   1
_chemical_formula_structural   HfZrTaTiMo
_chemical_formula_sum   'Hf50 Zr50 Ta50 Ti50 Mo50'
_cell_volume   4811.64228772
_cell_formula_units_Z   50
loop_
 _symmetry_equiv_pos_site_id
 _symmetry_equiv_pos_as_xyz
  1  'x, y, z'
loop_
 _atom_site_type_symbol
 _atom_site_label
 _atom_site_symmetry_multiplicity
 _atom_site_fract_x
 _atom_site_fract_y
 _atom_site_fract_z
 _atom_site_occupancy
  Hf  Hf0  1  0.69248193  0.69895487  0.30461767  1
  Hf  Hf1  1  0.69809972  0.30365933  0.30413686  1
  Hf  Hf2  1  0.10842328  0.70821354  0.69453770  1
  Hf  Hf3  1  0.79203057  0.39443819  0.00107870  1
  Hf  Hf4  1  0.90656138  0.90355982  0.30156318  1
  Hf  Hf5  1  0.79692008  0.60951434  0.19565897  1
  Hf  Hf6  1  0.91003515  0.30057051  0.50756497  1
  Hf  Hf7  1  0.90199363  0.50350808  0.09578345  1
  Hf  Hf8  1  0.29013683  0.89840172  0.69456968  1
  Hf  Hf9  1  0.01107786  0.60723150  0.20958764  1
  Hf  Hf10  1  0.00989301  0.41661630  0.40356306  1
  Hf  Hf11  1  0.28071534  0.09775431  0.30383584  1
  Hf  Hf12  1  0.38545210  0.19804611  0.40851126  1
  Hf  Hf13  1  0.91189125  0.30051426  0.09802033  1
  Hf  Hf14  1  0.49249539  0.30724954  0.29899023  1
  Hf  Hf15  1  0.49929592  0.09868360  0.50489283  1
  Hf  Hf16  1  0.20258309  0.80183268  0.81066921  1
  Hf  Hf17  1  0.00439853  0.39971395  0.79668975  1
  Hf  Hf18  1  0.89489086  0.70819160  0.30588965  1
  Hf  Hf19  1  0.79586416  -0.00012031  0.59931216  1
  Hf  Hf20  1  0.20420808  0.39927399  0.60143817  1
  Hf  Hf21  1  0.60425461  0.00258972  0.79670055  1
  Hf  Hf22  1  0.59742999  0.39572540  -0.00317611  1
  Hf  Hf23  1  0.31064615  0.49578647  0.49130410  1
  Hf  Hf24  1  0.39185247  0.60896737  0.19435374  1
  Hf  Hf25  1  0.50692958  0.69306563  0.49473429  1
  Hf  Hf26  1  0.80366459  0.20026024  0.19944741  1
  Hf  Hf27  1  0.39702448  0.79821926  0.59522317  1
  Hf  Hf28  1  0.60276485  -0.01149309  0.00153539  1
  Hf  Hf29  1  0.71284167  0.89390404  0.30710757  1
  Hf  Hf30  1  0.29269023  0.88771371  0.11651613  1
  Hf  Hf31  1  0.49914501  0.09981704  0.09743554  1
  Hf  Hf32  1  0.00546282  0.19570124  0.80141844  1
  Hf  Hf33  1  0.18227520  0.19265871  0.18508712  1
  Hf  Hf34  1  0.49993819  0.69343635  0.70117693  1
  Hf  Hf35  1  0.69603184  0.09839603  0.09573243  1
  Hf  Hf36  1  0.39690057  0.00005037  0.80188147  1
  Hf  Hf37  1  0.39770110  0.60697259  0.38790303  1
  Hf  Hf38  1  0.60818121  0.80364767  0.59658752  1
  Hf  Hf39  1  0.00684127  0.60380321  0.80212591  1
  Hf  Hf40  1  0.60046475  0.80162711  0.80288835  1
  Hf  Hf41  1  0.69770303  0.50753919  0.89151887  1
  Hf  Hf42  1  0.38879715  0.20410811  0.60294842  1
  Hf  Hf43  1  0.50108319  0.69190657  0.89736731  1
  Hf  Hf44  1  0.40262445  -0.00081870  0.20649273  1
  Hf  Hf45  1  0.00927568  0.59439705  0.59280090  1
  Hf  Hf46  1  0.39393438  0.80210626  0.80255878  1
  Hf  Hf47  1  0.00531282  0.80431328  0.19538182  1
  Hf  Hf48  1  0.39389118  0.00069069  0.59558498  1
  Hf  Hf49  1  0.39299937  0.39887184  0.62454716  1
  Zr  Zr50  1  -0.00130546  0.18580298  0.19626620  1
  Zr  Zr51  1  0.20585596  0.59370560  0.59794900  1
  Zr  Zr52  1  0.18908886  -0.01163310  -0.00142631  1
  Zr  Zr53  1  0.81033826  0.00346064  0.19041098  1
  Zr  Zr54  1  0.69435360  0.09697681  0.29695720  1
  Zr  Zr55  1  0.80076932  0.19609349  0.00271835  1
  Zr  Zr56  1  0.89599615  0.50483302  0.69951645  1
  Zr  Zr57  1  0.80116625  0.39739996  0.20082309  1
  Zr  Zr58  1  0.90919356  0.29730500  0.90344944  1
  Zr  Zr59  1  0.29394095  0.09506212  0.10067993  1
  Zr  Zr60  1  0.60978406  0.80518995  0.19032894  1
  Zr  Zr61  1  0.90404633  0.09625957  0.70164800  1
  Zr  Zr62  1  0.50118271  0.89278961  0.30503273  1
  Zr  Zr63  1  0.69130357  0.28870653  0.70217273  1
  Zr  Zr64  1  0.80109599  0.39592604  0.60385864  1
  Zr  Zr65  1  0.69466043  0.50280745  0.50225899  1
  Zr  Zr66  1  0.38660305  0.79552740  -0.00395216  1
  Zr  Zr67  1  0.50814370  0.50622952  0.28947906  1
  Zr  Zr68  1  0.09745386  0.29202938  0.50764924  1
  Zr  Zr69  1  0.00897958  0.39953195  0.20672546  1
  Zr  Zr70  1  0.29744680  0.71754964  0.29137187  1
  Zr  Zr71  1  0.09882574  0.27577474  0.31802192  1
  Zr  Zr72  1  0.71246597  0.69527995  0.90158008  1
  Zr  Zr73  1  0.21377572  0.39644888  0.79201576  1
  Zr  Zr74  1  0.00846368  0.60931555  -0.00386360  1
  Zr  Zr75  1  0.19140867  0.39849511  0.20084104  1
  Zr  Zr76  1  0.80045628  0.39167056  0.80004807  1
  Zr  Zr77  1  0.59565355  0.20061746  0.40280633  1
  Zr  Zr78  1  0.39369094  -0.00871907  -0.00754350  1
  Zr  Zr79  1  0.69478114  0.50395324  0.30191814  1
  Zr  Zr80  1  0.80342285  0.19773536  0.40744108  1
  Zr  Zr81  1  -0.00241888  -0.00031687  0.59446409  1
  Zr  Zr82  1  0.11082907  0.50297742  0.09354375  1
  Zr  Zr83  1  0.29810426  0.29744830  0.29743869  1
  Zr  Zr84  1  0.69272970  0.51092857  0.10005763  1
  Zr  Zr85  1  0.80632762  0.00731244  0.41413319  1
  Zr  Zr86  1  0.71247137  0.89635488  0.70796088  1
  Zr  Zr87  1  0.49860778  0.50243656  0.49910866  1
  Zr  Zr88  1  0.39360289  0.20762336  0.79705975  1
  Zr  Zr89  1  0.38958050  0.20362081  -0.00988386  1
  Zr  Zr90  1  0.49047568  0.31222480  0.49927498  1
  Zr  Zr91  1  0.89663080  0.70422320  0.08724735  1
  Zr  Zr92  1  0.70704123  0.68928058  0.70999570  1
  Zr  Zr93  1  0.60727499  -0.00423621  0.41393319  1
  Zr  Zr94  1  0.19953786  0.40352716  0.40079274  1
  Zr  Zr95  1  0.49963247  0.70211171  0.10661289  1
  Zr  Zr96  1  0.89926845  0.70318135  0.69993399  1
  Zr  Zr97  1  0.48641359  0.30458395  0.09832766  1
  Zr  Zr98  1  0.29246574  0.90363663  0.30685785  1
  Zr  Zr99  1  0.80024478  0.19126016  0.79896890  1
  Ta  Ta100  1  0.09939419  0.09991045  0.50068226  1
  Ta  Ta101  1  0.50280545  0.10277742  0.70253845  1
  Ta  Ta102  1  0.79915060  0.60332781  0.40688961  1
  Ta  Ta103  1  0.90321248  0.89182272  0.49650714  1
  Ta  Ta104  1  0.69639381  0.09837075  0.89769816  1
  Ta  Ta105  1  0.80562361  -0.00083234  -0.00473822  1
  Ta  Ta106  1  0.21218232  0.60895507  -0.00351561  1
  Ta  Ta107  1  0.59688315  0.20401845  0.19579030  1
  Ta  Ta108  1  0.80005156  0.79735687  0.59013677  1
  Ta  Ta109  1  0.30086898  0.49849807  0.09360450  1
  Ta  Ta110  1  0.90282437  0.50462686  0.49901193  1
  Ta  Ta111  1  0.09943406  0.29226794  0.69540807  1
  Ta  Ta112  1  0.19753240  -0.00109808  0.59363582  1
  Ta  Ta113  1  0.29009982  0.09628834  0.69974956  1
  Ta  Ta114  1  0.11274599  0.50164608  0.89673276  1
  Ta  Ta115  1  0.49367611  0.50019207  0.90063902  1
  Ta  Ta116  1  0.29269683  0.70466271  0.49552268  1
  Ta  Ta117  1  0.49944336  0.90345667  0.69636993  1
  Ta  Ta118  1  0.10097538  0.70275992  0.49583571  1
  Ta  Ta119  1  0.69376854  0.50393380  0.70628359  1
  Ta  Ta120  1  0.10915659  0.30196945  0.90240682  1
  Ta  Ta121  1  0.90045151  0.50786592  0.30786955  1
  Ta  Ta122  1  0.91050817  0.90603203  0.08850893  1
  Ta  Ta123  1  0.69569506  0.30234378  0.50698646  1
  Ta  Ta124  1  0.39444801  0.60122845  -0.00011177  1
  Ta  Ta125  1  0.20037041  0.19899458  0.80120915  1
  Ta  Ta126  1  0.10601149  0.09742615  0.69772379  1
  Ta  Ta127  1  0.18987612  0.60062065  0.39351478  1
  Ta  Ta128  1  0.60503264  0.00122174  0.60519690  1
  Ta  Ta129  1  0.59197284  0.40045251  0.61300671  1
  Ta  Ta130  1  0.90428480  0.70036004  0.49591065  1
  Ta  Ta131  1  0.00696558  0.80088205  0.39626916  1
  Ta  Ta132  1  0.29164833  0.31041417  0.08874957  1
  Ta  Ta133  1  0.09993558  0.89562742  0.49942367  1
  Ta  Ta134  1  0.49543604  0.50231906  0.09490567  1
  Ta  Ta135  1  0.50770490  0.10468756  0.89870501  1
  Ta  Ta136  1  0.60937795  0.80228934  0.00092365  1
  Ta  Ta137  1  0.59772406  0.60399639  0.00210275  1
  Ta  Ta138  1  0.71093752  0.89893308  0.89925575  1
  Ta  Ta139  1  0.01083715  0.81029021  -0.00956091  1
  Ta  Ta140  1  0.90316787  0.89338640  0.70391045  1
  Ta  Ta141  1  0.80478888  0.40289199  0.40459446  1
  Ta  Ta142  1  0.01148277  0.40298094  -0.00540276  1
  Ta  Ta143  1  0.58745284  0.39623934  0.79748961  1
  Ta  Ta144  1  0.89725618  0.50734568  0.90366367  1
  Ta  Ta145  1  0.00579976  -0.00862352  0.80757773  1
  Ta  Ta146  1  0.09854673  0.89903060  0.69691512  1
  Ta  Ta147  1  0.30217208  0.49863675  0.90232532  1
  Ta  Ta148  1  0.00288533  0.80360200  0.80756465  1
  Ta  Ta149  1  0.90506249  0.30131537  0.31101919  1
  Ti  Ti150  1  0.38694047  0.60012950  0.80278092  1
  Ti  Ti151  1  0.10652635  0.50010981  0.70221110  1
  Ti  Ti152  1  0.91134173  0.09132653  0.30443043  1
  Ti  Ti153  1  0.50216242  0.89927077  0.89868362  1
  Ti  Ti154  1  0.10080122  0.09687928  0.89999216  1
  Ti  Ti155  1  0.29599762  0.50077341  0.29498483  1
  Ti  Ti156  1  0.40384276  0.79850364  0.40128332  1
  Ti  Ti157  1  0.60320521  0.59856823  0.60317298  1
  Ti  Ti158  1  0.11111458  0.70699946  0.09588872  1
  Ti  Ti159  1  0.01722124  0.00153310  0.18969957  1
  Ti  Ti160  1  0.10980670  0.69788046  0.89880251  1
  Ti  Ti161  1  0.39372732  0.59958511  0.60379825  1
  Ti  Ti162  1  0.89458571  0.70199463  0.89719905  1
  Ti  Ti163  1  0.79702692  0.60344661  0.59354491  1
  Ti  Ti164  1  0.01267233  0.19205421  0.00521648  1
  Ti  Ti165  1  0.69028373  0.29042116  0.89431871  1
  Ti  Ti166  1  0.39526157  0.19650829  0.19938944  1
  Ti  Ti167  1  0.29154275  0.09789033  0.89598626  1
  Ti  Ti168  1  0.69674775  0.11447635  0.51787523  1
  Ti  Ti169  1  0.59954640  0.40210034  0.40498493  1
  Ti  Ti170  1  0.50136453  0.89995876  0.50215831  1
  Ti  Ti171  1  0.20011876  0.80089864  -0.00435867  1
  Ti  Ti172  1  0.49647687  0.30106151  0.89759367  1
  Ti  Ti173  1  0.80245528  0.80877420  -0.00096796  1
  Ti  Ti174  1  0.17818654  0.80649291  0.20684494  1
  Ti  Ti175  1  0.20732838  0.19621154  0.59607807  1
  Ti  Ti176  1  0.58938520  0.20363075  0.60921650  1
  Ti  Ti177  1  0.19943953  0.60708947  0.20105779  1
  Ti  Ti178  1  0.18899338  0.79988650  0.39692480  1
  Ti  Ti179  1  0.19454725  -0.00362083  0.80204076  1
  Ti  Ti180  1  0.60273149  0.39189555  0.18801445  1
  Ti  Ti181  1  -0.00721101  0.18072017  0.40922060  1
  Ti  Ti182  1  0.80785445  -0.00142329  0.80700013  1
  Ti  Ti183  1  0.39688891  0.39613517  0.80154412  1
  Ti  Ti184  1  0.39223349  0.40668105  0.19591259  1
  Ti  Ti185  1  0.49280392  0.89425524  0.10155549  1
  Ti  Ti186  1  0.50050419  0.10021869  0.30065173  1
  Ti  Ti187  1  0.60900997  0.79823543  0.41102442  1
  Ti  Ti188  1  0.79817849  0.80619275  0.18371406  1
  Ti  Ti189  1  0.39505534  0.00153755  0.40571045  1
  Ti  Ti190  1  0.18548721  -0.00009383  0.40286315  1
  Ti  Ti191  1  0.49888691  0.50788771  0.71138492  1
  Ti  Ti192  1  0.19674008  0.20177075  -0.00462149  1
  Ti  Ti193  1  0.80844103  0.19889621  0.60495644  1
  Ti  Ti194  1  0.00071835  0.80039022  0.59617389  1
  Ti  Ti195  1  0.60112593  -0.00641399  0.19611455  1
  Ti  Ti196  1  0.59891156  0.20529362  0.00024535  1
  Ti  Ti197  1  0.29038473  0.89461770  0.49500774  1
  Ti  Ti198  1  0.29485295  0.69782905  0.69828239  1
  Ti  Ti199  1  0.90790328  0.09193612  0.90788757  1
  Mo  Mo200  1  0.20387859  0.40256852  -0.00661841  1
  Mo  Mo201  1  0.80446368  0.79718218  0.40868571  1
  Mo  Mo202  1  0.40739815  0.80427550  0.20548759  1
  Mo  Mo203  1  0.49907181  0.29937244  0.70664102  1
  Mo  Mo204  1  0.69566272  0.10063619  0.69740036  1
  Mo  Mo205  1  0.10032032  0.50581871  0.50008815  1
  Mo  Mo206  1  0.09853742  0.89685478  0.09771744  1
  Mo  Mo207  1  0.91862637  0.29640550  0.69069044  1
  Mo  Mo208  1  0.09829908  0.09402535  0.08490415  1
  Mo  Mo209  1  0.20385976  0.60058835  0.80321287  1
  Mo  Mo210  1  0.09350123  0.08827965  0.31164620  1
  Mo  Mo211  1  0.00353429  0.19549357  0.60588616  1
  Mo  Mo212  1  0.09839522  0.89812911  0.89596622  1
  Mo  Mo213  1  -0.00107773  0.60658208  0.40179693  1
  Mo  Mo214  1  0.29416238  0.90134368  0.89482805  1
  Mo  Mo215  1  0.39796414  0.40580126  -0.00640020  1
  Mo  Mo216  1  0.10084561  0.29601315  0.08109482  1
  Mo  Mo217  1  0.29527093  0.30308432  0.90130936  1
  Mo  Mo218  1  0.20016967  0.80242795  0.59000133  1
  Mo  Mo219  1  0.10174673  0.70634867  0.30348786  1
  Mo  Mo220  1  0.09816030  0.90495279  0.30222977  1
  Mo  Mo221  1  0.28923150  0.09229978  0.50063967  1
  Mo  Mo222  1  0.18326911  -0.00319771  0.20249266  1
  Mo  Mo223  1  0.39642442  0.40510718  0.38268164  1
  Mo  Mo224  1  0.59420449  0.19815657  0.80756680  1
  Mo  Mo225  1  0.00708566  0.40322867  0.60501770  1
  Mo  Mo226  1  0.30771072  0.51115901  0.70827507  1
  Mo  Mo227  1  0.59178374  0.59163864  0.80223970  1
  Mo  Mo228  1  0.80067357  0.60047828  -0.00343619  1
  Mo  Mo229  1  0.80913081  0.59765737  0.80012896  1
  Mo  Mo230  1  0.50567755  0.70502470  0.30424833  1
  Mo  Mo231  1  0.00290556  -0.00297277  0.40327934  1
  Mo  Mo232  1  0.59631696  0.60576050  0.19441606  1
  Mo  Mo233  1  0.90136227  0.89912011  0.89767860  1
  Mo  Mo234  1  0.59911254  0.60660349  0.39752295  1
  Mo  Mo235  1  0.70515264  0.89289044  0.50246185  1
  Mo  Mo236  1  0.29600741  0.30075157  0.50238688  1
  Mo  Mo237  1  0.29308270  0.28954933  0.70114020  1
  Mo  Mo238  1  0.81347531  0.80193243  0.80723340  1
  Mo  Mo239  1  0.28731077  0.70083561  0.10117421  1
  Mo  Mo240  1  0.70093013  0.70585468  0.09183055  1
  Mo  Mo241  1  0.19977780  0.18943577  0.41394996  1
  Mo  Mo242  1  0.29976941  0.69512209  0.90042165  1
  Mo  Mo243  1  0.69112655  0.29460955  0.10177998  1
  Mo  Mo244  1  0.90270831  0.10078233  0.50555996  1
  Mo  Mo245  1  -0.00157184  0.00171280  -0.00427971  1
  Mo  Mo246  1  0.10089623  0.51538136  0.30027161  1
  Mo  Mo247  1  0.90892061  0.09309831  0.09073477  1
  Mo  Mo248  1  0.70397704  0.69613978  0.50098136  1
  Mo  Mo249  1  0.71388087  0.90048275  0.09152937  1
