# generated using pymatgen
data_HfZrTaTiMo
_symmetry_space_group_name_H-M   'P 1'
_cell_length_a   16.89084992
_cell_length_b   16.88764739
_cell_length_c   16.88237844
_cell_angle_alpha   90.03219223
_cell_angle_beta   89.98989489
_cell_angle_gamma   89.98955604
_symmetry_Int_Tables_number   1
_chemical_formula_structural   HfZrTaTiMo
_chemical_formula_sum   'Hf50 Zr50 Ta50 Ti50 Mo50'
_cell_volume   4815.64211948
_cell_formula_units_Z   50
loop_
 _symmetry_equiv_pos_site_id
 _symmetry_equiv_pos_as_xyz
  1  'x, y, z'
loop_
 _atom_site_type_symbol
 _atom_site_label
 _atom_site_symmetry_multiplicity
 _atom_site_fract_x
 _atom_site_fract_y
 _atom_site_fract_z
 _atom_site_occupancy
  Hf  Hf0  1  0.88132920  0.30529981  0.48805526  1
  Hf  Hf1  1  0.90044862  0.88528578  0.28945732  1
  Hf  Hf2  1  0.59834284  -0.00246670  0.59208905  1
  Hf  Hf3  1  0.00017589  -0.00454020  0.60484121  1
  Hf  Hf4  1  0.28800243  0.09821492  0.69465671  1
  Hf  Hf5  1  0.09276545  0.69288461  0.70483704  1
  Hf  Hf6  1  0.60757189  0.39456618  0.00932393  1
  Hf  Hf7  1  0.00523394  0.19908207  0.79689795  1
  Hf  Hf8  1  0.29699025  0.30522998  0.50220120  1
  Hf  Hf9  1  0.50284869  0.50175786  0.49990943  1
  Hf  Hf10  1  0.79674367  0.80256462  0.00123172  1
  Hf  Hf11  1  0.50184942  0.70276367  0.10709179  1
  Hf  Hf12  1  0.20149968  0.61060370  0.20205214  1
  Hf  Hf13  1  0.71005121  0.70230530  0.50247885  1
  Hf  Hf14  1  0.39695519  -0.00301161  0.79204895  1
  Hf  Hf15  1  0.30592710  0.50298566  0.30073784  1
  Hf  Hf16  1  0.89212379  0.88754482  0.49725567  1
  Hf  Hf17  1  0.50629477  0.90429080  0.90017267  1
  Hf  Hf18  1  0.70340617  0.49210839  0.49610805  1
  Hf  Hf19  1  0.19674770  0.80591045  0.19778237  1
  Hf  Hf20  1  0.39451104  0.80198522  0.59840142  1
  Hf  Hf21  1  0.59866003  -0.00167418  0.40252807  1
  Hf  Hf22  1  0.49990412  0.29949550  0.90093263  1
  Hf  Hf23  1  0.39376925  0.20765205  0.78940667  1
  Hf  Hf24  1  0.69903314  0.10219281  0.69716080  1
  Hf  Hf25  1  0.19480969  0.79921413  0.59839321  1
  Hf  Hf26  1  0.30623823  0.89896905  0.29763882  1
  Hf  Hf27  1  0.50138647  0.50240909  0.90580295  1
  Hf  Hf28  1  0.00455337  0.78961687  0.58753381  1
  Hf  Hf29  1  0.80327970  -0.00226716  0.79931943  1
  Hf  Hf30  1  0.79646573  -0.00247935  0.39334554  1
  Hf  Hf31  1  0.19791283  0.40123023  -0.00216126  1
  Hf  Hf32  1  0.89632925  0.10224024  0.49333819  1
  Hf  Hf33  1  0.61429098  0.20182236  0.00560721  1
  Hf  Hf34  1  0.90414515  0.50297168  0.11151892  1
  Hf  Hf35  1  0.90510839  0.30353711  0.89908021  1
  Hf  Hf36  1  0.50187673  0.49570027  0.69976583  1
  Hf  Hf37  1  0.09296176  0.70415050  0.90109782  1
  Hf  Hf38  1  0.90430241  0.69326472  0.70321886  1
  Hf  Hf39  1  0.19803528  0.20909480  -0.00403607  1
  Hf  Hf40  1  0.19905832  0.59622059  0.80900971  1
  Hf  Hf41  1  0.29109340  0.09602061  0.50287452  1
  Hf  Hf42  1  0.90842654  0.10348376  0.10076764  1
  Hf  Hf43  1  0.60630759  0.61211696  0.39225214  1
  Hf  Hf44  1  0.90084947  0.30958292  0.70287854  1
  Hf  Hf45  1  0.29812752  0.90379132  0.49316638  1
  Hf  Hf46  1  0.90638319  0.70602706  0.89331806  1
  Hf  Hf47  1  0.39882424  0.39309249  0.60582148  1
  Hf  Hf48  1  0.39345992  0.00506142  0.00710749  1
  Hf  Hf49  1  0.09695967  0.09785179  0.29228385  1
  Zr  Zr50  1  0.40045048  0.40413595  0.00455115  1
  Zr  Zr51  1  0.29009960  0.10092294  0.89270698  1
  Zr  Zr52  1  0.39142108  0.80951582  0.00322448  1
  Zr  Zr53  1  0.50558597  0.09730390  0.90086843  1
  Zr  Zr54  1  0.61126296  0.80413094  0.79319261  1
  Zr  Zr55  1  -0.00360256  0.20109534  0.60337152  1
  Zr  Zr56  1  0.19596433  0.79532460  0.39588219  1
  Zr  Zr57  1  0.29098335  0.50195436  0.49383558  1
  Zr  Zr58  1  0.50963534  0.49756693  0.29672537  1
  Zr  Zr59  1  0.18723774  0.21127164  0.19819145  1
  Zr  Zr60  1  0.49563155  0.70143801  0.90657541  1
  Zr  Zr61  1  0.79499380  0.20478488  0.00533721  1
  Zr  Zr62  1  0.19459232  0.80012878  0.00480117  1
  Zr  Zr63  1  0.00595905  -0.00736177  0.19859046  1
  Zr  Zr64  1  0.90482031  0.70273274  0.10817597  1
  Zr  Zr65  1  0.60922271  0.59793901  0.79614893  1
  Zr  Zr66  1  0.20141626  0.20530311  0.39190536  1
  Zr  Zr67  1  0.70025889  0.70035423  0.90273084  1
  Zr  Zr68  1  0.19802169  0.40382076  0.19927649  1
  Zr  Zr69  1  0.89688487  0.87671188  0.70595818  1
  Zr  Zr70  1  0.09583551  0.51531670  0.31509144  1
  Zr  Zr71  1  0.10381406  0.31436320  0.50358222  1
  Zr  Zr72  1  0.38592176  0.39393310  0.80075064  1
  Zr  Zr73  1  0.28603975  0.90542801  0.89850929  1
  Zr  Zr74  1  0.60428397  0.80216641  0.60219069  1
  Zr  Zr75  1  0.80074257  -0.00099351  0.60556810  1
  Zr  Zr76  1  0.49807735  0.29037554  0.11022310  1
  Zr  Zr77  1  0.50665515  0.89741602  0.10805621  1
  Zr  Zr78  1  0.79911280  0.39601086  0.00475438  1
  Zr  Zr79  1  -0.00624079  0.41018534  0.59531126  1
  Zr  Zr80  1  0.49514794  0.70012632  0.49573033  1
  Zr  Zr81  1  0.00163277  0.21301347  0.38842589  1
  Zr  Zr82  1  0.10993438  0.09282016  0.89395227  1
  Zr  Zr83  1  0.09172996  0.49989028  0.70269040  1
  Zr  Zr84  1  0.39748206  0.00409217  0.19945471  1
  Zr  Zr85  1  0.69636145  0.50367718  0.11659410  1
  Zr  Zr86  1  0.80042969  0.00017973  -0.00095146  1
  Zr  Zr87  1  0.79521957  0.00321814  0.19742744  1
  Zr  Zr88  1  0.49462109  0.69669375  0.69998579  1
  Zr  Zr89  1  0.10561161  0.09467199  0.50187166  1
  Zr  Zr90  1  0.40601905  0.19355886  0.40543924  1
  Zr  Zr91  1  0.30752946  0.29963323  0.10431957  1
  Zr  Zr92  1  0.40629272  0.00110162  0.59307241  1
  Zr  Zr93  1  0.79882538  0.59548036  0.00158040  1
  Zr  Zr94  1  0.80299562  0.58795480  0.79874159  1
  Zr  Zr95  1  0.60416502  0.20903596  0.79504890  1
  Zr  Zr96  1  0.00006504  -0.00369416  0.79692647  1
  Zr  Zr97  1  0.70140692  0.49443594  0.30291773  1
  Zr  Zr98  1  0.39048108  0.59898339  0.80187781  1
  Zr  Zr99  1  0.00785781  0.38728673  0.20658070  1
  Ta  Ta100  1  0.29067883  0.69507316  0.69729830  1
  Ta  Ta101  1  0.00030236  0.79562659  0.39875692  1
  Ta  Ta102  1  0.38975517  0.59756097  0.60070311  1
  Ta  Ta103  1  0.90435115  0.69623865  0.29639824  1
  Ta  Ta104  1  0.70280424  0.09940090  0.89627723  1
  Ta  Ta105  1  0.89995187  0.10777628  0.29891018  1
  Ta  Ta106  1  0.30836985  0.69936745  0.10219448  1
  Ta  Ta107  1  0.49815979  0.89417409  0.30100303  1
  Ta  Ta108  1  0.80052036  0.20454373  0.20367800  1
  Ta  Ta109  1  0.60485665  0.00375192  0.20558098  1
  Ta  Ta110  1  0.50488287  0.10268097  0.10527909  1
  Ta  Ta111  1  0.80479397  0.38722059  0.20675164  1
  Ta  Ta112  1  0.09912759  0.50819621  0.09851437  1
  Ta  Ta113  1  0.80602174  0.59520534  0.59987766  1
  Ta  Ta114  1  0.09845835  0.67640769  0.48163269  1
  Ta  Ta115  1  0.70626121  0.89309753  0.49942510  1
  Ta  Ta116  1  0.41194418  0.00286927  0.40131561  1
  Ta  Ta117  1  0.31028693  0.30687292  0.29981820  1
  Ta  Ta118  1  0.00429285  0.40005814  0.00188979  1
  Ta  Ta119  1  0.90304705  0.10437113  0.90148240  1
  Ta  Ta120  1  0.50443577  0.29522207  0.30101255  1
  Ta  Ta121  1  0.90418075  0.89118348  0.09809617  1
  Ta  Ta122  1  0.40795158  0.39552852  0.39919399  1
  Ta  Ta123  1  0.30459568  0.51303490  0.09806813  1
  Ta  Ta124  1  0.70059825  0.10844977  0.30458219  1
  Ta  Ta125  1  0.70214150  0.10914806  0.49686820  1
  Ta  Ta126  1  0.79894873  0.40243480  0.80272729  1
  Ta  Ta127  1  0.89783881  0.50065575  0.30049465  1
  Ta  Ta128  1  -0.00127787  -0.00939038  0.39496935  1
  Ta  Ta129  1  0.40525034  0.20331880  0.60323673  1
  Ta  Ta130  1  0.01046270  0.20422243  0.00021166  1
  Ta  Ta131  1  0.28494612  0.49534216  0.69523940  1
  Ta  Ta132  1  0.60280998  0.39131237  0.60137494  1
  Ta  Ta133  1  0.00480555  -0.00460053  -0.00436199  1
  Ta  Ta134  1  0.40741695  0.60054282  0.19931776  1
  Ta  Ta135  1  0.60152635  0.80421774  0.39906899  1
  Ta  Ta136  1  0.79592528  0.20393736  0.60202000  1
  Ta  Ta137  1  0.08677731  0.69950962  0.29555018  1
  Ta  Ta138  1  0.50387115  0.10289355  0.69498740  1
  Ta  Ta139  1  0.80156752  0.20052783  0.79866103  1
  Ta  Ta140  1  0.70463387  0.29582564  0.31312427  1
  Ta  Ta141  1  0.69853653  0.89407608  0.10829275  1
  Ta  Ta142  1  0.80500440  0.60317087  0.39913256  1
  Ta  Ta143  1  0.59720054  0.59674110  0.01317034  1
  Ta  Ta144  1  0.50842328  0.10400264  0.29860403  1
  Ta  Ta145  1  0.49894728  0.90105786  0.70039912  1
  Ta  Ta146  1  0.10905201  0.09906795  0.69757153  1
  Ta  Ta147  1  -0.00106920  0.59279553  -0.00303978  1
  Ta  Ta148  1  0.61144424  0.59852329  0.60379044  1
  Ta  Ta149  1  0.38688099  0.80427383  0.79421852  1
  Ti  Ti150  1  0.79945750  0.78988730  0.39139470  1
  Ti  Ti151  1  0.59839048  0.20671974  0.59536238  1
  Ti  Ti152  1  0.19859778  0.21258002  0.60791221  1
  Ti  Ti153  1  0.10063036  0.90371497  0.49505304  1
  Ti  Ti154  1  0.19193524  -0.00648020  0.38543701  1
  Ti  Ti155  1  0.60497363  -0.00283129  0.79073268  1
  Ti  Ti156  1  0.39363911  0.19577994  -0.00223073  1
  Ti  Ti157  1  0.09115058  0.89435975  0.09792158  1
  Ti  Ti158  1  0.19700363  0.80238253  0.79488108  1
  Ti  Ti159  1  0.61103883  0.19726472  0.20076107  1
  Ti  Ti160  1  0.29532895  0.09567386  0.29800066  1
  Ti  Ti161  1  0.69574698  0.49453790  0.90327851  1
  Ti  Ti162  1  0.19531530  -0.00629657  0.01541197  1
  Ti  Ti163  1  0.91060553  0.89037186  0.90166234  1
  Ti  Ti164  1  0.79337090  0.60930851  0.21120828  1
  Ti  Ti165  1  0.89468265  0.49990356  0.48986163  1
  Ti  Ti166  1  0.60113782  0.20140463  0.40810550  1
  Ti  Ti167  1  0.29886153  0.69579012  0.49270188  1
  Ti  Ti168  1  0.19137520  -0.02291358  0.77922619  1
  Ti  Ti169  1  0.39756866  0.19310117  0.20795349  1
  Ti  Ti170  1  0.08783577  0.69742783  0.10097529  1
  Ti  Ti171  1  0.29971650  0.69910138  0.90538286  1
  Ti  Ti172  1  0.79760707  0.40327795  0.60202482  1
  Ti  Ti173  1  0.69833235  0.90418877  0.89977415  1
  Ti  Ti174  1  0.10229477  0.30854053  0.88913497  1
  Ti  Ti175  1  0.60725731  0.39436963  0.79781596  1
  Ti  Ti176  1  0.69255425  0.70636410  0.11726413  1
  Ti  Ti177  1  0.19585282  0.40174529  0.39389962  1
  Ti  Ti178  1  0.09112945  0.49707963  0.89728096  1
  Ti  Ti179  1  0.60049218  0.38638945  0.40662871  1
  Ti  Ti180  1  0.10762451  0.31306813  0.70798295  1
  Ti  Ti181  1  0.61172856  0.00775647  0.01234442  1
  Ti  Ti182  1  0.50160090  0.29832442  0.50224625  1
  Ti  Ti183  1  0.40302066  0.60299731  0.39546729  1
  Ti  Ti184  1  0.70173574  0.49481577  0.69597367  1
  Ti  Ti185  1  0.31498453  0.70718385  0.29915837  1
  Ti  Ti186  1  -0.00329410  0.40363381  0.39720982  1
  Ti  Ti187  1  0.90939211  0.29384209  0.10439134  1
  Ti  Ti188  1  0.19786817  0.60183994  0.00292849  1
  Ti  Ti189  1  0.29848812  0.50207015  0.90743734  1
  Ti  Ti190  1  -0.00813632  0.59450944  0.58522123  1
  Ti  Ti191  1  0.50055312  0.71164070  0.29378916  1
  Ti  Ti192  1  0.28996463  0.10018766  0.10690080  1
  Ti  Ti193  1  0.19414279  0.59688377  0.59213861  1
  Ti  Ti194  1  0.60544735  0.80103833  0.00370747  1
  Ti  Ti195  1  0.09830625  0.10186832  0.10005198  1
  Ti  Ti196  1  0.40807817  0.40698779  0.19996010  1
  Ti  Ti197  1  0.70390186  0.30337886  0.69669795  1
  Ti  Ti198  1  0.60357505  0.38752381  0.20144384  1
  Ti  Ti199  1  0.69781838  0.88836390  0.29453645  1
  Mo  Mo200  1  0.70421948  0.30398053  0.88729816  1
  Mo  Mo201  1  0.00099628  0.59846978  0.19979212  1
  Mo  Mo202  1  0.09801548  0.89187393  0.69540326  1
  Mo  Mo203  1  0.01359938  0.80497691  0.80364716  1
  Mo  Mo204  1  0.79564391  0.19852328  0.39809174  1
  Mo  Mo205  1  0.28937624  0.90401213  0.10586290  1
  Mo  Mo206  1  0.70558263  0.70447544  0.30108239  1
  Mo  Mo207  1  0.89564054  0.49940892  0.69886300  1
  Mo  Mo208  1  -0.00207992  0.40234132  0.80634808  1
  Mo  Mo209  1  0.19913448  -0.00097041  0.19130080  1
  Mo  Mo210  1  -0.01626465  0.60063051  0.39986021  1
  Mo  Mo211  1  0.50158168  0.89615175  0.49266117  1
  Mo  Mo212  1  0.09773517  0.89837986  0.89997943  1
  Mo  Mo213  1  0.79565154  0.79790540  0.19936620  1
  Mo  Mo214  1  0.50814929  0.29885552  0.69443874  1
  Mo  Mo215  1  0.29610807  0.89263324  0.69690735  1
  Mo  Mo216  1  0.28497129  0.30200122  0.69753172  1
  Mo  Mo217  1  0.09951668  0.50576300  0.49666274  1
  Mo  Mo218  1  0.09570431  0.30495538  0.08997966  1
  Mo  Mo219  1  0.90950798  0.49465342  0.89885149  1
  Mo  Mo220  1  0.39720662  0.60120970  0.00569715  1
  Mo  Mo221  1  0.50751370  0.10950888  0.49994512  1
  Mo  Mo222  1  -0.00112435  0.80441252  0.00205545  1
  Mo  Mo223  1  0.59942750  0.61249831  0.20211177  1
  Mo  Mo224  1  0.10177079  0.30721374  0.30477635  1
  Mo  Mo225  1  0.19764659  0.21559929  0.79298140  1
  Mo  Mo226  1  0.79774797  0.79108570  0.60472703  1
  Mo  Mo227  1  0.19272338  -0.01031634  0.60246749  1
  Mo  Mo228  1  0.69682670  0.29950590  0.50423824  1
  Mo  Mo229  1  -0.00219725  0.59039680  0.81020849  1
  Mo  Mo230  1  0.40572267  0.80173589  0.39976987  1
  Mo  Mo231  1  0.89983967  0.69486331  0.49489317  1
  Mo  Mo232  1  0.21470120  0.60968235  0.39361725  1
  Mo  Mo233  1  -0.00410036  0.19986507  0.19378570  1
  Mo  Mo234  1  0.19712046  0.40433198  0.60319045  1
  Mo  Mo235  1  0.80048164  0.40224073  0.39500859  1
  Mo  Mo236  1  0.89919618  0.11150349  0.70334180  1
  Mo  Mo237  1  0.70059091  0.29825091  0.12157348  1
  Mo  Mo238  1  0.50131626  0.50539752  0.10641154  1
  Mo  Mo239  1  0.71588079  0.70053330  0.69350807  1
  Mo  Mo240  1  0.79592608  0.80525574  0.80347379  1
  Mo  Mo241  1  0.39795887  0.79643630  0.20359913  1
  Mo  Mo242  1  0.89714307  0.30140617  0.30002280  1
  Mo  Mo243  1  0.19722636  0.40367402  0.80716296  1
  Mo  Mo244  1  0.29592987  0.30030348  0.89566651  1
  Mo  Mo245  1  0.69914940  0.90094168  0.69848579  1
  Mo  Mo246  1  0.69716385  0.09774141  0.10832916  1
  Mo  Mo247  1  0.00491526  0.79621976  0.19935128  1
  Mo  Mo248  1  0.09756370  0.89677686  0.30399386  1
  Mo  Mo249  1  0.60130375  0.80333634  0.20952908  1
