# generated using pymatgen
data_HfZrTaTiMo
_symmetry_space_group_name_H-M   'P 1'
_cell_length_a   16.88574039
_cell_length_b   16.88567408
_cell_length_c   16.88637623
_cell_angle_alpha   90.02319082
_cell_angle_beta   90.00459093
_cell_angle_gamma   90.02055164
_symmetry_Int_Tables_number   1
_chemical_formula_structural   HfZrTaTiMo
_chemical_formula_sum   'Hf50 Zr50 Ta50 Ti50 Mo50'
_cell_volume   4814.76291144
_cell_formula_units_Z   50
loop_
 _symmetry_equiv_pos_site_id
 _symmetry_equiv_pos_as_xyz
  1  'x, y, z'
loop_
 _atom_site_type_symbol
 _atom_site_label
 _atom_site_symmetry_multiplicity
 _atom_site_fract_x
 _atom_site_fract_y
 _atom_site_fract_z
 _atom_site_occupancy
  Hf  Hf0  1  0.89944231  0.30943066  0.51411117  1
  Hf  Hf1  1  0.60672157  0.40422659  0.39990056  1
  Hf  Hf2  1  0.29641365  0.10494184  0.89757606  1
  Hf  Hf3  1  0.28392342  0.51221540  0.90412763  1
  Hf  Hf4  1  0.49572477  0.09478153  0.49387575  1
  Hf  Hf5  1  0.60701721  -0.00266397  0.80624361  1
  Hf  Hf6  1  0.39922512  0.40233783  0.81026828  1
  Hf  Hf7  1  0.50087928  0.89758091  0.70446267  1
  Hf  Hf8  1  0.30617043  0.89059706  0.89249000  1
  Hf  Hf9  1  0.49944817  0.90400302  0.10004452  1
  Hf  Hf10  1  0.79842436  -0.00597502  0.59527804  1
  Hf  Hf11  1  0.00168754  -0.00054103  0.59936656  1
  Hf  Hf12  1  0.70238358  0.10174488  0.30473783  1
  Hf  Hf13  1  0.50713823  0.70406499  0.70527789  1
  Hf  Hf14  1  0.09961253  0.10471277  0.89711057  1
  Hf  Hf15  1  0.50825689  0.29934413  0.70678219  1
  Hf  Hf16  1  0.20144004  0.40078448  0.40245766  1
  Hf  Hf17  1  0.30433937  0.29836835  0.29972301  1
  Hf  Hf18  1  0.30140224  0.70542603  0.71070849  1
  Hf  Hf19  1  0.20037842  0.19911208  0.60626552  1
  Hf  Hf20  1  0.60640292  0.60031186  0.20209418  1
  Hf  Hf21  1  0.79966728  0.40399696  0.40336022  1
  Hf  Hf22  1  0.09784333  0.50187294  0.50517365  1
  Hf  Hf23  1  0.10372888  0.29925338  0.29479784  1
  Hf  Hf24  1  0.71020959  0.49276168  0.09315641  1
  Hf  Hf25  1  -0.01376454  0.20589288  -0.01191474  1
  Hf  Hf26  1  0.49674628  0.90051789  0.49255422  1
  Hf  Hf27  1  0.70656734  0.30455598  0.70630232  1
  Hf  Hf28  1  0.60971492  0.59549278  0.39730202  1
  Hf  Hf29  1  0.49454791  0.30379425  0.29116051  1
  Hf  Hf30  1  0.70494850  0.09989096  0.49624991  1
  Hf  Hf31  1  0.70633087  0.68894898  0.08586027  1
  Hf  Hf32  1  0.09539812  0.10274751  0.09890375  1
  Hf  Hf33  1  0.60767734  0.79878269  0.20163508  1
  Hf  Hf34  1  0.89980565  0.89137756  0.69810926  1
  Hf  Hf35  1  0.39769042  0.40850851  0.40230303  1
  Hf  Hf36  1  0.89840112  0.49892043  0.89584994  1
  Hf  Hf37  1  0.90080087  0.10404301  0.70174734  1
  Hf  Hf38  1  0.48561675  0.89980674  0.30002878  1
  Hf  Hf39  1  0.39875553  0.40029148  0.60758127  1
  Hf  Hf40  1  0.10084212  0.30189445  0.09751731  1
  Hf  Hf41  1  0.10099672  0.10261467  0.49766997  1
  Hf  Hf42  1  0.89598905  0.50186808  0.29741477  1
  Hf  Hf43  1  0.60252732  0.20158237  0.59827793  1
  Hf  Hf44  1  0.21206590  0.41006854  0.19149476  1
  Hf  Hf45  1  0.10709793  0.51121516  0.09152869  1
  Hf  Hf46  1  0.10146336  0.50916554  0.29450317  1
  Hf  Hf47  1  0.29378888  0.50508330  0.70575393  1
  Hf  Hf48  1  0.89412860  0.89973087  0.09675946  1
  Hf  Hf49  1  0.60992640  0.40626443  0.81568044  1
  Zr  Zr50  1  0.09615607  0.70399654  0.30704002  1
  Zr  Zr51  1  0.39669395  0.40734115  0.00089755  1
  Zr  Zr52  1  0.08563241  0.90507639  0.10619149  1
  Zr  Zr53  1  0.70784104  0.70025122  0.70242595  1
  Zr  Zr54  1  0.20306082  -0.00211087  0.59234779  1
  Zr  Zr55  1  0.41239773  0.59568490  0.80869732  1
  Zr  Zr56  1  0.80727556  0.20590711  0.82441720  1
  Zr  Zr57  1  -0.00544730  0.60083889  0.79249684  1
  Zr  Zr58  1  0.09923728  0.89148654  0.70811541  1
  Zr  Zr59  1  0.60437552  0.79396951  0.40249552  1
  Zr  Zr60  1  0.90046623  0.70374315  0.49904461  1
  Zr  Zr61  1  0.30526074  0.89707146  0.71196775  1
  Zr  Zr62  1  0.79632622  0.20239031  0.19525157  1
  Zr  Zr63  1  0.29402127  0.50864019  0.51091059  1
  Zr  Zr64  1  0.88729067  0.31047429  0.09725957  1
  Zr  Zr65  1  0.30613312  0.29938604  0.09927938  1
  Zr  Zr66  1  0.40536687  0.79388621  0.58948094  1
  Zr  Zr67  1  0.39971471  0.20216687  0.80133728  1
  Zr  Zr68  1  0.51094944  0.29619088  0.91687942  1
  Zr  Zr69  1  0.60421947  0.20790094  0.39936348  1
  Zr  Zr70  1  0.38993851  0.00642314  0.59590130  1
  Zr  Zr71  1  -0.00380242  0.00127208  0.39712132  1
  Zr  Zr72  1  -0.00816784  0.20681872  0.40013437  1
  Zr  Zr73  1  0.80192714  -0.00632490  0.81722673  1
  Zr  Zr74  1  0.79107578  0.38195872  -0.02953721  1
  Zr  Zr75  1  0.59943623  0.20070524  0.19180770  1
  Zr  Zr76  1  0.39599991  0.59024199  0.18661602  1
  Zr  Zr77  1  0.00161933  0.59962744  0.60551270  1
  Zr  Zr78  1  0.40633246  0.78400444  0.00539881  1
  Zr  Zr79  1  0.60304827  0.79929227  0.00029474  1
  Zr  Zr80  1  0.19271296  0.38992288  0.61084624  1
  Zr  Zr81  1  0.18904270  0.80213065  0.00097287  1
  Zr  Zr82  1  0.19545970  0.80045269  0.19981370  1
  Zr  Zr83  1  -0.00869877  0.20261958  0.20171545  1
  Zr  Zr84  1  0.79543314  -0.00690898  0.20730373  1
  Zr  Zr85  1  0.50198026  0.10007924  0.09288987  1
  Zr  Zr86  1  0.30725067  0.90157372  0.10181734  1
  Zr  Zr87  1  0.09897742  0.70223841  0.89588889  1
  Zr  Zr88  1  0.49309226  0.70198892  0.29943982  1
  Zr  Zr89  1  0.19574948  -0.00302259  -0.00464937  1
  Zr  Zr90  1  0.19820269  0.79774742  0.59455244  1
  Zr  Zr91  1  -0.00274395  0.40149829  0.40010175  1
  Zr  Zr92  1  0.79085431  0.80277276  0.39621572  1
  Zr  Zr93  1  0.29619113  0.70328119  0.30245332  1
  Zr  Zr94  1  0.51370233  0.49136315  0.09118822  1
  Zr  Zr95  1  0.49431024  0.30129002  0.50211089  1
  Zr  Zr96  1  0.79482935  0.79514899  0.20580281  1
  Zr  Zr97  1  0.69898557  0.10473431  0.70801393  1
  Zr  Zr98  1  0.40871593  0.59958591  0.40732770  1
  Zr  Zr99  1  0.20319566  0.00036403  0.20871359  1
  Ta  Ta100  1  0.60832111  0.79858045  0.59269576  1
  Ta  Ta101  1  0.80055709  0.20692660  0.59696890  1
  Ta  Ta102  1  -0.00291896  -0.00029358  0.80708124  1
  Ta  Ta103  1  0.10116176  0.10206628  0.70807203  1
  Ta  Ta104  1  0.60408003  -0.00694645  0.39473382  1
  Ta  Ta105  1  0.70784325  0.30976929  0.29204400  1
  Ta  Ta106  1  0.00237627  0.40298042  -0.00464161  1
  Ta  Ta107  1  0.29034119  0.10071827  0.71199099  1
  Ta  Ta108  1  0.29619512  0.70032202  0.89761217  1
  Ta  Ta109  1  0.89464805  0.69615680  0.09305140  1
  Ta  Ta110  1  0.09708099  0.88843857  0.48490203  1
  Ta  Ta111  1  0.29754373  0.70171182  0.49412019  1
  Ta  Ta112  1  -0.00406594  0.60537839  -0.00276083  1
  Ta  Ta113  1  0.40968878  0.60300506  0.60200540  1
  Ta  Ta114  1  0.70757767  0.69440151  0.89851226  1
  Ta  Ta115  1  0.89748733  0.70926929  0.70036702  1
  Ta  Ta116  1  0.40249368  0.00511887  -0.00821025  1
  Ta  Ta117  1  -0.00581622  0.40566625  0.19472010  1
  Ta  Ta118  1  0.30177786  0.10273711  0.09528118  1
  Ta  Ta119  1  -0.00444167  0.60531646  0.19266628  1
  Ta  Ta120  1  -0.01089973  -0.00391720  -0.01263551  1
  Ta  Ta121  1  0.90544250  0.89302339  0.49846898  1
  Ta  Ta122  1  0.49853842  0.90027623  0.89827483  1
  Ta  Ta123  1  0.81081044  0.59238781  0.60347244  1
  Ta  Ta124  1  0.20607419  0.19327903  0.20091012  1
  Ta  Ta125  1  -0.00848497  0.79851398  -0.00421827  1
  Ta  Ta126  1  0.79856729  0.59850566  0.20482213  1
  Ta  Ta127  1  0.60877962  0.80285787  0.80754987  1
  Ta  Ta128  1  0.70855777  0.50080334  0.50874043  1
  Ta  Ta129  1  0.00097284  0.20632474  0.80029612  1
  Ta  Ta130  1  0.89275285  0.09356980  0.09149929  1
  Ta  Ta131  1  0.09990476  0.49807379  0.89653268  1
  Ta  Ta132  1  0.89549119  0.50320363  0.09362024  1
  Ta  Ta133  1  0.49604076  0.09556418  0.30119912  1
  Ta  Ta134  1  0.89307102  0.10238018  0.30422850  1
  Ta  Ta135  1  -0.00732455  0.79179467  0.19810642  1
  Ta  Ta136  1  0.10135259  0.10136867  0.30078287  1
  Ta  Ta137  1  0.89755448  0.30947580  0.70598673  1
  Ta  Ta138  1  0.50998863  0.10255104  0.90149774  1
  Ta  Ta139  1  0.70719063  0.49958539  0.70080880  1
  Ta  Ta140  1  0.29972655  0.29228318  0.50064534  1
  Ta  Ta141  1  0.60545763  0.60297456  0.59933561  1
  Ta  Ta142  1  0.28131567  0.68130218  0.09112633  1
  Ta  Ta143  1  0.51337733  0.49965732  0.69873779  1
  Ta  Ta144  1  0.60403722  -0.00232318  0.20215505  1
  Ta  Ta145  1  0.39972374  0.19532301  0.19797059  1
  Ta  Ta146  1  0.20624492  -0.00238345  0.39640888  1
  Ta  Ta147  1  0.39055504  0.19480440  0.60522985  1
  Ta  Ta148  1  0.50979563  0.50084170  0.51107193  1
  Ta  Ta149  1  -0.00465157  0.60178647  0.40561324  1
  Ti  Ti150  1  0.60738613  -0.00150023  -0.00559665  1
  Ti  Ti151  1  0.19486971  0.60571747  0.40662481  1
  Ti  Ti152  1  0.18848900  0.60822334  0.79302629  1
  Ti  Ti153  1  0.18870089  0.61431286  0.60634460  1
  Ti  Ti154  1  -0.00697649  0.80152216  0.81016464  1
  Ti  Ti155  1  0.80107843  0.80176871  0.80972209  1
  Ti  Ti156  1  0.79850976  -0.01119018  0.40122762  1
  Ti  Ti157  1  0.40492535  0.00737722  0.80330424  1
  Ti  Ti158  1  0.61093469  0.39991694  0.59746775  1
  Ti  Ti159  1  0.09820962  0.29852615  0.50382254  1
  Ti  Ti160  1  0.50171246  0.10140992  0.70217323  1
  Ti  Ti161  1  0.20425332  0.19542723  0.40039692  1
  Ti  Ti162  1  0.19064637  0.22095090  0.80342477  1
  Ti  Ti163  1  0.00260539  0.20590313  0.60983657  1
  Ti  Ti164  1  0.80625407  0.59844951  0.79632509  1
  Ti  Ti165  1  0.70028208  0.89457685  0.69982668  1
  Ti  Ti166  1  0.68973838  0.30059473  0.08617430  1
  Ti  Ti167  1  0.60564916  0.39764670  0.19728610  1
  Ti  Ti168  1  0.89722947  0.69482895  0.30395429  1
  Ti  Ti169  1  0.70103383  0.51512127  0.90642003  1
  Ti  Ti170  1  0.49898027  0.49268275  0.29185428  1
  Ti  Ti171  1  0.70522513  0.09551569  0.08870136  1
  Ti  Ti172  1  0.29717696  0.30027559  0.70898917  1
  Ti  Ti173  1  0.90808224  0.89331190  0.30449076  1
  Ti  Ti174  1  0.80433294  0.80352838  -0.01403560  1
  Ti  Ti175  1  0.19899510  0.39415163  -0.01063093  1
  Ti  Ti176  1  0.00909934  0.79153546  0.59663466  1
  Ti  Ti177  1  0.70421169  0.90402681  0.09208352  1
  Ti  Ti178  1  0.30399784  0.09736079  0.30459940  1
  Ti  Ti179  1  0.51112519  0.69553737  0.90295663  1
  Ti  Ti180  1  0.10336055  0.49314638  0.70923806  1
  Ti  Ti181  1  -0.00715457  0.00412036  0.20620931  1
  Ti  Ti182  1  0.00480017  0.39268509  0.80181404  1
  Ti  Ti183  1  0.20160911  0.20899945  -0.00492783  1
  Ti  Ti184  1  0.89594382  0.10281906  0.49851671  1
  Ti  Ti185  1  0.60499954  0.59850242  0.80209182  1
  Ti  Ti186  1  0.39400786  0.19366707  0.40275055  1
  Ti  Ti187  1  0.19206547  -0.00762700  0.80462859  1
  Ti  Ti188  1  0.79263148  0.80270478  0.59205072  1
  Ti  Ti189  1  0.40009065  0.20099481  0.00123592  1
  Ti  Ti190  1  0.40814681  0.59970675  -0.00032699  1
  Ti  Ti191  1  -0.00476891  0.40772476  0.61243452  1
  Ti  Ti192  1  0.39699530  0.78808062  0.18992787  1
  Ti  Ti193  1  0.30335989  0.89345208  0.47717474  1
  Ti  Ti194  1  0.60516772  -0.00687737  0.59663306  1
  Ti  Ti195  1  0.39684972  0.00714419  0.20073125  1
  Ti  Ti196  1  0.29748052  0.50861953  0.29613076  1
  Ti  Ti197  1  0.80315723  0.21474240  0.40132821  1
  Ti  Ti198  1  0.09576514  0.89745542  0.30450623  1
  Ti  Ti199  1  0.70847893  0.68834348  0.49987448  1
  Mo  Mo200  1  0.19615464  0.60092332  0.19558512  1
  Mo  Mo201  1  0.90124116  0.09527216  0.90291798  1
  Mo  Mo202  1  0.70329357  0.49568541  0.29409509  1
  Mo  Mo203  1  0.80189773  0.40397704  0.60389213  1
  Mo  Mo204  1  0.40263397  0.40156234  0.20196979  1
  Mo  Mo205  1  0.29744740  0.10751217  0.49188148  1
  Mo  Mo206  1  0.08697899  0.69957742  0.09941306  1
  Mo  Mo207  1  0.51180365  0.50666068  0.90073590  1
  Mo  Mo208  1  0.30685989  0.89999196  0.30288371  1
  Mo  Mo209  1  0.69235318  0.90515257  0.30138597  1
  Mo  Mo210  1  0.08913213  0.29754297  0.70247956  1
  Mo  Mo211  1  0.70869468  0.68917722  0.30277546  1
  Mo  Mo212  1  0.09494097  0.70610938  0.70162409  1
  Mo  Mo213  1  0.19663050  0.79818369  0.80229780  1
  Mo  Mo214  1  0.89829946  0.89420816  0.89999491  1
  Mo  Mo215  1  0.60797352  0.19402690  0.00161760  1
  Mo  Mo216  1  0.60222282  0.19262271  0.80283618  1
  Mo  Mo217  1  0.50576206  0.69483381  0.50603806  1
  Mo  Mo218  1  0.79812180  0.40411230  0.79675525  1
  Mo  Mo219  1  0.89469916  0.70108335  0.89678962  1
  Mo  Mo220  1  0.19935914  0.80619883  0.39925932  1
  Mo  Mo221  1  0.18949382  0.60386890  -0.00796978  1
  Mo  Mo222  1  0.68705338  0.28095037  0.89847074  1
  Mo  Mo223  1  0.10292127  0.69866063  0.49818075  1
  Mo  Mo224  1  0.79630021  -0.00249940  0.00210999  1
  Mo  Mo225  1  0.70732054  0.30527710  0.50466926  1
  Mo  Mo226  1  0.89584039  0.49190789  0.70216540  1
  Mo  Mo227  1  0.90053294  0.50302389  0.50367092  1
  Mo  Mo228  1  0.50478335  0.69419511  0.09782449  1
  Mo  Mo229  1  0.29395450  0.29979998  0.90175909  1
  Mo  Mo230  1  0.80117058  0.59678722  0.40302577  1
  Mo  Mo231  1  0.91137481  0.30765466  0.89491220  1
  Mo  Mo232  1  0.39507278  0.79867068  0.39900180  1
  Mo  Mo233  1  -0.00335768  0.79919600  0.39361367  1
  Mo  Mo234  1  0.39464847  0.00191750  0.39234254  1
  Mo  Mo235  1  0.41422904  0.79293839  0.81182266  1
  Mo  Mo236  1  0.19530227  0.39676941  0.80471760  1
  Mo  Mo237  1  0.79741905  0.40375135  0.20165524  1
  Mo  Mo238  1  0.60631362  0.39819028  -0.00117556  1
  Mo  Mo239  1  0.60192920  0.59946877  -0.00849863  1
  Mo  Mo240  1  0.79548261  0.19189821  0.00163676  1
  Mo  Mo241  1  0.29571263  0.50596726  0.08965183  1
  Mo  Mo242  1  0.80549423  0.60020020  -0.00646684  1
  Mo  Mo243  1  0.89451670  0.30437275  0.29575948  1
  Mo  Mo244  1  0.69963894  0.89282358  0.90459687  1
  Mo  Mo245  1  0.69820775  0.90459366  0.50333205  1
  Mo  Mo246  1  0.50158295  0.29919530  0.10397087  1
  Mo  Mo247  1  0.10167831  0.30522498  0.89940331  1
  Mo  Mo248  1  0.69939485  0.09657257  0.91419452  1
  Mo  Mo249  1  0.09028241  0.90016251  0.89679468  1
