# generated using pymatgen
data_HfZrTaTiMo
_symmetry_space_group_name_H-M   'P 1'
_cell_length_a   16.89129170
_cell_length_b   16.90134730
_cell_length_c   16.89915808
_cell_angle_alpha   89.97762641
_cell_angle_beta   89.99888605
_cell_angle_gamma   89.99827694
_symmetry_Int_Tables_number   1
_chemical_formula_structural   HfZrTaTiMo
_chemical_formula_sum   'Hf50 Zr50 Ta50 Ti50 Mo50'
_cell_volume   4824.46569862
_cell_formula_units_Z   50
loop_
 _symmetry_equiv_pos_site_id
 _symmetry_equiv_pos_as_xyz
  1  'x, y, z'
loop_
 _atom_site_type_symbol
 _atom_site_label
 _atom_site_symmetry_multiplicity
 _atom_site_fract_x
 _atom_site_fract_y
 _atom_site_fract_z
 _atom_site_occupancy
  Hf  Hf0  1  0.40253648  0.19960215  -0.00495548  1
  Hf  Hf1  1  0.21130143  -0.00201045  0.40843404  1
  Hf  Hf2  1  0.90059211  0.31291343  0.88799438  1
  Hf  Hf3  1  0.80113504  0.40215230  0.20012273  1
  Hf  Hf4  1  0.20152935  0.80644466  0.40923218  1
  Hf  Hf5  1  0.68534075  0.30217304  0.50165913  1
  Hf  Hf6  1  0.88820744  0.70157496  0.50195066  1
  Hf  Hf7  1  0.71256602  0.69279778  0.30505071  1
  Hf  Hf8  1  0.90245550  0.89560186  0.09858459  1
  Hf  Hf9  1  0.29018856  0.09219815  0.89901733  1
  Hf  Hf10  1  0.39895985  0.00187560  0.40653044  1
  Hf  Hf11  1  0.69158528  0.89618393  0.89083368  1
  Hf  Hf12  1  0.39373272  0.40665859  0.00371523  1
  Hf  Hf13  1  0.90130493  0.30274458  0.50031628  1
  Hf  Hf14  1  0.60226426  0.79687823  0.19732313  1
  Hf  Hf15  1  0.30126582  0.30606500  0.30032146  1
  Hf  Hf16  1  0.10007030  0.09427116  0.50676569  1
  Hf  Hf17  1  0.20486912  0.19500985  0.40091471  1
  Hf  Hf18  1  0.20957800  0.41246443  0.19333074  1
  Hf  Hf19  1  0.59677059  0.19287735  0.39950856  1
  Hf  Hf20  1  0.00200967  0.19977876  -0.00116027  1
  Hf  Hf21  1  0.90371557  0.69102562  0.90215925  1
  Hf  Hf22  1  0.89359820  0.10484135  0.49932644  1
  Hf  Hf23  1  0.20204026  0.81844875  0.61559838  1
  Hf  Hf24  1  0.69770740  0.50412084  0.30168321  1
  Hf  Hf25  1  0.30330045  0.09270277  0.69392062  1
  Hf  Hf26  1  0.50179479  0.09419308  0.69141508  1
  Hf  Hf27  1  0.49671501  0.70470783  0.49904744  1
  Hf  Hf28  1  0.60228128  0.20400269  0.20328795  1
  Hf  Hf29  1  0.60751473  -0.00190329  0.20038919  1
  Hf  Hf30  1  0.30119293  0.69620173  0.30183797  1
  Hf  Hf31  1  -0.00376808  0.00526104  0.20227094  1
  Hf  Hf32  1  0.50030107  0.69747912  0.30496599  1
  Hf  Hf33  1  0.00327767  0.58084789  0.81797942  1
  Hf  Hf34  1  0.40557516  0.80259940  0.19665777  1
  Hf  Hf35  1  0.20622531  0.20014581  0.59623612  1
  Hf  Hf36  1  0.71237060  0.90356946  0.10022277  1
  Hf  Hf37  1  0.30039492  0.69525444  0.09576786  1
  Hf  Hf38  1  0.40828549  0.20136961  0.20356750  1
  Hf  Hf39  1  0.39293596  0.81370338  0.40099204  1
  Hf  Hf40  1  0.79205513  0.39847787  0.60178000  1
  Hf  Hf41  1  0.59531482  0.59773831  0.19707260  1
  Hf  Hf42  1  0.30960428  0.31239182  0.49237481  1
  Hf  Hf43  1  0.50033876  0.09431748  0.09610250  1
  Hf  Hf44  1  0.59758545  0.79087323  0.00623602  1
  Hf  Hf45  1  0.00339809  0.00680303  0.00240727  1
  Hf  Hf46  1  0.10227230  0.50231587  0.50485341  1
  Hf  Hf47  1  0.09939647  0.30802832  0.29426998  1
  Hf  Hf48  1  0.39823909  0.40005653  0.80299558  1
  Hf  Hf49  1  0.09652754  0.30372321  0.70557217  1
  Zr  Zr50  1  0.28687085  0.08873190  0.09691601  1
  Zr  Zr51  1  0.78638696  0.58600519  0.58272044  1
  Zr  Zr52  1  0.59789004  0.19565535  0.81138927  1
  Zr  Zr53  1  0.90651984  0.69941941  0.09978528  1
  Zr  Zr54  1  0.50915705  0.90301172  0.69657225  1
  Zr  Zr55  1  0.40521480  0.19303495  0.39828744  1
  Zr  Zr56  1  0.79548120  -0.00031489  0.39828272  1
  Zr  Zr57  1  0.01187414  0.61818163  0.20660030  1
  Zr  Zr58  1  0.90147870  0.67998840  0.69722271  1
  Zr  Zr59  1  0.40389754  -0.00666415  0.19990018  1
  Zr  Zr60  1  0.29655373  0.51099895  0.70904512  1
  Zr  Zr61  1  0.69972706  0.69611179  0.69484120  1
  Zr  Zr62  1  0.68959512  0.09625554  0.69441812  1
  Zr  Zr63  1  0.80944825  0.79888135  0.79276018  1
  Zr  Zr64  1  0.09386956  0.30873117  0.09814401  1
  Zr  Zr65  1  0.90407935  0.10258715  0.70058528  1
  Zr  Zr66  1  0.18762339  0.78429131  0.19723806  1
  Zr  Zr67  1  0.50185206  0.89708877  0.89527726  1
  Zr  Zr68  1  -0.01056135  -0.00341677  0.39079899  1
  Zr  Zr69  1  0.40301519  0.19669379  0.80381295  1
  Zr  Zr70  1  0.80084467  0.19911668  0.00138042  1
  Zr  Zr71  1  0.60390177  0.19590462  0.00130012  1
  Zr  Zr72  1  0.20987082  0.40501644  0.59985861  1
  Zr  Zr73  1  0.09040828  0.50430034  0.10135822  1
  Zr  Zr74  1  0.09536507  0.50246621  0.69827615  1
  Zr  Zr75  1  0.09379948  0.90386252  0.50793942  1
  Zr  Zr76  1  0.69359991  0.68630770  0.88952025  1
  Zr  Zr77  1  0.70208557  0.31545394  0.90169577  1
  Zr  Zr78  1  0.79948537  0.79752681  -0.00607284  1
  Zr  Zr79  1  -0.00332853  0.60658451  0.40548155  1
  Zr  Zr80  1  0.79704077  0.41111532  0.40836375  1
  Zr  Zr81  1  0.60333170  0.41176453  0.01107073  1
  Zr  Zr82  1  -0.00560286  0.79903740  0.60669371  1
  Zr  Zr83  1  0.50740414  0.51120913  0.90036136  1
  Zr  Zr84  1  0.20337142  -0.01639214  0.78925482  1
  Zr  Zr85  1  0.89558758  0.51527354  0.29479154  1
  Zr  Zr86  1  0.20427774  0.40571749  -0.00645105  1
  Zr  Zr87  1  0.29744545  0.70028647  0.51109597  1
  Zr  Zr88  1  0.49879059  0.48648958  0.49870045  1
  Zr  Zr89  1  0.09886555  0.09804931  0.70286821  1
  Zr  Zr90  1  0.90887437  0.31640693  0.09864349  1
  Zr  Zr91  1  0.68811485  0.89801546  0.69599608  1
  Zr  Zr92  1  0.29860425  0.70161275  0.70514474  1
  Zr  Zr93  1  0.79941567  -0.00162864  0.80197877  1
  Zr  Zr94  1  0.09617678  0.31083100  0.49604478  1
  Zr  Zr95  1  0.30036303  0.29462700  0.10147961  1
  Zr  Zr96  1  0.79396596  0.20084549  0.79750511  1
  Zr  Zr97  1  -0.00166364  0.19378815  0.38915340  1
  Zr  Zr98  1  0.10282685  0.89504519  0.09797801  1
  Zr  Zr99  1  0.10080879  0.89488879  0.90510966  1
  Ta  Ta100  1  0.29842847  0.89252636  0.90534837  1
  Ta  Ta101  1  0.11014185  0.09331273  0.29138479  1
  Ta  Ta102  1  0.10168182  0.69159113  0.70455715  1
  Ta  Ta103  1  -0.00389681  0.19232731  0.19731742  1
  Ta  Ta104  1  0.28867286  0.90396762  0.28384074  1
  Ta  Ta105  1  0.20695340  0.59479547  0.40789174  1
  Ta  Ta106  1  0.00264548  0.42543523  -0.02996340  1
  Ta  Ta107  1  0.10183011  0.69514521  0.51486807  1
  Ta  Ta108  1  0.90249844  0.30597530  0.69907141  1
  Ta  Ta109  1  0.10192672  0.09717646  0.89379373  1
  Ta  Ta110  1  0.30361050  0.49673168  0.30764410  1
  Ta  Ta111  1  0.59552135  0.39889000  0.79573524  1
  Ta  Ta112  1  0.79861318  0.59165134  -0.00110399  1
  Ta  Ta113  1  0.50110783  0.30723372  0.90262470  1
  Ta  Ta114  1  0.90188384  0.30249450  0.29706217  1
  Ta  Ta115  1  0.90520334  0.50722032  0.09700983  1
  Ta  Ta116  1  0.29431246  0.09523017  0.29004306  1
  Ta  Ta117  1  0.10764114  0.49920835  0.30656912  1
  Ta  Ta118  1  0.89627385  0.48922980  0.70896452  1
  Ta  Ta119  1  0.39955897  0.39998927  0.60659514  1
  Ta  Ta120  1  0.70452185  0.10021240  0.29888371  1
  Ta  Ta121  1  0.69249250  0.49827038  0.70294664  1
  Ta  Ta122  1  0.90384184  0.09444324  0.89768699  1
  Ta  Ta123  1  0.50210838  0.50095877  0.69958090  1
  Ta  Ta124  1  0.51175635  0.89889383  0.30863483  1
  Ta  Ta125  1  0.70286065  0.89662402  0.30171171  1
  Ta  Ta126  1  0.59600059  0.59786347  0.59599631  1
  Ta  Ta127  1  -0.00443404  0.79929553  0.39612068  1
  Ta  Ta128  1  0.60387246  0.59766715  0.40996645  1
  Ta  Ta129  1  0.80256537  0.20087108  0.20244833  1
  Ta  Ta130  1  0.10244871  0.69997537  0.90517790  1
  Ta  Ta131  1  0.00197178  0.79835073  0.80036182  1
  Ta  Ta132  1  0.70207949  0.30573865  0.10611019  1
  Ta  Ta133  1  0.41812922  0.61853924  0.79932737  1
  Ta  Ta134  1  0.50538322  0.90260761  0.50135208  1
  Ta  Ta135  1  0.29247995  0.89750951  0.09039547  1
  Ta  Ta136  1  0.40138019  0.79761856  -0.00131142  1
  Ta  Ta137  1  0.29914517  0.70199582  0.90126283  1
  Ta  Ta138  1  0.79364590  -0.00039788  0.59324790  1
  Ta  Ta139  1  0.50010756  0.29962369  0.50425501  1
  Ta  Ta140  1  0.60735601  0.00434539  -0.00496862  1
  Ta  Ta141  1  0.19906839  0.60000295  0.00299503  1
  Ta  Ta142  1  0.30111529  0.29441068  0.70532967  1
  Ta  Ta143  1  0.78990999  0.20094132  0.59689580  1
  Ta  Ta144  1  0.30496967  0.52013698  0.89832851  1
  Ta  Ta145  1  0.40108929  0.59063727  0.40346093  1
  Ta  Ta146  1  0.89141242  0.89466135  0.50273733  1
  Ta  Ta147  1  0.40058987  0.59385772  0.59938808  1
  Ta  Ta148  1  0.10179666  0.90112609  0.29925291  1
  Ta  Ta149  1  0.50155855  0.29817791  0.69286619  1
  Ti  Ti150  1  0.70299242  0.50228854  0.88662742  1
  Ti  Ti151  1  0.60337646  0.79156960  0.59150403  1
  Ti  Ti152  1  0.80170554  0.41095602  0.00153824  1
  Ti  Ti153  1  0.18916375  0.19592160  -0.00321912  1
  Ti  Ti154  1  -0.01311162  -0.00052487  0.60016541  1
  Ti  Ti155  1  0.08203543  0.90734076  0.70509421  1
  Ti  Ti156  1  0.29151569  0.29214839  0.89381394  1
  Ti  Ti157  1  0.10253577  0.30075622  0.89193252  1
  Ti  Ti158  1  0.41123934  0.40648950  0.20721597  1
  Ti  Ti159  1  0.20090716  0.59768070  0.20130011  1
  Ti  Ti160  1  0.50300811  0.90216636  0.09477084  1
  Ti  Ti161  1  0.68813989  0.30061208  0.69597740  1
  Ti  Ti162  1  0.49146977  0.50671250  0.09966782  1
  Ti  Ti163  1  0.50285627  0.30483353  0.09943670  1
  Ti  Ti164  1  0.58946791  0.39820472  0.38694743  1
  Ti  Ti165  1  0.79562358  0.20188958  0.39471335  1
  Ti  Ti166  1  0.91480783  0.49956805  0.51400320  1
  Ti  Ti167  1  0.40200310  -0.00546876  0.80088106  1
  Ti  Ti168  1  0.48985949  0.68941539  0.09419682  1
  Ti  Ti169  1  0.50444063  0.09001817  0.29971477  1
  Ti  Ti170  1  0.40187415  0.19526047  0.59090428  1
  Ti  Ti171  1  0.60729516  0.79819485  0.40303894  1
  Ti  Ti172  1  0.57223278  0.76594017  0.79392395  1
  Ti  Ti173  1  -0.00412019  0.40714593  0.39415407  1
  Ti  Ti174  1  0.60407929  0.60209575  0.00615173  1
  Ti  Ti175  1  0.40105892  0.79848513  0.79959036  1
  Ti  Ti176  1  -0.00161473  0.20439921  0.60023922  1
  Ti  Ti177  1  0.10657136  0.69912134  0.31946926  1
  Ti  Ti178  1  0.60570191  0.00164074  0.40316892  1
  Ti  Ti179  1  0.60443473  0.01063244  0.57407995  1
  Ti  Ti180  1  0.00171146  0.19996508  0.80458834  1
  Ti  Ti181  1  0.89175817  0.09678278  0.09781652  1
  Ti  Ti182  1  0.39818374  0.58983220  0.20358379  1
  Ti  Ti183  1  0.90721677  0.90186541  0.90212071  1
  Ti  Ti184  1  0.40167914  0.80942583  0.60578781  1
  Ti  Ti185  1  0.71096197  0.09535823  0.10054650  1
  Ti  Ti186  1  0.59242235  0.40134894  0.20392212  1
  Ti  Ti187  1  0.80278461  0.80127444  0.39790696  1
  Ti  Ti188  1  -0.00116773  0.79909487  0.21524867  1
  Ti  Ti189  1  0.89728804  0.90304740  0.69713035  1
  Ti  Ti190  1  0.40104339  -0.00600260  -0.00600379  1
  Ti  Ti191  1  0.70233857  0.89081783  0.50063157  1
  Ti  Ti192  1  0.71241461  0.69409572  0.10552137  1
  Ti  Ti193  1  0.70059349  0.30233967  0.29907715  1
  Ti  Ti194  1  0.80854929  0.00202248  0.21069315  1
  Ti  Ti195  1  0.19145377  0.19547450  0.19425044  1
  Ti  Ti196  1  0.70707656  0.50520830  0.10673977  1
  Ti  Ti197  1  0.81040316  0.79790608  0.21095567  1
  Ti  Ti198  1  0.20069076  0.40390061  0.80581554  1
  Ti  Ti199  1  0.19783091  0.79964317  0.79961895  1
  Mo  Mo200  1  0.20032923  0.60524327  0.59989947  1
  Mo  Mo201  1  0.30436554  0.50197609  0.49951385  1
  Mo  Mo202  1  -0.00116283  0.59746796  0.60434048  1
  Mo  Mo203  1  0.89603199  0.70643041  0.30483112  1
  Mo  Mo204  1  0.59692114  0.59429884  0.79100859  1
  Mo  Mo205  1  0.00239489  0.59858556  -0.00183398  1
  Mo  Mo206  1  0.19848643  0.60978011  0.80741202  1
  Mo  Mo207  1  0.79937718  0.59973557  0.19037909  1
  Mo  Mo208  1  0.00221632  0.79698457  -0.00850584  1
  Mo  Mo209  1  0.40653272  -0.00220380  0.59405535  1
  Mo  Mo210  1  0.49536101  0.09032236  0.90298580  1
  Mo  Mo211  1  0.00195854  0.39772477  0.80066816  1
  Mo  Mo212  1  0.20355761  0.40849228  0.39605169  1
  Mo  Mo213  1  0.49668236  0.69707119  0.68188578  1
  Mo  Mo214  1  0.70958390  0.08827105  0.90798105  1
  Mo  Mo215  1  0.19840844  0.20508983  0.80338678  1
  Mo  Mo216  1  0.30697038  0.50945449  0.10606719  1
  Mo  Mo217  1  -0.00163361  0.40597038  0.21577895  1
  Mo  Mo218  1  0.89250890  0.10891519  0.29341519  1
  Mo  Mo219  1  0.59466862  0.20169029  0.59438656  1
  Mo  Mo220  1  0.30880384  0.90659181  0.51977497  1
  Mo  Mo221  1  0.87965769  0.49808630  0.89902676  1
  Mo  Mo222  1  0.68159322  0.49310649  0.49922387  1
  Mo  Mo223  1  0.50188834  0.30829640  0.29940311  1
  Mo  Mo224  1  0.50352247  0.09870844  0.50055574  1
  Mo  Mo225  1  0.79366703  0.60158283  0.40685548  1
  Mo  Mo226  1  0.21326999  -0.00165694  0.59994215  1
  Mo  Mo227  1  0.49512477  0.69861766  0.91208012  1
  Mo  Mo228  1  0.89857273  0.89273776  0.29949403  1
  Mo  Mo229  1  0.70169346  0.10648873  0.49583692  1
  Mo  Mo230  1  0.59463946  0.39808776  0.60847696  1
  Mo  Mo231  1  0.79754420  0.58789594  0.80050169  1
  Mo  Mo232  1  0.49827808  0.50087764  0.29916201  1
  Mo  Mo233  1  0.19452684  -0.00302177  0.19652193  1
  Mo  Mo234  1  -0.00772980  0.39930899  0.60360024  1
  Mo  Mo235  1  0.30528974  0.09835675  0.50669210  1
  Mo  Mo236  1  0.78991603  0.39876645  0.78897047  1
  Mo  Mo237  1  0.79534183  0.81040832  0.59615310  1
  Mo  Mo238  1  0.09839844  0.10570760  0.09946513  1
  Mo  Mo239  1  -0.00342137  -0.00517934  0.80302726  1
  Mo  Mo240  1  0.09854220  0.70050607  0.08314718  1
  Mo  Mo241  1  0.59486145  0.01464674  0.81724273  1
  Mo  Mo242  1  0.40511757  0.40061253  0.39659683  1
  Mo  Mo243  1  0.19923427  -0.00136059  -0.00351431  1
  Mo  Mo244  1  0.31843487  0.89801983  0.71002829  1
  Mo  Mo245  1  0.80371184  0.00064246  -0.00316992  1
  Mo  Mo246  1  0.39811673  0.60335372  -0.00047971  1
  Mo  Mo247  1  0.20512823  0.79398666  -0.00299432  1
  Mo  Mo248  1  0.69546963  0.70648298  0.49446134  1
  Mo  Mo249  1  0.12217366  0.50370787  0.89596199  1
