# generated using pymatgen
data_HfZrTaTiMo
_symmetry_space_group_name_H-M   'P 1'
_cell_length_a   16.89104180
_cell_length_b   16.88501916
_cell_length_c   16.88339531
_cell_angle_alpha   89.99916261
_cell_angle_beta   89.98490687
_cell_angle_gamma   89.98932839
_symmetry_Int_Tables_number   1
_chemical_formula_structural   HfZrTaTiMo
_chemical_formula_sum   'Hf50 Zr50 Ta50 Ti50 Mo50'
_cell_volume   4815.23803972
_cell_formula_units_Z   50
loop_
 _symmetry_equiv_pos_site_id
 _symmetry_equiv_pos_as_xyz
  1  'x, y, z'
loop_
 _atom_site_type_symbol
 _atom_site_label
 _atom_site_symmetry_multiplicity
 _atom_site_fract_x
 _atom_site_fract_y
 _atom_site_fract_z
 _atom_site_occupancy
  Hf  Hf0  1  0.10739149  0.89976055  0.49424529  1
  Hf  Hf1  1  0.00684271  0.60240900  0.19335216  1
  Hf  Hf2  1  0.09356693  0.10520779  0.29973756  1
  Hf  Hf3  1  -0.00221420  0.39535206  0.80270111  1
  Hf  Hf4  1  0.00080250  0.39818367  0.59897567  1
  Hf  Hf5  1  0.10066679  0.69297129  0.48988761  1
  Hf  Hf6  1  0.60064785  0.40243221  0.00220497  1
  Hf  Hf7  1  0.19407204  0.00631536  0.79619534  1
  Hf  Hf8  1  0.60030787  0.20195920  0.40213935  1
  Hf  Hf9  1  0.00659341  0.79986589  -0.00094922  1
  Hf  Hf10  1  -0.00836845  0.00484569  0.39512153  1
  Hf  Hf11  1  0.09673410  0.28881329  0.50335853  1
  Hf  Hf12  1  0.60103786  0.20473305  0.59999344  1
  Hf  Hf13  1  0.39964604  0.78331205  0.78696993  1
  Hf  Hf14  1  0.38936789  0.41001360  0.00801375  1
  Hf  Hf15  1  0.49400108  0.29741151  0.11006507  1
  Hf  Hf16  1  0.80381082  0.20302587  0.80347372  1
  Hf  Hf17  1  0.49827644  0.31515497  0.70222932  1
  Hf  Hf18  1  0.71125644  0.31022130  0.69990699  1
  Hf  Hf19  1  0.20495930  0.40059628  0.39991287  1
  Hf  Hf20  1  0.89599244  0.49734598  0.70965900  1
  Hf  Hf21  1  0.71083599  0.10407595  0.10560638  1
  Hf  Hf22  1  0.49896709  0.10174305  0.10724626  1
  Hf  Hf23  1  0.09151636  0.29320257  0.30590772  1
  Hf  Hf24  1  0.39124067  -0.00635186  0.20726476  1
  Hf  Hf25  1  0.88702152  0.89949042  0.69881703  1
  Hf  Hf26  1  0.70823476  0.30272466  0.50341998  1
  Hf  Hf27  1  -0.00323743  0.81111716  0.39252891  1
  Hf  Hf28  1  0.49479473  0.69181317  0.90187282  1
  Hf  Hf29  1  -0.00176224  0.79790804  0.59933958  1
  Hf  Hf30  1  0.20160773  0.60326010  -0.00230068  1
  Hf  Hf31  1  0.49906886  0.89610047  0.89224170  1
  Hf  Hf32  1  0.49145799  0.30940034  0.89102657  1
  Hf  Hf33  1  0.20485838  0.00607054  0.60218264  1
  Hf  Hf34  1  -0.00999351  0.00627389  0.80847694  1
  Hf  Hf35  1  0.89936965  0.68849082  0.70316152  1
  Hf  Hf36  1  0.88147856  0.91321505  0.49995566  1
  Hf  Hf37  1  0.10401442  0.50167877  0.70512025  1
  Hf  Hf38  1  0.70434542  0.49229133  0.10230068  1
  Hf  Hf39  1  0.10726388  0.69933281  0.30231765  1
  Hf  Hf40  1  0.10228475  0.29748361  0.89898601  1
  Hf  Hf41  1  0.37586460  0.60464236  0.60452991  1
  Hf  Hf42  1  0.29858599  0.89241578  0.70153775  1
  Hf  Hf43  1  0.49089129  0.50276091  0.89780206  1
  Hf  Hf44  1  0.20319238  0.78751521  0.60439704  1
  Hf  Hf45  1  -0.00183392  0.39601423  0.19619566  1
  Hf  Hf46  1  0.70077994  0.89829904  0.89078041  1
  Hf  Hf47  1  0.40182325  -0.00402089  0.59596473  1
  Hf  Hf48  1  0.90303093  0.69534049  0.30316796  1
  Hf  Hf49  1  0.31462669  0.29770824  0.49637436  1
  Zr  Zr50  1  0.80138078  0.79731272  -0.00730404  1
  Zr  Zr51  1  0.90188171  0.11713597  0.10050836  1
  Zr  Zr52  1  0.89887554  0.30004252  0.92298285  1
  Zr  Zr53  1  0.81526568  0.00486079  -0.01860114  1
  Zr  Zr54  1  0.10296342  0.89639360  0.90227627  1
  Zr  Zr55  1  0.40546185  0.78858456  0.58887217  1
  Zr  Zr56  1  0.90113283  0.49961684  0.29936338  1
  Zr  Zr57  1  0.50262926  0.09897215  0.69576653  1
  Zr  Zr58  1  0.59621830  0.59230477  0.20484199  1
  Zr  Zr59  1  0.60147411  0.80026194  0.19867621  1
  Zr  Zr60  1  0.08995873  0.11787841  0.69495163  1
  Zr  Zr61  1  0.08432598  0.28985030  0.08948731  1
  Zr  Zr62  1  0.29423535  0.30987046  0.70900099  1
  Zr  Zr63  1  0.90302865  0.69632267  0.09563645  1
  Zr  Zr64  1  -0.00226572  -0.00062044  0.60272071  1
  Zr  Zr65  1  0.71213932  0.09422209  0.50825215  1
  Zr  Zr66  1  0.70640082  0.90564224  0.10451711  1
  Zr  Zr67  1  0.90174720  0.90886059  0.10307674  1
  Zr  Zr68  1  0.39688319  0.00134525  0.79622932  1
  Zr  Zr69  1  0.59494344  0.39947528  0.40365347  1
  Zr  Zr70  1  0.60862403  0.59723606  0.80145573  1
  Zr  Zr71  1  0.40124714  0.59931705  0.40593088  1
  Zr  Zr72  1  0.89634017  0.49505814  0.09094706  1
  Zr  Zr73  1  0.79553419  0.58858351  0.59302330  1
  Zr  Zr74  1  0.29137885  0.30476459  0.89727887  1
  Zr  Zr75  1  0.29275637  0.69976595  0.29815806  1
  Zr  Zr76  1  0.40052586  0.19399933  -0.01117595  1
  Zr  Zr77  1  0.40145038  -0.00191516  0.40321780  1
  Zr  Zr78  1  0.50155883  0.90246758  0.09806308  1
  Zr  Zr79  1  0.60388178  0.20530434  -0.00178124  1
  Zr  Zr80  1  0.90050376  0.69302615  0.49437619  1
  Zr  Zr81  1  0.30019202  0.29513388  0.10279394  1
  Zr  Zr82  1  0.69953434  0.89931056  0.50418173  1
  Zr  Zr83  1  0.70580309  0.90633852  0.30989552  1
  Zr  Zr84  1  0.39403440  0.80249350  0.20007950  1
  Zr  Zr85  1  0.19745435  -0.00922729  0.00824490  1
  Zr  Zr86  1  0.30117679  0.09885708  0.10119946  1
  Zr  Zr87  1  0.39018375  0.79888626  0.00323047  1
  Zr  Zr88  1  0.39731481  0.41683121  0.60370238  1
  Zr  Zr89  1  0.60362143  0.20230286  0.80052416  1
  Zr  Zr90  1  0.20090961  0.40115437  0.19637525  1
  Zr  Zr91  1  0.60120334  0.00286010  -0.00606154  1
  Zr  Zr92  1  0.70014691  0.70121826  0.30931004  1
  Zr  Zr93  1  0.49835414  0.69670301  0.30291652  1
  Zr  Zr94  1  -0.00231998  0.79722529  0.80225948  1
  Zr  Zr95  1  0.20154247  0.19633414  0.20361955  1
  Zr  Zr96  1  0.20212278  0.41000549  0.59732662  1
  Zr  Zr97  1  0.09678260  0.10827462  0.49598339  1
  Zr  Zr98  1  0.70610517  0.49071911  0.30141332  1
  Zr  Zr99  1  0.50847200  0.51352967  0.51534076  1
  Ta  Ta100  1  0.09082542  0.09726345  0.10154016  1
  Ta  Ta101  1  0.59536275  0.00525597  0.40458913  1
  Ta  Ta102  1  0.29795663  0.50236597  0.89332250  1
  Ta  Ta103  1  0.60232631  0.00698708  0.21215168  1
  Ta  Ta104  1  0.79769493  0.79110615  0.80226902  1
  Ta  Ta105  1  0.39233922  0.19450303  0.79373866  1
  Ta  Ta106  1  0.59480465  0.39476232  0.20442211  1
  Ta  Ta107  1  0.10150522  0.50391469  0.30255122  1
  Ta  Ta108  1  0.29448011  0.89623426  0.49387009  1
  Ta  Ta109  1  0.70904084  0.29891394  0.29650445  1
  Ta  Ta110  1  0.70360772  0.69794106  0.69834638  1
  Ta  Ta111  1  0.20978159  0.00520759  0.39171431  1
  Ta  Ta112  1  0.80476204  0.79657784  0.20193063  1
  Ta  Ta113  1  0.30283140  0.50319100  0.29750315  1
  Ta  Ta114  1  0.49948417  0.10505261  0.30171912  1
  Ta  Ta115  1  0.90185586  0.68908408  0.90080290  1
  Ta  Ta116  1  0.50854625  0.89483746  0.69704191  1
  Ta  Ta117  1  0.69030154  0.69402473  0.50172089  1
  Ta  Ta118  1  0.29528796  0.89243391  0.89904697  1
  Ta  Ta119  1  0.49298087  0.29676708  0.30325103  1
  Ta  Ta120  1  0.89098301  0.10806245  0.69249408  1
  Ta  Ta121  1  0.49707783  0.68886815  0.09475473  1
  Ta  Ta122  1  0.59876259  0.79442664  0.60148088  1
  Ta  Ta123  1  0.60381486  0.20263099  0.20759448  1
  Ta  Ta124  1  0.89976653  0.29240222  0.29558000  1
  Ta  Ta125  1  0.60382397  0.79328457  0.79420661  1
  Ta  Ta126  1  0.21184448  0.19940177  0.39965230  1
  Ta  Ta127  1  0.10018783  0.50408428  0.09471551  1
  Ta  Ta128  1  0.71643018  0.30022740  0.10510601  1
  Ta  Ta129  1  0.60386297  0.78888288  -0.00621860  1
  Ta  Ta130  1  0.80467714  0.19942620  0.39946130  1
  Ta  Ta131  1  -0.00099411  0.39827463  0.40336670  1
  Ta  Ta132  1  0.60849478  0.00038928  0.79179779  1
  Ta  Ta133  1  0.09973143  0.68798675  0.70071140  1
  Ta  Ta134  1  0.00195076  -0.00221138  0.20239222  1
  Ta  Ta135  1  0.50330928  0.90285774  0.30703864  1
  Ta  Ta136  1  0.79277008  0.59479690  -0.00958594  1
  Ta  Ta137  1  0.19707556  0.78608345  0.80544835  1
  Ta  Ta138  1  0.79789763  0.60331613  0.19621198  1
  Ta  Ta139  1  0.29367989  0.09719692  0.89526040  1
  Ta  Ta140  1  0.19993523  0.81278921  0.18709288  1
  Ta  Ta141  1  0.69983220  0.69597844  0.09758815  1
  Ta  Ta142  1  0.80984007  0.39473018  0.40383371  1
  Ta  Ta143  1  0.31510008  0.29986995  0.30248911  1
  Ta  Ta144  1  0.39961990  0.80374325  0.40424339  1
  Ta  Ta145  1  0.49205758  0.50704040  0.10263275  1
  Ta  Ta146  1  0.30354109  0.10560770  0.50128025  1
  Ta  Ta147  1  0.70568404  0.10473361  0.89680204  1
  Ta  Ta148  1  0.60569097  0.59741019  -0.00224997  1
  Ta  Ta149  1  0.00690156  0.80853261  0.19953699  1
  Ti  Ti150  1  0.79909107  0.00528374  0.79635628  1
  Ti  Ti151  1  0.90319905  0.28905667  0.50035613  1
  Ti  Ti152  1  0.89604093  0.10729742  0.50725549  1
  Ti  Ti153  1  0.20272295  0.60366216  0.79943946  1
  Ti  Ti154  1  0.51110389  0.68371582  0.68821427  1
  Ti  Ti155  1  0.40802982  0.40855990  0.40288153  1
  Ti  Ti156  1  0.40304615  0.20271205  0.60374317  1
  Ti  Ti157  1  0.20295007  0.59586310  0.19313770  1
  Ti  Ti158  1  0.89515931  0.10535040  0.29326979  1
  Ti  Ti159  1  0.50042367  0.09664505  0.89415896  1
  Ti  Ti160  1  0.20064301  -0.00510228  0.20155822  1
  Ti  Ti161  1  0.19923689  0.40850212  0.00335970  1
  Ti  Ti162  1  0.30179410  0.69385012  0.10065766  1
  Ti  Ti163  1  0.00324811  0.59601513  0.81482596  1
  Ti  Ti164  1  0.39352122  -0.00393366  -0.00368296  1
  Ti  Ti165  1  0.60429740  0.40957948  0.60109596  1
  Ti  Ti166  1  0.19747196  0.19642230  0.79615179  1
  Ti  Ti167  1  0.31160002  0.11084423  0.30481685  1
  Ti  Ti168  1  0.10405062  0.50916710  0.49182663  1
  Ti  Ti169  1  0.79403459  0.59128011  0.40419798  1
  Ti  Ti170  1  0.00342589  0.59377202  0.59687496  1
  Ti  Ti171  1  0.10114572  0.89383223  0.70116790  1
  Ti  Ti172  1  0.80021001  0.79685687  0.40244604  1
  Ti  Ti173  1  0.70494076  0.49571573  0.70155596  1
  Ti  Ti174  1  0.70046569  0.89771514  0.69702592  1
  Ti  Ti175  1  0.10490005  0.50084370  0.89997547  1
  Ti  Ti176  1  0.90806581  0.50140607  0.49198132  1
  Ti  Ti177  1  0.19178992  0.18549454  -0.00556837  1
  Ti  Ti178  1  0.49513028  0.10797870  0.49848544  1
  Ti  Ti179  1  0.89967321  0.29678089  0.69400532  1
  Ti  Ti180  1  0.80857331  0.40432006  0.59162060  1
  Ti  Ti181  1  0.20795336  0.20318669  0.60623512  1
  Ti  Ti182  1  0.00219626  0.00611003  -0.00693680  1
  Ti  Ti183  1  0.00140012  0.41412843  -0.00521081  1
  Ti  Ti184  1  0.60099037  0.59341006  0.40455255  1
  Ti  Ti185  1  0.79459348  0.79187579  0.60009842  1
  Ti  Ti186  1  0.58602035  0.80333096  0.41372336  1
  Ti  Ti187  1  0.40170951  0.41058058  0.20450046  1
  Ti  Ti188  1  0.28079517  0.69599898  0.48447190  1
  Ti  Ti189  1  0.10677611  0.70436864  0.09545164  1
  Ti  Ti190  1  -0.00371897  0.20097677  0.80378456  1
  Ti  Ti191  1  0.70998657  0.31093271  0.90445961  1
  Ti  Ti192  1  0.60753141  0.41015767  0.80258946  1
  Ti  Ti193  1  0.30098462  0.69569139  0.89908823  1
  Ti  Ti194  1  0.59928123  -0.00349634  0.60034505  1
  Ti  Ti195  1  0.10861553  0.90290574  0.29908429  1
  Ti  Ti196  1  0.79463660  0.59361199  0.81152724  1
  Ti  Ti197  1  0.88801284  0.90789046  0.29555417  1
  Ti  Ti198  1  0.39582625  0.59333567  0.78495194  1
  Ti  Ti199  1  0.70853204  0.10078766  0.30110073  1
  Mo  Mo200  1  0.61141718  0.59946467  0.60613378  1
  Mo  Mo201  1  0.80358011  0.00446342  0.20929961  1
  Mo  Mo202  1  0.50038656  0.30392318  0.50468143  1
  Mo  Mo203  1  0.29660679  0.50639821  0.10448154  1
  Mo  Mo204  1  0.20279543  0.81038544  0.39203816  1
  Mo  Mo205  1  0.19326559  0.40785035  0.80569026  1
  Mo  Mo206  1  0.09623147  0.90430319  0.10555092  1
  Mo  Mo207  1  0.09878341  0.69151042  0.89835586  1
  Mo  Mo208  1  0.00286785  0.18495284  -0.00879774  1
  Mo  Mo209  1  0.49393855  0.49243506  0.29696331  1
  Mo  Mo210  1  0.29416615  0.90028392  0.09779020  1
  Mo  Mo211  1  0.80190828  0.40291164  0.80512922  1
  Mo  Mo212  1  0.39411598  0.41196358  0.79892074  1
  Mo  Mo213  1  0.89816662  0.50202605  0.89945333  1
  Mo  Mo214  1  0.09760566  0.29826625  0.70327870  1
  Mo  Mo215  1  -0.01016883  0.20785442  0.60236938  1
  Mo  Mo216  1  0.80127903  0.01410708  0.39568659  1
  Mo  Mo217  1  0.89765855  0.89554949  0.89132205  1
  Mo  Mo218  1  0.79726616  0.20408993  -0.00134773  1
  Mo  Mo219  1  -0.00440740  0.19720130  0.20072448  1
  Mo  Mo220  1  0.29548900  0.89913142  0.30155864  1
  Mo  Mo221  1  0.00507440  0.59004135  0.39747061  1
  Mo  Mo222  1  0.80387696  0.39371804  0.20173014  1
  Mo  Mo223  1  0.19522884  0.60004852  0.59562688  1
  Mo  Mo224  1  0.29555241  0.50321967  0.48790916  1
  Mo  Mo225  1  0.40454540  0.19758528  0.21186141  1
  Mo  Mo226  1  0.70522856  0.49601318  0.49860754  1
  Mo  Mo227  1  0.70282926  0.49275183  0.90128929  1
  Mo  Mo228  1  0.20176749  0.59061370  0.39612787  1
  Mo  Mo229  1  0.28829105  0.69397901  0.70638830  1
  Mo  Mo230  1  0.70297235  0.09634463  0.70195967  1
  Mo  Mo231  1  0.39378535  0.60022547  0.00365261  1
  Mo  Mo232  1  0.79448835  0.00600437  0.61349843  1
  Mo  Mo233  1  0.40645063  0.20030565  0.40629685  1
  Mo  Mo234  1  -0.01461845  0.20095461  0.40054438  1
  Mo  Mo235  1  0.50637128  0.50450643  0.70477870  1
  Mo  Mo236  1  0.09947690  0.10480897  0.90064056  1
  Mo  Mo237  1  0.79710102  0.40148733  -0.00076452  1
  Mo  Mo238  1  0.90105436  0.10600782  0.89319506  1
  Mo  Mo239  1  0.39478860  0.59486592  0.19633127  1
  Mo  Mo240  1  0.79865486  0.20171911  0.20637079  1
  Mo  Mo241  1  0.89470671  0.30107670  0.10312239  1
  Mo  Mo242  1  0.70117674  0.69695046  0.89769524  1
  Mo  Mo243  1  0.00881792  0.59934656  -0.00724412  1
  Mo  Mo244  1  0.50285443  0.89930343  0.50131804  1
  Mo  Mo245  1  0.29878980  0.11042980  0.69671872  1
  Mo  Mo246  1  0.29012588  0.50491865  0.71466557  1
  Mo  Mo247  1  0.20252833  0.79124622  0.00139901  1
  Mo  Mo248  1  0.50990311  0.70058278  0.50158485  1
  Mo  Mo249  1  0.80315625  0.20453633  0.60247200  1
