# generated using pymatgen
data_HfZrTaTiMo
_symmetry_space_group_name_H-M   'P 1'
_cell_length_a   16.88119959
_cell_length_b   16.88667263
_cell_length_c   16.88803437
_cell_angle_alpha   90.05822995
_cell_angle_beta   89.95914182
_cell_angle_gamma   89.90927201
_symmetry_Int_Tables_number   1
_chemical_formula_structural   HfZrTaTiMo
_chemical_formula_sum   'Hf50 Zr50 Ta50 Ti50 Mo50'
_cell_volume   4814.21645705
_cell_formula_units_Z   50
loop_
 _symmetry_equiv_pos_site_id
 _symmetry_equiv_pos_as_xyz
  1  'x, y, z'
loop_
 _atom_site_type_symbol
 _atom_site_label
 _atom_site_symmetry_multiplicity
 _atom_site_fract_x
 _atom_site_fract_y
 _atom_site_fract_z
 _atom_site_occupancy
  Hf  Hf0  1  0.41798516  0.18975875  0.80205659  1
  Hf  Hf1  1  0.90400661  0.50825896  0.90593819  1
  Hf  Hf2  1  0.59944528  0.19903981  0.20276658  1
  Hf  Hf3  1  0.70044396  0.30647466  0.49905348  1
  Hf  Hf4  1  -0.00487126  0.19763063  0.59898384  1
  Hf  Hf5  1  0.89706802  0.89449971  0.29639589  1
  Hf  Hf6  1  0.69858175  0.30315838  0.09957123  1
  Hf  Hf7  1  0.59491323  0.00331150  0.20255067  1
  Hf  Hf8  1  0.50098254  0.30465020  0.30777773  1
  Hf  Hf9  1  0.50635735  0.70047721  0.09742261  1
  Hf  Hf10  1  0.19652324  0.40258405  0.59996231  1
  Hf  Hf11  1  -0.00356076  -0.00132419  0.79638240  1
  Hf  Hf12  1  0.79904176  0.79544044  -0.00504148  1
  Hf  Hf13  1  0.50566992  0.30226924  0.50422634  1
  Hf  Hf14  1  0.18518090  0.62031414  -0.00495952  1
  Hf  Hf15  1  0.50651555  0.49783462  0.70593564  1
  Hf  Hf16  1  0.19804380  0.80309913  0.00363155  1
  Hf  Hf17  1  0.10414387  0.70269694  0.69322260  1
  Hf  Hf18  1  0.10348906  0.09810925  0.69575744  1
  Hf  Hf19  1  0.29898788  0.09761266  0.69876217  1
  Hf  Hf20  1  0.39410483  0.20887892  0.40821127  1
  Hf  Hf21  1  0.79563447  0.21341133  0.79642781  1
  Hf  Hf22  1  0.49998315  0.50627263  0.30187964  1
  Hf  Hf23  1  0.10286790  0.10304824  0.90027494  1
  Hf  Hf24  1  0.09757509  0.70238705  0.49909741  1
  Hf  Hf25  1  0.00516021  0.39463517  0.00654679  1
  Hf  Hf26  1  0.79508605  0.19470128  0.20910605  1
  Hf  Hf27  1  0.59527832  0.41443353  0.40809732  1
  Hf  Hf28  1  0.80300764  0.00774414  0.40024307  1
  Hf  Hf29  1  0.40002329  0.60308687  0.20198739  1
  Hf  Hf30  1  -0.01122751  0.79503124  0.79520400  1
  Hf  Hf31  1  0.58517259  0.00416139  0.79835897  1
  Hf  Hf32  1  0.80471623  0.40058739  0.79694034  1
  Hf  Hf33  1  0.30104976  0.49879501  0.89723609  1
  Hf  Hf34  1  0.90760451  0.69786691  0.48667367  1
  Hf  Hf35  1  -0.00669668  0.80644847  0.59650669  1
  Hf  Hf36  1  0.39061035  0.20881901  0.20162335  1
  Hf  Hf37  1  0.69356420  0.50821853  0.29108678  1
  Hf  Hf38  1  0.91266780  0.69049034  0.09769088  1
  Hf  Hf39  1  0.39257046  0.59830919  0.60796262  1
  Hf  Hf40  1  0.79655252  0.20374195  -0.00378614  1
  Hf  Hf41  1  0.88632774  0.08920768  0.69927429  1
  Hf  Hf42  1  0.90035113  0.49713432  0.50126946  1
  Hf  Hf43  1  0.50411335  0.89277516  0.49941875  1
  Hf  Hf44  1  0.10805604  0.28528008  0.30179638  1
  Hf  Hf45  1  0.89520092  0.30610952  0.49800088  1
  Hf  Hf46  1  0.89995683  0.30013631  0.30027314  1
  Hf  Hf47  1  0.40152202  0.60066132  0.41019944  1
  Hf  Hf48  1  0.28363991  0.51247313  0.10527164  1
  Hf  Hf49  1  0.40567364  -0.00548816  0.80020528  1
  Zr  Zr50  1  0.39963386  0.39947359  0.59868484  1
  Zr  Zr51  1  0.30263686  0.29168718  0.69792927  1
  Zr  Zr52  1  0.39939578  0.39887892  0.00286832  1
  Zr  Zr53  1  0.69815962  0.49716088  0.69983427  1
  Zr  Zr54  1  0.39385958  0.40041773  0.19774795  1
  Zr  Zr55  1  -0.00321298  -0.00224219  0.00584839  1
  Zr  Zr56  1  0.40340480  0.59603065  0.00520749  1
  Zr  Zr57  1  0.09089484  0.52280759  0.10680893  1
  Zr  Zr58  1  0.40592011  0.00304933  -0.00271854  1
  Zr  Zr59  1  0.40094480  0.80496886  0.20506021  1
  Zr  Zr60  1  0.70075575  0.90049283  0.09912602  1
  Zr  Zr61  1  0.21081933  0.60247800  0.78797431  1
  Zr  Zr62  1  0.40301797  0.80529914  0.79217364  1
  Zr  Zr63  1  0.29873805  0.29328738  0.90041107  1
  Zr  Zr64  1  0.01996081  0.41018050  0.40398596  1
  Zr  Zr65  1  0.69995382  0.90144639  0.30018526  1
  Zr  Zr66  1  0.79909962  0.39880597  -0.00191271  1
  Zr  Zr67  1  0.50322539  0.30143628  0.09481618  1
  Zr  Zr68  1  0.40385948  -0.00650011  0.60724088  1
  Zr  Zr69  1  0.70614483  0.90643465  0.69605751  1
  Zr  Zr70  1  -0.00311333  0.00812015  0.20933472  1
  Zr  Zr71  1  0.19847944  0.59703701  0.40833573  1
  Zr  Zr72  1  0.00837722  0.39753728  0.19953073  1
  Zr  Zr73  1  0.19808546  -0.00051031  0.00816191  1
  Zr  Zr74  1  0.10070783  0.50214048  0.89710715  1
  Zr  Zr75  1  0.79937326  0.79826858  0.59692415  1
  Zr  Zr76  1  0.79399058  0.60058712  0.39723241  1
  Zr  Zr77  1  0.60750067  0.80127395  0.80538814  1
  Zr  Zr78  1  0.89102570  0.09788945  0.10458812  1
  Zr  Zr79  1  0.90852869  0.50805685  0.29516245  1
  Zr  Zr80  1  0.09729473  0.89585490  0.89871672  1
  Zr  Zr81  1  0.10216235  0.89731862  0.69408838  1
  Zr  Zr82  1  0.20522495  0.38663728  0.20185497  1
  Zr  Zr83  1  -0.00411877  0.39656283  0.78962321  1
  Zr  Zr84  1  0.29804069  0.10237720  0.50719726  1
  Zr  Zr85  1  0.00112809  0.00134141  0.40476349  1
  Zr  Zr86  1  0.50239937  0.69809807  0.69860346  1
  Zr  Zr87  1  0.60101905  0.19056374  0.60588244  1
  Zr  Zr88  1  0.29928966  0.90768707  0.29512830  1
  Zr  Zr89  1  0.29547568  0.10137883  0.29672970  1
  Zr  Zr90  1  0.69907760  0.09868069  0.89380107  1
  Zr  Zr91  1  0.10587269  0.29499295  0.89761211  1
  Zr  Zr92  1  0.69101112  0.69312554  0.09691986  1
  Zr  Zr93  1  -0.00243859  0.18238830  0.40241412  1
  Zr  Zr94  1  0.80643630  0.60267966  0.60890312  1
  Zr  Zr95  1  0.39983842  -0.00127442  0.40835368  1
  Zr  Zr96  1  0.31284923  0.70095487  0.89820343  1
  Zr  Zr97  1  0.20195663  0.80941659  0.40903900  1
  Zr  Zr98  1  0.79625517  0.19394473  0.59541961  1
  Zr  Zr99  1  0.50233367  0.89966537  0.10038476  1
  Ta  Ta100  1  0.29737260  0.10009710  0.90178377  1
  Ta  Ta101  1  0.20906476  -0.00690396  0.79671956  1
  Ta  Ta102  1  0.51095836  0.30184511  0.70392385  1
  Ta  Ta103  1  0.50213451  0.70476804  0.50171069  1
  Ta  Ta104  1  0.19522194  0.80086998  0.20140605  1
  Ta  Ta105  1  -0.00003083  0.40060233  0.60479892  1
  Ta  Ta106  1  0.69094212  0.69956014  0.49624633  1
  Ta  Ta107  1  0.80167644  0.79142783  0.19846553  1
  Ta  Ta108  1  0.18976036  0.00137293  0.40802552  1
  Ta  Ta109  1  0.69525206  0.09464581  0.09668717  1
  Ta  Ta110  1  0.50763149  0.69835584  0.30577488  1
  Ta  Ta111  1  0.80094511  0.60326378  0.19545590  1
  Ta  Ta112  1  0.09652433  0.89587808  0.30179698  1
  Ta  Ta113  1  0.89611792  0.09790243  0.89648849  1
  Ta  Ta114  1  0.40399999  0.40010452  0.79913796  1
  Ta  Ta115  1  -0.00614711  0.60454338  0.79079107  1
  Ta  Ta116  1  0.70036348  0.49809896  0.50758763  1
  Ta  Ta117  1  0.59617263  0.59684137  0.59097181  1
  Ta  Ta118  1  0.89262180  0.89988087  0.89841393  1
  Ta  Ta119  1  0.00381486  0.59201096  0.60190780  1
  Ta  Ta120  1  0.29761389  0.49962054  0.30628470  1
  Ta  Ta121  1  0.30194257  0.49265667  0.49829402  1
  Ta  Ta122  1  0.50631991  0.50292268  0.89451966  1
  Ta  Ta123  1  0.20565645  0.59552807  0.59976084  1
  Ta  Ta124  1  0.09295133  0.70080030  0.30161790  1
  Ta  Ta125  1  0.20818256  0.79969517  0.79572918  1
  Ta  Ta126  1  0.80259911  0.60885249  0.79972438  1
  Ta  Ta127  1  0.10163406  0.29743244  0.50162943  1
  Ta  Ta128  1  0.69677248  0.50563238  0.90136604  1
  Ta  Ta129  1  0.29595362  0.69851363  0.30106657  1
  Ta  Ta130  1  0.90547330  0.70199535  0.29956862  1
  Ta  Ta131  1  0.90019753  0.50653868  0.09947048  1
  Ta  Ta132  1  0.69482287  0.69836011  0.29760277  1
  Ta  Ta133  1  0.30242623  0.90013668  0.90074490  1
  Ta  Ta134  1  0.60064256  0.80034635  0.39816195  1
  Ta  Ta135  1  0.09344162  0.89722660  0.10938991  1
  Ta  Ta136  1  -0.00122124  0.19421350  0.00244697  1
  Ta  Ta137  1  -0.00893103  0.20084816  0.79558093  1
  Ta  Ta138  1  0.19797309  0.39302582  0.01056254  1
  Ta  Ta139  1  0.10524386  0.27699602  0.10064979  1
  Ta  Ta140  1  0.29552350  0.70580943  0.10680722  1
  Ta  Ta141  1  0.59571461  0.19605258  -0.00897537  1
  Ta  Ta142  1  0.59782545  0.00438574  0.59473295  1
  Ta  Ta143  1  0.90477827  0.29615776  0.10573731  1
  Ta  Ta144  1  0.29657821  0.10454326  0.10128116  1
  Ta  Ta145  1  0.79915324  -0.00258620  -0.00063281  1
  Ta  Ta146  1  0.50611730  0.69276052  0.90202679  1
  Ta  Ta147  1  0.19864617  -0.01464079  0.58990629  1
  Ta  Ta148  1  -0.00473485  0.00230165  0.58773606  1
  Ta  Ta149  1  0.50130181  0.10123259  0.31055093  1
  Ti  Ti150  1  0.79446506  0.79750107  0.39747530  1
  Ti  Ti151  1  0.69483010  0.90055546  0.49903053  1
  Ti  Ti152  1  0.60355108  0.40122904  -0.00749827  1
  Ti  Ti153  1  0.69520627  0.30254208  0.30687049  1
  Ti  Ti154  1  0.41046596  0.19497409  0.60085319  1
  Ti  Ti155  1  0.00340290  0.18692895  0.20456386  1
  Ti  Ti156  1  0.39876967  0.79844193  0.40060521  1
  Ti  Ti157  1  0.40272728  0.19764078  -0.00221621  1
  Ti  Ti158  1  0.51875668  0.50637421  0.09776009  1
  Ti  Ti159  1  0.70148990  0.09122491  0.70423080  1
  Ti  Ti160  1  0.60096748  0.40179572  0.19967502  1
  Ti  Ti161  1  0.90646718  0.29575110  0.90311373  1
  Ti  Ti162  1  0.89393166  0.89982267  0.49565162  1
  Ti  Ti163  1  0.10844659  0.51247047  0.29675928  1
  Ti  Ti164  1  0.79507361  0.40593527  0.39311603  1
  Ti  Ti165  1  0.51113820  0.88761273  0.68529315  1
  Ti  Ti166  1  0.10031331  0.50152748  0.69936188  1
  Ti  Ti167  1  0.69568337  0.30963550  0.69194462  1
  Ti  Ti168  1  0.59960495  0.79902480  0.20766890  1
  Ti  Ti169  1  0.09943920  0.29473384  0.69891156  1
  Ti  Ti170  1  0.40232246  0.80529456  -0.00130605  1
  Ti  Ti171  1  0.68835059  0.09582851  0.48905819  1
  Ti  Ti172  1  0.79719774  0.19374600  0.39766828  1
  Ti  Ti173  1  0.20638003  0.40096938  0.78999496  1
  Ti  Ti174  1  0.18826411  0.00526228  0.20030806  1
  Ti  Ti175  1  0.69513304  0.70236101  0.69340903  1
  Ti  Ti176  1  0.00780091  0.79027527  -0.00315785  1
  Ti  Ti177  1  0.00162641  0.79704524  0.19907027  1
  Ti  Ti178  1  0.69266874  0.09689977  0.30537464  1
  Ti  Ti179  1  0.70593496  0.90559010  0.89610212  1
  Ti  Ti180  1  0.20000843  0.19592732  0.79697697  1
  Ti  Ti181  1  0.30332392  0.71018242  0.51003135  1
  Ti  Ti182  1  0.88699208  0.90624421  0.69881941  1
  Ti  Ti183  1  0.20030323  0.19761362  0.40658447  1
  Ti  Ti184  1  0.61004323  0.60704467  0.80524786  1
  Ti  Ti185  1  0.49550913  0.10162273  0.10246151  1
  Ti  Ti186  1  0.30174162  0.90674366  0.10710657  1
  Ti  Ti187  1  0.60233223  0.80095831  -0.01489227  1
  Ti  Ti188  1  0.90257436  0.69721470  0.90139848  1
  Ti  Ti189  1  0.80029528  0.79017842  0.80002676  1
  Ti  Ti190  1  0.19600920  0.20240619  0.59265155  1
  Ti  Ti191  1  0.59465329  0.00153911  -0.00775821  1
  Ti  Ti192  1  0.80116574  0.40326200  0.19733113  1
  Ti  Ti193  1  0.49953404  0.90545969  0.30452244  1
  Ti  Ti194  1  0.69792862  0.50369601  0.09865754  1
  Ti  Ti195  1  0.50801719  0.29985490  0.89641226  1
  Ti  Ti196  1  0.20726077  0.39341115  0.40528549  1
  Ti  Ti197  1  0.79456983  0.60261756  -0.00371844  1
  Ti  Ti198  1  0.89726797  0.89571050  0.10171695  1
  Ti  Ti199  1  0.60635115  0.39228205  0.80679610  1
  Mo  Mo200  1  0.30215166  0.49615630  0.70203988  1
  Mo  Mo201  1  0.59891485  0.00075108  0.40191598  1
  Mo  Mo202  1  0.21035181  0.79889209  0.60139362  1
  Mo  Mo203  1  0.39798952  0.79760524  0.59721352  1
  Mo  Mo204  1  0.30117196  0.70373681  0.69179597  1
  Mo  Mo205  1  0.68949960  0.30453321  0.90029679  1
  Mo  Mo206  1  0.90359466  0.50178934  0.70080977  1
  Mo  Mo207  1  0.29713688  0.30471313  0.31437737  1
  Mo  Mo208  1  0.88878021  0.09718268  0.50384394  1
  Mo  Mo209  1  0.10455784  0.10067509  0.50556907  1
  Mo  Mo210  1  0.88525208  0.10247098  0.30168658  1
  Mo  Mo211  1  0.79310197  -0.00106130  0.58691013  1
  Mo  Mo212  1  0.09613254  0.89955878  0.49882468  1
  Mo  Mo213  1  0.11100493  0.09654857  0.30223508  1
  Mo  Mo214  1  0.79335735  -0.00201714  0.19753490  1
  Mo  Mo215  1  -0.00051147  0.80443373  0.39650915  1
  Mo  Mo216  1  0.70330126  0.69427728  0.89779938  1
  Mo  Mo217  1  0.09352775  0.70520696  0.88640533  1
  Mo  Mo218  1  0.19998942  0.19273019  0.19973259  1
  Mo  Mo219  1  0.50159656  0.89337828  0.90717516  1
  Mo  Mo220  1  0.79908535  -0.00454751  0.80709857  1
  Mo  Mo221  1  0.40600648  0.01128698  0.19711011  1
  Mo  Mo222  1  0.39321768  0.40308878  0.40270394  1
  Mo  Mo223  1  0.89895980  0.30208240  0.69406986  1
  Mo  Mo224  1  0.59944654  0.59963873  0.19856942  1
  Mo  Mo225  1  0.29357635  0.28698773  0.08903865  1
  Mo  Mo226  1  0.29664155  0.89588202  0.69778927  1
  Mo  Mo227  1  0.60409171  0.20727684  0.79775395  1
  Mo  Mo228  1  0.60287614  0.79711517  0.59263589  1
  Mo  Mo229  1  0.59813747  0.60524158  0.40432016  1
  Mo  Mo230  1  0.20117448  0.19526553  0.00305888  1
  Mo  Mo231  1  0.40912982  0.59357085  0.80136101  1
  Mo  Mo232  1  0.19973660  0.61324603  0.21007202  1
  Mo  Mo233  1  -0.00023103  0.61050527  -0.01221594  1
  Mo  Mo234  1  0.10108751  0.10084562  0.10570164  1
  Mo  Mo235  1  0.09772276  0.71245314  0.10944277  1
  Mo  Mo236  1  0.60192140  0.40364965  0.60144494  1
  Mo  Mo237  1  0.60148494  0.59204352  -0.00451744  1
  Mo  Mo238  1  0.80350423  0.39834478  0.60375665  1
  Mo  Mo239  1  0.60169388  0.19692251  0.39869419  1
  Mo  Mo240  1  0.50603366  0.10079939  0.49914640  1
  Mo  Mo241  1  0.90036700  0.69846342  0.69916813  1
  Mo  Mo242  1  0.29324028  0.30050157  0.50102610  1
  Mo  Mo243  1  0.10384525  0.49768338  0.50759449  1
  Mo  Mo244  1  0.30267910  0.89349957  0.50418401  1
  Mo  Mo245  1  0.00670576  0.60257680  0.40012019  1
  Mo  Mo246  1  0.00005670  0.60542474  0.20728500  1
  Mo  Mo247  1  0.50492173  0.10175474  0.69815989  1
  Mo  Mo248  1  0.49933082  0.50479593  0.50349398  1
  Mo  Mo249  1  0.50099811  0.10291003  0.90487012  1
