# generated using pymatgen
data_HfZrTaTiMo
_symmetry_space_group_name_H-M   'P 1'
_cell_length_a   16.88145113
_cell_length_b   16.88404960
_cell_length_c   16.88483775
_cell_angle_alpha   89.95890546
_cell_angle_beta   90.00743790
_cell_angle_gamma   89.99873495
_symmetry_Int_Tables_number   1
_chemical_formula_structural   HfZrTaTiMo
_chemical_formula_sum   'Hf50 Zr50 Ta50 Ti50 Mo50'
_cell_volume   4812.63773203
_cell_formula_units_Z   50
loop_
 _symmetry_equiv_pos_site_id
 _symmetry_equiv_pos_as_xyz
  1  'x, y, z'
loop_
 _atom_site_type_symbol
 _atom_site_label
 _atom_site_symmetry_multiplicity
 _atom_site_fract_x
 _atom_site_fract_y
 _atom_site_fract_z
 _atom_site_occupancy
  Hf  Hf0  1  0.30213678  0.68915831  0.49844453  1
  Hf  Hf1  1  0.10133715  0.30302806  0.69593399  1
  Hf  Hf2  1  0.87692587  0.88238184  0.10365242  1
  Hf  Hf3  1  -0.00372469  0.19899540  0.20355855  1
  Hf  Hf4  1  -0.00108030  0.00184064  0.19504261  1
  Hf  Hf5  1  0.69855444  0.90020741  0.30451301  1
  Hf  Hf6  1  0.49712168  0.30076675  0.50652717  1
  Hf  Hf7  1  0.41212604  0.40607127  0.79238615  1
  Hf  Hf8  1  0.39592944  0.19821437  -0.00891991  1
  Hf  Hf9  1  0.29427353  0.89977784  0.70617731  1
  Hf  Hf10  1  0.30692256  0.09251876  0.50264032  1
  Hf  Hf11  1  0.79517344  0.60725862  0.79675363  1
  Hf  Hf12  1  0.00246466  0.59250079  0.19841020  1
  Hf  Hf13  1  0.51351268  0.70214431  0.90158786  1
  Hf  Hf14  1  0.90147301  0.50278610  0.89938833  1
  Hf  Hf15  1  0.09741463  0.30565777  0.49858852  1
  Hf  Hf16  1  0.89566343  0.89363176  0.70764206  1
  Hf  Hf17  1  0.51545419  0.09935114  0.90033593  1
  Hf  Hf18  1  0.30117385  0.30313822  0.11148562  1
  Hf  Hf19  1  0.50864047  0.09735881  0.09112823  1
  Hf  Hf20  1  0.09013138  0.89105353  0.49457568  1
  Hf  Hf21  1  0.40861595  0.40267486  -0.00983007  1
  Hf  Hf22  1  0.10454792  0.30696893  0.30518806  1
  Hf  Hf23  1  0.29605362  0.09386291  0.69481592  1
  Hf  Hf24  1  0.20254648  0.60271568  -0.00299881  1
  Hf  Hf25  1  -0.00119838  0.60561653  0.79348269  1
  Hf  Hf26  1  0.20219342  0.80000103  0.59591320  1
  Hf  Hf27  1  0.30535676  0.09573787  0.30386305  1
  Hf  Hf28  1  0.89353781  0.30549013  0.89416028  1
  Hf  Hf29  1  0.58986308  0.59394407  0.60667756  1
  Hf  Hf30  1  0.29925033  0.68633600  0.69457224  1
  Hf  Hf31  1  0.30046463  0.30565283  0.50316330  1
  Hf  Hf32  1  0.50831148  0.89825629  0.08497614  1
  Hf  Hf33  1  0.20609855  0.19627079  0.79768545  1
  Hf  Hf34  1  0.60579137  0.20515318  0.40755104  1
  Hf  Hf35  1  0.70743311  0.30458053  0.09647167  1
  Hf  Hf36  1  0.49785792  0.29828416  0.29933299  1
  Hf  Hf37  1  0.09648457  0.69391980  0.09423066  1
  Hf  Hf38  1  0.40601750  0.20397114  0.79981100  1
  Hf  Hf39  1  0.39680330  0.00756930  0.80783120  1
  Hf  Hf40  1  0.89974186  0.89588714  0.30247533  1
  Hf  Hf41  1  0.89870102  0.71056522  0.89588977  1
  Hf  Hf42  1  0.20647602  0.79272602  -0.00903774  1
  Hf  Hf43  1  0.69966931  0.09564217  0.30542376  1
  Hf  Hf44  1  -0.00473081  -0.00322093  0.00617852  1
  Hf  Hf45  1  0.80740047  0.00544639  0.41502017  1
  Hf  Hf46  1  0.60096291  0.80498773  0.20609917  1
  Hf  Hf47  1  0.09571851  0.89933035  0.88954294  1
  Hf  Hf48  1  0.89469652  0.09688309  0.71084558  1
  Hf  Hf49  1  0.09922692  0.30652133  0.89301064  1
  Zr  Zr50  1  0.10629443  0.51004265  0.69244162  1
  Zr  Zr51  1  0.20142466  0.00429555  0.19276651  1
  Zr  Zr52  1  0.71272652  0.71275431  0.10176934  1
  Zr  Zr53  1  0.10448992  0.30549497  0.11006154  1
  Zr  Zr54  1  0.00058512  0.41010585  0.00851732  1
  Zr  Zr55  1  0.79687494  0.19377922  0.59432025  1
  Zr  Zr56  1  0.00379170  0.79658554  0.19815801  1
  Zr  Zr57  1  0.09623843  0.69270514  0.49966477  1
  Zr  Zr58  1  0.49739656  0.09531194  0.50416775  1
  Zr  Zr59  1  0.39231792  0.61413283  0.19843922  1
  Zr  Zr60  1  -0.00429444  0.80025681  -0.00083130  1
  Zr  Zr61  1  0.59395634  0.79848426  0.60920145  1
  Zr  Zr62  1  0.79774354  0.59331899  0.40403699  1
  Zr  Zr63  1  -0.01424699  0.00817347  0.59224105  1
  Zr  Zr64  1  0.88611135  0.31238305  0.49969725  1
  Zr  Zr65  1  0.89338597  0.69660363  0.29169446  1
  Zr  Zr66  1  0.70173936  0.50431315  0.90006851  1
  Zr  Zr67  1  0.50869154  0.50646431  0.29781184  1
  Zr  Zr68  1  0.91192623  0.69525664  0.50095433  1
  Zr  Zr69  1  0.50207646  0.89448508  0.90662395  1
  Zr  Zr70  1  0.51042356  0.70026446  0.31401195  1
  Zr  Zr71  1  0.49837551  0.89278107  0.71425812  1
  Zr  Zr72  1  0.70838323  0.30513594  0.70308684  1
  Zr  Zr73  1  0.60755207  0.19674975  0.20144273  1
  Zr  Zr74  1  0.89447756  0.49878347  0.69168928  1
  Zr  Zr75  1  0.09780918  0.10380548  0.50358496  1
  Zr  Zr76  1  0.50081085  0.29673949  0.09731305  1
  Zr  Zr77  1  0.20965869  0.78724037  0.20201072  1
  Zr  Zr78  1  -0.00018277  0.19629473  0.00823472  1
  Zr  Zr79  1  0.09230889  0.90294618  0.70265445  1
  Zr  Zr80  1  0.30677788  0.89594035  0.09482143  1
  Zr  Zr81  1  0.59842943  0.40084328  0.59990400  1
  Zr  Zr82  1  0.51044584  0.51503542  0.09274012  1
  Zr  Zr83  1  0.89318897  0.09683852  0.89610337  1
  Zr  Zr84  1  0.80389577  0.20268196  0.20457358  1
  Zr  Zr85  1  0.60574298  0.40165291  0.19726960  1
  Zr  Zr86  1  0.40872023  -0.00399990  0.20049594  1
  Zr  Zr87  1  0.20363067  0.18557846  0.00635047  1
  Zr  Zr88  1  0.19712543  0.41011594  0.00267292  1
  Zr  Zr89  1  0.89775783  0.88147063  0.51057956  1
  Zr  Zr90  1  0.40210784  0.79363719  0.59950291  1
  Zr  Zr91  1  0.20228890  0.19754043  0.40102287  1
  Zr  Zr92  1  0.40240006  0.40659999  0.40646141  1
  Zr  Zr93  1  0.29890146  0.50049889  0.10546101  1
  Zr  Zr94  1  0.29418140  0.31158420  0.89050759  1
  Zr  Zr95  1  0.68795587  0.70289053  0.50019174  1
  Zr  Zr96  1  0.09456061  0.09085839  0.88551655  1
  Zr  Zr97  1  0.50944591  0.70150248  0.09188640  1
  Zr  Zr98  1  0.78834473  0.79267067  0.40078262  1
  Zr  Zr99  1  0.28925842  0.49470786  0.30410913  1
  Ta  Ta100  1  0.89573370  0.49891149  0.30196658  1
  Ta  Ta101  1  0.71105308  0.31253611  0.31196251  1
  Ta  Ta102  1  0.20187895  0.00345832  -0.00259058  1
  Ta  Ta103  1  0.69324644  0.90119963  0.50782796  1
  Ta  Ta104  1  0.70563947  0.51005292  0.10051867  1
  Ta  Ta105  1  0.89767666  0.30577414  0.70070278  1
  Ta  Ta106  1  -0.01447894  0.19954359  0.39633288  1
  Ta  Ta107  1  0.70251355  0.49656372  0.70320430  1
  Ta  Ta108  1  0.70098873  0.09704289  0.89672895  1
  Ta  Ta109  1  0.88697805  0.09674240  0.09945354  1
  Ta  Ta110  1  0.10060432  0.50446661  0.89216248  1
  Ta  Ta111  1  0.70543536  0.50385282  0.29420881  1
  Ta  Ta112  1  0.20603079  0.80191133  0.39938798  1
  Ta  Ta113  1  0.39989386  0.80620973  0.40055752  1
  Ta  Ta114  1  0.09796177  0.09553695  0.69958828  1
  Ta  Ta115  1  0.40386655  0.80139680  0.20758435  1
  Ta  Ta116  1  0.59994666  0.39350806  0.80738311  1
  Ta  Ta117  1  0.60370797  0.19624762  0.60456915  1
  Ta  Ta118  1  0.69762718  0.89490000  0.90316044  1
  Ta  Ta119  1  0.09767051  0.09661951  0.30339318  1
  Ta  Ta120  1  0.79355031  -0.00542619  -0.00074153  1
  Ta  Ta121  1  0.60106775  -0.00013393  0.60781295  1
  Ta  Ta122  1  0.30394671  0.90080363  0.30633304  1
  Ta  Ta123  1  0.50834773  0.51032488  0.90018284  1
  Ta  Ta124  1  0.20053739  0.40665647  0.59629439  1
  Ta  Ta125  1  0.10712799  0.89862265  0.09741945  1
  Ta  Ta126  1  0.19989238  0.19159730  0.20045254  1
  Ta  Ta127  1  0.69541666  0.09484359  0.50456295  1
  Ta  Ta128  1  0.30041239  0.31083121  0.69281085  1
  Ta  Ta129  1  -0.00535481  0.40287923  0.20493374  1
  Ta  Ta130  1  0.40953264  0.59805536  0.79317689  1
  Ta  Ta131  1  0.10270978  0.89975189  0.30258621  1
  Ta  Ta132  1  0.09619111  0.50408131  0.49483545  1
  Ta  Ta133  1  0.79544742  0.60045154  0.59920934  1
  Ta  Ta134  1  0.29745916  0.30354623  0.29683428  1
  Ta  Ta135  1  -0.00293916  0.40613548  0.59467266  1
  Ta  Ta136  1  -0.00256757  0.00407284  0.39793245  1
  Ta  Ta137  1  0.89932173  0.70984278  0.69012364  1
  Ta  Ta138  1  0.50054801  0.09444027  0.30694906  1
  Ta  Ta139  1  0.00105990  0.40320687  0.79340215  1
  Ta  Ta140  1  0.19852270  0.78827182  0.80194359  1
  Ta  Ta141  1  0.60386149  0.40008918  -0.00814159  1
  Ta  Ta142  1  0.60813153  -0.00393316  0.79839590  1
  Ta  Ta143  1  0.29851632  0.50458482  0.88453595  1
  Ta  Ta144  1  0.20095946  -0.00764326  0.40339476  1
  Ta  Ta145  1  -0.00825098  0.40507874  0.39829163  1
  Ta  Ta146  1  0.50034739  0.90032631  0.49600633  1
  Ta  Ta147  1  0.80613901  0.61056763  0.00123709  1
  Ta  Ta148  1  0.89352027  0.50676022  0.10274506  1
  Ta  Ta149  1  0.40082785  0.19955167  0.39837708  1
  Ti  Ti150  1  0.40493508  0.40576610  0.20114566  1
  Ti  Ti151  1  0.40743456  0.41861348  0.60399604  1
  Ti  Ti152  1  0.60567146  0.40397165  0.40639557  1
  Ti  Ti153  1  0.80698427  0.40220287  0.20412685  1
  Ti  Ti154  1  0.79782652  0.40378953  -0.00114554  1
  Ti  Ti155  1  0.38762465  0.78455757  -0.00224151  1
  Ti  Ti156  1  0.39825220  0.19168936  0.19993543  1
  Ti  Ti157  1  0.29779694  0.50239831  0.69688332  1
  Ti  Ti158  1  0.60132150  -0.00368063  0.19831882  1
  Ti  Ti159  1  0.38522234  0.01144748  -0.00339062  1
  Ti  Ti160  1  0.60103512  0.60467560  0.79461371  1
  Ti  Ti161  1  0.19549604  0.59935303  0.20084415  1
  Ti  Ti162  1  0.39215139  0.78606920  0.80654273  1
  Ti  Ti163  1  0.20122948  0.20239578  0.60221594  1
  Ti  Ti164  1  0.19826105  -0.00695884  0.59257630  1
  Ti  Ti165  1  0.78714146  0.79798944  0.80200108  1
  Ti  Ti166  1  0.89629507  0.30347275  0.09957763  1
  Ti  Ti167  1  0.89373143  0.90142732  0.88856154  1
  Ti  Ti168  1  0.19582992  0.59703638  0.39908323  1
  Ti  Ti169  1  0.40467662  -0.01080071  0.60148354  1
  Ti  Ti170  1  -0.00798102  0.20255874  0.59882585  1
  Ti  Ti171  1  0.50611651  0.29597967  0.70063128  1
  Ti  Ti172  1  0.69905148  0.09801928  0.70803582  1
  Ti  Ti173  1  0.09549111  0.69935153  0.31124476  1
  Ti  Ti174  1  0.79679065  0.19889088  -0.00202736  1
  Ti  Ti175  1  0.20084776  0.60604711  0.80182812  1
  Ti  Ti176  1  0.39066684  0.60610291  -0.01093223  1
  Ti  Ti177  1  0.70389082  0.89762500  0.70367038  1
  Ti  Ti178  1  0.49722042  0.69580151  0.49851311  1
  Ti  Ti179  1  0.30241966  0.69807353  0.31080667  1
  Ti  Ti180  1  0.89607658  0.09650168  0.30004173  1
  Ti  Ti181  1  0.79995399  0.20243557  0.40172213  1
  Ti  Ti182  1  -0.00162512  0.20408883  0.79354717  1
  Ti  Ti183  1  0.60979974  0.21390432  -0.01613323  1
  Ti  Ti184  1  0.79091474  -0.00129384  0.19494773  1
  Ti  Ti185  1  0.71126714  0.48695541  0.50525523  1
  Ti  Ti186  1  0.09224469  0.69713360  0.89660024  1
  Ti  Ti187  1  0.79009830  0.20364965  0.80598306  1
  Ti  Ti188  1  0.69829155  0.70454816  0.70050889  1
  Ti  Ti189  1  0.40584301  0.59251581  0.40799925  1
  Ti  Ti190  1  0.10066562  0.49556627  0.30437712  1
  Ti  Ti191  1  0.09397169  0.70129675  0.69075734  1
  Ti  Ti192  1  0.29470581  0.50617752  0.50713597  1
  Ti  Ti193  1  0.60525402  0.58830732  0.40731380  1
  Ti  Ti194  1  0.59488344  -0.00467568  0.40325377  1
  Ti  Ti195  1  0.69735722  0.09518940  0.08954789  1
  Ti  Ti196  1  0.40192501  0.20076392  0.60669024  1
  Ti  Ti197  1  0.50745512  0.10053118  0.70259621  1
  Ti  Ti198  1  0.29492676  0.90134351  0.89401133  1
  Ti  Ti199  1  0.79245671  -0.00012951  0.60247892  1
  Mo  Mo200  1  0.89909472  0.69358735  0.09442609  1
  Mo  Mo201  1  0.59230315  0.80779669  0.40505351  1
  Mo  Mo202  1  0.70457857  0.29957654  0.90069783  1
  Mo  Mo203  1  0.79925990  0.80327079  -0.01173250  1
  Mo  Mo204  1  0.00433175  0.79605945  0.79773872  1
  Mo  Mo205  1  0.20116322  0.59569505  0.59560787  1
  Mo  Mo206  1  0.30215680  0.69839524  0.09907789  1
  Mo  Mo207  1  0.69666593  0.29857936  0.49728299  1
  Mo  Mo208  1  0.79035699  -0.00609868  0.80255618  1
  Mo  Mo209  1  0.78984326  0.79484010  0.60834863  1
  Mo  Mo210  1  0.30431732  0.69274031  0.89093688  1
  Mo  Mo211  1  0.20157959  -0.00251450  0.79914857  1
  Mo  Mo212  1  0.60394841  0.19613168  0.79410030  1
  Mo  Mo213  1  0.79920699  0.40540521  0.59850111  1
  Mo  Mo214  1  0.19971531  0.40867768  0.79018157  1
  Mo  Mo215  1  0.19649160  0.40658312  0.40555426  1
  Mo  Mo216  1  0.00273280  0.59040245  0.39255985  1
  Mo  Mo217  1  0.50055585  0.90254331  0.30687843  1
  Mo  Mo218  1  0.80252602  0.59796293  0.19746917  1
  Mo  Mo219  1  0.69962914  0.70439662  0.90111292  1
  Mo  Mo220  1  -0.00701608  0.00029545  0.79699521  1
  Mo  Mo221  1  0.69243311  0.69051571  0.29821753  1
  Mo  Mo222  1  0.30265059  0.90112986  0.49772144  1
  Mo  Mo223  1  0.00349756  0.79454261  0.60764766  1
  Mo  Mo224  1  0.40483029  0.58998758  0.60083922  1
  Mo  Mo225  1  0.30359233  0.10258836  0.09843209  1
  Mo  Mo226  1  0.01036541  0.80130093  0.39029430  1
  Mo  Mo227  1  0.89480592  0.10866980  0.49683859  1
  Mo  Mo228  1  -0.00389847  0.59865747  0.59699615  1
  Mo  Mo229  1  0.29831339  0.09350796  0.89632746  1
  Mo  Mo230  1  0.69810769  0.90628016  0.10017098  1
  Mo  Mo231  1  0.61569445  0.60173688  -0.00253796  1
  Mo  Mo232  1  0.90404799  0.50337143  0.49932593  1
  Mo  Mo233  1  0.61359859  -0.00024718  -0.00171680  1
  Mo  Mo234  1  0.50853579  0.49955698  0.70840619  1
  Mo  Mo235  1  0.40127283  -0.00426856  0.40170758  1
  Mo  Mo236  1  0.61046543  0.79723925  0.80218160  1
  Mo  Mo237  1  0.89899751  0.30700518  0.30276045  1
  Mo  Mo238  1  0.49835590  0.69497860  0.71089711  1
  Mo  Mo239  1  0.49999671  0.50402139  0.49994416  1
  Mo  Mo240  1  -0.00142172  0.59875899  -0.00142382  1
  Mo  Mo241  1  0.80164240  0.40041883  0.80011313  1
  Mo  Mo242  1  0.50965075  0.30032520  0.89531921  1
  Mo  Mo243  1  0.61185564  0.80194462  -0.00115904  1
  Mo  Mo244  1  0.09689395  0.09324463  0.10601540  1
  Mo  Mo245  1  0.19296803  0.39981560  0.20677137  1
  Mo  Mo246  1  0.09560553  0.50418240  0.10658433  1
  Mo  Mo247  1  0.79793156  0.40516199  0.39953114  1
  Mo  Mo248  1  0.61489328  0.60557930  0.20285149  1
  Mo  Mo249  1  0.79319885  0.79832738  0.20977771  1
