# generated using pymatgen
data_HfZrTaTiMo
_symmetry_space_group_name_H-M   'P 1'
_cell_length_a   16.87651488
_cell_length_b   16.88472154
_cell_length_c   16.89374930
_cell_angle_alpha   89.98370846
_cell_angle_beta   89.95170209
_cell_angle_gamma   90.01146004
_symmetry_Int_Tables_number   1
_chemical_formula_structural   HfZrTaTiMo
_chemical_formula_sum   'Hf50 Zr50 Ta50 Ti50 Mo50'
_cell_volume   4813.96062631
_cell_formula_units_Z   50
loop_
 _symmetry_equiv_pos_site_id
 _symmetry_equiv_pos_as_xyz
  1  'x, y, z'
loop_
 _atom_site_type_symbol
 _atom_site_label
 _atom_site_symmetry_multiplicity
 _atom_site_fract_x
 _atom_site_fract_y
 _atom_site_fract_z
 _atom_site_occupancy
  Hf  Hf0  1  0.09886990  0.69686031  0.30260571  1
  Hf  Hf1  1  0.29903536  0.90387407  0.71263832  1
  Hf  Hf2  1  0.90129397  0.30182582  0.70098857  1
  Hf  Hf3  1  0.60043963  0.39458771  0.38884593  1
  Hf  Hf4  1  0.69815952  0.10033815  0.50394470  1
  Hf  Hf5  1  0.89885244  0.69985159  0.30182863  1
  Hf  Hf6  1  0.19062810  0.60620304  0.60407247  1
  Hf  Hf7  1  0.39990498  0.79244041  0.19566118  1
  Hf  Hf8  1  0.59274335  0.59560115  0.19631298  1
  Hf  Hf9  1  0.20593786  0.01119138  -0.00632559  1
  Hf  Hf10  1  0.30055730  0.30019593  0.89935228  1
  Hf  Hf11  1  0.90213677  0.88782889  0.71527795  1
  Hf  Hf12  1  0.19835482  0.81097647  0.39642481  1
  Hf  Hf13  1  0.80022655  0.00153390  0.61695998  1
  Hf  Hf14  1  0.90789644  0.49706083  0.29941518  1
  Hf  Hf15  1  0.19641493  0.79722494  0.19656243  1
  Hf  Hf16  1  0.19390134  0.80920987  0.60090571  1
  Hf  Hf17  1  0.19230878  0.20011481  0.80365757  1
  Hf  Hf18  1  0.70121297  0.90772929  0.28763141  1
  Hf  Hf19  1  0.50864801  0.70668041  0.50270632  1
  Hf  Hf20  1  0.00231159  -0.00218056  0.19907913  1
  Hf  Hf21  1  0.60059759  0.00771891  0.40318701  1
  Hf  Hf22  1  0.70245504  0.70298980  0.30054877  1
  Hf  Hf23  1  0.00453856  0.38923214  -0.00633649  1
  Hf  Hf24  1  0.30566994  0.49167919  0.50604980  1
  Hf  Hf25  1  0.89517538  0.29725847  0.88893116  1
  Hf  Hf26  1  0.69941044  0.50133841  0.50502317  1
  Hf  Hf27  1  0.80102352  0.39295516  0.00223029  1
  Hf  Hf28  1  -0.00030326  0.78752525  0.00929270  1
  Hf  Hf29  1  0.59732649  0.39895683  0.20501022  1
  Hf  Hf30  1  0.08762660  0.91643387  0.49763983  1
  Hf  Hf31  1  0.89807935  0.10441904  0.29639684  1
  Hf  Hf32  1  -0.00072251  0.20056666  0.00160215  1
  Hf  Hf33  1  0.09226889  0.10514805  0.30011646  1
  Hf  Hf34  1  0.19394298  0.59068592  0.40164640  1
  Hf  Hf35  1  0.90920942  0.09609308  0.49398808  1
  Hf  Hf36  1  -0.00275746  0.60200526  0.61113816  1
  Hf  Hf37  1  0.50384329  0.49451405  0.50083000  1
  Hf  Hf38  1  0.50117118  0.11563938  0.30473866  1
  Hf  Hf39  1  0.29693006  0.70435124  0.70847872  1
  Hf  Hf40  1  0.50463292  0.89828585  0.70434848  1
  Hf  Hf41  1  0.09765110  0.47241489  0.52652632  1
  Hf  Hf42  1  0.79613498  0.38826289  0.20302525  1
  Hf  Hf43  1  0.80530166  0.60526928  -0.00257407  1
  Hf  Hf44  1  0.59311121  0.60908799  0.80732255  1
  Hf  Hf45  1  0.30330960  0.49211109  0.30076337  1
  Hf  Hf46  1  0.00236887  0.60176178  -0.01172778  1
  Hf  Hf47  1  0.29374169  0.10327588  0.49772410  1
  Hf  Hf48  1  0.30115983  0.30181600  0.49369400  1
  Hf  Hf49  1  0.40375176  0.79608243  -0.00581883  1
  Zr  Zr50  1  0.90311163  0.49122767  0.09749224  1
  Zr  Zr51  1  0.30294217  0.69297522  0.09392131  1
  Zr  Zr52  1  0.80248091  0.60566538  0.79565420  1
  Zr  Zr53  1  0.89550565  0.70089089  0.49872682  1
  Zr  Zr54  1  0.19268719  0.60593564  -0.00486592  1
  Zr  Zr55  1  0.39979055  0.60766314  0.60301023  1
  Zr  Zr56  1  0.10682308  0.90892612  0.09096930  1
  Zr  Zr57  1  0.70409533  0.89877268  0.50897751  1
  Zr  Zr58  1  0.50594094  0.70346619  0.30098981  1
  Zr  Zr59  1  -0.00201178  0.80338242  0.19506502  1
  Zr  Zr60  1  0.80911307  0.19478807  0.00293308  1
  Zr  Zr61  1  0.28925821  0.49498916  0.70692416  1
  Zr  Zr62  1  0.50000089  0.91346075  0.10892543  1
  Zr  Zr63  1  0.39277631  0.80645100  0.59362450  1
  Zr  Zr64  1  0.70216199  0.09272480  0.11206697  1
  Zr  Zr65  1  0.79799880  0.59859249  0.19210414  1
  Zr  Zr66  1  0.00728717  0.61089483  0.18105921  1
  Zr  Zr67  1  0.80025834  0.19690781  0.60939408  1
  Zr  Zr68  1  0.00312855  0.19226870  0.79759775  1
  Zr  Zr69  1  0.40461935  0.39832211  0.20596830  1
  Zr  Zr70  1  0.59471617  0.38859208  0.79661497  1
  Zr  Zr71  1  0.40492059  0.59810727  0.39439001  1
  Zr  Zr72  1  0.79753013  0.80793342  0.00240806  1
  Zr  Zr73  1  0.30644062  0.10961769  0.10579758  1
  Zr  Zr74  1  0.49729795  0.08792506  0.70601669  1
  Zr  Zr75  1  0.50297125  0.90859787  0.29231870  1
  Zr  Zr76  1  0.49344963  0.29104146  0.09589770  1
  Zr  Zr77  1  0.60420185  -0.00334583  -0.00890543  1
  Zr  Zr78  1  0.50124256  0.50610160  0.69493589  1
  Zr  Zr79  1  0.59511085  0.80276650  -0.00370987  1
  Zr  Zr80  1  0.59732834  0.19311227  0.60784295  1
  Zr  Zr81  1  0.00067368  0.80061168  0.60595326  1
  Zr  Zr82  1  0.40065650  -0.00255830  0.59019760  1
  Zr  Zr83  1  0.39684978  0.00283522  0.40332443  1
  Zr  Zr84  1  0.79873904  0.39595489  0.39357429  1
  Zr  Zr85  1  0.30001291  0.10030810  0.70496702  1
  Zr  Zr86  1  0.69851447  0.50082345  0.69673929  1
  Zr  Zr87  1  0.39438991  0.81002834  0.40435911  1
  Zr  Zr88  1  0.00743920  0.58524043  0.40699367  1
  Zr  Zr89  1  0.40556195  0.40048838  0.80069685  1
  Zr  Zr90  1  0.19034074  0.39635958  0.39533345  1
  Zr  Zr91  1  0.69351983  0.49328383  0.90554199  1
  Zr  Zr92  1  0.90893677  0.29754664  0.49648166  1
  Zr  Zr93  1  0.10370830  0.31657532  0.68902463  1
  Zr  Zr94  1  0.49820609  0.28113767  0.47994310  1
  Zr  Zr95  1  0.69196958  0.28994415  0.10133288  1
  Zr  Zr96  1  0.59391503  0.18953008  -0.00883400  1
  Zr  Zr97  1  0.10765959  0.48762646  0.09954699  1
  Zr  Zr98  1  0.39915503  0.00747574  -0.00764838  1
  Zr  Zr99  1  0.09264896  0.89821078  0.89965432  1
  Ta  Ta100  1  0.80418656  0.80187337  0.19283868  1
  Ta  Ta101  1  0.19509022  0.00103362  0.39289590  1
  Ta  Ta102  1  0.09663687  0.70651311  0.49687536  1
  Ta  Ta103  1  0.40404579  0.59409056  0.19428885  1
  Ta  Ta104  1  0.61724313  -0.00172047  0.79702379  1
  Ta  Ta105  1  0.29794680  0.50223489  0.90277577  1
  Ta  Ta106  1  0.90251279  0.90762675  0.90625287  1
  Ta  Ta107  1  0.19416790  0.20253681  0.39784248  1
  Ta  Ta108  1  0.40069188  0.19914963  0.59891725  1
  Ta  Ta109  1  0.80422864  0.00034797  0.80355016  1
  Ta  Ta110  1  0.90120160  0.49444681  0.70206017  1
  Ta  Ta111  1  0.30323557  0.49420718  0.09338598  1
  Ta  Ta112  1  0.79939178  0.00174940  0.39690122  1
  Ta  Ta113  1  -0.00110977  0.00405949  0.80015710  1
  Ta  Ta114  1  0.89771410  0.90656162  0.30108609  1
  Ta  Ta115  1  0.90262242  0.71407696  0.88592812  1
  Ta  Ta116  1  0.20188056  0.59239264  0.20177064  1
  Ta  Ta117  1  0.60569834  0.19432353  0.79810642  1
  Ta  Ta118  1  -0.00000450  0.81119677  0.39516772  1
  Ta  Ta119  1  0.90138524  0.49437844  0.88832558  1
  Ta  Ta120  1  0.80109191  0.80711140  0.39782092  1
  Ta  Ta121  1  0.89530473  0.49358843  0.51047287  1
  Ta  Ta122  1  0.59198999  0.60592518  -0.00215016  1
  Ta  Ta123  1  0.00249158  0.60263605  0.80069910  1
  Ta  Ta124  1  0.19612993  0.20357231  0.59577149  1
  Ta  Ta125  1  0.10038323  0.10560592  0.10244177  1
  Ta  Ta126  1  0.09511657  0.10358081  0.49819940  1
  Ta  Ta127  1  0.19684938  0.20282421  -0.00278352  1
  Ta  Ta128  1  0.30223944  0.90633164  0.10237090  1
  Ta  Ta129  1  0.29898116  0.30129526  0.09500753  1
  Ta  Ta130  1  0.59992522  0.38070101  0.60402207  1
  Ta  Ta131  1  0.60780865  0.61597798  0.60461843  1
  Ta  Ta132  1  0.49840738  0.10397767  0.11484742  1
  Ta  Ta133  1  0.49944480  0.49696662  0.08872300  1
  Ta  Ta134  1  0.28939500  0.70143314  0.49618109  1
  Ta  Ta135  1  0.79312723  0.39388384  0.60382606  1
  Ta  Ta136  1  0.40128397  0.60731377  0.81271406  1
  Ta  Ta137  1  0.69957308  0.29537445  0.49757325  1
  Ta  Ta138  1  0.89851494  0.90522070  0.49719740  1
  Ta  Ta139  1  0.09268317  0.29442894  0.29669179  1
  Ta  Ta140  1  0.69596775  0.70099296  0.09709094  1
  Ta  Ta141  1  0.60827128  0.80503501  0.40205451  1
  Ta  Ta142  1  0.50331478  0.71150802  0.70551720  1
  Ta  Ta143  1  0.19400530  0.00515859  0.80473639  1
  Ta  Ta144  1  0.29892931  0.91015195  0.28879981  1
  Ta  Ta145  1  0.69966803  0.29300885  0.89665341  1
  Ta  Ta146  1  0.71061275  0.09680888  0.89941805  1
  Ta  Ta147  1  0.41034573  0.38295162  0.60556463  1
  Ta  Ta148  1  0.70153054  0.70773186  0.89992333  1
  Ta  Ta149  1  0.40210415  0.40202475  -0.00582742  1
  Ti  Ti150  1  0.00566569  0.19808953  0.60096407  1
  Ti  Ti151  1  0.51623720  0.90332855  0.50813665  1
  Ti  Ti152  1  0.19455069  0.60793679  0.80882618  1
  Ti  Ti153  1  0.00549970  0.39451731  0.39849028  1
  Ti  Ti154  1  0.69151014  0.49669468  0.09159930  1
  Ti  Ti155  1  0.20161218  0.39322957  0.20274720  1
  Ti  Ti156  1  -0.00453436  0.00236666  0.61380697  1
  Ti  Ti157  1  0.20203568  0.20718133  0.20376256  1
  Ti  Ti158  1  0.19690064  -0.00167446  0.60017134  1
  Ti  Ti159  1  0.19990688  0.00338596  0.20245693  1
  Ti  Ti160  1  0.09251644  0.09659808  0.90751379  1
  Ti  Ti161  1  0.61084284  0.80125059  0.60687821  1
  Ti  Ti162  1  0.20320750  0.79410615  -0.00644342  1
  Ti  Ti163  1  0.80103457  0.60617535  0.60591779  1
  Ti  Ti164  1  0.70274675  0.91028476  0.10624297  1
  Ti  Ti165  1  0.60167396  0.79638532  0.19108726  1
  Ti  Ti166  1  0.00199721  0.39007680  0.19894118  1
  Ti  Ti167  1  0.19305835  0.80111172  0.80795805  1
  Ti  Ti168  1  0.19841459  0.39267948  -0.00583759  1
  Ti  Ti169  1  0.60944876  0.80762638  0.80651513  1
  Ti  Ti170  1  0.00639459  0.40047951  0.80222519  1
  Ti  Ti171  1  0.09324014  0.71077887  0.71452483  1
  Ti  Ti172  1  0.79049891  0.39582634  0.79432213  1
  Ti  Ti173  1  0.10193169  0.09465630  0.69311950  1
  Ti  Ti174  1  0.29826715  0.69648592  0.30113068  1
  Ti  Ti175  1  0.89977280  0.09709219  0.10581591  1
  Ti  Ti176  1  0.49687306  0.90749305  0.88615864  1
  Ti  Ti177  1  0.70438452  0.71229868  0.70723223  1
  Ti  Ti178  1  0.79454708  0.20190668  0.39387810  1
  Ti  Ti179  1  0.80232003  0.79573750  0.60710165  1
  Ti  Ti180  1  0.29859879  0.10376513  0.29945692  1
  Ti  Ti181  1  0.40037698  0.79371222  0.81224401  1
  Ti  Ti182  1  0.10118257  0.49499162  0.70657736  1
  Ti  Ti183  1  0.39459523  0.21091229  0.21302597  1
  Ti  Ti184  1  0.29901482  0.29982116  0.70069184  1
  Ti  Ti185  1  0.90676747  0.28757854  0.29453884  1
  Ti  Ti186  1  0.10693858  0.49113593  0.88949303  1
  Ti  Ti187  1  0.70230613  0.10560061  0.29195464  1
  Ti  Ti188  1  0.40712025  0.60332390  -0.00930408  1
  Ti  Ti189  1  0.60175485  0.59965506  0.40041318  1
  Ti  Ti190  1  0.79740165  0.18617562  0.79294253  1
  Ti  Ti191  1  0.70110286  0.50657603  0.30118796  1
  Ti  Ti192  1  0.29838467  0.90010103  0.89833682  1
  Ti  Ti193  1  0.80045658  0.59728014  0.40324793  1
  Ti  Ti194  1  0.10332400  0.29362275  0.10465795  1
  Ti  Ti195  1  0.50058006  0.29616300  0.90366679  1
  Ti  Ti196  1  0.40408892  0.20225652  0.79932854  1
  Ti  Ti197  1  0.89427334  0.91479610  0.09654590  1
  Ti  Ti198  1  0.49309644  0.09798777  0.89014383  1
  Ti  Ti199  1  0.70349454  0.70241541  0.49845308  1
  Mo  Mo200  1  0.29904821  0.70128481  0.89552388  1
  Mo  Mo201  1  0.49832557  0.09940878  0.49998121  1
  Mo  Mo202  1  0.88912079  0.70348164  0.09298128  1
  Mo  Mo203  1  0.70851516  0.90360635  0.89587582  1
  Mo  Mo204  1  0.40764666  0.39456046  0.39528923  1
  Mo  Mo205  1  0.38041252  0.20053676  0.39240770  1
  Mo  Mo206  1  0.30116477  0.10927051  0.89714853  1
  Mo  Mo207  1  0.60188354  -0.00476498  0.60495418  1
  Mo  Mo208  1  0.39721993  0.20252945  -0.01038741  1
  Mo  Mo209  1  0.69799956  0.28332924  0.29929155  1
  Mo  Mo210  1  0.50177286  0.69121225  0.09650107  1
  Mo  Mo211  1  0.50245088  0.70691566  0.89524839  1
  Mo  Mo212  1  0.09895390  0.70431845  0.89211654  1
  Mo  Mo213  1  0.49957289  0.49983713  0.30100921  1
  Mo  Mo214  1  0.59809517  0.20336875  0.20833183  1
  Mo  Mo215  1  0.10006966  0.90761776  0.29864264  1
  Mo  Mo216  1  0.80630557  0.00024685  0.00026776  1
  Mo  Mo217  1  0.90549790  0.29410058  0.11189671  1
  Mo  Mo218  1  0.49679707  0.29646640  0.30046373  1
  Mo  Mo219  1  0.80511276  0.19970236  0.20278530  1
  Mo  Mo220  1  0.09998404  0.48843481  0.28745167  1
  Mo  Mo221  1  0.49418219  0.50455047  0.90607271  1
  Mo  Mo222  1  -0.00342660  0.00090047  0.39633763  1
  Mo  Mo223  1  0.21753290  0.39203293  0.60580321  1
  Mo  Mo224  1  0.29308286  0.29549519  0.29671188  1
  Mo  Mo225  1  -0.00514866  0.01077152  -0.00003358  1
  Mo  Mo226  1  0.90765328  0.09664306  0.70177639  1
  Mo  Mo227  1  0.80440440  -0.00196441  0.20043491  1
  Mo  Mo228  1  0.00217916  0.80155779  0.80420315  1
  Mo  Mo229  1  0.70234049  0.09539125  0.70785530  1
  Mo  Mo230  1  0.70171522  0.29450068  0.70418160  1
  Mo  Mo231  1  0.89885383  0.09481844  0.89742476  1
  Mo  Mo232  1  0.61745759  0.19868230  0.39752619  1
  Mo  Mo233  1  0.11188685  0.69931639  0.09888108  1
  Mo  Mo234  1  0.39113648  -0.00623086  0.80959183  1
  Mo  Mo235  1  0.00503294  0.20317467  0.39963502  1
  Mo  Mo236  1  0.49590877  0.28668623  0.70342661  1
  Mo  Mo237  1  0.59465346  0.40104922  -0.00394070  1
  Mo  Mo238  1  0.20013888  0.40166040  0.80501095  1
  Mo  Mo239  1  0.00063734  0.20264143  0.19339876  1
  Mo  Mo240  1  0.10289545  0.30097460  0.90031044  1
  Mo  Mo241  1  0.79649132  0.80541886  0.80585403  1
  Mo  Mo242  1  0.59975684  0.01059735  0.20255834  1
  Mo  Mo243  1  -0.01506946  0.40150617  0.60703658  1
  Mo  Mo244  1  0.28125872  0.90656388  0.49442627  1
  Mo  Mo245  1  0.39331656  0.01059447  0.20241131  1
  Mo  Mo246  1  0.89728633  0.69711636  0.70393582  1
  Mo  Mo247  1  0.09855198  0.29144472  0.49902591  1
  Mo  Mo248  1  0.70294054  0.89317798  0.70522776  1
  Mo  Mo249  1  0.10217055  0.91208297  0.70629394  1
