# generated using pymatgen
data_HfZrTaTiMo
_symmetry_space_group_name_H-M   'P 1'
_cell_length_a   16.89427570
_cell_length_b   16.88263630
_cell_length_c   16.88884686
_cell_angle_alpha   89.96062394
_cell_angle_beta   89.99482585
_cell_angle_gamma   89.99469551
_symmetry_Int_Tables_number   1
_chemical_formula_structural   HfZrTaTiMo
_chemical_formula_sum   'Hf50 Zr50 Ta50 Ti50 Mo50'
_cell_volume   4817.03424002
_cell_formula_units_Z   50
loop_
 _symmetry_equiv_pos_site_id
 _symmetry_equiv_pos_as_xyz
  1  'x, y, z'
loop_
 _atom_site_type_symbol
 _atom_site_label
 _atom_site_symmetry_multiplicity
 _atom_site_fract_x
 _atom_site_fract_y
 _atom_site_fract_z
 _atom_site_occupancy
  Hf  Hf0  1  0.39332887  0.39332970  0.00051298  1
  Hf  Hf1  1  0.79932169  0.59705984  0.39657204  1
  Hf  Hf2  1  0.20181948  0.39804807  0.59631107  1
  Hf  Hf3  1  0.59489307  0.59913281  0.60286243  1
  Hf  Hf4  1  0.90369664  0.09592563  0.49793439  1
  Hf  Hf5  1  0.89487251  0.49461303  0.90108467  1
  Hf  Hf6  1  0.50457260  0.49046229  0.10316365  1
  Hf  Hf7  1  0.19205330  0.59498295  0.01184684  1
  Hf  Hf8  1  0.39592253  0.00672233  0.39430634  1
  Hf  Hf9  1  0.90209107  0.09030423  0.09724581  1
  Hf  Hf10  1  0.00364545  0.38902970  0.61029913  1
  Hf  Hf11  1  0.70866878  0.90023378  0.49614375  1
  Hf  Hf12  1  0.59574164  0.00049354  0.79652353  1
  Hf  Hf13  1  0.09888102  0.69263643  0.89523134  1
  Hf  Hf14  1  0.29520670  0.92381916  0.90069894  1
  Hf  Hf15  1  0.79318285  0.19547496  0.19403140  1
  Hf  Hf16  1  0.00425210  0.19776793  0.18746972  1
  Hf  Hf17  1  0.69604079  0.70880972  0.29556784  1
  Hf  Hf18  1  0.90157777  0.48917549  0.10240102  1
  Hf  Hf19  1  0.48486918  0.10787867  0.88041032  1
  Hf  Hf20  1  0.29675071  0.90499731  0.29440633  1
  Hf  Hf21  1  0.80996389  -0.00029174  0.60729663  1
  Hf  Hf22  1  0.19383907  0.20071156  0.79026455  1
  Hf  Hf23  1  0.30301654  0.49613772  0.10763906  1
  Hf  Hf24  1  0.91016528  0.49690978  0.29432515  1
  Hf  Hf25  1  0.29344720  0.69131441  0.30944517  1
  Hf  Hf26  1  0.69157759  0.30236027  0.10043511  1
  Hf  Hf27  1  0.59741896  0.00220274  0.60306194  1
  Hf  Hf28  1  0.49513070  0.69832593  0.70143820  1
  Hf  Hf29  1  0.10163086  0.50279383  0.71094389  1
  Hf  Hf30  1  0.00044409  0.20618999  0.79090924  1
  Hf  Hf31  1  0.60223069  0.59694772  0.81257205  1
  Hf  Hf32  1  0.70405889  0.49324806  0.70607059  1
  Hf  Hf33  1  0.70096136  0.11072678  0.70337183  1
  Hf  Hf34  1  0.49612993  0.48923681  0.29919061  1
  Hf  Hf35  1  0.59217778  0.80024596  0.80898758  1
  Hf  Hf36  1  0.59042670  0.60107926  0.40405320  1
  Hf  Hf37  1  0.69732372  0.49382563  0.50849788  1
  Hf  Hf38  1  0.19819419  0.00850610  0.60302381  1
  Hf  Hf39  1  0.39651639  0.79586938  0.59478592  1
  Hf  Hf40  1  0.69614082  0.70590291  0.09734741  1
  Hf  Hf41  1  0.89908904  0.90676585  0.29046953  1
  Hf  Hf42  1  0.39824941  0.59992803  0.20296055  1
  Hf  Hf43  1  0.39996111  0.80351231  0.80730007  1
  Hf  Hf44  1  0.90359489  0.90298027  0.10475023  1
  Hf  Hf45  1  0.90210167  0.09707160  0.89757602  1
  Hf  Hf46  1  0.59324134  0.80807542  -0.00195373  1
  Hf  Hf47  1  0.79726430  0.59475415  0.19852932  1
  Hf  Hf48  1  0.70477306  0.70131975  0.50397358  1
  Hf  Hf49  1  0.70006127  0.90553839  0.11546037  1
  Zr  Zr50  1  0.50308124  0.29851150  0.89615669  1
  Zr  Zr51  1  0.50454809  0.29349952  0.28975328  1
  Zr  Zr52  1  0.31234004  0.10094371  0.71105005  1
  Zr  Zr53  1  -0.00096453  0.79662338  0.39324905  1
  Zr  Zr54  1  0.39753075  0.80155439  0.19644450  1
  Zr  Zr55  1  -0.01324556  0.59897794  0.61014022  1
  Zr  Zr56  1  0.09062510  0.90629490  0.69963570  1
  Zr  Zr57  1  0.00409914  0.80553737  -0.00249411  1
  Zr  Zr58  1  0.00055855  0.59832107  0.00832784  1
  Zr  Zr59  1  0.29524528  0.69407271  0.90254145  1
  Zr  Zr60  1  0.19918628  0.39671436  0.00131065  1
  Zr  Zr61  1  0.50085402  0.90724684  0.49648016  1
  Zr  Zr62  1  0.70555587  0.70230098  0.70697032  1
  Zr  Zr63  1  0.11030343  0.09632045  0.28520514  1
  Zr  Zr64  1  0.60315299  0.38342883  0.41191235  1
  Zr  Zr65  1  0.20162429  0.39470778  0.79678508  1
  Zr  Zr66  1  0.09594358  0.90253965  0.50455116  1
  Zr  Zr67  1  0.10041835  0.70016550  0.70466378  1
  Zr  Zr68  1  0.10386797  0.29705907  0.29784209  1
  Zr  Zr69  1  0.39539488  0.19726584  0.01294795  1
  Zr  Zr70  1  0.10548720  0.09672725  0.90410469  1
  Zr  Zr71  1  0.59660819  0.19353033  0.00762471  1
  Zr  Zr72  1  0.70898118  0.09769835  0.49272892  1
  Zr  Zr73  1  0.50698626  0.09992148  0.29357110  1
  Zr  Zr74  1  0.39950467  0.80565565  0.00292394  1
  Zr  Zr75  1  0.60222927  0.59589260  0.19677085  1
  Zr  Zr76  1  0.90383052  0.30188126  0.28475725  1
  Zr  Zr77  1  0.70177293  0.10739399  0.89472740  1
  Zr  Zr78  1  0.39252936  0.39110938  0.39572876  1
  Zr  Zr79  1  0.19576789  0.81082982  0.80448443  1
  Zr  Zr80  1  0.59623457  0.80163558  0.39724493  1
  Zr  Zr81  1  0.50002503  0.49806951  0.90846582  1
  Zr  Zr82  1  0.40130943  0.79225771  0.40380103  1
  Zr  Zr83  1  0.00606857  0.40028361  0.39887054  1
  Zr  Zr84  1  0.20886268  0.60407098  0.59547715  1
  Zr  Zr85  1  0.80434804  0.39053633  0.60293249  1
  Zr  Zr86  1  0.40185050  0.00965893  0.01536745  1
  Zr  Zr87  1  0.00091825  0.20898506  -0.00261611  1
  Zr  Zr88  1  0.09642861  0.69517704  0.49234096  1
  Zr  Zr89  1  0.59685570  0.00750093  0.00709108  1
  Zr  Zr90  1  0.90687582  0.28677055  0.49739303  1
  Zr  Zr91  1  0.09817808  0.50587832  0.49119122  1
  Zr  Zr92  1  0.00337271  0.00065071  0.39796847  1
  Zr  Zr93  1  0.79722150  0.39097723  0.39932804  1
  Zr  Zr94  1  0.19227839  0.81036851  0.00812269  1
  Zr  Zr95  1  0.70474289  0.89620518  0.70403636  1
  Zr  Zr96  1  0.89619379  0.70059129  0.10212239  1
  Zr  Zr97  1  0.50376099  0.11020425  0.49320721  1
  Zr  Zr98  1  0.60929322  0.21797388  0.59007857  1
  Zr  Zr99  1  0.40372834  0.59629556  0.80422583  1
  Ta  Ta100  1  0.88907887  0.69850566  0.90272905  1
  Ta  Ta101  1  0.20636655  0.79916510  0.59615040  1
  Ta  Ta102  1  0.28015846  0.09971240  0.11211282  1
  Ta  Ta103  1  0.10223128  0.10563652  0.49900893  1
  Ta  Ta104  1  0.80590921  0.80193108  0.39664236  1
  Ta  Ta105  1  0.30046934  0.28700404  0.89572106  1
  Ta  Ta106  1  0.29743212  0.69797292  0.70357875  1
  Ta  Ta107  1  0.60253857  0.40094693  0.80034455  1
  Ta  Ta108  1  0.69146804  0.48771512  0.29580768  1
  Ta  Ta109  1  0.39984376  0.00448064  0.59933999  1
  Ta  Ta110  1  0.20401988  0.39977512  0.39733117  1
  Ta  Ta111  1  0.50365562  0.69871428  0.09767549  1
  Ta  Ta112  1  0.19092893  0.59887861  0.20293224  1
  Ta  Ta113  1  0.59431880  0.79813607  0.59861932  1
  Ta  Ta114  1  0.79722421  0.19695639  0.38696328  1
  Ta  Ta115  1  0.49234870  0.49681109  0.50461863  1
  Ta  Ta116  1  0.49866227  0.30061154  0.11346244  1
  Ta  Ta117  1  0.38968464  0.20047487  0.39553794  1
  Ta  Ta118  1  0.19742834  0.20084939  0.60420077  1
  Ta  Ta119  1  0.19396027  0.79408782  0.19932664  1
  Ta  Ta120  1  0.20020852  0.79988177  0.40146414  1
  Ta  Ta121  1  0.70619083  0.90210992  0.89831655  1
  Ta  Ta122  1  -0.01400018  0.60195314  0.80225392  1
  Ta  Ta123  1  0.79581345  -0.00056463  0.00058401  1
  Ta  Ta124  1  0.10389081  0.90016698  0.29284327  1
  Ta  Ta125  1  0.70194702  0.30225496  0.89388687  1
  Ta  Ta126  1  0.29669719  0.90494567  0.50119028  1
  Ta  Ta127  1  0.01489743  0.59830739  0.20231381  1
  Ta  Ta128  1  0.29730224  0.10375999  0.49999945  1
  Ta  Ta129  1  0.49832535  0.30245520  0.70022572  1
  Ta  Ta130  1  0.10634689  0.28844564  0.49657410  1
  Ta  Ta131  1  -0.01234735  0.79841437  0.60457090  1
  Ta  Ta132  1  0.79961804  0.80839417  -0.00345515  1
  Ta  Ta133  1  0.30262987  0.90331412  0.69799471  1
  Ta  Ta134  1  0.29718662  0.29476395  0.50064168  1
  Ta  Ta135  1  0.00654191  0.39664192  0.00118017  1
  Ta  Ta136  1  0.20290532  0.00285066  0.39982119  1
  Ta  Ta137  1  0.89908658  0.69653720  0.49622180  1
  Ta  Ta138  1  0.09337051  0.49864599  0.89487020  1
  Ta  Ta139  1  0.89750385  0.09272095  0.29340047  1
  Ta  Ta140  1  -0.01013310  0.80143148  0.80457705  1
  Ta  Ta141  1  0.80829768  0.20946790  0.79334962  1
  Ta  Ta142  1  0.70373358  0.70095711  0.90664791  1
  Ta  Ta143  1  0.30477637  0.50691362  0.49054138  1
  Ta  Ta144  1  0.00637948  0.19300815  0.60880421  1
  Ta  Ta145  1  0.19901868  0.40244326  0.20675799  1
  Ta  Ta146  1  0.30762506  0.50212788  0.69700106  1
  Ta  Ta147  1  0.80890862  0.59991973  0.60822967  1
  Ta  Ta148  1  0.81270873  0.79689808  0.60132719  1
  Ta  Ta149  1  0.30875883  0.30085846  0.69639907  1
  Ti  Ti150  1  0.79166433  0.40062760  -0.00264405  1
  Ti  Ti151  1  0.61035392  -0.00427849  0.38893930  1
  Ti  Ti152  1  0.90041882  0.90638819  0.89872894  1
  Ti  Ti153  1  0.69825445  0.30460614  0.70496868  1
  Ti  Ti154  1  0.81003755  0.20250466  0.60702900  1
  Ti  Ti155  1  0.80078822  0.80067592  0.20554244  1
  Ti  Ti156  1  0.89782279  0.48279305  0.71664702  1
  Ti  Ti157  1  0.11079956  0.29564000  0.10006482  1
  Ti  Ti158  1  0.39622692  0.40119552  0.59779652  1
  Ti  Ti159  1  0.40304171  0.60382651  0.00216846  1
  Ti  Ti160  1  0.90320968  0.50432197  0.49656693  1
  Ti  Ti161  1  0.29265583  0.91293911  0.10672715  1
  Ti  Ti162  1  0.49119925  0.30168010  0.50508913  1
  Ti  Ti163  1  0.89622337  0.31075764  0.89359323  1
  Ti  Ti164  1  0.38480688  0.19515244  0.20793412  1
  Ti  Ti165  1  0.49114896  0.90277651  0.69920532  1
  Ti  Ti166  1  0.29741885  0.50044274  0.30317998  1
  Ti  Ti167  1  0.78383788  0.58954050  0.00065727  1
  Ti  Ti168  1  0.61868651  0.20426443  0.39030209  1
  Ti  Ti169  1  0.90007743  0.90101871  0.49856527  1
  Ti  Ti170  1  0.29534172  0.10433741  0.90391695  1
  Ti  Ti171  1  0.49263688  0.91442952  0.89926754  1
  Ti  Ti172  1  0.61033195  0.40864779  -0.00221003  1
  Ti  Ti173  1  0.80708946  0.80142825  0.80405317  1
  Ti  Ti174  1  0.90629506  0.90519790  0.70614948  1
  Ti  Ti175  1  0.49957275  0.11393088  0.70046501  1
  Ti  Ti176  1  0.89720987  0.30697722  0.09586321  1
  Ti  Ti177  1  0.70467957  0.08472029  0.28813537  1
  Ti  Ti178  1  0.78730013  0.39942356  0.19774259  1
  Ti  Ti179  1  0.80001807  0.20201316  -0.00182734  1
  Ti  Ti180  1  0.80153953  0.59914831  0.80231354  1
  Ti  Ti181  1  0.10226337  0.91693314  0.11101400  1
  Ti  Ti182  1  0.29547853  0.29625459  0.11065746  1
  Ti  Ti183  1  0.39934078  0.60537295  0.58977773  1
  Ti  Ti184  1  0.00124789  0.19405048  0.39263161  1
  Ti  Ti185  1  0.29309464  0.50191064  0.89533393  1
  Ti  Ti186  1  0.80548629  0.00415218  0.79867301  1
  Ti  Ti187  1  0.50811190  0.90570455  0.28711073  1
  Ti  Ti188  1  0.20997602  0.19773326  0.39310585  1
  Ti  Ti189  1  0.29730410  0.69817442  0.10231319  1
  Ti  Ti190  1  0.90591010  0.69495754  0.29949490  1
  Ti  Ti191  1  0.01274207  0.78972432  0.19756835  1
  Ti  Ti192  1  0.49942117  0.70057161  0.29458541  1
  Ti  Ti193  1  0.10211534  0.30260886  0.89857931  1
  Ti  Ti194  1  0.00958950  -0.00542527  -0.00335037  1
  Ti  Ti195  1  0.39716265  0.20067368  0.59652635  1
  Ti  Ti196  1  0.39779513  0.39885609  0.80009817  1
  Ti  Ti197  1  0.19109895  0.00447315  0.79584626  1
  Ti  Ti198  1  0.50247428  0.90897111  0.11682391  1
  Ti  Ti199  1  0.49824387  0.48956698  0.69486065  1
  Mo  Mo200  1  0.69997186  0.29597619  0.29540235  1
  Mo  Mo201  1  0.10220950  0.69974256  0.10592447  1
  Mo  Mo202  1  -0.00348022  0.00324652  0.60302060  1
  Mo  Mo203  1  0.60191223  0.00296555  0.20155992  1
  Mo  Mo204  1  0.59044514  0.39968129  0.60651100  1
  Mo  Mo205  1  0.49824009  0.69162013  0.50494388  1
  Mo  Mo206  1  0.10224113  0.70054572  0.29893189  1
  Mo  Mo207  1  -0.00593883  -0.00153544  0.80119413  1
  Mo  Mo208  1  0.20440143  0.59087053  0.80141398  1
  Mo  Mo209  1  0.70558931  0.90328631  0.30099790  1
  Mo  Mo210  1  0.10624686  0.50143350  0.29783127  1
  Mo  Mo211  1  0.39740218  0.20837617  0.79507015  1
  Mo  Mo212  1  0.59079042  0.80464704  0.19935072  1
  Mo  Mo213  1  0.90187220  0.29614280  0.70234150  1
  Mo  Mo214  1  0.80240495  -0.00203379  0.39353770  1
  Mo  Mo215  1  0.79905436  0.00231298  0.19713903  1
  Mo  Mo216  1  -0.00094476  0.39862568  0.80679583  1
  Mo  Mo217  1  0.10046097  0.49111610  0.10443943  1
  Mo  Mo218  1  0.29854665  0.10232997  0.30000643  1
  Mo  Mo219  1  0.60271391  0.39593853  0.19856479  1
  Mo  Mo220  1  0.29559318  0.29813155  0.29828129  1
  Mo  Mo221  1  0.89566536  0.70716784  0.70982593  1
  Mo  Mo222  1  0.19659995  0.00539163  0.00692280  1
  Mo  Mo223  1  0.00504748  0.00139282  0.19620370  1
  Mo  Mo224  1  0.29930604  0.70047026  0.49779941  1
  Mo  Mo225  1  -0.00622526  0.60128521  0.38944280  1
  Mo  Mo226  1  0.79852037  0.39321161  0.80427166  1
  Mo  Mo227  1  0.39820122  0.00572581  0.19932967  1
  Mo  Mo228  1  0.70167613  0.49379141  0.09605366  1
  Mo  Mo229  1  0.40390194  -0.00200727  0.79133468  1
  Mo  Mo230  1  0.40128246  0.59508112  0.40133829  1
  Mo  Mo231  1  0.71241436  0.29181484  0.49853419  1
  Mo  Mo232  1  0.39157717  0.39405405  0.19867999  1
  Mo  Mo233  1  0.60202665  0.60459407  -0.00012425  1
  Mo  Mo234  1  0.60892528  0.19431745  0.19872102  1
  Mo  Mo235  1  0.20079345  -0.00451391  0.20038706  1
  Mo  Mo236  1  0.20179460  0.20578492  0.19482282  1
  Mo  Mo237  1  0.70387694  0.09927939  0.09949268  1
  Mo  Mo238  1  0.20025958  0.59535264  0.39416611  1
  Mo  Mo239  1  0.10373914  0.29981907  0.69433003  1
  Mo  Mo240  1  0.01254500  0.39886727  0.18531870  1
  Mo  Mo241  1  0.09487028  0.09781874  0.69554059  1
  Mo  Mo242  1  0.50579958  0.69542979  0.91446467  1
  Mo  Mo243  1  0.70394704  0.49844400  0.90194519  1
  Mo  Mo244  1  0.20189531  0.20381791  0.00096299  1
  Mo  Mo245  1  0.90090116  0.09768300  0.70155346  1
  Mo  Mo246  1  0.09273959  0.90864390  0.89527619  1
  Mo  Mo247  1  0.10406845  0.09565241  0.09396372  1
  Mo  Mo248  1  0.60136073  0.21086708  0.79218563  1
  Mo  Mo249  1  0.49841235  0.10665711  0.12148632  1
