# generated using pymatgen
data_HfZrTaTiMo
_symmetry_space_group_name_H-M   'P 1'
_cell_length_a   16.88698856
_cell_length_b   16.88268715
_cell_length_c   16.89061234
_cell_angle_alpha   89.97565241
_cell_angle_beta   90.04986010
_cell_angle_gamma   90.09884501
_symmetry_Int_Tables_number   1
_chemical_formula_structural   HfZrTaTiMo
_chemical_formula_sum   'Hf50 Zr50 Ta50 Ti50 Mo50'
_cell_volume   4815.46606666
_cell_formula_units_Z   50
loop_
 _symmetry_equiv_pos_site_id
 _symmetry_equiv_pos_as_xyz
  1  'x, y, z'
loop_
 _atom_site_type_symbol
 _atom_site_label
 _atom_site_symmetry_multiplicity
 _atom_site_fract_x
 _atom_site_fract_y
 _atom_site_fract_z
 _atom_site_occupancy
  Hf  Hf0  1  0.09867676  0.10117363  0.49371856  1
  Hf  Hf1  1  0.00417601  0.20569020  0.20080740  1
  Hf  Hf2  1  0.39737075  0.20175663  0.59505064  1
  Hf  Hf3  1  0.49907690  0.89454188  0.69847223  1
  Hf  Hf4  1  0.39324305  0.19716701  0.79968382  1
  Hf  Hf5  1  0.69404298  0.88983456  0.69006772  1
  Hf  Hf6  1  0.21184876  0.60008834  0.00574357  1
  Hf  Hf7  1  0.60361881  0.41118492  0.59648047  1
  Hf  Hf8  1  0.00720961  0.19653886  0.79628075  1
  Hf  Hf9  1  0.50352673  0.31463944  0.29034045  1
  Hf  Hf10  1  0.78369987  0.59241403  0.60715733  1
  Hf  Hf11  1  0.69658248  0.90363503  0.10275100  1
  Hf  Hf12  1  0.79906294  0.20745424  0.00484754  1
  Hf  Hf13  1  0.89602188  0.49505269  0.50731080  1
  Hf  Hf14  1  0.39228194  0.79775979  0.40510028  1
  Hf  Hf15  1  0.09578729  0.49507621  0.69999364  1
  Hf  Hf16  1  0.00454231  0.00986442  0.60471949  1
  Hf  Hf17  1  0.00336147  0.80225694  0.00358239  1
  Hf  Hf18  1  0.29962689  0.49950306  0.90078400  1
  Hf  Hf19  1  0.40229633  0.19732698  0.19280891  1
  Hf  Hf20  1  0.40057636  0.40183562  0.59774534  1
  Hf  Hf21  1  0.89796650  0.89897980  0.89911746  1
  Hf  Hf22  1  0.00421190  0.58869637  0.40614429  1
  Hf  Hf23  1  0.20115580  0.19411316  0.79523580  1
  Hf  Hf24  1  0.59659089  -0.01251107  0.57889514  1
  Hf  Hf25  1  0.69319416  0.89361735  0.90174841  1
  Hf  Hf26  1  0.59671332  0.00510487  0.20088743  1
  Hf  Hf27  1  0.89374271  0.90845370  0.49074549  1
  Hf  Hf28  1  0.59759210  0.60035316  0.60521434  1
  Hf  Hf29  1  0.79589992  0.00354774  0.59781267  1
  Hf  Hf30  1  0.39751150  0.40237634  0.00093749  1
  Hf  Hf31  1  0.50788787  0.30597000  0.09140460  1
  Hf  Hf32  1  0.89368694  0.90067995  0.70032359  1
  Hf  Hf33  1  0.00375623  0.80256859  0.60020620  1
  Hf  Hf34  1  0.00626238  0.59813324  -0.00196611  1
  Hf  Hf35  1  0.00028758  0.39642641  0.20108129  1
  Hf  Hf36  1  0.90091570  0.69780966  0.69373871  1
  Hf  Hf37  1  0.50254471  0.50423630  0.90138326  1
  Hf  Hf38  1  0.20704770  0.79294429  0.59481673  1
  Hf  Hf39  1  0.10724482  0.30647239  0.90169740  1
  Hf  Hf40  1  0.20351560  0.40705864  0.59647744  1
  Hf  Hf41  1  0.59880677  0.58978208  0.41888273  1
  Hf  Hf42  1  0.10598989  0.09624303  0.10848870  1
  Hf  Hf43  1  0.20476173  0.80096396  0.20481933  1
  Hf  Hf44  1  0.09403690  0.91240515  0.29754556  1
  Hf  Hf45  1  0.89768785  0.68949172  0.30033046  1
  Hf  Hf46  1  0.01730936  0.80426049  0.80307731  1
  Hf  Hf47  1  0.69747562  0.49292656  0.30077475  1
  Hf  Hf48  1  0.50656751  0.29821513  0.70808991  1
  Hf  Hf49  1  0.90540610  0.30429982  0.69622935  1
  Zr  Zr50  1  0.90421206  0.49977559  0.10143815  1
  Zr  Zr51  1  0.19998479  -0.00225137  0.80742977  1
  Zr  Zr52  1  0.89715678  0.09764592  0.89747832  1
  Zr  Zr53  1  0.60462458  0.19968760  0.19642741  1
  Zr  Zr54  1  0.30707798  0.50789756  0.29888567  1
  Zr  Zr55  1  0.10803925  0.09459139  0.91971522  1
  Zr  Zr56  1  0.19040351  0.40545307  0.40243937  1
  Zr  Zr57  1  0.60057672  0.79759284  0.20334694  1
  Zr  Zr58  1  0.59329759  0.39962921  0.41004061  1
  Zr  Zr59  1  0.70043169  0.29707289  0.70252884  1
  Zr  Zr60  1  0.29837582  0.30576630  0.29429442  1
  Zr  Zr61  1  0.19768829  0.79986949  0.00004871  1
  Zr  Zr62  1  0.10367852  0.69849801  0.30072779  1
  Zr  Zr63  1  0.70518330  0.09312637  0.47799427  1
  Zr  Zr64  1  0.50034429  0.88570110  0.89638823  1
  Zr  Zr65  1  0.09751716  0.68613484  0.11674843  1
  Zr  Zr66  1  0.01244661  -0.00105861  0.79900041  1
  Zr  Zr67  1  0.78815776  0.59793761  0.19330719  1
  Zr  Zr68  1  0.30427746  0.89414815  0.70261767  1
  Zr  Zr69  1  0.90065994  0.09422821  0.30448531  1
  Zr  Zr70  1  0.50253472  0.09567758  0.69686343  1
  Zr  Zr71  1  -0.00281471  0.80053588  0.39574092  1
  Zr  Zr72  1  0.78346582  0.58862173  0.00031734  1
  Zr  Zr73  1  0.60377437  0.60600446  0.18739634  1
  Zr  Zr74  1  0.40536425  0.20830195  0.40245237  1
  Zr  Zr75  1  0.40088738  -0.00121811  -0.00239730  1
  Zr  Zr76  1  0.59668181  0.20029768  0.58637848  1
  Zr  Zr77  1  0.81003362  0.19732185  0.59544509  1
  Zr  Zr78  1  0.39816532  0.00388786  0.80739724  1
  Zr  Zr79  1  0.49251141  0.70157549  0.70770153  1
  Zr  Zr80  1  0.29182459  0.10629133  0.29433119  1
  Zr  Zr81  1  0.10535811  0.90629311  0.49382137  1
  Zr  Zr82  1  0.89865725  0.69651842  0.90348312  1
  Zr  Zr83  1  -0.00811267  0.20681551  0.00754250  1
  Zr  Zr84  1  0.78942175  0.59150829  0.80068309  1
  Zr  Zr85  1  0.68828577  0.30053530  0.90018947  1
  Zr  Zr86  1  0.71576802  0.30098868  0.49532253  1
  Zr  Zr87  1  0.39966172  0.79073864  0.00596773  1
  Zr  Zr88  1  0.10161360  0.51274073  0.28325360  1
  Zr  Zr89  1  0.79928403  0.80462717  0.20324468  1
  Zr  Zr90  1  0.79633607  -0.00002668  -0.00176365  1
  Zr  Zr91  1  0.19605140  0.20202622  0.60058466  1
  Zr  Zr92  1  0.79063696  0.78872594  0.79724229  1
  Zr  Zr93  1  0.89481548  0.29640822  0.30591376  1
  Zr  Zr94  1  0.40099064  -0.00003052  0.39812652  1
  Zr  Zr95  1  0.88666793  0.69962537  0.49716741  1
  Zr  Zr96  1  0.79576748  0.40657955  0.80499914  1
  Zr  Zr97  1  0.70471641  0.70501069  0.32596885  1
  Zr  Zr98  1  0.49828253  0.70140934  0.30813307  1
  Zr  Zr99  1  0.00397682  0.59760678  0.80146238  1
  Ta  Ta100  1  0.59552093  0.00482501  -0.00143917  1
  Ta  Ta101  1  0.10412984  0.69436907  0.50400766  1
  Ta  Ta102  1  0.49462581  0.50172699  0.70363140  1
  Ta  Ta103  1  0.10257403  0.90850184  0.10472889  1
  Ta  Ta104  1  0.50665367  0.49971422  0.09775496  1
  Ta  Ta105  1  0.00115045  0.39619754  0.00281594  1
  Ta  Ta106  1  -0.00541916  0.80515284  0.19741528  1
  Ta  Ta107  1  0.68379369  0.69502081  0.90688412  1
  Ta  Ta108  1  0.59908003  0.20206307  0.39312572  1
  Ta  Ta109  1  0.90379839  0.49072369  0.69708219  1
  Ta  Ta110  1  0.50059155  0.90048593  0.30176011  1
  Ta  Ta111  1  0.29169903  0.09730073  0.49784661  1
  Ta  Ta112  1  0.29907032  0.29832307  0.09654391  1
  Ta  Ta113  1  0.30034867  0.29901023  0.90430987  1
  Ta  Ta114  1  0.19039018  0.20769354  0.39350159  1
  Ta  Ta115  1  0.40216650  0.00075438  0.19948854  1
  Ta  Ta116  1  0.29636068  0.90621506  0.50137980  1
  Ta  Ta117  1  0.29652819  0.10121003  0.09681445  1
  Ta  Ta118  1  0.10868828  0.49582919  0.09616395  1
  Ta  Ta119  1  0.39851310  0.79626020  0.59165170  1
  Ta  Ta120  1  0.60443308  0.00566628  0.80644896  1
  Ta  Ta121  1  0.70250172  0.91415221  0.31487543  1
  Ta  Ta122  1  0.49897650  0.29753235  0.89919677  1
  Ta  Ta123  1  0.49498688  0.89618297  0.10734930  1
  Ta  Ta124  1  0.20473945  0.59507044  0.79351920  1
  Ta  Ta125  1  0.20590307  0.40292975  0.19230677  1
  Ta  Ta126  1  0.10872891  0.69689403  0.69788129  1
  Ta  Ta127  1  0.09550298  0.30479635  0.69865593  1
  Ta  Ta128  1  0.79304398  0.39194559  0.19044243  1
  Ta  Ta129  1  0.39233008  0.60258601  0.59703226  1
  Ta  Ta130  1  0.70283156  0.09807548  0.09940269  1
  Ta  Ta131  1  0.30565962  0.69898327  0.88833766  1
  Ta  Ta132  1  0.70174165  0.29983261  0.29883865  1
  Ta  Ta133  1  0.79636675  0.79428161  0.00654508  1
  Ta  Ta134  1  0.70020787  0.71547479  0.51017803  1
  Ta  Ta135  1  0.10667675  0.49238180  0.90233112  1
  Ta  Ta136  1  0.40599860  0.40815102  0.40860692  1
  Ta  Ta137  1  0.89878999  0.69917146  0.10313914  1
  Ta  Ta138  1  0.80540410  0.40170918  0.40124433  1
  Ta  Ta139  1  0.00277149  0.39904524  0.40162309  1
  Ta  Ta140  1  0.40745040  0.60395186  0.19297943  1
  Ta  Ta141  1  0.20538122  0.60366938  0.40984106  1
  Ta  Ta142  1  0.60238073  0.19445341  -0.00043010  1
  Ta  Ta143  1  0.30150416  0.90378884  0.10583360  1
  Ta  Ta144  1  0.89825570  0.09098920  0.11031251  1
  Ta  Ta145  1  0.20578460  0.40068447  0.79531467  1
  Ta  Ta146  1  0.39599719  0.39975889  0.79736293  1
  Ta  Ta147  1  0.89902954  0.10343390  0.70150308  1
  Ta  Ta148  1  0.79926986  0.20307866  0.19316712  1
  Ta  Ta149  1  0.11037486  0.30401227  0.10090256  1
  Ti  Ti150  1  0.89333933  0.50102649  0.30033834  1
  Ti  Ti151  1  0.11541432  0.69698440  0.89188860  1
  Ti  Ti152  1  0.29790427  0.30393599  0.70158810  1
  Ti  Ti153  1  0.59568330  0.81995861  0.41921116  1
  Ti  Ti154  1  0.39267642  0.59364019  0.79268919  1
  Ti  Ti155  1  0.40403314  0.60334169  0.00983790  1
  Ti  Ti156  1  0.20646628  -0.00032898  0.20086654  1
  Ti  Ti157  1  0.79582525  0.19453537  0.80358025  1
  Ti  Ti158  1  0.49952036  0.50386821  0.29667674  1
  Ti  Ti159  1  0.39930821  0.41023780  0.19068671  1
  Ti  Ti160  1  0.49963342  0.09744845  0.49060868  1
  Ti  Ti161  1  0.00559016  0.20976003  0.39937657  1
  Ti  Ti162  1  0.30641874  0.70156662  0.11246879  1
  Ti  Ti163  1  0.00227738  -0.00714679  0.00480816  1
  Ti  Ti164  1  0.50331980  0.11023908  0.90062793  1
  Ti  Ti165  1  0.30559765  0.69399915  0.30080255  1
  Ti  Ti166  1  0.49654999  0.10032935  0.09075116  1
  Ti  Ti167  1  0.49822756  0.69161710  0.89936571  1
  Ti  Ti168  1  0.78882034  0.00517572  0.79795527  1
  Ti  Ti169  1  0.90253567  0.30652546  0.89514263  1
  Ti  Ti170  1  0.29712533  0.30034719  0.49371276  1
  Ti  Ti171  1  0.00547021  0.59786371  0.59701560  1
  Ti  Ti172  1  0.49801503  0.70142747  0.50178145  1
  Ti  Ti173  1  0.90533600  0.10759013  0.48949955  1
  Ti  Ti174  1  0.20394538  0.20446423  0.00643667  1
  Ti  Ti175  1  0.70940292  0.09956225  0.29856072  1
  Ti  Ti176  1  0.29484521  0.88802349  0.89821931  1
  Ti  Ti177  1  0.09314171  0.29865262  0.50266134  1
  Ti  Ti178  1  0.60085426  0.78899817  0.79752323  1
  Ti  Ti179  1  0.79527215  0.39716651  0.00351096  1
  Ti  Ti180  1  0.89616546  0.91202486  0.30030838  1
  Ti  Ti181  1  0.69381289  0.10267993  0.70401310  1
  Ti  Ti182  1  0.91057949  0.48925470  0.89844776  1
  Ti  Ti183  1  0.90017195  0.90661576  0.10788492  1
  Ti  Ti184  1  0.40019477  -0.00288676  0.59052145  1
  Ti  Ti185  1  0.30538375  0.50859778  0.49580907  1
  Ti  Ti186  1  0.20544240  0.79621865  0.40120568  1
  Ti  Ti187  1  0.60045573  0.41091611  0.79989557  1
  Ti  Ti188  1  0.00247789  0.39634563  0.58967369  1
  Ti  Ti189  1  0.29845537  0.70067773  0.70507815  1
  Ti  Ti190  1  0.30009877  0.10717763  0.91658084  1
  Ti  Ti191  1  0.59410798  0.78808189  0.01067359  1
  Ti  Ti192  1  0.29195697  0.08704407  0.68541843  1
  Ti  Ti193  1  0.11629855  0.89995377  0.69592429  1
  Ti  Ti194  1  0.60726650  0.59587722  0.79683202  1
  Ti  Ti195  1  0.20566556  0.59681289  0.59939617  1
  Ti  Ti196  1  0.30534817  0.89915195  0.29668986  1
  Ti  Ti197  1  0.50360963  0.09893239  0.30373706  1
  Ti  Ti198  1  0.09744685  0.09933852  0.29854850  1
  Ti  Ti199  1  0.20313008  0.00353183  0.39440683  1
  Mo  Mo200  1  0.29799749  0.69678985  0.50039926  1
  Mo  Mo201  1  0.10074131  0.30375002  0.29822950  1
  Mo  Mo202  1  -0.00164747  -0.00300879  0.19737974  1
  Mo  Mo203  1  0.20246959  -0.00034974  0.59748384  1
  Mo  Mo204  1  0.79466315  0.58863368  0.40636559  1
  Mo  Mo205  1  0.59289343  0.60146496  -0.00169192  1
  Mo  Mo206  1  0.79646009  0.00340699  0.20162565  1
  Mo  Mo207  1  0.10506366  0.89719190  0.91266692  1
  Mo  Mo208  1  0.09876120  0.50465666  0.50687097  1
  Mo  Mo209  1  0.00072261  0.00877976  0.39646136  1
  Mo  Mo210  1  0.69058389  0.70076199  0.70268935  1
  Mo  Mo211  1  0.39845337  0.79013157  0.80260680  1
  Mo  Mo212  1  0.91072917  0.30173308  0.49733998  1
  Mo  Mo213  1  0.49727485  0.69985846  0.09954734  1
  Mo  Mo214  1  0.69227991  0.49598118  0.70443789  1
  Mo  Mo215  1  0.79651881  0.80068750  0.59869762  1
  Mo  Mo216  1  0.69865353  0.70944304  0.08995860  1
  Mo  Mo217  1  0.79947235  0.20306105  0.39293544  1
  Mo  Mo218  1  0.20935165  -0.00481542  0.00728478  1
  Mo  Mo219  1  0.71043430  0.49816036  0.50031788  1
  Mo  Mo220  1  -0.01464928  0.59838362  0.19944952  1
  Mo  Mo221  1  0.70437199  0.89483769  0.49450636  1
  Mo  Mo222  1  0.48688289  0.50632248  0.50750166  1
  Mo  Mo223  1  0.30167832  0.50291019  0.70067891  1
  Mo  Mo224  1  0.20147933  0.79174439  0.79843983  1
  Mo  Mo225  1  0.59704820  0.19045910  0.80795836  1
  Mo  Mo226  1  0.59553599  0.00242582  0.39183065  1
  Mo  Mo227  1  0.40305885  0.60051238  0.40349301  1
  Mo  Mo228  1  0.20215067  0.40029243  0.00064459  1
  Mo  Mo229  1  0.68537651  0.49814640  0.90542045  1
  Mo  Mo230  1  0.89854520  0.30224909  0.09938811  1
  Mo  Mo231  1  0.40017527  0.20168285  -0.00249134  1
  Mo  Mo232  1  0.39694616  0.80375808  0.20639971  1
  Mo  Mo233  1  0.48990652  0.89717903  0.49843159  1
  Mo  Mo234  1  0.70024496  0.29691124  0.09818071  1
  Mo  Mo235  1  0.30801373  0.50083393  0.10121494  1
  Mo  Mo236  1  0.80413802  0.00337551  0.39761250  1
  Mo  Mo237  1  0.60250659  0.40416958  0.19587843  1
  Mo  Mo238  1  0.69369291  0.10038818  0.90017463  1
  Mo  Mo239  1  0.49685771  0.30046501  0.49755956  1
  Mo  Mo240  1  0.09821331  0.10500651  0.69126665  1
  Mo  Mo241  1  0.00052325  0.20278841  0.59767123  1
  Mo  Mo242  1  0.79670662  0.81084626  0.40124627  1
  Mo  Mo243  1  0.80435708  0.40201387  0.60255708  1
  Mo  Mo244  1  0.68847924  0.48017555  0.09490017  1
  Mo  Mo245  1  0.59312412  0.79645012  0.59389612  1
  Mo  Mo246  1  0.00221303  0.39833808  0.80726028  1
  Mo  Mo247  1  0.19862838  0.20526754  0.19817156  1
  Mo  Mo248  1  0.59820148  0.40086327  -0.00309285  1
  Mo  Mo249  1  0.22266799  0.59841029  0.19689945  1
