# generated using pymatgen
data_HfZrTaTiMo
_symmetry_space_group_name_H-M   'P 1'
_cell_length_a   16.88570955
_cell_length_b   16.90132890
_cell_length_c   16.88112481
_cell_angle_alpha   89.98262733
_cell_angle_beta   90.01009904
_cell_angle_gamma   89.99632132
_symmetry_Int_Tables_number   1
_chemical_formula_structural   HfZrTaTiMo
_chemical_formula_sum   'Hf50 Zr50 Ta50 Ti50 Mo50'
_cell_volume   4817.71961614
_cell_formula_units_Z   50
loop_
 _symmetry_equiv_pos_site_id
 _symmetry_equiv_pos_as_xyz
  1  'x, y, z'
loop_
 _atom_site_type_symbol
 _atom_site_label
 _atom_site_symmetry_multiplicity
 _atom_site_fract_x
 _atom_site_fract_y
 _atom_site_fract_z
 _atom_site_occupancy
  Hf  Hf0  1  0.20599865  0.59975445  0.20098619  1
  Hf  Hf1  1  -0.00023358  0.20429645  0.59720144  1
  Hf  Hf2  1  0.70606025  0.90598787  0.30293081  1
  Hf  Hf3  1  0.30769069  0.29379596  0.69559631  1
  Hf  Hf4  1  -0.01531741  0.81055109  0.59281049  1
  Hf  Hf5  1  0.88918266  0.49641136  0.69776546  1
  Hf  Hf6  1  0.30267056  0.10158225  0.89616389  1
  Hf  Hf7  1  0.40437983  0.19021871  0.58730695  1
  Hf  Hf8  1  0.40406888  -0.00918018  0.79547764  1
  Hf  Hf9  1  0.79410796  0.19905357  0.40322800  1
  Hf  Hf10  1  0.29736863  0.48433333  0.30238005  1
  Hf  Hf11  1  0.90013008  0.91739567  0.29308943  1
  Hf  Hf12  1  0.50444840  0.70124732  0.89607503  1
  Hf  Hf13  1  0.89308648  0.70107250  0.89941441  1
  Hf  Hf14  1  0.60051077  0.20249006  0.59611431  1
  Hf  Hf15  1  -0.00715875  0.60120130  0.79654484  1
  Hf  Hf16  1  -0.00341483  0.59696195  0.20308286  1
  Hf  Hf17  1  0.79792601  0.01356856  0.80701226  1
  Hf  Hf18  1  0.01013526  0.81173632  0.20182598  1
  Hf  Hf19  1  0.40157754  0.00923574  0.20384175  1
  Hf  Hf20  1  0.09482537  0.49933698  0.89814896  1
  Hf  Hf21  1  0.60506744  0.39228258  0.40945814  1
  Hf  Hf22  1  0.10123224  0.69624371  0.09459331  1
  Hf  Hf23  1  -0.00198161  0.80883196  0.40388783  1
  Hf  Hf24  1  0.40820931  -0.00086849  -0.00989980  1
  Hf  Hf25  1  0.50602428  0.89635852  0.09306691  1
  Hf  Hf26  1  0.80095520  0.39880139  0.19944989  1
  Hf  Hf27  1  0.89103812  0.70155331  0.09574870  1
  Hf  Hf28  1  0.40066328  0.59607430  0.80294531  1
  Hf  Hf29  1  0.29801151  0.49294595  0.69220155  1
  Hf  Hf30  1  0.10352254  0.09710999  0.70047049  1
  Hf  Hf31  1  0.79471362  0.20546211  0.60665187  1
  Hf  Hf32  1  0.69507666  0.08940366  0.50411501  1
  Hf  Hf33  1  0.60917504  0.38844703  0.59980705  1
  Hf  Hf34  1  0.18359849  0.38670371  0.59754051  1
  Hf  Hf35  1  0.40688050  0.40075481  -0.00224401  1
  Hf  Hf36  1  0.70198020  0.90525237  0.49521400  1
  Hf  Hf37  1  0.40442509  0.80885989  0.61070019  1
  Hf  Hf38  1  0.60841126  0.19892291  0.79488555  1
  Hf  Hf39  1  -0.00214173  0.39082079  0.00707827  1
  Hf  Hf40  1  0.79904888  0.39688650  0.00482779  1
  Hf  Hf41  1  0.10905990  0.30243790  0.31396153  1
  Hf  Hf42  1  0.50355834  0.29282324  0.29683349  1
  Hf  Hf43  1  0.60810552  0.40068335  0.79708577  1
  Hf  Hf44  1  0.69473119  0.89720686  0.90020070  1
  Hf  Hf45  1  0.39819929  0.19379648  0.20390529  1
  Hf  Hf46  1  0.29133365  0.29286798  0.48834014  1
  Hf  Hf47  1  0.09917049  0.09656140  0.30482872  1
  Hf  Hf48  1  0.00455483  0.80306912  0.00019878  1
  Hf  Hf49  1  0.19640495  0.80673885  0.19976602  1
  Zr  Zr50  1  -0.00229575  -0.00120151  0.60002778  1
  Zr  Zr51  1  0.09682752  0.50710083  0.50804784  1
  Zr  Zr52  1  -0.00633220  0.00101810  0.80266454  1
  Zr  Zr53  1  0.60166929  0.80221341  0.60519622  1
  Zr  Zr54  1  0.49479413  0.69795541  0.10081154  1
  Zr  Zr55  1  0.59481725  0.40471277  -0.00255834  1
  Zr  Zr56  1  0.31395566  0.70356884  0.29709224  1
  Zr  Zr57  1  0.40347850  0.59931446  0.39819687  1
  Zr  Zr58  1  0.60478314  0.79715205  0.20026674  1
  Zr  Zr59  1  0.50527826  0.49922104  0.69649852  1
  Zr  Zr60  1  0.20715003  0.19743350  0.20283411  1
  Zr  Zr61  1  0.19800273  0.60114101  0.39913467  1
  Zr  Zr62  1  0.89298163  0.90685707  0.10191920  1
  Zr  Zr63  1  0.29010327  0.70477324  0.69596602  1
  Zr  Zr64  1  0.89883896  0.29941214  0.89155133  1
  Zr  Zr65  1  0.60069051  0.19782895  -0.00408989  1
  Zr  Zr66  1  0.70487959  0.69844891  0.30300315  1
  Zr  Zr67  1  0.80601623  0.19771758  0.20321200  1
  Zr  Zr68  1  0.40045384  0.60598375  0.60017708  1
  Zr  Zr69  1  0.30393017  0.90284760  0.09608181  1
  Zr  Zr70  1  0.28075643  0.09351865  0.49524655  1
  Zr  Zr71  1  0.40394854  0.59228713  -0.00397918  1
  Zr  Zr72  1  0.89410687  0.70497738  0.29731938  1
  Zr  Zr73  1  0.59912287  0.00263782  0.20013028  1
  Zr  Zr74  1  0.10300100  0.90268006  0.89560947  1
  Zr  Zr75  1  0.69273533  0.90666886  0.70335890  1
  Zr  Zr76  1  0.29722265  0.49093706  0.50260410  1
  Zr  Zr77  1  0.30655585  0.90486714  0.31029531  1
  Zr  Zr78  1  0.50450037  0.50035265  0.50436465  1
  Zr  Zr79  1  0.20088678  0.38867010  0.19027590  1
  Zr  Zr80  1  0.10202762  0.10185877  0.90091997  1
  Zr  Zr81  1  0.30940793  0.29298970  0.89342825  1
  Zr  Zr82  1  0.19026909  0.80483639  0.39274637  1
  Zr  Zr83  1  0.50100397  0.90969313  0.50008278  1
  Zr  Zr84  1  0.89244651  0.88860509  0.90230365  1
  Zr  Zr85  1  0.19657858  0.20782515  0.00835296  1
  Zr  Zr86  1  0.09800877  0.49970398  0.09855504  1
  Zr  Zr87  1  0.90274044  0.30216881  0.30741001  1
  Zr  Zr88  1  0.29981614  0.90329005  0.50169141  1
  Zr  Zr89  1  0.79093395  0.40371797  0.41275013  1
  Zr  Zr90  1  0.81334012  -0.00848590  0.60479100  1
  Zr  Zr91  1  0.21069815  0.59801477  -0.00418134  1
  Zr  Zr92  1  0.50413238  0.49906014  0.29501779  1
  Zr  Zr93  1  0.10656811  0.70337774  0.51364842  1
  Zr  Zr94  1  0.70352742  0.69592432  0.50615765  1
  Zr  Zr95  1  -0.00107986  0.40101573  0.41751145  1
  Zr  Zr96  1  0.20702357  0.80508901  -0.00312459  1
  Zr  Zr97  1  0.09735834  0.70608627  0.69965758  1
  Zr  Zr98  1  0.79681138  0.01434724  -0.00326857  1
  Zr  Zr99  1  0.19752870  0.39851122  0.80052740  1
  Ta  Ta100  1  0.78463728  0.78559017  0.79680246  1
  Ta  Ta101  1  0.69982219  0.50233859  0.10195226  1
  Ta  Ta102  1  0.19946191  0.59845189  0.79929327  1
  Ta  Ta103  1  0.00277623  0.20370139  0.19828767  1
  Ta  Ta104  1  0.20136809  0.39423449  0.00077388  1
  Ta  Ta105  1  0.50422029  0.70132994  0.50002860  1
  Ta  Ta106  1  0.90396637  0.09727143  0.10981904  1
  Ta  Ta107  1  0.90365164  0.11329889  0.70718760  1
  Ta  Ta108  1  0.89320979  0.49939201  0.89857277  1
  Ta  Ta109  1  0.89970768  0.50080257  0.30148931  1
  Ta  Ta110  1  0.49739603  0.29432198  0.88860070  1
  Ta  Ta111  1  -0.00756545  0.19963135  0.00617721  1
  Ta  Ta112  1  0.50836501  0.69964865  0.70322634  1
  Ta  Ta113  1  0.09536443  0.29532507  0.89606010  1
  Ta  Ta114  1  0.78787216  0.59872161  0.79601120  1
  Ta  Ta115  1  0.89457880  0.50433649  0.09887256  1
  Ta  Ta116  1  0.49707558  0.89803713  0.30847547  1
  Ta  Ta117  1  0.60450964  0.59545896  -0.00464779  1
  Ta  Ta118  1  0.09505086  0.49423822  0.30482694  1
  Ta  Ta119  1  0.00088852  0.19458517  0.40805468  1
  Ta  Ta120  1  0.70424251  0.29976606  0.89985316  1
  Ta  Ta121  1  0.69769010  0.29488374  0.10341364  1
  Ta  Ta122  1  0.80623699  0.59550669  0.40697215  1
  Ta  Ta123  1  0.60361768  0.59893493  0.19632580  1
  Ta  Ta124  1  0.40366553  0.38588628  0.40008659  1
  Ta  Ta125  1  0.69094880  0.29494332  0.29662799  1
  Ta  Ta126  1  0.21386280  -0.00489963  0.79408036  1
  Ta  Ta127  1  0.11103206  0.91667998  0.50238782  1
  Ta  Ta128  1  0.09230431  0.29280854  0.70897915  1
  Ta  Ta129  1  0.59793274  0.79855869  0.39897880  1
  Ta  Ta130  1  0.10102212  0.70254588  0.89121356  1
  Ta  Ta131  1  0.09623264  0.09512600  0.10034076  1
  Ta  Ta132  1  0.40129461  0.39189515  0.19881293  1
  Ta  Ta133  1  0.70146178  0.10230878  0.10263564  1
  Ta  Ta134  1  -0.01036998  0.60315867  0.40453152  1
  Ta  Ta135  1  0.49311017  0.29614322  0.70050807  1
  Ta  Ta136  1  0.10659182  0.89472988  0.69712741  1
  Ta  Ta137  1  0.19947281  0.00120162  0.20344981  1
  Ta  Ta138  1  0.90005098  0.09915970  0.49922347  1
  Ta  Ta139  1  -0.00538353  0.39874164  0.79334642  1
  Ta  Ta140  1  0.50393347  0.09309005  0.69762088  1
  Ta  Ta141  1  0.59965208  0.00603956  -0.01029550  1
  Ta  Ta142  1  0.30049098  0.70998926  0.50216277  1
  Ta  Ta143  1  0.79125949  0.59762735  -0.00547077  1
  Ta  Ta144  1  0.29958409  0.70501727  0.89150310  1
  Ta  Ta145  1  -0.00355892  0.39399985  0.19585659  1
  Ta  Ta146  1  0.59050519  0.19444629  0.40515202  1
  Ta  Ta147  1  0.79747384  0.20253447  0.79853840  1
  Ta  Ta148  1  0.09482100  0.50513852  0.69477297  1
  Ta  Ta149  1  0.40618495  0.02287042  0.39736043  1
  Ti  Ti150  1  0.40815144  0.40406765  0.80244604  1
  Ti  Ti151  1  0.20839475  0.80835034  0.79946163  1
  Ti  Ti152  1  0.59622909  0.80216387  0.79863437  1
  Ti  Ti153  1  0.40859471  0.19582371  0.00018866  1
  Ti  Ti154  1  0.70168161  0.51219320  0.51834355  1
  Ti  Ti155  1  0.40596903  0.80445718  0.20286043  1
  Ti  Ti156  1  0.69462498  0.10338417  0.29550979  1
  Ti  Ti157  1  0.70261656  0.90494864  0.09479483  1
  Ti  Ti158  1  0.80269267  0.79820981  0.60160194  1
  Ti  Ti159  1  0.59205593  0.00839760  0.39471787  1
  Ti  Ti160  1  0.89137351  0.50345740  0.51092209  1
  Ti  Ti161  1  0.50107582  0.50302534  0.10767729  1
  Ti  Ti162  1  0.30886038  0.49738945  0.10508933  1
  Ti  Ti163  1  0.60694986  0.79467294  -0.00398923  1
  Ti  Ti164  1  0.39983740  0.80700362  -0.01700707  1
  Ti  Ti165  1  0.70238675  0.69629936  0.09392718  1
  Ti  Ti166  1  0.09556340  0.69456911  0.30109732  1
  Ti  Ti167  1  0.80801813  0.01322792  0.39361375  1
  Ti  Ti168  1  0.39737471  0.00283156  0.60733350  1
  Ti  Ti169  1  0.50064908  0.69972939  0.30027119  1
  Ti  Ti170  1  0.60337524  0.39968565  0.19588809  1
  Ti  Ti171  1  0.00012350  0.00283332  0.40514825  1
  Ti  Ti172  1  -0.00594560  0.39087972  0.60607639  1
  Ti  Ti173  1  0.78945083  0.39111725  0.60763115  1
  Ti  Ti174  1  0.60580218  0.60055804  0.39934497  1
  Ti  Ti175  1  0.79611911  0.59583875  0.19954942  1
  Ti  Ti176  1  0.29897708  0.49518943  0.89727948  1
  Ti  Ti177  1  -0.00705649  0.00804805  -0.00225939  1
  Ti  Ti178  1  0.31167970  0.70041093  0.10011372  1
  Ti  Ti179  1  0.89913298  0.88716195  0.71779841  1
  Ti  Ti180  1  0.80995959  0.80177711  0.41103263  1
  Ti  Ti181  1  -0.00616613  0.59974815  -0.00389021  1
  Ti  Ti182  1  0.89409551  0.29968247  0.50471755  1
  Ti  Ti183  1  0.19190860  0.19576129  0.59813688  1
  Ti  Ti184  1  0.20446610  0.19652162  0.79298679  1
  Ti  Ti185  1  0.60869326  0.59852552  0.79950184  1
  Ti  Ti186  1  0.50297982  0.10238226  0.88677267  1
  Ti  Ti187  1  0.31161759  0.29826751  0.09612013  1
  Ti  Ti188  1  0.50782892  0.10406097  0.10177598  1
  Ti  Ti189  1  0.50557787  0.29414018  0.10267614  1
  Ti  Ti190  1  0.29459846  0.09298656  0.09111584  1
  Ti  Ti191  1  -0.01637570  0.60938106  0.59653625  1
  Ti  Ti192  1  0.88952420  0.70089032  0.69889417  1
  Ti  Ti193  1  0.80441277  0.19921367  0.00004554  1
  Ti  Ti194  1  0.10173757  0.91988501  0.09585004  1
  Ti  Ti195  1  0.40261069  0.80970640  0.79897552  1
  Ti  Ti196  1  0.69516728  0.09254008  0.69918642  1
  Ti  Ti197  1  0.70077968  0.50042495  0.29846017  1
  Ti  Ti198  1  0.70470285  0.49771122  0.89664981  1
  Ti  Ti199  1  0.79413947  0.80499969  0.19348124  1
  Mo  Mo200  1  0.69360361  0.69743561  0.89881252  1
  Mo  Mo201  1  0.60310633  0.19974685  0.19755539  1
  Mo  Mo202  1  0.79492995  0.00871287  0.19953851  1
  Mo  Mo203  1  0.80013024  0.60087799  0.60395494  1
  Mo  Mo204  1  0.41378354  0.79415558  0.40542767  1
  Mo  Mo205  1  0.19693850  0.00150720  0.39231384  1
  Mo  Mo206  1  0.40803152  0.38423393  0.59374657  1
  Mo  Mo207  1  0.29582103  0.10317876  0.30393362  1
  Mo  Mo208  1  0.50006693  0.90183932  0.70468160  1
  Mo  Mo209  1  0.50397927  0.10177971  0.30233998  1
  Mo  Mo210  1  0.50036141  0.09787648  0.50128328  1
  Mo  Mo211  1  0.70015208  0.10716965  0.90240779  1
  Mo  Mo212  1  0.59261109  0.00287793  0.60349905  1
  Mo  Mo213  1  0.20110640  0.59585883  0.60650643  1
  Mo  Mo214  1  0.69898336  0.29107902  0.49600556  1
  Mo  Mo215  1  0.70502375  0.30360292  0.70668001  1
  Mo  Mo216  1  -0.00330727  0.79510372  0.79481482  1
  Mo  Mo217  1  0.20235227  0.81210509  0.59941553  1
  Mo  Mo218  1  0.09824890  0.29293200  0.50498652  1
  Mo  Mo219  1  0.78326759  0.79013128  0.00017957  1
  Mo  Mo220  1  0.09854527  0.91253354  0.30262408  1
  Mo  Mo221  1  0.70346153  0.50335355  0.69710751  1
  Mo  Mo222  1  0.29883598  0.90158102  0.69935182  1
  Mo  Mo223  1  0.90877133  0.10106677  0.30420423  1
  Mo  Mo224  1  0.50867569  0.49841623  0.89571318  1
  Mo  Mo225  1  0.49474767  0.29602233  0.49844012  1
  Mo  Mo226  1  0.19928747  0.39742095  0.40111559  1
  Mo  Mo227  1  0.89838233  0.29449980  0.10203154  1
  Mo  Mo228  1  0.29966031  0.09989005  0.69624607  1
  Mo  Mo229  1  0.60443106  0.60448300  0.60832862  1
  Mo  Mo230  1  0.00481790  0.00698893  0.19705019  1
  Mo  Mo231  1  0.20340394  0.00533658  0.00102915  1
  Mo  Mo232  1  0.79713825  0.40181147  0.80093202  1
  Mo  Mo233  1  0.40446758  0.59035861  0.19598580  1
  Mo  Mo234  1  0.50769413  0.89379862  0.89902320  1
  Mo  Mo235  1  0.40729218  0.19101438  0.79126000  1
  Mo  Mo236  1  0.69623541  0.69690657  0.70251874  1
  Mo  Mo237  1  -0.00238933  0.20253172  0.80069883  1
  Mo  Mo238  1  0.89571213  0.90549910  0.48656753  1
  Mo  Mo239  1  0.19285203  0.19667926  0.40187768  1
  Mo  Mo240  1  0.89931727  0.11253434  0.90366637  1
  Mo  Mo241  1  0.09630594  0.09903528  0.49957303  1
  Mo  Mo242  1  0.89928955  0.30472313  0.69913071  1
  Mo  Mo243  1  0.20103091  0.00150647  0.61216009  1
  Mo  Mo244  1  0.09324722  0.29413391  0.09721521  1
  Mo  Mo245  1  0.59731066  0.00531680  0.80330455  1
  Mo  Mo246  1  0.39671263  0.19699193  0.39297472  1
  Mo  Mo247  1  0.30513381  0.89659267  0.89612072  1
  Mo  Mo248  1  0.89626721  0.69981047  0.50233528  1
  Mo  Mo249  1  0.30636192  0.29606912  0.30542744  1
