# generated using pymatgen
data_HfZrTaTiMo
_symmetry_space_group_name_H-M   'P 1'
_cell_length_a   16.88582092
_cell_length_b   16.90133646
_cell_length_c   16.87810426
_cell_angle_alpha   90.06435269
_cell_angle_beta   90.01162985
_cell_angle_gamma   89.96222478
_symmetry_Int_Tables_number   1
_chemical_formula_structural   HfZrTaTiMo
_chemical_formula_sum   'Hf50 Zr50 Ta50 Ti50 Mo50'
_cell_volume   4816.88762512
_cell_formula_units_Z   50
loop_
 _symmetry_equiv_pos_site_id
 _symmetry_equiv_pos_as_xyz
  1  'x, y, z'
loop_
 _atom_site_type_symbol
 _atom_site_label
 _atom_site_symmetry_multiplicity
 _atom_site_fract_x
 _atom_site_fract_y
 _atom_site_fract_z
 _atom_site_occupancy
  Hf  Hf0  1  0.19667064  0.59415556  0.59881053  1
  Hf  Hf1  1  0.60363202  0.20568773  0.79420400  1
  Hf  Hf2  1  0.60476345  0.60252349  0.59835045  1
  Hf  Hf3  1  0.69924381  0.50180020  0.89429021  1
  Hf  Hf4  1  0.10217397  0.69417006  0.10758543  1
  Hf  Hf5  1  0.49554744  0.30172786  0.90714727  1
  Hf  Hf6  1  0.20122932  0.80112415  0.80706895  1
  Hf  Hf7  1  0.50397256  0.30245097  0.10071682  1
  Hf  Hf8  1  0.09488863  0.91574605  0.70205685  1
  Hf  Hf9  1  0.80845115  0.59515324  0.20241969  1
  Hf  Hf10  1  0.89856081  0.69399628  0.90028186  1
  Hf  Hf11  1  0.00634248  0.59584860  0.78665463  1
  Hf  Hf12  1  0.80094368  0.40049984  0.00293521  1
  Hf  Hf13  1  0.51206458  0.49581127  0.29627001  1
  Hf  Hf14  1  0.50311689  0.69530888  0.10011790  1
  Hf  Hf15  1  0.10038188  0.48213444  0.11689507  1
  Hf  Hf16  1  0.70101977  0.49055162  0.68794621  1
  Hf  Hf17  1  0.19953098  0.58354059  0.00727324  1
  Hf  Hf18  1  0.78551909  0.38113128  0.79529643  1
  Hf  Hf19  1  0.89003426  0.30516496  0.30429472  1
  Hf  Hf20  1  0.50038054  0.89809924  0.09790950  1
  Hf  Hf21  1  0.69849154  0.69772555  0.10524506  1
  Hf  Hf22  1  0.50227441  0.71240641  0.49924879  1
  Hf  Hf23  1  0.20596612  0.00934707  0.00203456  1
  Hf  Hf24  1  0.69653011  0.29891285  0.30588205  1
  Hf  Hf25  1  0.81025936  0.61597167  0.58901439  1
  Hf  Hf26  1  0.09544960  0.08318076  0.29383825  1
  Hf  Hf27  1  0.59998036  0.00301759  0.40443859  1
  Hf  Hf28  1  0.20185673  0.80414508  0.20574549  1
  Hf  Hf29  1  0.90251494  0.29587375  0.69335564  1
  Hf  Hf30  1  0.09982042  0.29859402  0.69930102  1
  Hf  Hf31  1  0.79762447  0.00031281  0.79682479  1
  Hf  Hf32  1  0.09898821  0.49584337  0.30841135  1
  Hf  Hf33  1  0.30300167  0.10656828  0.50636909  1
  Hf  Hf34  1  0.70786063  0.48181116  0.49482632  1
  Hf  Hf35  1  0.00314863  0.80080429  0.00428965  1
  Hf  Hf36  1  0.40036759  0.59552219  0.78896726  1
  Hf  Hf37  1  -0.00174689  0.79447717  0.79602209  1
  Hf  Hf38  1  0.09835841  0.91398211  0.89895963  1
  Hf  Hf39  1  0.29273914  0.10645056  0.70438050  1
  Hf  Hf40  1  0.69884156  0.29821875  0.10574521  1
  Hf  Hf41  1  0.80375544  0.80197404  0.00254395  1
  Hf  Hf42  1  0.60869160  0.00165067  -0.00072215  1
  Hf  Hf43  1  -0.00251111  0.80335766  0.20405136  1
  Hf  Hf44  1  -0.00519778  0.19740580  0.19763305  1
  Hf  Hf45  1  0.50774542  0.90506100  0.70081165  1
  Hf  Hf46  1  0.29737463  0.30370361  0.70153378  1
  Hf  Hf47  1  0.89985918  0.49199215  0.68998851  1
  Hf  Hf48  1  0.70196923  0.48531726  0.29872324  1
  Hf  Hf49  1  0.79634317  -0.00495624  0.59379429  1
  Zr  Zr50  1  0.50802141  0.69591200  0.90860009  1
  Zr  Zr51  1  0.90516569  0.90911270  0.89727102  1
  Zr  Zr52  1  0.60027092  0.80359819  0.20520882  1
  Zr  Zr53  1  0.29327759  0.30174452  0.89802052  1
  Zr  Zr54  1  0.09318139  0.70533617  0.68032223  1
  Zr  Zr55  1  0.78839625  0.19951722  0.59873170  1
  Zr  Zr56  1  0.80353479  0.60809896  0.40247929  1
  Zr  Zr57  1  0.30379989  0.69743478  0.10729710  1
  Zr  Zr58  1  0.09430065  0.30436375  0.49552498  1
  Zr  Zr59  1  0.08753331  0.09463796  0.50858984  1
  Zr  Zr60  1  0.30118313  0.09908430  0.29610162  1
  Zr  Zr61  1  0.49627976  0.69580111  0.29261431  1
  Zr  Zr62  1  0.51002627  0.49462022  0.49671386  1
  Zr  Zr63  1  0.39642685  0.80718093  0.39706991  1
  Zr  Zr64  1  0.00799624  0.19570508  0.80034493  1
  Zr  Zr65  1  0.40050506  0.39865861  0.40040437  1
  Zr  Zr66  1  0.69632782  0.70378276  0.90302934  1
  Zr  Zr67  1  0.70825944  0.90124067  0.10419109  1
  Zr  Zr68  1  0.40948363  0.20310939  0.79293566  1
  Zr  Zr69  1  0.60999917  0.61144349  0.39594982  1
  Zr  Zr70  1  0.81242465  0.79895967  0.41328498  1
  Zr  Zr71  1  0.09813804  0.91207097  0.10763359  1
  Zr  Zr72  1  0.30157824  0.48373621  0.89712854  1
  Zr  Zr73  1  0.70799969  0.90122977  0.30440129  1
  Zr  Zr74  1  0.50279611  0.70529302  0.69516138  1
  Zr  Zr75  1  0.79884364  0.61058194  0.78450228  1
  Zr  Zr76  1  0.19441416  0.59372901  0.79314913  1
  Zr  Zr77  1  -0.00427302  0.58936279  0.00891247  1
  Zr  Zr78  1  0.50798183  0.50238781  0.10818521  1
  Zr  Zr79  1  0.19484065  0.19828123  0.39549320  1
  Zr  Zr80  1  -0.00810468  0.60919141  0.40502088  1
  Zr  Zr81  1  0.01128601  0.20011792  0.00302028  1
  Zr  Zr82  1  0.39537924  0.80364308  0.80374923  1
  Zr  Zr83  1  0.90383992  0.49291412  0.89055816  1
  Zr  Zr84  1  0.59775535  0.00555469  0.59480854  1
  Zr  Zr85  1  0.29580821  0.29866508  0.50347459  1
  Zr  Zr86  1  0.38885951  0.80824184  -0.00410889  1
  Zr  Zr87  1  0.29716332  0.90566465  0.70266670  1
  Zr  Zr88  1  0.29164819  0.70624929  0.49924255  1
  Zr  Zr89  1  0.29799509  0.68739863  0.90285750  1
  Zr  Zr90  1  -0.01144503  0.19879083  0.39861737  1
  Zr  Zr91  1  0.49874263  0.49665600  0.89721871  1
  Zr  Zr92  1  0.19931000  -0.00764407  0.40181382  1
  Zr  Zr93  1  0.39813332  0.20156861  0.19725682  1
  Zr  Zr94  1  0.50970814  0.90362875  0.89959529  1
  Zr  Zr95  1  0.19577009  0.19663062  0.18557804  1
  Zr  Zr96  1  0.09650133  0.31441524  0.29040635  1
  Zr  Zr97  1  0.90925944  0.30189021  0.89797640  1
  Zr  Zr98  1  0.50330497  0.10548157  0.08884922  1
  Zr  Zr99  1  0.40640822  0.00220761  0.40613605  1
  Ta  Ta100  1  0.29431071  0.30776463  0.29875771  1
  Ta  Ta101  1  0.80134072  0.19419515  0.20026266  1
  Ta  Ta102  1  0.79723772  0.19513653  0.80064010  1
  Ta  Ta103  1  0.10457595  0.70168553  0.30745142  1
  Ta  Ta104  1  0.30113515  0.70187334  0.69010384  1
  Ta  Ta105  1  0.90827029  0.09557907  0.69621515  1
  Ta  Ta106  1  -0.00122458  0.39695460  0.59462918  1
  Ta  Ta107  1  0.70341176  0.10425357  0.09958928  1
  Ta  Ta108  1  0.89512501  0.09756070  0.09383898  1
  Ta  Ta109  1  0.90081593  0.48711295  0.30337192  1
  Ta  Ta110  1  0.29397553  0.69835843  0.30480271  1
  Ta  Ta111  1  0.50655737  0.29988197  0.30145136  1
  Ta  Ta112  1  0.80936237  0.80439547  0.60129869  1
  Ta  Ta113  1  0.28950433  0.30875159  0.09702779  1
  Ta  Ta114  1  0.69454548  0.09630870  0.70347178  1
  Ta  Ta115  1  0.90772474  0.90430234  0.69461427  1
  Ta  Ta116  1  0.20094618  0.80722116  -0.00098466  1
  Ta  Ta117  1  0.29503758  0.49563785  0.49813792  1
  Ta  Ta118  1  0.29655620  0.90237607  0.50646502  1
  Ta  Ta119  1  0.40271494  0.00209950  0.19700312  1
  Ta  Ta120  1  0.89875600  0.10059844  0.50675067  1
  Ta  Ta121  1  0.69863001  0.10343650  0.90070661  1
  Ta  Ta122  1  0.29998261  0.90971528  0.10459677  1
  Ta  Ta123  1  0.09555743  0.89697418  0.50490903  1
  Ta  Ta124  1  0.69860568  0.49348724  0.11085082  1
  Ta  Ta125  1  0.70283387  0.10261225  0.30348920  1
  Ta  Ta126  1  0.60218372  0.37783961  0.59843879  1
  Ta  Ta127  1  0.80328783  0.59066966  0.01080252  1
  Ta  Ta128  1  0.20365049  0.59204986  0.21038358  1
  Ta  Ta129  1  0.50155526  0.90472632  0.30081624  1
  Ta  Ta130  1  0.60826035  0.39635669  -0.00444448  1
  Ta  Ta131  1  0.09562113  0.49752982  0.49685673  1
  Ta  Ta132  1  0.39359579  0.40197182  0.20289853  1
  Ta  Ta133  1  0.89958363  0.48548105  0.49589280  1
  Ta  Ta134  1  0.19865484  0.00325405  0.60170580  1
  Ta  Ta135  1  0.59871053  0.00867201  0.20459554  1
  Ta  Ta136  1  0.40749497  0.39533072  0.59844522  1
  Ta  Ta137  1  0.40271701  0.00761158  0.80227042  1
  Ta  Ta138  1  0.59786226  0.38944244  0.79387153  1
  Ta  Ta139  1  0.79938767  0.20101899  -0.00323834  1
  Ta  Ta140  1  0.50470005  0.10223289  0.89821598  1
  Ta  Ta141  1  0.39824840  0.59367011  0.59436763  1
  Ta  Ta142  1  0.29789134  0.10529321  0.89439201  1
  Ta  Ta143  1  0.60292296  0.19435073  0.20390453  1
  Ta  Ta144  1  0.50331842  0.49124637  0.69536575  1
  Ta  Ta145  1  0.89825636  0.30195721  0.10616265  1
  Ta  Ta146  1  0.40547185  0.00682397  0.60262413  1
  Ta  Ta147  1  0.89663906  0.90404214  0.30136339  1
  Ta  Ta148  1  0.90113217  0.09703908  0.90174961  1
  Ta  Ta149  1  0.39316782  0.59593506  0.40026987  1
  Ti  Ti150  1  0.50228839  0.11216724  0.49826580  1
  Ti  Ti151  1  0.18689058  0.19427050  0.60457433  1
  Ti  Ti152  1  0.69130903  0.71785380  0.50295724  1
  Ti  Ti153  1  -0.00081243  0.80485920  0.40446541  1
  Ti  Ti154  1  0.39419509  0.00583626  -0.00463690  1
  Ti  Ti155  1  0.18972780  0.40892231  0.79080371  1
  Ti  Ti156  1  0.20223975  0.59847926  0.40059718  1
  Ti  Ti157  1  0.00196173  0.39498049  0.01102411  1
  Ti  Ti158  1  0.89029728  0.09450366  0.30506079  1
  Ti  Ti159  1  0.59928939  0.19941409  0.59682000  1
  Ti  Ti160  1  0.70639668  0.71029465  0.29630579  1
  Ti  Ti161  1  0.80026750  0.00558232  0.20085006  1
  Ti  Ti162  1  0.19612087  0.19965016  -0.00024356  1
  Ti  Ti163  1  0.39516818  0.58853639  0.00782595  1
  Ti  Ti164  1  0.40127642  0.81109175  0.59755634  1
  Ti  Ti165  1  0.50309456  0.10561673  0.30147394  1
  Ti  Ti166  1  0.80469979  0.80184479  0.79050365  1
  Ti  Ti167  1  0.19584463  0.40552634  0.59825806  1
  Ti  Ti168  1  0.89956894  0.90950853  0.10122829  1
  Ti  Ti169  1  0.41634010  0.20395952  0.60438170  1
  Ti  Ti170  1  0.69848200  0.89885727  0.89548028  1
  Ti  Ti171  1  0.60492352  0.80096058  0.79993050  1
  Ti  Ti172  1  0.80008672  0.00374647  -0.00285208  1
  Ti  Ti173  1  0.79906367  0.00266725  0.41181445  1
  Ti  Ti174  1  0.38530076  0.58578051  0.20848082  1
  Ti  Ti175  1  0.60863957  0.59141917  0.00461647  1
  Ti  Ti176  1  0.38840656  0.19694701  0.00186388  1
  Ti  Ti177  1  0.19792721  0.80772057  0.59821873  1
  Ti  Ti178  1  0.09448151  0.08947252  0.10099307  1
  Ti  Ti179  1  0.10713314  0.30954487  0.90043256  1
  Ti  Ti180  1  0.10136195  0.69514799  0.90684483  1
  Ti  Ti181  1  0.39429715  0.40574564  0.01450739  1
  Ti  Ti182  1  0.69819263  0.71471702  0.69173368  1
  Ti  Ti183  1  0.09766516  0.70662759  0.49755340  1
  Ti  Ti184  1  0.09674018  0.89934535  0.30600159  1
  Ti  Ti185  1  -0.00291139  0.59616876  0.20613026  1
  Ti  Ti186  1  0.30608989  0.49283841  0.69325209  1
  Ti  Ti187  1  0.39675690  0.80657418  0.20369102  1
  Ti  Ti188  1  0.60176665  0.59865368  0.79047812  1
  Ti  Ti189  1  0.09437460  0.48587375  0.90056906  1
  Ti  Ti190  1  0.89914404  0.69957139  0.10583073  1
  Ti  Ti191  1  0.29848646  0.90433390  0.29786336  1
  Ti  Ti192  1  0.90159169  0.70850655  0.29615474  1
  Ti  Ti193  1  -0.01384494  0.00065270  0.20164838  1
  Ti  Ti194  1  0.79297814  0.19652285  0.40997504  1
  Ti  Ti195  1  0.68983633  0.89051383  0.50032564  1
  Ti  Ti196  1  0.10468404  0.09453435  0.88919123  1
  Ti  Ti197  1  -0.01130718  -0.00703716  0.40543499  1
  Ti  Ti198  1  0.40624845  0.20777829  0.39982382  1
  Ti  Ti199  1  0.69618817  0.89839605  0.70118326  1
  Mo  Mo200  1  0.92082721  0.71022212  0.51240568  1
  Mo  Mo201  1  0.90565893  0.90552615  0.49978473  1
  Mo  Mo202  1  0.01357560  0.40215690  0.79169246  1
  Mo  Mo203  1  0.60800953  0.80691649  0.60127189  1
  Mo  Mo204  1  0.59627606  0.39189086  0.19924518  1
  Mo  Mo205  1  0.20286529  0.00878641  0.80246679  1
  Mo  Mo206  1  0.90054377  0.49211146  0.11060282  1
  Mo  Mo207  1  0.69353375  0.29159552  0.49531149  1
  Mo  Mo208  1  0.19693760  0.20190653  0.80665472  1
  Mo  Mo209  1  0.49528562  0.90012406  0.50299218  1
  Mo  Mo210  1  -0.00672029  0.19889684  0.59952610  1
  Mo  Mo211  1  0.30398054  0.10250475  0.09093642  1
  Mo  Mo212  1  0.61555846  0.60115332  0.20104109  1
  Mo  Mo213  1  0.60913634  0.80259576  -0.00240882  1
  Mo  Mo214  1  0.89902300  0.71004764  0.69752284  1
  Mo  Mo215  1  0.59989045  0.38328878  0.40567415  1
  Mo  Mo216  1  0.89219902  0.29976314  0.50057812  1
  Mo  Mo217  1  -0.00162461  0.00785414  0.79720789  1
  Mo  Mo218  1  0.19287899  0.80374820  0.39898374  1
  Mo  Mo219  1  0.69733071  0.29160205  0.69567985  1
  Mo  Mo220  1  0.10070424  0.10175125  0.70136375  1
  Mo  Mo221  1  0.80051305  0.39011328  0.40508205  1
  Mo  Mo222  1  0.20892560  0.40039472  0.20233296  1
  Mo  Mo223  1  -0.00172988  0.00976805  0.00095705  1
  Mo  Mo224  1  -0.00944441  0.39828022  0.20024984  1
  Mo  Mo225  1  0.59697888  0.19297429  0.40015337  1
  Mo  Mo226  1  0.50019083  0.28993417  0.49763325  1
  Mo  Mo227  1  0.09517665  0.49222584  0.68615545  1
  Mo  Mo228  1  -0.00470959  0.40057203  0.40353749  1
  Mo  Mo229  1  0.20195013  0.40660221  0.40106878  1
  Mo  Mo230  1  0.29884385  0.49324191  0.10800859  1
  Mo  Mo231  1  0.60426232  0.00597409  0.80156026  1
  Mo  Mo232  1  0.40715150  0.40076355  0.78406569  1
  Mo  Mo233  1  0.50151664  0.10048559  0.69819423  1
  Mo  Mo234  1  0.29684563  0.50137484  0.30637645  1
  Mo  Mo235  1  0.09886939  0.30074758  0.09520367  1
  Mo  Mo236  1  0.29703680  0.91645109  0.90337965  1
  Mo  Mo237  1  0.81461054  0.79903827  0.20163242  1
  Mo  Mo238  1  -0.00321226  0.00142591  0.59926228  1
  Mo  Mo239  1  0.60091478  0.80769102  0.40163647  1
  Mo  Mo240  1  0.80043981  0.39657623  0.19901015  1
  Mo  Mo241  1  0.50158067  0.30018507  0.69313032  1
  Mo  Mo242  1  0.80019676  0.38705749  0.59373343  1
  Mo  Mo243  1  -0.00076783  0.59311132  0.59070689  1
  Mo  Mo244  1  0.69627887  0.29479585  0.90498764  1
  Mo  Mo245  1  0.70036613  0.10179234  0.49493635  1
  Mo  Mo246  1  0.60798700  0.20076830  -0.00449808  1
  Mo  Mo247  1  0.20899354  -0.00124986  0.19835906  1
  Mo  Mo248  1  0.19093513  0.39363446  0.00302294  1
  Mo  Mo249  1  -0.00098265  0.80995094  0.59541075  1
