# generated using pymatgen
data_HfZrTaTiMo
_symmetry_space_group_name_H-M   'P 1'
_cell_length_a   16.88822671
_cell_length_b   16.89643913
_cell_length_c   16.88259191
_cell_angle_alpha   90.02430254
_cell_angle_beta   90.04320702
_cell_angle_gamma   90.02475721
_symmetry_Int_Tables_number   1
_chemical_formula_structural   HfZrTaTiMo
_chemical_formula_sum   'Hf50 Zr50 Ta50 Ti50 Mo50'
_cell_volume   4817.46045143
_cell_formula_units_Z   50
loop_
 _symmetry_equiv_pos_site_id
 _symmetry_equiv_pos_as_xyz
  1  'x, y, z'
loop_
 _atom_site_type_symbol
 _atom_site_label
 _atom_site_symmetry_multiplicity
 _atom_site_fract_x
 _atom_site_fract_y
 _atom_site_fract_z
 _atom_site_occupancy
  Hf  Hf0  1  0.59997068  -0.00587531  0.79462286  1
  Hf  Hf1  1  0.81193319  0.79846176  -0.00152806  1
  Hf  Hf2  1  0.69834089  0.50410838  0.29871162  1
  Hf  Hf3  1  0.80553396  0.60534898  0.61071850  1
  Hf  Hf4  1  0.50176421  0.29768887  0.49915450  1
  Hf  Hf5  1  0.50733521  0.88998629  0.49663062  1
  Hf  Hf6  1  0.89500644  0.89093549  0.70306366  1
  Hf  Hf7  1  0.09990421  0.70925770  0.49858263  1
  Hf  Hf8  1  0.39257662  -0.01197228  0.19830556  1
  Hf  Hf9  1  0.39499938  0.59538480  -0.02466203  1
  Hf  Hf10  1  0.30413978  0.30034141  0.90916385  1
  Hf  Hf11  1  0.89874985  0.30479803  0.69719924  1
  Hf  Hf12  1  -0.00142072  0.41198739  0.00787332  1
  Hf  Hf13  1  -0.00976400  0.61182884  -0.01341761  1
  Hf  Hf14  1  0.09799637  0.10803565  0.49245185  1
  Hf  Hf15  1  0.78776597  0.39679191  0.19359067  1
  Hf  Hf16  1  0.59883134  0.79618685  0.19750499  1
  Hf  Hf17  1  0.20719647  0.41857699  0.41554831  1
  Hf  Hf18  1  0.19749623  0.00311414  0.19404176  1
  Hf  Hf19  1  0.69919924  0.69661090  0.90250373  1
  Hf  Hf20  1  0.20273982  0.60050419  0.39624469  1
  Hf  Hf21  1  0.91302089  0.09740789  0.29572241  1
  Hf  Hf22  1  0.10595111  0.08863038  0.91164874  1
  Hf  Hf23  1  0.39646372  0.60597525  0.20456366  1
  Hf  Hf24  1  0.38940820  0.78099865  0.79970521  1
  Hf  Hf25  1  0.80086553  0.00285882  0.80680951  1
  Hf  Hf26  1  0.19881739  0.59828264  0.20183852  1
  Hf  Hf27  1  0.50637809  0.50122220  0.09981885  1
  Hf  Hf28  1  -0.00325282  0.60711981  0.40122272  1
  Hf  Hf29  1  -0.01681922  0.60351108  0.79084687  1
  Hf  Hf30  1  0.50795031  0.70041989  0.50221747  1
  Hf  Hf31  1  0.91027031  0.30799212  0.29647294  1
  Hf  Hf32  1  -0.00023407  0.78741059  0.80574702  1
  Hf  Hf33  1  0.40558412  -0.00275096  0.59106813  1
  Hf  Hf34  1  0.29701098  0.87806295  0.68344941  1
  Hf  Hf35  1  0.00089100  -0.00412339  0.59979065  1
  Hf  Hf36  1  0.08511611  0.48895717  0.30346712  1
  Hf  Hf37  1  0.29978645  0.09451044  0.90875517  1
  Hf  Hf38  1  0.09530253  0.30997989  0.50255921  1
  Hf  Hf39  1  0.20056173  0.58550284  0.58359574  1
  Hf  Hf40  1  0.88878970  0.50617653  0.29912482  1
  Hf  Hf41  1  0.19541796  -0.00292077  0.59602621  1
  Hf  Hf42  1  0.50314979  0.09395115  0.10092004  1
  Hf  Hf43  1  0.22254459  0.61105464  0.80798115  1
  Hf  Hf44  1  0.09803468  0.29942230  0.30849524  1
  Hf  Hf45  1  0.18994956  0.20504598  0.01634102  1
  Hf  Hf46  1  0.08925372  0.90441411  0.30005600  1
  Hf  Hf47  1  0.19324247  0.40603809  0.01148439  1
  Hf  Hf48  1  0.89475134  0.49977263  0.49412499  1
  Hf  Hf49  1  0.09724814  0.70841972  0.09714174  1
  Zr  Zr50  1  0.60257537  -0.00283183  -0.00158840  1
  Zr  Zr51  1  0.30738319  0.50379166  0.69548297  1
  Zr  Zr52  1  0.69739390  0.11103624  0.69746545  1
  Zr  Zr53  1  0.41202180  0.42379815  0.80855102  1
  Zr  Zr54  1  0.30701254  0.30768216  0.31179874  1
  Zr  Zr55  1  0.79643238  0.19596487  0.39541071  1
  Zr  Zr56  1  0.19875687  0.20232818  0.79766163  1
  Zr  Zr57  1  0.40506238  0.18023291  0.21181645  1
  Zr  Zr58  1  0.19937851  0.20480837  0.60158474  1
  Zr  Zr59  1  0.79496353  -0.00435315  0.59442276  1
  Zr  Zr60  1  0.89962883  0.29087499  0.09879469  1
  Zr  Zr61  1  0.60262158  0.40273791  0.80804462  1
  Zr  Zr62  1  0.40512211  0.00746219  0.39482848  1
  Zr  Zr63  1  0.49896227  0.30439298  0.29544097  1
  Zr  Zr64  1  0.50637882  0.29947279  0.69623634  1
  Zr  Zr65  1  0.70109118  0.50992506  0.49840269  1
  Zr  Zr66  1  0.90232129  0.10359296  0.69700959  1
  Zr  Zr67  1  0.50822379  0.10718871  0.69021997  1
  Zr  Zr68  1  0.78958856  0.19639871  0.20019111  1
  Zr  Zr69  1  0.30636407  0.50087017  0.10305312  1
  Zr  Zr70  1  0.88570360  0.51134798  0.09917084  1
  Zr  Zr71  1  -0.00028758  0.19152296  0.80259059  1
  Zr  Zr72  1  0.50720420  0.89352783  0.30247069  1
  Zr  Zr73  1  0.08992328  0.30474644  0.89757075  1
  Zr  Zr74  1  -0.00255481  0.60520347  0.19663901  1
  Zr  Zr75  1  0.50111119  0.10159626  0.90088863  1
  Zr  Zr76  1  0.30237572  0.71585165  0.51252418  1
  Zr  Zr77  1  0.79061484  0.39632648  -0.00074713  1
  Zr  Zr78  1  0.31772955  0.30227547  0.11222089  1
  Zr  Zr79  1  -0.00590064  -0.00355579  0.00304986  1
  Zr  Zr80  1  0.41422173  0.40066658  -0.00414029  1
  Zr  Zr81  1  0.80550258  0.20632973  0.58625397  1
  Zr  Zr82  1  0.20856377  0.39916046  0.80023488  1
  Zr  Zr83  1  0.70440703  0.69707106  0.30260076  1
  Zr  Zr84  1  0.39949798  0.20861583  0.79965040  1
  Zr  Zr85  1  0.19777633  -0.00704799  0.79457980  1
  Zr  Zr86  1  0.09432232  0.71964095  0.30071552  1
  Zr  Zr87  1  0.80040102  0.00121930  0.20009126  1
  Zr  Zr88  1  0.59789589  0.18647492  0.39468205  1
  Zr  Zr89  1  0.09982174  0.49332763  0.69439339  1
  Zr  Zr90  1  0.19828867  0.20022791  0.20091347  1
  Zr  Zr91  1  0.89459322  0.29858649  0.89999533  1
  Zr  Zr92  1  0.30466231  0.10013817  0.69424544  1
  Zr  Zr93  1  0.39172838  0.59419920  0.40373753  1
  Zr  Zr94  1  0.40264477  -0.01175273  0.79722465  1
  Zr  Zr95  1  0.49718116  0.49355062  0.29755183  1
  Zr  Zr96  1  0.20777908  0.81236939  0.19150865  1
  Zr  Zr97  1  0.09669606  0.50663798  0.89275016  1
  Zr  Zr98  1  0.70056951  0.89332278  0.10125580  1
  Zr  Zr99  1  0.69922366  0.88770486  0.89576253  1
  Ta  Ta100  1  0.60018435  0.40348656  0.40579969  1
  Ta  Ta101  1  0.80433148  0.00103022  0.00037036  1
  Ta  Ta102  1  0.68749391  0.30676118  0.29880759  1
  Ta  Ta103  1  0.09596304  0.88901648  0.69931349  1
  Ta  Ta104  1  0.70144166  0.69444080  0.09502154  1
  Ta  Ta105  1  0.49968256  0.88479553  0.90134667  1
  Ta  Ta106  1  0.10890529  0.69805596  0.69455584  1
  Ta  Ta107  1  0.79875050  -0.00032507  0.39982714  1
  Ta  Ta108  1  0.70183538  0.89682310  0.30785800  1
  Ta  Ta109  1  0.30088592  0.71244971  0.30105976  1
  Ta  Ta110  1  0.39954237  -0.01300197  0.00163156  1
  Ta  Ta111  1  0.30367214  0.70390736  0.09460038  1
  Ta  Ta112  1  0.90081167  0.89398344  0.49612953  1
  Ta  Ta113  1  0.70712920  0.49828639  0.70826540  1
  Ta  Ta114  1  0.90434642  0.89493996  0.30021795  1
  Ta  Ta115  1  0.60548697  0.20793204  0.00646205  1
  Ta  Ta116  1  0.40633262  0.40578901  0.59650176  1
  Ta  Ta117  1  0.19606121  0.40555432  0.20168570  1
  Ta  Ta118  1  0.50047912  0.69613852  0.69913318  1
  Ta  Ta119  1  -0.00287311  0.79822497  -0.00418361  1
  Ta  Ta120  1  0.70768092  0.50947105  0.90235331  1
  Ta  Ta121  1  0.70195614  0.30487900  0.69798798  1
  Ta  Ta122  1  0.69899563  0.89258126  0.49505538  1
  Ta  Ta123  1  0.60142725  -0.00605217  0.59514224  1
  Ta  Ta124  1  0.29613234  0.89406637  0.90519212  1
  Ta  Ta125  1  0.29468956  0.89669994  0.49553730  1
  Ta  Ta126  1  0.08923413  0.30553450  0.69204336  1
  Ta  Ta127  1  0.50012164  0.70270163  0.30257115  1
  Ta  Ta128  1  0.00125580  -0.00599164  0.80311661  1
  Ta  Ta129  1  0.59800890  0.60512028  0.19686444  1
  Ta  Ta130  1  -0.00357035  0.60118461  0.60103617  1
  Ta  Ta131  1  0.09626061  0.10211713  0.30633300  1
  Ta  Ta132  1  0.30577653  0.30176000  0.50029443  1
  Ta  Ta133  1  0.89561623  0.70309302  0.49629608  1
  Ta  Ta134  1  0.80301797  0.80013591  0.39950000  1
  Ta  Ta135  1  0.19905232  0.79205802  0.80232089  1
  Ta  Ta136  1  0.79722281  0.79458541  0.59871314  1
  Ta  Ta137  1  0.29873064  0.09137423  0.09034676  1
  Ta  Ta138  1  0.50662733  0.69972526  0.89998740  1
  Ta  Ta139  1  0.29669707  0.10507442  0.49264846  1
  Ta  Ta140  1  0.59694687  0.59550709  0.79843519  1
  Ta  Ta141  1  0.79592195  0.39066577  0.40154403  1
  Ta  Ta142  1  0.19817394  0.60444111  -0.00221782  1
  Ta  Ta143  1  -0.00603370  0.79229606  0.60215971  1
  Ta  Ta144  1  0.69371397  0.30309360  0.50254714  1
  Ta  Ta145  1  0.61034862  0.79494917  0.60488615  1
  Ta  Ta146  1  0.10210735  0.89419075  0.90203629  1
  Ta  Ta147  1  0.60205390  0.40770088  0.60231054  1
  Ta  Ta148  1  0.50027729  0.69860287  0.09145106  1
  Ta  Ta149  1  0.09794804  0.89177865  0.49501354  1
  Ti  Ti150  1  0.89553469  0.10625039  0.91067053  1
  Ti  Ti151  1  0.69251451  0.09801189  0.50293868  1
  Ti  Ti152  1  0.51095245  0.30606369  0.11426294  1
  Ti  Ti153  1  0.19935480  0.79758429  -0.00530831  1
  Ti  Ti154  1  0.40006378  0.79930207  0.39963269  1
  Ti  Ti155  1  0.90643260  0.89865285  0.11036619  1
  Ti  Ti156  1  -0.01055921  0.20899207  0.41159487  1
  Ti  Ti157  1  0.70593077  0.69877129  0.71238088  1
  Ti  Ti158  1  0.60758634  0.39621470  0.00439626  1
  Ti  Ti159  1  0.40248693  0.19755366  0.59059217  1
  Ti  Ti160  1  0.39911528  0.80075798  0.19526837  1
  Ti  Ti161  1  0.50724155  0.29625650  0.90460875  1
  Ti  Ti162  1  0.40905781  0.19921764  0.00740910  1
  Ti  Ti163  1  0.09345748  0.90130084  0.09749824  1
  Ti  Ti164  1  0.90493869  0.09934929  0.49982293  1
  Ti  Ti165  1  0.29557244  0.89524277  0.31054098  1
  Ti  Ti166  1  0.79764301  0.20217636  0.80290248  1
  Ti  Ti167  1  0.09363581  0.10217682  0.69612770  1
  Ti  Ti168  1  0.79770295  0.40232938  0.59957904  1
  Ti  Ti169  1  0.70401753  0.10667207  0.90684514  1
  Ti  Ti170  1  0.59787821  0.79413885  0.79466034  1
  Ti  Ti171  1  0.70290702  0.89098528  0.70000705  1
  Ti  Ti172  1  0.50237368  0.50238207  0.50372335  1
  Ti  Ti173  1  0.50121816  0.89160121  0.09285503  1
  Ti  Ti174  1  0.19723083  -0.00100445  0.40128919  1
  Ti  Ti175  1  0.70432768  0.29509605  0.90066057  1
  Ti  Ti176  1  0.70072747  0.10129052  0.09438795  1
  Ti  Ti177  1  0.60383495  0.00427110  0.20866942  1
  Ti  Ti178  1  0.39826609  0.79842612  -0.00072082  1
  Ti  Ti179  1  0.50138733  0.88667540  0.69469069  1
  Ti  Ti180  1  -0.00941854  0.40700288  0.59478782  1
  Ti  Ti181  1  0.01447871  0.19558356  0.18847979  1
  Ti  Ti182  1  0.60479207  0.59942084  0.61054949  1
  Ti  Ti183  1  -0.00500115  -0.00257736  0.40418548  1
  Ti  Ti184  1  0.00803344  0.19742416  0.00950516  1
  Ti  Ti185  1  0.59612524  0.60097162  0.39784151  1
  Ti  Ti186  1  -0.01885958  0.41381154  0.79768457  1
  Ti  Ti187  1  0.60398737  0.00333953  0.40030758  1
  Ti  Ti188  1  0.89333673  0.70050334  0.10596662  1
  Ti  Ti189  1  0.30293460  0.30830442  0.68881561  1
  Ti  Ti190  1  0.40523908  0.60077764  0.60526026  1
  Ti  Ti191  1  0.60523506  0.19137866  0.20249157  1
  Ti  Ti192  1  0.90238851  0.10070211  0.09918156  1
  Ti  Ti193  1  0.28664309  0.10256357  0.31024714  1
  Ti  Ti194  1  0.60583562  0.20343591  0.80622104  1
  Ti  Ti195  1  0.40568066  0.18893808  0.40233430  1
  Ti  Ti196  1  0.89996159  0.89601705  0.89427962  1
  Ti  Ti197  1  0.69464869  0.51286646  0.09656161  1
  Ti  Ti198  1  0.70064719  0.70056959  0.49514713  1
  Ti  Ti199  1  0.80596747  0.79651281  0.20449410  1
  Mo  Mo200  1  0.20865681  0.39567578  0.59959527  1
  Mo  Mo201  1  0.40425061  0.40174165  0.40969893  1
  Mo  Mo202  1  0.09839644  0.50606303  0.10443203  1
  Mo  Mo203  1  0.79117250  0.18985016  0.00098051  1
  Mo  Mo204  1  0.80216596  0.60849234  0.40136395  1
  Mo  Mo205  1  0.50957599  0.50825734  0.69169878  1
  Mo  Mo206  1  0.79829763  0.60527714  -0.00144978  1
  Mo  Mo207  1  0.20173629  0.19902099  0.40168438  1
  Mo  Mo208  1  0.30033540  0.70726625  0.91183652  1
  Mo  Mo209  1  0.89721016  0.70138967  0.69586196  1
  Mo  Mo210  1  0.09041542  0.30894543  0.11197148  1
  Mo  Mo211  1  0.52522532  0.50795983  0.90691771  1
  Mo  Mo212  1  0.00169697  0.00332222  0.19900143  1
  Mo  Mo213  1  0.88560167  0.50502654  0.89222838  1
  Mo  Mo214  1  0.60110235  0.60249006  0.00064071  1
  Mo  Mo215  1  0.09858252  0.09294985  0.10493194  1
  Mo  Mo216  1  0.10373250  0.70529171  0.90035826  1
  Mo  Mo217  1  0.50693598  0.09035860  0.29571140  1
  Mo  Mo218  1  0.79794502  0.59715777  0.80120278  1
  Mo  Mo219  1  0.60586991  0.20403205  0.59413766  1
  Mo  Mo220  1  0.20402019  0.80846630  0.39969527  1
  Mo  Mo221  1  0.29871013  0.49846139  0.29923241  1
  Mo  Mo222  1  0.28947333  0.49883766  0.90342622  1
  Mo  Mo223  1  0.00061343  0.20454384  0.59779116  1
  Mo  Mo224  1  0.88916370  0.70209496  0.89479406  1
  Mo  Mo225  1  0.00474668  0.40240355  0.19346463  1
  Mo  Mo226  1  0.60285695  0.40538293  0.19415582  1
  Mo  Mo227  1  0.39969740  0.40685309  0.20369262  1
  Mo  Mo228  1  0.31907945  0.49544121  0.50279664  1
  Mo  Mo229  1  -0.00801756  0.80411385  0.40298827  1
  Mo  Mo230  1  0.30379942  0.69634795  0.69099718  1
  Mo  Mo231  1  0.30330634  0.89534262  0.08902899  1
  Mo  Mo232  1  0.89653100  0.30739931  0.49845795  1
  Mo  Mo233  1  0.60890351  0.79264040  0.40274997  1
  Mo  Mo234  1  -0.00970757  0.40065142  0.40651759  1
  Mo  Mo235  1  0.41586206  0.79759390  0.60111313  1
  Mo  Mo236  1  0.20268388  -0.01407370  0.00551731  1
  Mo  Mo237  1  -0.00943571  0.80603358  0.19190083  1
  Mo  Mo238  1  0.08176871  0.50053167  0.50127790  1
  Mo  Mo239  1  0.50243140  0.09696525  0.49921797  1
  Mo  Mo240  1  0.68779784  0.29411433  0.10412173  1
  Mo  Mo241  1  0.41084240  0.60454509  0.79840865  1
  Mo  Mo242  1  0.69867422  0.08790937  0.30026898  1
  Mo  Mo243  1  0.79654542  0.40149468  0.80035651  1
  Mo  Mo244  1  0.80101897  0.79290911  0.79615784  1
  Mo  Mo245  1  0.89409850  0.70853231  0.29885231  1
  Mo  Mo246  1  0.59181036  0.79490862  0.00247609  1
  Mo  Mo247  1  0.18678913  0.80052673  0.60047100  1
  Mo  Mo248  1  0.79244412  0.60706554  0.19645415  1
  Mo  Mo249  1  0.89351594  0.49537333  0.69569545  1
