# generated using pymatgen
data_HfZrTaTiMo
_symmetry_space_group_name_H-M   'P 1'
_cell_length_a   16.88593457
_cell_length_b   16.89070288
_cell_length_c   16.88516725
_cell_angle_alpha   89.96884782
_cell_angle_beta   89.98642506
_cell_angle_gamma   89.99331438
_symmetry_Int_Tables_number   1
_chemical_formula_structural   HfZrTaTiMo
_chemical_formula_sum   'Hf50 Zr50 Ta50 Ti50 Mo50'
_cell_volume   4815.90722440
_cell_formula_units_Z   50
loop_
 _symmetry_equiv_pos_site_id
 _symmetry_equiv_pos_as_xyz
  1  'x, y, z'
loop_
 _atom_site_type_symbol
 _atom_site_label
 _atom_site_symmetry_multiplicity
 _atom_site_fract_x
 _atom_site_fract_y
 _atom_site_fract_z
 _atom_site_occupancy
  Hf  Hf0  1  0.49417829  0.90603853  0.49198300  1
  Hf  Hf1  1  0.00192406  0.20406457  -0.00849489  1
  Hf  Hf2  1  0.00935889  0.19752349  0.39471225  1
  Hf  Hf3  1  0.79895020  0.40235763  0.39899104  1
  Hf  Hf4  1  0.01071896  0.19822138  0.79682774  1
  Hf  Hf5  1  0.60045128  0.01060257  0.18842303  1
  Hf  Hf6  1  0.61067856  0.79654668  0.81363407  1
  Hf  Hf7  1  0.10633225  0.32411234  0.68266217  1
  Hf  Hf8  1  0.01293792  0.60068607  0.79113718  1
  Hf  Hf9  1  0.19487677  0.40197228  0.20483186  1
  Hf  Hf10  1  0.59371208  0.39854819  0.20225231  1
  Hf  Hf11  1  0.90052002  0.09677374  0.90457033  1
  Hf  Hf12  1  0.30270483  0.89698846  0.29120147  1
  Hf  Hf13  1  0.90116919  0.30238605  0.49821010  1
  Hf  Hf14  1  0.50043658  0.29403380  0.49454228  1
  Hf  Hf15  1  0.80961401  0.20555461  0.80982800  1
  Hf  Hf16  1  0.49904936  0.90029106  0.91265180  1
  Hf  Hf17  1  0.00259134  0.40524227  0.79991221  1
  Hf  Hf18  1  0.70105325  0.89622048  0.09339093  1
  Hf  Hf19  1  0.59907276  0.80494073  0.59180120  1
  Hf  Hf20  1  0.19340982  0.19902542  0.40050877  1
  Hf  Hf21  1  0.29584994  0.09126981  0.50171490  1
  Hf  Hf22  1  0.90792307  0.90111319  0.50826324  1
  Hf  Hf23  1  0.59111938  0.00403302  0.60255039  1
  Hf  Hf24  1  0.00574465  0.00154039  0.19949410  1
  Hf  Hf25  1  0.79317159  -0.00469966  0.58759597  1
  Hf  Hf26  1  0.00994270  0.58958757  0.00593305  1
  Hf  Hf27  1  0.59900549  0.19250923  0.19839508  1
  Hf  Hf28  1  0.69945598  0.89591800  0.29251970  1
  Hf  Hf29  1  0.48838494  0.49745679  0.08776514  1
  Hf  Hf30  1  0.01100851  0.19884006  0.59490929  1
  Hf  Hf31  1  0.20093459  0.01308666  0.80784045  1
  Hf  Hf32  1  0.49425848  0.71283765  0.29758400  1
  Hf  Hf33  1  0.89959467  0.29305504  0.09894445  1
  Hf  Hf34  1  0.09651381  0.48880198  0.51344000  1
  Hf  Hf35  1  0.69107227  0.10268623  0.48867487  1
  Hf  Hf36  1  0.38919187  0.79915862  0.40029988  1
  Hf  Hf37  1  0.19560151  0.18822050  -0.02177781  1
  Hf  Hf38  1  0.20037294  0.38707430  0.40863117  1
  Hf  Hf39  1  0.48550674  0.70043243  0.90392938  1
  Hf  Hf40  1  0.01321450  0.79165642  0.60747229  1
  Hf  Hf41  1  0.39180497  0.60555608  0.20328029  1
  Hf  Hf42  1  0.69698931  0.29378443  0.49899140  1
  Hf  Hf43  1  0.69434950  0.29747348  0.90403781  1
  Hf  Hf44  1  0.29552206  0.90698837  0.70011265  1
  Hf  Hf45  1  0.39188727  0.59958545  0.39559827  1
  Hf  Hf46  1  0.78952331  0.19165748  0.20139925  1
  Hf  Hf47  1  0.38881487  0.39921155  0.59726830  1
  Hf  Hf48  1  0.90406784  0.09080476  0.69262445  1
  Hf  Hf49  1  0.58732791  0.59971975  0.20062448  1
  Zr  Zr50  1  0.70522218  0.70422208  0.50286020  1
  Zr  Zr51  1  0.38698537  0.40107206  0.80601252  1
  Zr  Zr52  1  0.90204551  0.50299715  0.90062509  1
  Zr  Zr53  1  0.29758333  0.50307886  0.08283034  1
  Zr  Zr54  1  0.79980968  0.40147967  0.79975609  1
  Zr  Zr55  1  0.90067164  0.69830156  0.50987212  1
  Zr  Zr56  1  0.59913374  0.60746067  -0.00068661  1
  Zr  Zr57  1  0.20110209  0.79335165  0.59971193  1
  Zr  Zr58  1  0.59858141  0.00299305  0.81370039  1
  Zr  Zr59  1  0.01251527  0.00512785  0.00459428  1
  Zr  Zr60  1  0.21673063  0.80386984  -0.00352200  1
  Zr  Zr61  1  0.59923965  0.60214593  0.40187941  1
  Zr  Zr62  1  0.79984270  -0.00844398  0.81116134  1
  Zr  Zr63  1  0.70590459  0.70077574  0.69855416  1
  Zr  Zr64  1  0.80224788  0.00368047  0.20355545  1
  Zr  Zr65  1  0.29416329  0.10160310  0.09871533  1
  Zr  Zr66  1  0.49594976  0.29912357  0.90592836  1
  Zr  Zr67  1  0.70373285  0.49760571  0.09329378  1
  Zr  Zr68  1  0.39805550  0.40438447  0.20822523  1
  Zr  Zr69  1  0.89836332  0.30449963  0.68719943  1
  Zr  Zr70  1  0.49078844  0.70184152  0.70696017  1
  Zr  Zr71  1  0.59524582  0.40903661  0.39403971  1
  Zr  Zr72  1  0.89848221  0.88801948  0.09921424  1
  Zr  Zr73  1  0.49336434  0.89450228  0.70979784  1
  Zr  Zr74  1  0.90413327  0.70017237  0.29225671  1
  Zr  Zr75  1  0.11015864  0.69379198  0.90231830  1
  Zr  Zr76  1  0.10669139  0.29361615  0.10296539  1
  Zr  Zr77  1  0.29945440  0.09747639  0.29283737  1
  Zr  Zr78  1  0.70600072  0.51098961  0.29427316  1
  Zr  Zr79  1  0.70087257  0.10505362  0.70526461  1
  Zr  Zr80  1  0.50091362  0.30107327  0.70670641  1
  Zr  Zr81  1  0.80439391  0.39982628  0.20308986  1
  Zr  Zr82  1  0.10864741  0.90072000  0.49987827  1
  Zr  Zr83  1  0.20061951  0.20120754  0.79026360  1
  Zr  Zr84  1  0.30167498  0.69456348  0.71297014  1
  Zr  Zr85  1  0.60051599  0.40875439  0.59936013  1
  Zr  Zr86  1  -0.00203366  -0.00003451  0.39082444  1
  Zr  Zr87  1  0.69442898  0.29852666  0.70150048  1
  Zr  Zr88  1  0.39663878  0.19334708  0.60764535  1
  Zr  Zr89  1  0.30011884  0.29922019  0.09052124  1
  Zr  Zr90  1  0.09703527  0.50572933  0.31138845  1
  Zr  Zr91  1  0.80149958  0.60234293  0.80049894  1
  Zr  Zr92  1  0.71446327  0.70623383  0.10920829  1
  Zr  Zr93  1  0.10426253  0.90103723  0.90529748  1
  Zr  Zr94  1  0.10125293  0.70018891  0.29852354  1
  Zr  Zr95  1  0.69760380  0.29747718  0.08844878  1
  Zr  Zr96  1  0.00131367  0.40532023  0.19745041  1
  Zr  Zr97  1  0.80166796  0.81074340  0.40400105  1
  Zr  Zr98  1  0.48830287  0.50575074  0.50392198  1
  Zr  Zr99  1  0.70747479  0.89423793  0.69747082  1
  Ta  Ta100  1  0.40512774  0.19856538  0.19855563  1
  Ta  Ta101  1  0.39692971  0.01142628  0.80497601  1
  Ta  Ta102  1  0.20053679  0.20275353  0.59541908  1
  Ta  Ta103  1  0.81125196  0.60115342  0.00500350  1
  Ta  Ta104  1  0.90529211  0.29242130  0.29745129  1
  Ta  Ta105  1  0.80891376  0.80196998  0.80914878  1
  Ta  Ta106  1  0.80232784  0.19252815  0.39313191  1
  Ta  Ta107  1  0.49508366  0.89833166  0.09831509  1
  Ta  Ta108  1  0.37653735  0.81136750  0.82269046  1
  Ta  Ta109  1  0.59475715  0.41576479  0.80646088  1
  Ta  Ta110  1  0.70585358  0.70382209  0.29578082  1
  Ta  Ta111  1  0.59935454  0.80493085  0.39821986  1
  Ta  Ta112  1  0.39922235  0.00642488  -0.00262610  1
  Ta  Ta113  1  0.10478696  0.89009921  0.29545336  1
  Ta  Ta114  1  0.90541927  0.49892200  0.50176376  1
  Ta  Ta115  1  0.39984700  0.00397670  0.60679216  1
  Ta  Ta116  1  0.69487921  0.50441560  0.70214211  1
  Ta  Ta117  1  0.19447453  -0.00499713  0.19469647  1
  Ta  Ta118  1  0.59814599  0.60042810  0.60290683  1
  Ta  Ta119  1  0.89970292  0.70487988  0.70102087  1
  Ta  Ta120  1  0.59149514  0.18036113  0.00667590  1
  Ta  Ta121  1  0.90534307  0.89661021  0.69886150  1
  Ta  Ta122  1  0.29724276  0.29194250  0.29537091  1
  Ta  Ta123  1  0.90929426  0.70234524  0.10075078  1
  Ta  Ta124  1  0.00720072  0.40276820  -0.00054124  1
  Ta  Ta125  1  0.49448200  0.29722023  0.09451368  1
  Ta  Ta126  1  0.50033147  0.09945160  0.30523286  1
  Ta  Ta127  1  0.00435425  0.80161565  0.79779949  1
  Ta  Ta128  1  0.59010988  0.18996169  0.60243294  1
  Ta  Ta129  1  0.49621384  0.29376113  0.30214694  1
  Ta  Ta130  1  0.19747160  0.80069211  0.79997507  1
  Ta  Ta131  1  0.10329497  0.08814219  0.50548278  1
  Ta  Ta132  1  0.10417434  0.70101365  0.10188597  1
  Ta  Ta133  1  0.20125731  0.60177674  0.19576165  1
  Ta  Ta134  1  0.00528751  -0.00210192  0.79762541  1
  Ta  Ta135  1  0.49642014  0.90279395  0.29138148  1
  Ta  Ta136  1  0.59843422  0.59793382  0.80547980  1
  Ta  Ta137  1  0.01023871  0.79549092  0.40293673  1
  Ta  Ta138  1  0.39391562  0.80300279  0.59376168  1
  Ta  Ta139  1  0.39531231  0.20020690  0.39861581  1
  Ta  Ta140  1  0.38961729  0.39548565  0.39845058  1
  Ta  Ta141  1  0.38925104  0.19274873  0.80506650  1
  Ta  Ta142  1  0.20862846  0.79495331  0.19699334  1
  Ta  Ta143  1  0.90774177  0.70476578  0.90443465  1
  Ta  Ta144  1  0.49293960  0.51002427  0.70568353  1
  Ta  Ta145  1  0.19586119  -0.00205822  0.38963721  1
  Ta  Ta146  1  0.80408407  0.59635857  0.40289592  1
  Ta  Ta147  1  0.49388652  0.70296071  0.50234376  1
  Ta  Ta148  1  0.70046219  0.50207443  0.90352315  1
  Ta  Ta149  1  0.19282580  0.60033052  0.60775161  1
  Ti  Ti150  1  0.10487187  0.10736773  0.10794657  1
  Ti  Ti151  1  0.90784815  0.88767779  0.29254818  1
  Ti  Ti152  1  0.71344393  0.70064017  0.90996816  1
  Ti  Ti153  1  0.48254825  0.50827127  0.90287338  1
  Ti  Ti154  1  0.29463289  0.90562635  0.49902971  1
  Ti  Ti155  1  0.79970051  0.00294295  0.39423382  1
  Ti  Ti156  1  0.90886198  0.50156937  0.30921767  1
  Ti  Ti157  1  0.00180149  0.60547966  0.41279866  1
  Ti  Ti158  1  0.20020403  0.41239822  0.80342345  1
  Ti  Ti159  1  0.30120276  0.67932080  0.90483385  1
  Ti  Ti160  1  0.29337438  0.30402466  0.69814462  1
  Ti  Ti161  1  0.81236893  0.39846218  -0.00459866  1
  Ti  Ti162  1  0.29368431  0.69947757  0.49904242  1
  Ti  Ti163  1  0.49757649  0.09969512  0.49002445  1
  Ti  Ti164  1  0.90439360  0.50181440  0.68810238  1
  Ti  Ti165  1  0.00513031  0.79665543  0.00130098  1
  Ti  Ti166  1  0.30397743  0.70140633  0.09514123  1
  Ti  Ti167  1  0.39878989  0.19431765  -0.00707494  1
  Ti  Ti168  1  0.58539275  0.18738134  0.80636268  1
  Ti  Ti169  1  0.00703953  0.38837698  0.39980573  1
  Ti  Ti170  1  0.10566557  0.89060399  0.10266460  1
  Ti  Ti171  1  0.19674592  0.40707242  -0.01250295  1
  Ti  Ti172  1  0.69975981  0.10060428  0.91258614  1
  Ti  Ti173  1  0.89630119  0.10469430  0.09584824  1
  Ti  Ti174  1  0.90394936  0.09605643  0.49895431  1
  Ti  Ti175  1  0.00991339  0.60212794  0.60615400  1
  Ti  Ti176  1  0.81723881  0.59359040  0.19493028  1
  Ti  Ti177  1  0.39242406  0.60508571  0.60039315  1
  Ti  Ti178  1  0.29048538  0.50226403  0.30589559  1
  Ti  Ti179  1  0.59239664  0.40429986  -0.00644951  1
  Ti  Ti180  1  0.30873899  0.90167810  0.09785476  1
  Ti  Ti181  1  0.69368208  0.28971158  0.30920143  1
  Ti  Ti182  1  0.10423082  0.30915438  0.89460832  1
  Ti  Ti183  1  0.59544324  0.79999407  0.19653777  1
  Ti  Ti184  1  0.10224537  0.91029227  0.69728360  1
  Ti  Ti185  1  0.90484436  0.10677289  0.29361742  1
  Ti  Ti186  1  0.39702688  0.00133865  0.39539608  1
  Ti  Ti187  1  0.79548651  -0.00230447  -0.00055453  1
  Ti  Ti188  1  0.29067574  0.50288896  0.50369693  1
  Ti  Ti189  1  0.60382816  0.79852162  0.00087985  1
  Ti  Ti190  1  0.40646636  0.00436884  0.19215437  1
  Ti  Ti191  1  0.00470461  0.59023207  0.18993866  1
  Ti  Ti192  1  0.79921705  0.19301610  0.59301975  1
  Ti  Ti193  1  0.79748634  0.59302036  0.59848176  1
  Ti  Ti194  1  0.90373327  0.89481493  0.90528456  1
  Ti  Ti195  1  0.29520788  0.50652861  0.70335821  1
  Ti  Ti196  1  0.79453747  0.41128464  0.59450302  1
  Ti  Ti197  1  0.60227497  -0.00267374  0.39231725  1
  Ti  Ti198  1  0.48463266  0.71398289  0.09484839  1
  Ti  Ti199  1  0.19881148  0.60879548  0.40624622  1
  Mo  Mo200  1  0.10094029  0.29861197  0.50140209  1
  Mo  Mo201  1  0.39768840  0.80371654  0.19295911  1
  Mo  Mo202  1  0.10843040  0.49660635  0.89945091  1
  Mo  Mo203  1  0.10388279  0.69969791  0.70499545  1
  Mo  Mo204  1  0.69358762  0.90676648  0.48952699  1
  Mo  Mo205  1  0.80756735  0.79451508  -0.00430340  1
  Mo  Mo206  1  0.90381056  0.49939508  0.09726914  1
  Mo  Mo207  1  0.79755510  0.19601536  -0.00100647  1
  Mo  Mo208  1  0.30110330  0.29295307  0.49718096  1
  Mo  Mo209  1  0.00490634  -0.00000579  0.60508526  1
  Mo  Mo210  1  0.20274253  0.59110517  0.80242263  1
  Mo  Mo211  1  0.10707542  0.50275274  0.09675948  1
  Mo  Mo212  1  0.29562746  0.50461551  0.89877909  1
  Mo  Mo213  1  0.10790293  0.50358092  0.69939673  1
  Mo  Mo214  1  0.39728549  0.59433156  0.80553908  1
  Mo  Mo215  1  0.59392584  0.19604268  0.39744059  1
  Mo  Mo216  1  0.10242403  0.09355063  0.29346686  1
  Mo  Mo217  1  0.20324318  0.80008229  0.39688930  1
  Mo  Mo218  1  0.49540823  0.09940685  0.70909123  1
  Mo  Mo219  1  -0.00962545  0.40698454  0.59876019  1
  Mo  Mo220  1  -0.00335775  0.19358843  0.19975016  1
  Mo  Mo221  1  0.48752352  0.49601771  0.30066262  1
  Mo  Mo222  1  0.21432082  0.40477410  0.59926686  1
  Mo  Mo223  1  0.29921107  0.10121996  0.69731105  1
  Mo  Mo224  1  0.01038042  0.80097464  0.19646517  1
  Mo  Mo225  1  0.10306057  0.69075762  0.49834768  1
  Mo  Mo226  1  0.80730666  0.80469134  0.60642068  1
  Mo  Mo227  1  0.39622084  0.60708549  0.00135601  1
  Mo  Mo228  1  0.80742486  0.79569109  0.20239712  1
  Mo  Mo229  1  0.48985357  0.09913302  0.10054858  1
  Mo  Mo230  1  0.70689636  0.09529064  0.08523165  1
  Mo  Mo231  1  0.49575390  0.09999014  0.90464653  1
  Mo  Mo232  1  0.70318549  0.89179030  0.91287947  1
  Mo  Mo233  1  0.20387044  0.00061394  0.00976391  1
  Mo  Mo234  1  0.69708991  0.09574409  0.30821703  1
  Mo  Mo235  1  0.29185391  0.70084768  0.29871950  1
  Mo  Mo236  1  0.10220106  0.09134869  0.69189806  1
  Mo  Mo237  1  0.30309595  0.10305289  0.90129491  1
  Mo  Mo238  1  0.29958951  0.91566775  0.90563758  1
  Mo  Mo239  1  0.19314534  0.19768094  0.20984128  1
  Mo  Mo240  1  0.29625251  0.30362713  0.89836162  1
  Mo  Mo241  1  0.20148908  0.60129472  0.00361563  1
  Mo  Mo242  1  0.70986631  0.50672368  0.50746571  1
  Mo  Mo243  1  0.59840055  0.00188342  0.00452506  1
  Mo  Mo244  1  0.90581512  0.30334113  0.90790372  1
  Mo  Mo245  1  0.39544317  0.39259883  -0.00738183  1
  Mo  Mo246  1  0.09886142  0.29306575  0.29762826  1
  Mo  Mo247  1  0.39549849  0.80424666  0.00342964  1
  Mo  Mo248  1  0.09476782  0.09698980  0.89402648  1
  Mo  Mo249  1  0.20312065  0.00541819  0.60330220  1
