# generated using pymatgen
data_HfZrTaTiMo
_symmetry_space_group_name_H-M   'P 1'
_cell_length_a   16.87524304
_cell_length_b   16.89152399
_cell_length_c   16.87738806
_cell_angle_alpha   89.99409319
_cell_angle_beta   89.95671582
_cell_angle_gamma   89.90102366
_symmetry_Int_Tables_number   1
_chemical_formula_structural   HfZrTaTiMo
_chemical_formula_sum   'Hf50 Zr50 Ta50 Ti50 Mo50'
_cell_volume   4810.86680032
_cell_formula_units_Z   50
loop_
 _symmetry_equiv_pos_site_id
 _symmetry_equiv_pos_as_xyz
  1  'x, y, z'
loop_
 _atom_site_type_symbol
 _atom_site_label
 _atom_site_symmetry_multiplicity
 _atom_site_fract_x
 _atom_site_fract_y
 _atom_site_fract_z
 _atom_site_occupancy
  Hf  Hf0  1  0.80499111  0.00283770  0.80146126  1
  Hf  Hf1  1  0.69636106  0.70034474  0.50333907  1
  Hf  Hf2  1  0.89161306  0.70588929  0.10260708  1
  Hf  Hf3  1  0.69457352  0.88883479  0.29088058  1
  Hf  Hf4  1  0.60820156  0.59758040  0.19957918  1
  Hf  Hf5  1  -0.00241351  0.60072383  0.60141462  1
  Hf  Hf6  1  0.40112479  0.39981672  0.40274626  1
  Hf  Hf7  1  0.40334163  0.19660185  0.19733002  1
  Hf  Hf8  1  -0.00056857  0.19855711  0.80062537  1
  Hf  Hf9  1  0.09545765  0.69638405  0.30014406  1
  Hf  Hf10  1  0.89336252  0.69598002  0.29839121  1
  Hf  Hf11  1  0.20210202  0.19321314  0.20162505  1
  Hf  Hf12  1  0.88581791  0.70408166  0.69663278  1
  Hf  Hf13  1  0.50805661  0.28868867  0.50230047  1
  Hf  Hf14  1  0.10656623  0.70199689  0.70637956  1
  Hf  Hf15  1  0.40108380  0.60748495  0.39135941  1
  Hf  Hf16  1  0.69855410  0.28823575  0.10345535  1
  Hf  Hf17  1  0.09939240  0.29083869  0.29886294  1
  Hf  Hf18  1  0.50422286  0.90250438  0.50077666  1
  Hf  Hf19  1  0.81057484  0.19318422  -0.00137518  1
  Hf  Hf20  1  0.40755123  0.20033893  0.00324481  1
  Hf  Hf21  1  0.10426226  0.28929456  0.49339497  1
  Hf  Hf22  1  0.90224449  0.89861454  0.90748168  1
  Hf  Hf23  1  0.70059955  0.70857817  0.10769612  1
  Hf  Hf24  1  0.29265860  0.10351749  0.49422186  1
  Hf  Hf25  1  0.10402150  0.90528418  0.89717445  1
  Hf  Hf26  1  0.10208062  0.29195181  0.09373660  1
  Hf  Hf27  1  0.50241307  0.69974431  0.10175583  1
  Hf  Hf28  1  0.29371038  0.69947464  0.89140052  1
  Hf  Hf29  1  0.80643996  0.19816694  0.60366195  1
  Hf  Hf30  1  0.80213012  0.40438513  0.19582451  1
  Hf  Hf31  1  0.60453443  -0.00381039  0.79192798  1
  Hf  Hf32  1  0.20022410  0.80278408  0.00347520  1
  Hf  Hf33  1  0.29773887  0.69123777  0.70311203  1
  Hf  Hf34  1  0.91781839  0.08927319  0.10600559  1
  Hf  Hf35  1  0.70632813  0.29845044  0.90070114  1
  Hf  Hf36  1  0.39467597  0.80668389  0.20892201  1
  Hf  Hf37  1  0.78279000  0.59451070  0.00501767  1
  Hf  Hf38  1  0.38562301  0.20775926  0.60118813  1
  Hf  Hf39  1  0.70225304  0.29167503  0.29558022  1
  Hf  Hf40  1  0.10624154  0.49445548  0.69644188  1
  Hf  Hf41  1  0.80305002  -0.00621705  0.60736682  1
  Hf  Hf42  1  0.69860862  0.49841632  0.89299788  1
  Hf  Hf43  1  -0.00664846  0.81252325  0.60555995  1
  Hf  Hf44  1  -0.00908731  0.00366114  0.39982265  1
  Hf  Hf45  1  0.69342485  0.09285655  0.50851892  1
  Hf  Hf46  1  0.60342474  0.40639332  0.40048206  1
  Hf  Hf47  1  0.38967963  0.59435238  0.00734087  1
  Hf  Hf48  1  0.10375233  0.29748169  0.70471146  1
  Hf  Hf49  1  0.20601874  0.81440086  0.60931937  1
  Zr  Zr50  1  0.29690977  0.09484855  0.89875569  1
  Zr  Zr51  1  0.29646499  0.09521889  0.08663925  1
  Zr  Zr52  1  0.70215175  0.29056533  0.49469519  1
  Zr  Zr53  1  0.00595847  0.79435217  0.00340213  1
  Zr  Zr54  1  0.38719171  0.81131211  0.00537236  1
  Zr  Zr55  1  0.29818765  0.49781592  0.89539426  1
  Zr  Zr56  1  0.60351625  0.19456965  0.79958139  1
  Zr  Zr57  1  0.19325963  0.00836048  0.60766637  1
  Zr  Zr58  1  -0.00503822  0.80203405  0.40565156  1
  Zr  Zr59  1  0.49980288  0.09754478  0.50335353  1
  Zr  Zr60  1  0.50840201  0.90176974  0.10362797  1
  Zr  Zr61  1  0.09411557  0.50539706  0.30411202  1
  Zr  Zr62  1  0.50458664  0.09959887  0.69244341  1
  Zr  Zr63  1  0.89293990  0.69787342  0.90336532  1
  Zr  Zr64  1  0.00170884  0.59551798  0.81016933  1
  Zr  Zr65  1  0.38858832  0.81987963  0.79389583  1
  Zr  Zr66  1  0.59332349  0.40212201  0.79737436  1
  Zr  Zr67  1  0.10316775  0.69676054  0.50427146  1
  Zr  Zr68  1  0.09582635  0.10248762  0.09092940  1
  Zr  Zr69  1  -0.01103371  0.39324958  0.40180546  1
  Zr  Zr70  1  0.88962045  0.49638229  0.70597927  1
  Zr  Zr71  1  0.39679866  0.40501104  0.19442791  1
  Zr  Zr72  1  0.40259549  0.39609548  0.00341121  1
  Zr  Zr73  1  0.70332139  0.88773292  0.69831005  1
  Zr  Zr74  1  -0.00029576  0.40123450  -0.01049269  1
  Zr  Zr75  1  0.70374781  0.30332331  0.69889093  1
  Zr  Zr76  1  0.91269478  0.28545649  0.10035818  1
  Zr  Zr77  1  0.50713671  0.70431646  0.49862915  1
  Zr  Zr78  1  0.40085151  0.39948664  0.59975344  1
  Zr  Zr79  1  0.39779958  -0.00126516  0.20047874  1
  Zr  Zr80  1  0.71272045  0.51030685  0.31221029  1
  Zr  Zr81  1  0.50006356  0.90858556  0.90293270  1
  Zr  Zr82  1  0.50856824  0.30034264  0.29251777  1
  Zr  Zr83  1  0.90214120  0.51186046  0.10007750  1
  Zr  Zr84  1  0.60416295  0.40686883  0.00653970  1
  Zr  Zr85  1  0.20065670  0.80355577  0.19340452  1
  Zr  Zr86  1  0.88916081  0.51480731  0.48984431  1
  Zr  Zr87  1  0.00157584  0.40281886  0.19917610  1
  Zr  Zr88  1  0.20893451  0.80492284  0.39690892  1
  Zr  Zr89  1  0.28751861  0.29449191  0.90305450  1
  Zr  Zr90  1  -0.00763289  0.39076272  0.59376921  1
  Zr  Zr91  1  0.59661926  -0.00394880  0.38758073  1
  Zr  Zr92  1  0.30247149  0.69924047  0.50597473  1
  Zr  Zr93  1  0.69790720  0.09622668  0.91030032  1
  Zr  Zr94  1  0.49786078  0.69815670  0.70078779  1
  Zr  Zr95  1  0.09589229  0.90631470  0.29969991  1
  Zr  Zr96  1  0.89074607  0.90087491  0.29049661  1
  Zr  Zr97  1  0.20764415  0.39829676  0.40126484  1
  Zr  Zr98  1  0.60093655  0.40924800  0.59689876  1
  Zr  Zr99  1  0.49517369  0.69754660  0.89875793  1
  Ta  Ta100  1  0.51589720  0.29116120  0.10447678  1
  Ta  Ta101  1  0.49745844  0.09661587  0.90627295  1
  Ta  Ta102  1  0.90153536  0.09551127  0.50399067  1
  Ta  Ta103  1  0.20149678  0.59392256  0.19222958  1
  Ta  Ta104  1  0.00347650  0.00167223  0.79312823  1
  Ta  Ta105  1  0.30050368  0.90884748  0.49774871  1
  Ta  Ta106  1  -0.00032576  0.80473933  0.19088482  1
  Ta  Ta107  1  0.88886557  0.70159551  0.50169990  1
  Ta  Ta108  1  0.50215821  0.29409729  0.69664617  1
  Ta  Ta109  1  0.30013277  0.50622668  0.50484756  1
  Ta  Ta110  1  0.39678155  0.81392987  0.60328081  1
  Ta  Ta111  1  0.80532079  0.18554301  0.20338843  1
  Ta  Ta112  1  0.39733414  -0.00259462  0.39189668  1
  Ta  Ta113  1  0.20466365  0.59746474  0.39808931  1
  Ta  Ta114  1  0.39277216  -0.00422795  0.60804533  1
  Ta  Ta115  1  0.60042568  0.60229539  0.79906267  1
  Ta  Ta116  1  0.19125022  0.59926102  0.00748780  1
  Ta  Ta117  1  0.40269402  0.39334883  0.79540683  1
  Ta  Ta118  1  0.80518153  -0.00532221  0.00941301  1
  Ta  Ta119  1  0.69656233  0.89320603  0.50020951  1
  Ta  Ta120  1  0.89973265  0.51822894  0.30156893  1
  Ta  Ta121  1  0.90826242  0.09465039  0.69724927  1
  Ta  Ta122  1  0.09121272  0.91637455  0.09724542  1
  Ta  Ta123  1  0.50520716  0.51628519  0.49660856  1
  Ta  Ta124  1  0.50530546  0.50679540  0.10058148  1
  Ta  Ta125  1  0.40215040  0.81021277  0.39316042  1
  Ta  Ta126  1  0.50430833  0.50840883  0.29975827  1
  Ta  Ta127  1  0.19920844  0.20255166  0.60395333  1
  Ta  Ta128  1  0.69822773  0.69701417  0.69574664  1
  Ta  Ta129  1  0.10498863  0.50320752  0.50118511  1
  Ta  Ta130  1  0.00083928  0.19513980  0.60033431  1
  Ta  Ta131  1  0.10670953  0.09996947  0.90078833  1
  Ta  Ta132  1  0.70293345  0.89521016  0.90857265  1
  Ta  Ta133  1  0.29641901  0.29522084  0.30080548  1
  Ta  Ta134  1  0.80385454  0.39804044  0.00058102  1
  Ta  Ta135  1  0.09903354  0.91169517  0.50242774  1
  Ta  Ta136  1  0.60042153  0.19003623  0.39209366  1
  Ta  Ta137  1  0.30117710  0.50045325  0.69880091  1
  Ta  Ta138  1  0.39745658  0.19977269  0.39497443  1
  Ta  Ta139  1  0.60370203  0.79958509  -0.00094051  1
  Ta  Ta140  1  0.80915881  0.19421426  0.79955272  1
  Ta  Ta141  1  0.20152368  -0.00109608  0.20047643  1
  Ta  Ta142  1  0.40073756  0.20517395  0.80012932  1
  Ta  Ta143  1  0.09616825  0.10173060  0.49763783  1
  Ta  Ta144  1  0.29506996  0.10717788  0.70846408  1
  Ta  Ta145  1  0.49868040  0.50774285  0.89953653  1
  Ta  Ta146  1  0.70498711  0.89613690  0.10195826  1
  Ta  Ta147  1  0.21142397  0.39109746  0.59689154  1
  Ta  Ta148  1  0.70344902  0.50840204  0.69525462  1
  Ta  Ta149  1  0.80142215  0.40012985  0.59107046  1
  Ti  Ti150  1  0.29728040  0.69631752  0.10475275  1
  Ti  Ti151  1  0.79604234  0.80224598  0.40335956  1
  Ti  Ti152  1  0.59326164  0.80476949  0.60714252  1
  Ti  Ti153  1  0.88978348  0.49498649  0.89646548  1
  Ti  Ti154  1  0.10616802  0.49237120  0.89887684  1
  Ti  Ti155  1  0.89703918  0.30246188  0.70491728  1
  Ti  Ti156  1  0.19879119  0.00271533  0.39465597  1
  Ti  Ti157  1  0.40239741  0.59798622  0.60048300  1
  Ti  Ti158  1  0.51566163  0.71030063  0.30039967  1
  Ti  Ti159  1  0.29608950  0.69729804  0.29624507  1
  Ti  Ti160  1  0.01350738  0.59957371  -0.00032575  1
  Ti  Ti161  1  0.10624887  0.70395716  0.89323308  1
  Ti  Ti162  1  0.79202189  0.60342978  0.80135994  1
  Ti  Ti163  1  0.09338991  0.10153047  0.30111540  1
  Ti  Ti164  1  0.69575460  0.09920327  0.10265334  1
  Ti  Ti165  1  0.30117263  0.50122119  0.29764802  1
  Ti  Ti166  1  0.10501147  0.29266144  0.90309966  1
  Ti  Ti167  1  0.70292981  0.09716747  0.29599968  1
  Ti  Ti168  1  0.20210724  0.40667620  0.19481114  1
  Ti  Ti169  1  0.59901026  0.00384085  0.19869702  1
  Ti  Ti170  1  0.19716031  0.59214767  0.80259552  1
  Ti  Ti171  1  0.39818769  0.59957878  0.20126371  1
  Ti  Ti172  1  0.59753709  0.80050373  0.80142276  1
  Ti  Ti173  1  -0.00529972  0.39417703  0.80761052  1
  Ti  Ti174  1  0.19969189  0.41110210  0.01258154  1
  Ti  Ti175  1  0.80030501  0.00101147  0.19463424  1
  Ti  Ti176  1  0.91292783  0.09426273  0.90557196  1
  Ti  Ti177  1  0.50657709  0.29594376  0.90230044  1
  Ti  Ti178  1  0.29372089  0.29943711  0.09986190  1
  Ti  Ti179  1  0.50130551  0.10097044  0.29511300  1
  Ti  Ti180  1  0.70043616  0.51743422  0.50208994  1
  Ti  Ti181  1  0.20646194  0.39379545  0.79401184  1
  Ti  Ti182  1  0.70174870  0.70481833  0.30165187  1
  Ti  Ti183  1  0.29717815  0.10084494  0.30474878  1
  Ti  Ti184  1  0.09706383  0.90476660  0.70395824  1
  Ti  Ti185  1  0.60188869  0.00132917  0.00675851  1
  Ti  Ti186  1  0.69490281  0.70395835  0.90048403  1
  Ti  Ti187  1  0.89257723  0.90069114  0.50412023  1
  Ti  Ti188  1  0.20163535  -0.00210826  0.79495126  1
  Ti  Ti189  1  0.80696462  0.39042025  0.40241494  1
  Ti  Ti190  1  0.49809348  0.50734810  0.70242117  1
  Ti  Ti191  1  -0.01279101  0.19415837  0.40077240  1
  Ti  Ti192  1  0.79869648  0.80135544  0.80471528  1
  Ti  Ti193  1  0.39824942  0.00106496  0.79583033  1
  Ti  Ti194  1  0.60692512  0.40989295  0.19780948  1
  Ti  Ti195  1  0.80499627  0.18858179  0.39709866  1
  Ti  Ti196  1  -0.00274768  0.80445969  0.79642702  1
  Ti  Ti197  1  0.79797030  0.00069309  0.40058714  1
  Ti  Ti198  1  0.01018884  0.60543243  0.18747945  1
  Ti  Ti199  1  0.89795704  0.28858632  0.29694898  1
  Mo  Mo200  1  -0.00100837  0.00086548  0.59874466  1
  Mo  Mo201  1  0.59899932  0.60467020  0.39591381  1
  Mo  Mo202  1  0.89660884  0.28606327  0.49516927  1
  Mo  Mo203  1  0.60658330  0.19345732  0.60131112  1
  Mo  Mo204  1  0.29334787  0.91097546  0.89890460  1
  Mo  Mo205  1  0.10028780  0.69659741  0.10206568  1
  Mo  Mo206  1  0.00191265  0.60353451  0.40504403  1
  Mo  Mo207  1  0.79840067  0.60315214  0.20364437  1
  Mo  Mo208  1  0.00288801  0.19789003  -0.01998578  1
  Mo  Mo209  1  -0.00188690  0.19203466  0.22091244  1
  Mo  Mo210  1  0.60635335  0.18155149  0.20147587  1
  Mo  Mo211  1  0.10356340  0.50048588  0.09615329  1
  Mo  Mo212  1  0.51073955  0.09843593  0.09658565  1
  Mo  Mo213  1  0.60257109  -0.00880551  0.60279265  1
  Mo  Mo214  1  0.80324055  0.39731977  0.80045142  1
  Mo  Mo215  1  0.59906186  0.79936911  0.39604471  1
  Mo  Mo216  1  0.80005930  0.80178301  0.59420082  1
  Mo  Mo217  1  0.79258402  0.60082906  0.60088569  1
  Mo  Mo218  1  0.40133521  0.58653957  0.79685474  1
  Mo  Mo219  1  0.19567866  0.80653895  0.80020494  1
  Mo  Mo220  1  0.29857237  0.29780281  0.49286975  1
  Mo  Mo221  1  0.59636893  0.60465996  -0.00465785  1
  Mo  Mo222  1  0.20045334  -0.00554552  -0.00103197  1
  Mo  Mo223  1  0.69974879  0.49790491  0.09965723  1
  Mo  Mo224  1  0.40176461  0.00149054  -0.00279404  1
  Mo  Mo225  1  0.20236372  0.19100983  0.39626651  1
  Mo  Mo226  1  0.70895585  0.09975118  0.69929210  1
  Mo  Mo227  1  0.20196847  0.58829835  0.60111318  1
  Mo  Mo228  1  0.89075129  0.09666916  0.30353797  1
  Mo  Mo229  1  0.89663297  0.30103524  0.89342141  1
  Mo  Mo230  1  0.59970341  0.79798143  0.20073781  1
  Mo  Mo231  1  0.59894138  0.59972878  0.60655770  1
  Mo  Mo232  1  0.80140494  0.80341201  0.19783037  1
  Mo  Mo233  1  0.19715110  0.20373763  -0.00256627  1
  Mo  Mo234  1  0.29751190  0.90847643  0.30444689  1
  Mo  Mo235  1  0.00073996  -0.00099297  -0.01071106  1
  Mo  Mo236  1  0.90420250  0.89775721  0.71017389  1
  Mo  Mo237  1  0.09950627  0.10241161  0.70165244  1
  Mo  Mo238  1  0.79240509  0.80340558  -0.00093461  1
  Mo  Mo239  1  0.89878894  0.90247291  0.10079662  1
  Mo  Mo240  1  0.29691597  0.91251555  0.70292137  1
  Mo  Mo241  1  0.50023306  0.90241479  0.69609859  1
  Mo  Mo242  1  0.29915172  0.30188323  0.70668599  1
  Mo  Mo243  1  0.19715845  0.19651522  0.79758269  1
  Mo  Mo244  1  0.00329465  -0.00032678  0.20476117  1
  Mo  Mo245  1  0.29095389  0.90826668  0.09862784  1
  Mo  Mo246  1  0.59702934  0.19361514  0.00422883  1
  Mo  Mo247  1  0.79629391  0.61540634  0.40103064  1
  Mo  Mo248  1  0.50089290  0.89938444  0.29980571  1
  Mo  Mo249  1  0.29828559  0.50099273  0.10565675  1
