# generated using pymatgen
data_HfZrTaTiMo
_symmetry_space_group_name_H-M   'P 1'
_cell_length_a   16.88076823
_cell_length_b   16.88750255
_cell_length_c   16.88467163
_cell_angle_alpha   89.99895937
_cell_angle_beta   90.00572157
_cell_angle_gamma   90.01831554
_symmetry_Int_Tables_number   1
_chemical_formula_structural   HfZrTaTiMo
_chemical_formula_sum   'Hf50 Zr50 Ta50 Ti50 Mo50'
_cell_volume   4813.38088814
_cell_formula_units_Z   50
loop_
 _symmetry_equiv_pos_site_id
 _symmetry_equiv_pos_as_xyz
  1  'x, y, z'
loop_
 _atom_site_type_symbol
 _atom_site_label
 _atom_site_symmetry_multiplicity
 _atom_site_fract_x
 _atom_site_fract_y
 _atom_site_fract_z
 _atom_site_occupancy
  Hf  Hf0  1  0.90547977  0.70386904  0.89713473  1
  Hf  Hf1  1  0.69823064  0.10442292  0.10229404  1
  Hf  Hf2  1  0.61214670  0.60504089  0.40914527  1
  Hf  Hf3  1  0.69430386  0.49117031  0.91104864  1
  Hf  Hf4  1  0.80174633  0.39977544  0.40126632  1
  Hf  Hf5  1  0.10476614  0.70048245  0.10403779  1
  Hf  Hf6  1  0.39244768  0.21455855  0.60179726  1
  Hf  Hf7  1  0.41001147  0.80553661  0.20369034  1
  Hf  Hf8  1  0.29786620  0.29270609  0.10071354  1
  Hf  Hf9  1  0.89961904  0.09755207  0.69429841  1
  Hf  Hf10  1  0.19292240  -0.00486210  0.59836937  1
  Hf  Hf11  1  0.29430208  0.69593606  0.10301299  1
  Hf  Hf12  1  0.80342341  -0.00211458  0.00612101  1
  Hf  Hf13  1  0.79290791  0.20840605  0.79789588  1
  Hf  Hf14  1  0.40323155  0.79744451  -0.00356509  1
  Hf  Hf15  1  0.60043373  0.20020942  0.40423155  1
  Hf  Hf16  1  0.00152806  0.20597635  -0.00561033  1
  Hf  Hf17  1  0.79854672  0.60222428  0.59397639  1
  Hf  Hf18  1  0.41323972  0.80482435  0.40403322  1
  Hf  Hf19  1  0.00058023  0.60277390  0.20208301  1
  Hf  Hf20  1  0.10516016  0.10279136  0.89446340  1
  Hf  Hf21  1  0.68413283  0.31735960  0.09385061  1
  Hf  Hf22  1  0.10188514  0.11088764  0.09743236  1
  Hf  Hf23  1  0.29845791  0.10072533  0.49881476  1
  Hf  Hf24  1  0.50112161  0.69789991  0.50120708  1
  Hf  Hf25  1  0.79775468  0.59397018  0.80838300  1
  Hf  Hf26  1  0.00098916  0.60663710  0.39982936  1
  Hf  Hf27  1  0.59771227  0.79614929  0.59686576  1
  Hf  Hf28  1  0.39935331  0.20684262  0.39965649  1
  Hf  Hf29  1  0.29436044  0.50182841  0.50314849  1
  Hf  Hf30  1  0.69986068  0.69744218  0.09730067  1
  Hf  Hf31  1  0.58847947  0.39905950  0.59588097  1
  Hf  Hf32  1  0.30512806  0.90818954  0.10569347  1
  Hf  Hf33  1  0.00715438  0.79415347  0.39902472  1
  Hf  Hf34  1  0.09771343  0.69674915  0.70635659  1
  Hf  Hf35  1  0.81137187  0.60574929  0.19891180  1
  Hf  Hf36  1  0.80296638  0.20582887  -0.00276485  1
  Hf  Hf37  1  0.30740097  0.90455766  0.88693538  1
  Hf  Hf38  1  0.50854263  0.69478533  0.29985711  1
  Hf  Hf39  1  0.20993018  0.40769221  -0.01107315  1
  Hf  Hf40  1  0.19701991  0.39461360  0.60210854  1
  Hf  Hf41  1  0.39791020  0.40874886  0.19089185  1
  Hf  Hf42  1  0.20327902  0.00473003  0.00037811  1
  Hf  Hf43  1  0.89668042  0.89583861  0.50333032  1
  Hf  Hf44  1  0.70141011  0.49844129  0.49992341  1
  Hf  Hf45  1  0.19667976  0.00927024  0.20416729  1
  Hf  Hf46  1  0.90577652  0.30095637  0.68935318  1
  Hf  Hf47  1  0.39916455  0.59979631  0.60075455  1
  Hf  Hf48  1  0.90584213  0.49159669  0.69731439  1
  Hf  Hf49  1  0.49814316  0.30358845  0.29007061  1
  Zr  Zr50  1  0.70105009  0.09608338  0.89660868  1
  Zr  Zr51  1  0.90353223  0.11005409  0.49614007  1
  Zr  Zr52  1  0.00179059  -0.00067087  0.21151493  1
  Zr  Zr53  1  0.19092073  0.00461988  0.39706003  1
  Zr  Zr54  1  0.11511391  0.69254330  0.51488187  1
  Zr  Zr55  1  0.59921196  -0.00595116  0.20661583  1
  Zr  Zr56  1  0.50292139  0.69075810  0.09838716  1
  Zr  Zr57  1  0.69837827  0.89385595  0.89014737  1
  Zr  Zr58  1  0.90923563  0.29990948  0.10451456  1
  Zr  Zr59  1  0.09922964  0.30977704  0.29925854  1
  Zr  Zr60  1  0.80138180  0.79581311  0.00587059  1
  Zr  Zr61  1  0.38168878  0.39497027  0.80732258  1
  Zr  Zr62  1  0.49494195  0.89698016  0.89193574  1
  Zr  Zr63  1  0.80341339  0.41381009  0.19091787  1
  Zr  Zr64  1  0.00106387  0.20308943  0.79962306  1
  Zr  Zr65  1  0.00355899  0.40907832  -0.00815253  1
  Zr  Zr66  1  0.89703892  0.89647039  0.88434965  1
  Zr  Zr67  1  0.48960902  0.89725707  0.70646185  1
  Zr  Zr68  1  0.29839569  0.70307729  0.30021388  1
  Zr  Zr69  1  0.20312447  0.58813122  0.80941246  1
  Zr  Zr70  1  0.70302061  0.70355813  0.70297436  1
  Zr  Zr71  1  0.48447542  0.10664486  0.11185022  1
  Zr  Zr72  1  0.29487546  0.31081108  0.30230463  1
  Zr  Zr73  1  0.49829060  0.09999074  0.50012869  1
  Zr  Zr74  1  0.79347355  0.00809816  0.39741998  1
  Zr  Zr75  1  0.60331410  0.80301554  0.20161402  1
  Zr  Zr76  1  0.48863874  0.09964896  0.70580813  1
  Zr  Zr77  1  0.59956069  -0.00410817  0.59196450  1
  Zr  Zr78  1  0.20253392  0.80569227  -0.00205422  1
  Zr  Zr79  1  0.00076197  -0.00463742  0.00364539  1
  Zr  Zr80  1  0.29744738  0.89103164  0.50021377  1
  Zr  Zr81  1  0.91166901  0.30198332  0.30792986  1
  Zr  Zr82  1  0.79824603  0.19755985  0.20640897  1
  Zr  Zr83  1  0.09614672  0.69814664  0.90569214  1
  Zr  Zr84  1  0.21214200  0.21327406  0.79323273  1
  Zr  Zr85  1  0.01086973  -0.00006262  0.40071146  1
  Zr  Zr86  1  0.59281139  0.00166279  -0.00055588  1
  Zr  Zr87  1  0.20088964  0.59749543  0.39706973  1
  Zr  Zr88  1  0.79714632  0.39744753  0.80015415  1
  Zr  Zr89  1  0.39459301  0.58333743  -0.00045265  1
  Zr  Zr90  1  0.09429395  0.89224444  0.88996921  1
  Zr  Zr91  1  0.70094049  0.09617152  0.70268281  1
  Zr  Zr92  1  0.90245029  0.70711094  0.70406079  1
  Zr  Zr93  1  0.29944480  0.90106635  0.29897903  1
  Zr  Zr94  1  0.59937400  0.39455460  0.79420892  1
  Zr  Zr95  1  0.50793326  0.50125676  0.30109398  1
  Zr  Zr96  1  0.69131777  0.30949101  0.29610347  1
  Zr  Zr97  1  0.70939752  0.89684867  0.70678654  1
  Zr  Zr98  1  0.60013013  0.20952459  0.60540428  1
  Zr  Zr99  1  0.80322957  0.77679907  0.40178067  1
  Ta  Ta100  1  0.89960038  0.09434670  0.89348974  1
  Ta  Ta101  1  0.89945127  0.89797936  0.69582377  1
  Ta  Ta102  1  0.70149535  0.88857478  0.49640484  1
  Ta  Ta103  1  0.40903348  -0.00479134  0.39771685  1
  Ta  Ta104  1  0.90204761  0.09946730  0.10422439  1
  Ta  Ta105  1  0.39825175  0.59732593  0.79817459  1
  Ta  Ta106  1  0.50012913  0.69244907  0.89723351  1
  Ta  Ta107  1  0.60195502  0.59577264  -0.00505203  1
  Ta  Ta108  1  0.80116789  -0.00183449  0.20736647  1
  Ta  Ta109  1  0.70245477  0.50333311  0.30015610  1
  Ta  Ta110  1  0.39840255  0.01219574  -0.00453049  1
  Ta  Ta111  1  0.10353566  0.10396268  0.69460965  1
  Ta  Ta112  1  0.59439444  0.20667558  0.80414040  1
  Ta  Ta113  1  0.29731314  0.49453500  0.69846972  1
  Ta  Ta114  1  0.90022007  0.89739270  0.11478662  1
  Ta  Ta115  1  0.01272530  0.20164170  0.59192949  1
  Ta  Ta116  1  0.10800399  0.50561849  0.09735710  1
  Ta  Ta117  1  0.90580167  0.49585261  0.50124296  1
  Ta  Ta118  1  0.20254938  0.19621660  0.20340351  1
  Ta  Ta119  1  0.70135212  0.89107525  0.30814852  1
  Ta  Ta120  1  0.49178132  0.49885756  0.69933148  1
  Ta  Ta121  1  0.29906875  0.10507371  0.89835174  1
  Ta  Ta122  1  0.39667675  -0.00904843  0.59601360  1
  Ta  Ta123  1  0.29457456  0.30735125  0.49607686  1
  Ta  Ta124  1  0.59326834  0.59641143  0.79837643  1
  Ta  Ta125  1  0.10119957  0.49399906  0.30297451  1
  Ta  Ta126  1  0.79647527  -0.00003435  0.59209670  1
  Ta  Ta127  1  0.20552921  0.79946621  0.79114598  1
  Ta  Ta128  1  0.00486714  0.59177285  0.60301120  1
  Ta  Ta129  1  0.39541281  0.20155089  -0.00160716  1
  Ta  Ta130  1  0.40333684  0.40790729  0.40938400  1
  Ta  Ta131  1  0.09613452  0.30614042  0.69898252  1
  Ta  Ta132  1  0.49598690  0.30072050  0.90378997  1
  Ta  Ta133  1  0.00895042  0.80714616  0.60010521  1
  Ta  Ta134  1  0.70195150  0.29966587  0.49921183  1
  Ta  Ta135  1  0.58710541  0.20272035  -0.00302585  1
  Ta  Ta136  1  0.49615921  0.09917744  0.29803639  1
  Ta  Ta137  1  0.39151385  0.77432107  0.79053484  1
  Ta  Ta138  1  0.39413201  0.58873962  0.20130409  1
  Ta  Ta139  1  0.79440325  0.39448715  0.59991786  1
  Ta  Ta140  1  0.20054817  -0.00005569  0.78970156  1
  Ta  Ta141  1  0.39947637  0.39735566  0.00194577  1
  Ta  Ta142  1  0.00006823  0.58275270  0.80890537  1
  Ta  Ta143  1  0.80666112  0.59361893  0.00584165  1
  Ta  Ta144  1  0.90410400  0.50211985  0.30888697  1
  Ta  Ta145  1  0.10873522  0.30424917  0.10181314  1
  Ta  Ta146  1  0.00627847  -0.00156049  0.78502610  1
  Ta  Ta147  1  0.00984396  -0.00212004  0.59502461  1
  Ta  Ta148  1  0.90640671  0.30368942  0.50044715  1
  Ta  Ta149  1  0.19351903  0.19827396  0.39840429  1
  Ti  Ti150  1  0.58695728  0.00888864  0.80499603  1
  Ti  Ti151  1  0.09545667  0.49156288  0.49978152  1
  Ti  Ti152  1  -0.00776582  0.59377569  0.00382338  1
  Ti  Ti153  1  0.10788084  0.30969047  0.89293354  1
  Ti  Ti154  1  0.59598584  0.59827278  0.60386254  1
  Ti  Ti155  1  0.59228614  0.40048557  0.40859649  1
  Ti  Ti156  1  0.39748311  0.79309687  0.60270792  1
  Ti  Ti157  1  0.90455959  0.69722975  0.51046036  1
  Ti  Ti158  1  0.90317615  0.30886212  0.89403772  1
  Ti  Ti159  1  0.29748555  0.69328871  0.90379890  1
  Ti  Ti160  1  0.10779685  0.88081035  0.29339757  1
  Ti  Ti161  1  0.59421343  0.20536273  0.19584426  1
  Ti  Ti162  1  0.28612353  0.68859528  0.68647541  1
  Ti  Ti163  1  0.39768043  0.59670662  0.40135282  1
  Ti  Ti164  1  -0.00615701  0.78968797  0.20720812  1
  Ti  Ti165  1  0.51663053  0.49024677  0.09690055  1
  Ti  Ti166  1  0.48744839  0.30658966  0.70385397  1
  Ti  Ti167  1  0.30361172  0.89955757  0.70189967  1
  Ti  Ti168  1  0.10004317  0.89356208  0.11064525  1
  Ti  Ti169  1  0.19962054  0.80498966  0.60569854  1
  Ti  Ti170  1  0.69097633  0.09919320  0.30091026  1
  Ti  Ti171  1  0.80657671  0.79496763  0.20361170  1
  Ti  Ti172  1  0.19687354  0.79238200  0.40358420  1
  Ti  Ti173  1  0.90665447  0.10818137  0.30330101  1
  Ti  Ti174  1  0.20509169  0.41251304  0.19758105  1
  Ti  Ti175  1  0.79217043  0.20054399  0.59282848  1
  Ti  Ti176  1  0.19716069  0.20365032  0.59515227  1
  Ti  Ti177  1  0.00722129  0.19850420  0.20427189  1
  Ti  Ti178  1  0.89529774  0.89349151  0.30197246  1
  Ti  Ti179  1  0.69580454  0.49862146  0.69789731  1
  Ti  Ti180  1  0.58837738  0.78543927  0.79625571  1
  Ti  Ti181  1  0.30022422  0.09820324  0.69791836  1
  Ti  Ti182  1  0.70511441  0.89837951  0.10642978  1
  Ti  Ti183  1  0.79372637  0.20006737  0.40193940  1
  Ti  Ti184  1  0.09570901  0.30507958  0.49189926  1
  Ti  Ti185  1  0.69139029  0.30398002  0.90895631  1
  Ti  Ti186  1  0.31266832  0.10291923  0.29177625  1
  Ti  Ti187  1  0.59629515  0.79898972  -0.00080837  1
  Ti  Ti188  1  0.81242479  0.41067762  0.00344162  1
  Ti  Ti189  1  0.09768156  0.48993640  0.70547686  1
  Ti  Ti190  1  0.39725610  0.20352386  0.80501057  1
  Ti  Ti191  1  0.00172882  0.41404136  0.19227413  1
  Ti  Ti192  1  0.49516359  0.90764437  0.09975972  1
  Ti  Ti193  1  0.69580310  0.70084717  0.89943298  1
  Ti  Ti194  1  0.20290483  0.59272026  0.20653674  1
  Ti  Ti195  1  0.49915033  0.49558868  0.89666821  1
  Ti  Ti196  1  0.61006657  0.58940278  0.19366789  1
  Ti  Ti197  1  0.70249324  0.69538353  0.29979180  1
  Ti  Ti198  1  -0.00669756  0.80099711  0.01464555  1
  Ti  Ti199  1  0.59698566  -0.00906595  0.40286721  1
  Mo  Mo200  1  0.49139679  0.11002443  0.89885816  1
  Mo  Mo201  1  0.80485630  0.80240753  0.59625266  1
  Mo  Mo202  1  0.70265692  0.10159622  0.49522217  1
  Mo  Mo203  1  0.58600452  0.40035424  -0.00354401  1
  Mo  Mo204  1  0.19468423  0.40002321  0.79873542  1
  Mo  Mo205  1  0.10195469  0.89930453  0.69763601  1
  Mo  Mo206  1  0.70062047  0.50462690  0.09671148  1
  Mo  Mo207  1  0.19782566  0.40052782  0.40415626  1
  Mo  Mo208  1  0.10415443  0.70201342  0.29376725  1
  Mo  Mo209  1  0.49537155  0.30749055  0.49498686  1
  Mo  Mo210  1  0.70052069  0.69667922  0.50760362  1
  Mo  Mo211  1  0.40060487  0.00327612  0.20466871  1
  Mo  Mo212  1  0.39713748  0.40194969  0.60057536  1
  Mo  Mo213  1  0.49771818  0.50321427  0.50208670  1
  Mo  Mo214  1  0.90307713  0.69938310  0.29845983  1
  Mo  Mo215  1  0.09827308  0.50256724  0.90317537  1
  Mo  Mo216  1  0.29192364  0.50100292  0.10295793  1
  Mo  Mo217  1  0.49809578  0.69287371  0.70210215  1
  Mo  Mo218  1  0.00549968  0.40038702  0.80013815  1
  Mo  Mo219  1  0.81341637  0.00172103  0.79076783  1
  Mo  Mo220  1  0.29990890  0.50081862  0.30212770  1
  Mo  Mo221  1  0.19557538  0.58718184  0.60850660  1
  Mo  Mo222  1  0.20024910  0.20763436  -0.00233879  1
  Mo  Mo223  1  0.19850734  0.59545936  0.00269163  1
  Mo  Mo224  1  0.30170153  0.29599662  0.90614080  1
  Mo  Mo225  1  0.59882571  0.40819456  0.19611463  1
  Mo  Mo226  1  0.39443527  0.20114545  0.20279029  1
  Mo  Mo227  1  0.60780891  0.79785422  0.40116264  1
  Mo  Mo228  1  0.29592029  0.30219722  0.69191011  1
  Mo  Mo229  1  0.29719457  0.10401998  0.09794293  1
  Mo  Mo230  1  0.80550742  0.59531689  0.39927730  1
  Mo  Mo231  1  0.19677335  0.80184995  0.19899694  1
  Mo  Mo232  1  0.00332767  0.39877236  0.59521227  1
  Mo  Mo233  1  0.10080679  0.89007197  0.50135567  1
  Mo  Mo234  1  0.69951561  0.29840392  0.69156278  1
  Mo  Mo235  1  0.80218362  0.79526180  0.80041276  1
  Mo  Mo236  1  0.90519659  0.70456174  0.09856831  1
  Mo  Mo237  1  0.09651557  0.11593585  0.30055119  1
  Mo  Mo238  1  0.30256835  0.70102378  0.50671995  1
  Mo  Mo239  1  0.30151193  0.49966047  0.89915171  1
  Mo  Mo240  1  0.10397718  0.11077918  0.50304186  1
  Mo  Mo241  1  0.00212055  0.40663353  0.40535242  1
  Mo  Mo242  1  0.38744747  0.01393868  0.79566922  1
  Mo  Mo243  1  0.89779335  0.50069375  0.90267086  1
  Mo  Mo244  1  0.00629647  0.80360451  0.78826910  1
  Mo  Mo245  1  0.49549143  0.30061529  0.09608535  1
  Mo  Mo246  1  0.50190901  0.89712775  0.50176880  1
  Mo  Mo247  1  0.00684269  0.20431605  0.40320277  1
  Mo  Mo248  1  0.90865460  0.50519306  0.09974458  1
  Mo  Mo249  1  0.50864209  0.90558273  0.30733550  1
