# generated using pymatgen
data_HfZrTaTiMo
_symmetry_space_group_name_H-M   'P 1'
_cell_length_a   16.87845330
_cell_length_b   16.87908998
_cell_length_c   16.88421877
_cell_angle_alpha   90.01131944
_cell_angle_beta   90.09016884
_cell_angle_gamma   90.01236112
_symmetry_Int_Tables_number   1
_chemical_formula_structural   HfZrTaTiMo
_chemical_formula_sum   'Hf50 Zr50 Ta50 Ti50 Mo50'
_cell_volume   4810.18842744
_cell_formula_units_Z   50
loop_
 _symmetry_equiv_pos_site_id
 _symmetry_equiv_pos_as_xyz
  1  'x, y, z'
loop_
 _atom_site_type_symbol
 _atom_site_label
 _atom_site_symmetry_multiplicity
 _atom_site_fract_x
 _atom_site_fract_y
 _atom_site_fract_z
 _atom_site_occupancy
  Hf  Hf0  1  0.29787906  0.10299751  0.70349856  1
  Hf  Hf1  1  0.69787460  0.49303729  0.90330334  1
  Hf  Hf2  1  0.00498273  0.40036876  0.59851187  1
  Hf  Hf3  1  0.48837769  0.68809842  0.49125028  1
  Hf  Hf4  1  0.90729206  0.28731657  0.48746451  1
  Hf  Hf5  1  0.39538560  -0.00067215  0.40778626  1
  Hf  Hf6  1  0.19990885  -0.00200884  0.80716127  1
  Hf  Hf7  1  0.08907787  0.10532742  0.48910460  1
  Hf  Hf8  1  -0.01091883  0.20635920  0.20159864  1
  Hf  Hf9  1  0.20228125  0.80194392  0.80750550  1
  Hf  Hf10  1  0.10293672  0.69481121  0.89992993  1
  Hf  Hf11  1  0.39877325  0.80989200  0.40030750  1
  Hf  Hf12  1  0.90273467  0.11256518  0.89543877  1
  Hf  Hf13  1  0.10299651  0.29583348  0.09896223  1
  Hf  Hf14  1  0.89422740  0.69938206  0.30355856  1
  Hf  Hf15  1  0.70808788  0.10307961  0.70711693  1
  Hf  Hf16  1  0.88988602  0.89862352  0.49944549  1
  Hf  Hf17  1  0.40005189  0.21067425  -0.00297608  1
  Hf  Hf18  1  0.40132748  0.00314384  0.19512047  1
  Hf  Hf19  1  0.49778693  0.68833514  0.91051635  1
  Hf  Hf20  1  0.79840158  0.39483088  0.39368454  1
  Hf  Hf21  1  0.10025021  0.49712212  0.89743392  1
  Hf  Hf22  1  0.71075332  0.90178910  0.10822412  1
  Hf  Hf23  1  0.29887783  0.89776941  0.70069794  1
  Hf  Hf24  1  0.20307654  0.79419488  0.19771226  1
  Hf  Hf25  1  0.10011358  0.49311375  0.10348234  1
  Hf  Hf26  1  0.79878148  0.39234681  0.59819040  1
  Hf  Hf27  1  0.80109632  0.59333362  0.20062206  1
  Hf  Hf28  1  0.50927914  0.09856017  0.49735076  1
  Hf  Hf29  1  0.21963049  0.60054000  0.21176970  1
  Hf  Hf30  1  -0.00421275  0.19502497  0.60774628  1
  Hf  Hf31  1  0.50022040  0.90184753  0.90066590  1
  Hf  Hf32  1  0.49895430  0.51290289  0.08805738  1
  Hf  Hf33  1  0.60804458  0.79680889  -0.00245536  1
  Hf  Hf34  1  0.09956731  0.69175223  0.30626169  1
  Hf  Hf35  1  0.40079969  0.39876997  0.19639880  1
  Hf  Hf36  1  0.10060488  0.49892703  0.29996879  1
  Hf  Hf37  1  0.69733397  0.49611297  0.29466210  1
  Hf  Hf38  1  0.40103394  0.79636416  0.19588857  1
  Hf  Hf39  1  0.09701291  0.49930358  0.71109145  1
  Hf  Hf40  1  -0.00642111  0.00073277  0.60811163  1
  Hf  Hf41  1  0.09554992  0.69783345  0.70047878  1
  Hf  Hf42  1  0.60638431  0.20716154  0.80892709  1
  Hf  Hf43  1  0.50509696  0.90726853  0.09638180  1
  Hf  Hf44  1  0.70885601  0.89444690  0.68895948  1
  Hf  Hf45  1  0.59904021  0.40026820  0.41073200  1
  Hf  Hf46  1  0.20153083  0.80168237  0.40398491  1
  Hf  Hf47  1  0.20498890  -0.00254356  0.40654794  1
  Hf  Hf48  1  0.19552619  0.58948697  0.60151987  1
  Hf  Hf49  1  -0.00178036  0.80433067  0.40007411  1
  Zr  Zr50  1  0.59877209  0.59858042  0.39774936  1
  Zr  Zr51  1  0.60473184  0.79614556  0.80275934  1
  Zr  Zr52  1  0.39636161  0.80421030  0.59849067  1
  Zr  Zr53  1  0.50901444  0.28891300  0.30050858  1
  Zr  Zr54  1  0.40301097  0.20074420  0.59937571  1
  Zr  Zr55  1  0.29089606  0.29739592  0.70045968  1
  Zr  Zr56  1  0.60615542  0.21184831  0.60123155  1
  Zr  Zr57  1  0.09079358  0.90358123  0.09050820  1
  Zr  Zr58  1  0.39383423  0.00289874  -0.00404373  1
  Zr  Zr59  1  0.59194639  0.59061908  0.60119459  1
  Zr  Zr60  1  0.29075644  0.11233525  0.09588062  1
  Zr  Zr61  1  -0.00582256  0.39802097  0.38759642  1
  Zr  Zr62  1  0.09347256  0.90072097  0.90585469  1
  Zr  Zr63  1  0.41409966  0.40411277  0.60606061  1
  Zr  Zr64  1  0.10433957  0.29162604  0.30298849  1
  Zr  Zr65  1  0.89225764  0.29726844  0.08476000  1
  Zr  Zr66  1  -0.00737242  0.80233765  0.19910933  1
  Zr  Zr67  1  0.80199666  0.80216025  0.80676609  1
  Zr  Zr68  1  0.29535024  0.10912255  0.29580391  1
  Zr  Zr69  1  0.58157889  0.80675520  0.59599788  1
  Zr  Zr70  1  0.60141838  0.59991001  0.79535171  1
  Zr  Zr71  1  0.80972006  -0.00390826  0.80409462  1
  Zr  Zr72  1  0.09289863  0.90856003  0.29571345  1
  Zr  Zr73  1  0.40358753  0.40012710  0.79917964  1
  Zr  Zr74  1  0.40355115  0.40004775  0.39677134  1
  Zr  Zr75  1  0.20062856  0.00106046  0.59427100  1
  Zr  Zr76  1  -0.00100413  0.59707389  0.00481767  1
  Zr  Zr77  1  0.29350765  0.69301373  0.49851907  1
  Zr  Zr78  1  0.60275199  0.80252110  0.20460856  1
  Zr  Zr79  1  0.50111600  0.09503773  0.70571157  1
  Zr  Zr80  1  0.50931391  0.10350799  0.29864193  1
  Zr  Zr81  1  0.90413725  0.50399847  0.50425654  1
  Zr  Zr82  1  0.10121162  0.29433000  0.89612175  1
  Zr  Zr83  1  0.79873862  0.19972082  0.59971238  1
  Zr  Zr84  1  0.30104966  0.51032075  0.90124695  1
  Zr  Zr85  1  0.59663302  0.60735329  0.19396419  1
  Zr  Zr86  1  0.61125025  -0.00774883  0.80639716  1
  Zr  Zr87  1  0.70785205  0.70860608  0.49676792  1
  Zr  Zr88  1  0.89501129  0.69915536  0.10125422  1
  Zr  Zr89  1  0.89869713  0.09997129  0.30472535  1
  Zr  Zr90  1  0.19556747  0.00148353  0.19258225  1
  Zr  Zr91  1  0.89719531  0.70139846  0.50294217  1
  Zr  Zr92  1  0.79477138  0.60036005  0.79956120  1
  Zr  Zr93  1  0.21232341  0.39851052  0.20232485  1
  Zr  Zr94  1  0.60011911  0.39602252  0.19491841  1
  Zr  Zr95  1  0.70258405  0.90346373  0.49755684  1
  Zr  Zr96  1  0.30280530  0.50125483  0.49375276  1
  Zr  Zr97  1  0.50341475  0.10412211  0.90507857  1
  Zr  Zr98  1  0.09971424  0.29915075  0.70865970  1
  Zr  Zr99  1  0.80335946  0.80617445  -0.00507335  1
  Ta  Ta100  1  0.19790251  0.40299011  0.59527806  1
  Ta  Ta101  1  0.80410041  0.39033084  0.20097084  1
  Ta  Ta102  1  0.09539076  0.89722757  0.70122974  1
  Ta  Ta103  1  0.90120957  0.29816906  0.71626413  1
  Ta  Ta104  1  0.19808760  0.00409984  -0.00636573  1
  Ta  Ta105  1  0.29514839  0.69451979  0.70621351  1
  Ta  Ta106  1  0.80053467  0.00567191  -0.00045818  1
  Ta  Ta107  1  0.90261835  0.69438208  0.89766942  1
  Ta  Ta108  1  0.70039814  0.49719342  0.50509156  1
  Ta  Ta109  1  0.70542374  0.49444889  0.09113855  1
  Ta  Ta110  1  0.40173081  0.21100304  0.80378027  1
  Ta  Ta111  1  0.39637208  0.20097612  0.40672779  1
  Ta  Ta112  1  0.29321296  0.89301855  0.08848764  1
  Ta  Ta113  1  0.49239003  0.69883762  0.29760765  1
  Ta  Ta114  1  0.70263275  0.69452558  0.09678782  1
  Ta  Ta115  1  0.79934999  0.59534227  0.60385927  1
  Ta  Ta116  1  0.09515622  0.10267064  0.29702831  1
  Ta  Ta117  1  0.29412434  0.29985620  0.49964386  1
  Ta  Ta118  1  0.59933429  0.39596451  -0.00096598  1
  Ta  Ta119  1  0.40337394  -0.00750126  0.59464788  1
  Ta  Ta120  1  0.40051497  0.59780223  0.79405629  1
  Ta  Ta121  1  0.09190781  0.68864572  0.50402116  1
  Ta  Ta122  1  0.40153109  0.20788220  0.19622123  1
  Ta  Ta123  1  0.70002867  0.09935272  0.30130025  1
  Ta  Ta124  1  0.39988770  0.79984706  0.80284979  1
  Ta  Ta125  1  0.29992904  0.69971411  0.90268688  1
  Ta  Ta126  1  0.10489281  0.29813346  0.49570807  1
  Ta  Ta127  1  0.50248395  0.49989869  0.90370464  1
  Ta  Ta128  1  0.59371447  0.80635947  0.39302782  1
  Ta  Ta129  1  0.29215300  0.11382771  0.89686132  1
  Ta  Ta130  1  0.89582357  0.48794162  0.09670395  1
  Ta  Ta131  1  0.39918748  0.79886760  -0.00203038  1
  Ta  Ta132  1  0.21043049  0.39566152  -0.00249941  1
  Ta  Ta133  1  0.40049765  0.59040105  0.61409292  1
  Ta  Ta134  1  0.09872777  0.10458584  0.71465476  1
  Ta  Ta135  1  0.30844431  0.50424065  0.09571027  1
  Ta  Ta136  1  -0.00860775  0.80336266  0.79942733  1
  Ta  Ta137  1  0.30830894  0.69380063  0.09147638  1
  Ta  Ta138  1  0.89731414  0.48976449  0.90252964  1
  Ta  Ta139  1  0.51478586  0.11170918  0.10052598  1
  Ta  Ta140  1  0.70608634  0.70423229  0.68823730  1
  Ta  Ta141  1  0.79880817  0.58981322  0.39742260  1
  Ta  Ta142  1  0.89527748  0.09680676  0.49169141  1
  Ta  Ta143  1  0.40034838  0.39617019  -0.00025524  1
  Ta  Ta144  1  0.79229397  0.19727148  0.19663164  1
  Ta  Ta145  1  0.90227760  0.69642819  0.69650589  1
  Ta  Ta146  1  0.29992126  0.90074148  0.29256875  1
  Ta  Ta147  1  0.90254767  0.49688565  0.70501235  1
  Ta  Ta148  1  0.61859241  0.01074973  0.00095773  1
  Ta  Ta149  1  0.80649428  0.00743857  0.60291999  1
  Ti  Ti150  1  0.50250083  0.90642547  0.29896309  1
  Ti  Ti151  1  0.20155688  0.40633464  0.40253869  1
  Ti  Ti152  1  0.59822853  -0.00226697  0.60011975  1
  Ti  Ti153  1  0.61407448  0.20259407  0.41186591  1
  Ti  Ti154  1  0.19577315  0.79936968  0.59712231  1
  Ti  Ti155  1  0.29288982  0.29513173  0.09726418  1
  Ti  Ti156  1  0.90425533  0.91248937  0.10475174  1
  Ti  Ti157  1  0.90019695  0.09422213  0.09863542  1
  Ti  Ti158  1  -0.00386004  0.00050856  0.79580579  1
  Ti  Ti159  1  0.70305790  0.30548753  0.70684631  1
  Ti  Ti160  1  -0.00809424  0.59853741  0.80140853  1
  Ti  Ti161  1  0.69783990  0.29140535  0.29548769  1
  Ti  Ti162  1  0.50375442  0.30199626  0.50396351  1
  Ti  Ti163  1  0.70306014  0.70386841  0.29766782  1
  Ti  Ti164  1  0.09693166  0.10490953  0.09941302  1
  Ti  Ti165  1  0.39554272  -0.00452112  0.80207364  1
  Ti  Ti166  1  -0.00716291  0.59064745  0.20172566  1
  Ti  Ti167  1  0.60807801  -0.00461468  0.39801821  1
  Ti  Ti168  1  0.91242333  0.90961036  0.91370570  1
  Ti  Ti169  1  -0.00110165  0.39665174  -0.00281940  1
  Ti  Ti170  1  0.19655567  0.19711390  0.59451444  1
  Ti  Ti171  1  0.51022614  0.29342413  0.09638299  1
  Ti  Ti172  1  0.09739618  0.10428375  0.90099974  1
  Ti  Ti173  1  0.09448019  0.89744748  0.50610774  1
  Ti  Ti174  1  0.00180231  0.19650045  -0.00001688  1
  Ti  Ti175  1  0.79281201  0.82071840  0.37366776  1
  Ti  Ti176  1  0.59435409  0.39817132  0.79307137  1
  Ti  Ti177  1  0.49309954  0.70179856  0.70295200  1
  Ti  Ti178  1  -0.00828569  -0.00561429  0.39664872  1
  Ti  Ti179  1  0.89656197  0.29949741  0.89752911  1
  Ti  Ti180  1  0.20195280  0.59906887  0.00587620  1
  Ti  Ti181  1  0.20584271  0.19640170  0.40658723  1
  Ti  Ti182  1  0.10420339  0.69765510  0.09885688  1
  Ti  Ti183  1  0.29872388  0.29510016  0.30431095  1
  Ti  Ti184  1  0.78540109  0.18927833  -0.00041160  1
  Ti  Ti185  1  -0.00268293  0.79296617  -0.00066356  1
  Ti  Ti186  1  -0.00212706  0.59234009  0.40151054  1
  Ti  Ti187  1  0.69832919  0.49115821  0.69598619  1
  Ti  Ti188  1  0.80071001  0.39811337  0.80223074  1
  Ti  Ti189  1  0.50668647  0.30491174  0.90399427  1
  Ti  Ti190  1  0.79121724  0.19890356  0.39865357  1
  Ti  Ti191  1  0.49399219  0.50696351  0.29490445  1
  Ti  Ti192  1  -0.00372631  0.80222831  0.60569737  1
  Ti  Ti193  1  0.38199215  0.59937130  0.37585944  1
  Ti  Ti194  1  0.60855000  0.00679106  0.19855982  1
  Ti  Ti195  1  0.21165088  0.40298679  0.80219789  1
  Ti  Ti196  1  0.79818008  0.59877631  -0.00415998  1
  Ti  Ti197  1  0.70845387  0.30127737  0.90636734  1
  Ti  Ti198  1  0.69677401  0.29468849  0.09442174  1
  Ti  Ti199  1  0.80303664  -0.00179902  0.20939070  1
  Mo  Mo200  1  0.19296525  0.59784212  0.40287326  1
  Mo  Mo201  1  0.30214835  0.49482992  0.29774339  1
  Mo  Mo202  1  0.50434874  0.49812204  0.70739500  1
  Mo  Mo203  1  0.79372628  0.00611686  0.40198395  1
  Mo  Mo204  1  0.70779666  0.09824645  0.10582598  1
  Mo  Mo205  1  0.60512404  0.39950630  0.60348726  1
  Mo  Mo206  1  0.19735618  0.20185302  0.20190291  1
  Mo  Mo207  1  0.70202982  0.09646247  0.49613682  1
  Mo  Mo208  1  0.60901290  0.59900264  -0.00076478  1
  Mo  Mo209  1  0.70159133  0.30144066  0.49581002  1
  Mo  Mo210  1  0.49226323  0.90379903  0.70262125  1
  Mo  Mo211  1  0.88936957  0.29493272  0.29409923  1
  Mo  Mo212  1  0.29545935  0.90178933  0.50387095  1
  Mo  Mo213  1  0.30228823  0.70694256  0.29937520  1
  Mo  Mo214  1  -0.00184152  0.59788447  0.60489034  1
  Mo  Mo215  1  0.49993749  0.50193669  0.50242376  1
  Mo  Mo216  1  0.10152900  0.49751249  0.49349380  1
  Mo  Mo217  1  0.49977489  0.70281223  0.09902391  1
  Mo  Mo218  1  0.69482615  0.91075189  0.29785513  1
  Mo  Mo219  1  0.60674361  0.20633725  0.00156563  1
  Mo  Mo220  1  0.90035184  0.49948607  0.29203210  1
  Mo  Mo221  1  0.29599586  0.50151847  0.70221532  1
  Mo  Mo222  1  -0.00671284  0.01053095  0.19369877  1
  Mo  Mo223  1  0.20432284  0.60273490  0.79871201  1
  Mo  Mo224  1  0.70544604  0.69032306  0.90742895  1
  Mo  Mo225  1  0.30187710  0.10762327  0.50321392  1
  Mo  Mo226  1  0.30227673  0.89812492  0.90376605  1
  Mo  Mo227  1  0.40227764  0.60323280  0.19907864  1
  Mo  Mo228  1  0.90339478  0.10357457  0.70487413  1
  Mo  Mo229  1  0.29848812  0.30137619  0.90339780  1
  Mo  Mo230  1  0.00046974  0.19725014  0.39797910  1
  Mo  Mo231  1  0.19964842  0.19636635  0.80405888  1
  Mo  Mo232  1  0.51025191  0.30234546  0.70845582  1
  Mo  Mo233  1  0.60925138  0.19760799  0.19391154  1
  Mo  Mo234  1  -0.01076275  0.40114061  0.80625756  1
  Mo  Mo235  1  0.70721921  0.10526966  0.90419672  1
  Mo  Mo236  1  0.40005813  0.60157125  -0.00266935  1
  Mo  Mo237  1  0.50410155  0.90791043  0.49556067  1
  Mo  Mo238  1  0.81012230  0.79849010  0.60854632  1
  Mo  Mo239  1  0.89343343  0.90708611  0.29612962  1
  Mo  Mo240  1  0.79479624  0.39486396  -0.00215183  1
  Mo  Mo241  1  0.79728627  0.80314430  0.20219454  1
  Mo  Mo242  1  0.90540109  0.89679473  0.69688302  1
  Mo  Mo243  1  0.70463625  0.90699738  0.90902834  1
  Mo  Mo244  1  -0.00292950  0.01573880  0.00285652  1
  Mo  Mo245  1  0.79875837  0.21146753  0.80430221  1
  Mo  Mo246  1  -0.00213062  0.19926769  0.80300092  1
  Mo  Mo247  1  0.20478321  0.79244050  0.00227949  1
  Mo  Mo248  1  0.19537965  0.19944714  -0.00231618  1
  Mo  Mo249  1  -0.01258452  0.40159341  0.19626421  1
