# generated using pymatgen
data_HfZrTaTiMo
_symmetry_space_group_name_H-M   'P 1'
_cell_length_a   16.88737531
_cell_length_b   16.88291503
_cell_length_c   16.88090067
_cell_angle_alpha   89.97511332
_cell_angle_beta   90.01550254
_cell_angle_gamma   89.98414832
_symmetry_Int_Tables_number   1
_chemical_formula_structural   HfZrTaTiMo
_chemical_formula_sum   'Hf50 Zr50 Ta50 Ti50 Mo50'
_cell_volume   4812.88108096
_cell_formula_units_Z   50
loop_
 _symmetry_equiv_pos_site_id
 _symmetry_equiv_pos_as_xyz
  1  'x, y, z'
loop_
 _atom_site_type_symbol
 _atom_site_label
 _atom_site_symmetry_multiplicity
 _atom_site_fract_x
 _atom_site_fract_y
 _atom_site_fract_z
 _atom_site_occupancy
  Hf  Hf0  1  0.30816344  0.88874467  0.70077119  1
  Hf  Hf1  1  0.70796457  0.49517378  0.70210495  1
  Hf  Hf2  1  -0.00661525  0.59929660  0.80311243  1
  Hf  Hf3  1  0.79753201  0.79563758  0.58477595  1
  Hf  Hf4  1  0.10490070  0.50302755  0.89613087  1
  Hf  Hf5  1  0.69588499  0.49740543  0.90271191  1
  Hf  Hf6  1  0.39436396  0.79514436  0.01201289  1
  Hf  Hf7  1  0.09469715  0.50632192  0.50445091  1
  Hf  Hf8  1  0.40734349  -0.00884063  0.39554325  1
  Hf  Hf9  1  0.60101422  0.40917664  0.40184132  1
  Hf  Hf10  1  0.40442954  0.20463848  -0.00049021  1
  Hf  Hf11  1  -0.00300130  -0.00329289  0.20205433  1
  Hf  Hf12  1  0.39524158  0.40010970  -0.00165959  1
  Hf  Hf13  1  0.60116814  0.80485917  0.20108891  1
  Hf  Hf14  1  0.79968270  0.39743544  0.01418587  1
  Hf  Hf15  1  0.60227393  0.60035218  0.41058321  1
  Hf  Hf16  1  0.00256780  0.20084243  0.40639566  1
  Hf  Hf17  1  0.09751163  0.70332068  0.69613855  1
  Hf  Hf18  1  0.48517092  0.49705342  0.70427320  1
  Hf  Hf19  1  0.29308348  0.09802052  0.30227974  1
  Hf  Hf20  1  0.70944652  0.30696265  0.69809148  1
  Hf  Hf21  1  0.80467011  -0.00279176  0.59503796  1
  Hf  Hf22  1  0.69751766  0.89846310  0.69981815  1
  Hf  Hf23  1  0.79013905  0.60194640  0.40712027  1
  Hf  Hf24  1  0.40462793  0.20202527  0.40294634  1
  Hf  Hf25  1  0.49650382  0.50444103  0.90129637  1
  Hf  Hf26  1  0.09824424  0.69739529  0.30063174  1
  Hf  Hf27  1  0.21565002  0.40280713  -0.00691885  1
  Hf  Hf28  1  0.49901473  0.09806715  0.70141576  1
  Hf  Hf29  1  -0.00246130  0.59860173  0.19827533  1
  Hf  Hf30  1  0.80031066  0.59620910  0.19391365  1
  Hf  Hf31  1  0.59731094  0.20708777  0.60673928  1
  Hf  Hf32  1  -0.00786475  0.40171384  0.00450260  1
  Hf  Hf33  1  0.40372307  -0.00525784  -0.00427258  1
  Hf  Hf34  1  0.61280227  0.59653761  0.19666268  1
  Hf  Hf35  1  0.21297655  0.60383668  0.59566244  1
  Hf  Hf36  1  0.69996708  0.70538164  0.70306395  1
  Hf  Hf37  1  0.10370788  0.50281885  0.70011724  1
  Hf  Hf38  1  0.59883575  0.20321643  -0.00270246  1
  Hf  Hf39  1  0.39495464  0.60388443  0.40985630  1
  Hf  Hf40  1  0.39805152  0.59798345  0.59336072  1
  Hf  Hf41  1  -0.01625362  0.60612655  0.00242105  1
  Hf  Hf42  1  0.69092409  0.09431208  0.49601701  1
  Hf  Hf43  1  0.19507627  -0.00708726  0.79338586  1
  Hf  Hf44  1  0.20194562  0.40952087  0.40298093  1
  Hf  Hf45  1  0.80786184  0.19353393  0.80376753  1
  Hf  Hf46  1  -0.00637933  0.00541596  -0.00177041  1
  Hf  Hf47  1  0.89283805  0.70566571  0.30032819  1
  Hf  Hf48  1  0.10149096  0.09864946  0.90009402  1
  Hf  Hf49  1  0.69794588  0.09093643  0.70473537  1
  Zr  Zr50  1  0.49227842  0.69569356  0.89728534  1
  Zr  Zr51  1  0.70570658  0.89879673  0.89527903  1
  Zr  Zr52  1  0.10406754  0.70340882  0.90210717  1
  Zr  Zr53  1  0.09852315  0.30238969  0.10176915  1
  Zr  Zr54  1  0.10440833  0.50218689  0.10076436  1
  Zr  Zr55  1  0.10304327  0.09979304  0.29955981  1
  Zr  Zr56  1  0.40643796  0.39506732  0.19465875  1
  Zr  Zr57  1  0.89629062  0.90183373  0.89352524  1
  Zr  Zr58  1  0.50281765  0.70082526  0.29888325  1
  Zr  Zr59  1  0.21488245  0.60148790  0.00235098  1
  Zr  Zr60  1  0.40004359  0.80125157  0.39727401  1
  Zr  Zr61  1  0.90033941  0.30313985  0.29062290  1
  Zr  Zr62  1  0.90469525  0.89690356  0.70321618  1
  Zr  Zr63  1  0.09851274  0.89680896  0.90301194  1
  Zr  Zr64  1  0.00638416  0.40721045  0.39684009  1
  Zr  Zr65  1  0.70310754  0.30084614  0.89601203  1
  Zr  Zr66  1  0.10741857  0.90068999  0.09744056  1
  Zr  Zr67  1  0.90297763  0.31315189  0.51159457  1
  Zr  Zr68  1  0.79353777  0.40755927  0.39632048  1
  Zr  Zr69  1  0.29753570  0.10129423  0.69344480  1
  Zr  Zr70  1  0.29699839  0.29511581  0.30363663  1
  Zr  Zr71  1  0.79566324  0.20733662  0.18804644  1
  Zr  Zr72  1  0.50383878  0.09339514  0.10596747  1
  Zr  Zr73  1  0.69240765  0.10140837  0.30609350  1
  Zr  Zr74  1  0.30492699  0.10089041  0.89174872  1
  Zr  Zr75  1  0.59218902  0.79931723  0.00522361  1
  Zr  Zr76  1  0.80590778  0.60053772  0.80676006  1
  Zr  Zr77  1  0.40137528  -0.01449169  0.21018439  1
  Zr  Zr78  1  0.11017258  0.09963960  0.50180828  1
  Zr  Zr79  1  0.80015313  0.20187683  0.40148226  1
  Zr  Zr80  1  0.29367548  0.08958464  0.10068700  1
  Zr  Zr81  1  0.80745059  0.19434442  0.60081002  1
  Zr  Zr82  1  0.70008810  0.70505689  0.90028753  1
  Zr  Zr83  1  0.51038463  0.09615456  0.49724010  1
  Zr  Zr84  1  0.59454788  0.60484134  0.59671308  1
  Zr  Zr85  1  0.29796339  0.90131102  0.50097504  1
  Zr  Zr86  1  0.10090095  0.30667635  0.69084581  1
  Zr  Zr87  1  0.50295366  0.50112963  0.29376070  1
  Zr  Zr88  1  0.00040987  0.19905114  0.80107747  1
  Zr  Zr89  1  0.20336067  0.20901247  -0.00412867  1
  Zr  Zr90  1  0.79719208  0.00105194  0.20001274  1
  Zr  Zr91  1  0.70580323  0.90461713  0.08918367  1
  Zr  Zr92  1  0.10206829  0.30202657  0.29403779  1
  Zr  Zr93  1  0.39920709  0.41043066  0.41275183  1
  Zr  Zr94  1  0.29722020  0.89167798  0.90101300  1
  Zr  Zr95  1  0.89979572  0.70665743  0.69777035  1
  Zr  Zr96  1  0.58976971  0.39237670  0.79825049  1
  Zr  Zr97  1  0.29275864  0.10165350  0.50095206  1
  Zr  Zr98  1  -0.00196213  0.80458627  0.39540305  1
  Zr  Zr99  1  0.59818241  0.21442486  0.19152933  1
  Ta  Ta100  1  0.30278896  0.29983120  0.69555669  1
  Ta  Ta101  1  0.40934768  -0.00637668  0.79805555  1
  Ta  Ta102  1  0.41016002  -0.00882633  0.60237369  1
  Ta  Ta103  1  0.29543884  0.29761174  0.50918817  1
  Ta  Ta104  1  0.50172711  0.50260446  0.09876735  1
  Ta  Ta105  1  0.51048146  0.10137987  0.30660129  1
  Ta  Ta106  1  0.20066020  0.79400390  0.40172987  1
  Ta  Ta107  1  0.90108210  0.50592245  0.30311831  1
  Ta  Ta108  1  0.51077449  0.89856220  0.50225665  1
  Ta  Ta109  1  0.80211678  0.59675419  0.00890599  1
  Ta  Ta110  1  -0.01023553  0.20180325  0.00054314  1
  Ta  Ta111  1  0.90876428  0.08492763  0.70817098  1
  Ta  Ta112  1  0.90651805  0.69614793  0.49611805  1
  Ta  Ta113  1  0.69464905  0.90087640  0.49555222  1
  Ta  Ta114  1  0.80388344  0.19894153  0.00086170  1
  Ta  Ta115  1  0.89655687  0.89315430  0.09533971  1
  Ta  Ta116  1  0.90047711  0.30378368  0.89786654  1
  Ta  Ta117  1  0.39341820  0.59820752  0.00898495  1
  Ta  Ta118  1  0.69517416  0.30517239  0.50532716  1
  Ta  Ta119  1  0.39664863  0.80239977  0.20294986  1
  Ta  Ta120  1  0.10043873  0.09800182  0.69658573  1
  Ta  Ta121  1  0.40455333  0.79084218  0.59518962  1
  Ta  Ta122  1  0.10637700  0.89534972  0.29413705  1
  Ta  Ta123  1  0.90019519  0.31498715  0.70157673  1
  Ta  Ta124  1  0.49943490  0.30449656  0.50572132  1
  Ta  Ta125  1  0.90166478  0.50640036  0.50537100  1
  Ta  Ta126  1  0.00622107  -0.00610231  0.59978778  1
  Ta  Ta127  1  0.19939794  0.19810503  0.19686370  1
  Ta  Ta128  1  0.39224611  0.60157675  0.19452367  1
  Ta  Ta129  1  0.59591663  0.60092460  0.79567858  1
  Ta  Ta130  1  0.10253090  0.09748964  0.09825253  1
  Ta  Ta131  1  0.20886066  0.40104271  0.79928358  1
  Ta  Ta132  1  -0.00077043  0.19551031  0.60410853  1
  Ta  Ta133  1  0.20226228  0.59784925  0.20560783  1
  Ta  Ta134  1  -0.00220268  -0.00561108  0.40031155  1
  Ta  Ta135  1  0.59418419  0.39275735  0.01272362  1
  Ta  Ta136  1  -0.00536360  0.79962535  0.19321429  1
  Ta  Ta137  1  0.09920601  0.89373802  0.50101093  1
  Ta  Ta138  1  0.59084865  -0.00471395  0.80326347  1
  Ta  Ta139  1  0.20233890  0.20965818  0.79698821  1
  Ta  Ta140  1  0.40307659  0.20344606  0.60180939  1
  Ta  Ta141  1  0.10106449  0.70721165  0.10148072  1
  Ta  Ta142  1  0.70625939  0.70993503  0.30316752  1
  Ta  Ta143  1  0.20161726  0.79401798  0.59661086  1
  Ta  Ta144  1  0.09424735  0.69898828  0.49972936  1
  Ta  Ta145  1  0.09777935  0.30705354  0.89494131  1
  Ta  Ta146  1  0.90191527  0.09860892  0.30276133  1
  Ta  Ta147  1  0.69930033  0.09420978  0.89735178  1
  Ta  Ta148  1  0.80611534  -0.00618897  0.40045164  1
  Ta  Ta149  1  0.20233595  0.60003490  0.40017515  1
  Ti  Ti150  1  0.19692700  -0.01377338  0.39436241  1
  Ti  Ti151  1  0.29523323  0.70464529  0.29661540  1
  Ti  Ti152  1  0.80658340  0.01380800  -0.00669211  1
  Ti  Ti153  1  0.49099264  0.29527501  0.89209442  1
  Ti  Ti154  1  0.21445970  0.40909238  0.60099722  1
  Ti  Ti155  1  0.20548612  0.79446000  0.00487280  1
  Ti  Ti156  1  0.80025939  0.60116059  0.59748207  1
  Ti  Ti157  1  0.50650202  0.30003699  0.30371586  1
  Ti  Ti158  1  0.49209745  0.70373927  0.70561722  1
  Ti  Ti159  1  0.10809357  0.30017371  0.50919085  1
  Ti  Ti160  1  0.59006469  0.00297841  -0.01353702  1
  Ti  Ti161  1  0.90374823  0.89581163  0.49708775  1
  Ti  Ti162  1  0.19361122  -0.01491535  0.60618073  1
  Ti  Ti163  1  0.69566602  0.09501871  0.09247618  1
  Ti  Ti164  1  0.29277167  0.70318146  0.11327853  1
  Ti  Ti165  1  -0.00400571  0.40642124  0.79724079  1
  Ti  Ti166  1  0.30024332  0.29797910  0.10775292  1
  Ti  Ti167  1  0.58884100  0.80232329  0.79469868  1
  Ti  Ti168  1  0.49752410  0.69401353  0.10469644  1
  Ti  Ti169  1  0.89252798  0.49154087  0.89827097  1
  Ti  Ti170  1  0.70924188  0.70900797  0.10201182  1
  Ti  Ti171  1  0.40463049  0.19973872  0.20087637  1
  Ti  Ti172  1  0.81579041  0.78566213  -0.00144947  1
  Ti  Ti173  1  0.69272722  0.30745088  0.29838420  1
  Ti  Ti174  1  0.90700882  0.09334073  0.49938582  1
  Ti  Ti175  1  0.70258207  0.49183809  0.51608260  1
  Ti  Ti176  1  0.60502736  0.59858670  0.00860405  1
  Ti  Ti177  1  0.60066170  -0.00794092  0.21000280  1
  Ti  Ti178  1  -0.01082622  0.40988865  0.19443373  1
  Ti  Ti179  1  0.30531991  0.69504722  0.71073038  1
  Ti  Ti180  1  -0.00706689  0.60001308  0.60324087  1
  Ti  Ti181  1  -0.00000249  0.79933415  0.80458954  1
  Ti  Ti182  1  0.89994527  0.10160423  0.10165744  1
  Ti  Ti183  1  0.19792146  0.79755428  0.79221485  1
  Ti  Ti184  1  0.20437365  0.40907433  0.20096198  1
  Ti  Ti185  1  0.49415179  0.89109503  0.89341625  1
  Ti  Ti186  1  0.70668025  0.89282711  0.30815214  1
  Ti  Ti187  1  0.28682882  0.90005889  0.11030239  1
  Ti  Ti188  1  0.50166725  0.90170525  0.10311222  1
  Ti  Ti189  1  0.59150059  0.19681444  0.80308199  1
  Ti  Ti190  1  0.58698657  0.40174120  0.60262288  1
  Ti  Ti191  1  0.39086671  0.39096642  0.79790589  1
  Ti  Ti192  1  0.30718840  0.51476000  0.87749264  1
  Ti  Ti193  1  -0.00227022  0.19758870  0.19237592  1
  Ti  Ti194  1  0.30427365  0.69861724  0.88705891  1
  Ti  Ti195  1  0.78728211  0.40768847  0.19566253  1
  Ti  Ti196  1  0.59404590  0.79465588  0.59556010  1
  Ti  Ti197  1  0.60407727  0.79508969  0.40663361  1
  Ti  Ti198  1  0.30073314  0.50457899  0.29744009  1
  Ti  Ti199  1  0.89207060  0.89666442  0.29575648  1
  Mo  Mo200  1  0.19698037  0.20891401  0.60343280  1
  Mo  Mo201  1  0.50418273  0.09738135  0.89401072  1
  Mo  Mo202  1  0.90068891  0.70523090  0.90267177  1
  Mo  Mo203  1  0.60601107  0.40234412  0.19690635  1
  Mo  Mo204  1  -0.00114585  0.40707210  0.60241666  1
  Mo  Mo205  1  0.20005600  -0.00077489  0.00261790  1
  Mo  Mo206  1  0.89938132  0.70453509  0.10116049  1
  Mo  Mo207  1  0.89688748  0.10189498  0.90095999  1
  Mo  Mo208  1  0.69820594  0.30322493  0.09816009  1
  Mo  Mo209  1  0.00672724  -0.00078972  0.79457461  1
  Mo  Mo210  1  0.29571492  0.49809589  0.50156287  1
  Mo  Mo211  1  0.79885496  0.80457891  0.39952005  1
  Mo  Mo212  1  0.20736375  0.60183353  0.79409134  1
  Mo  Mo213  1  0.70022322  0.70697804  0.49923014  1
  Mo  Mo214  1  0.49632629  0.30299047  0.09797855  1
  Mo  Mo215  1  0.89927286  0.29757050  0.09929175  1
  Mo  Mo216  1  0.50013527  0.49435712  0.50886880  1
  Mo  Mo217  1  0.79493106  0.00236615  0.80030701  1
  Mo  Mo218  1  0.51713778  0.89802337  0.30324028  1
  Mo  Mo219  1  0.80066854  0.80007100  0.80218548  1
  Mo  Mo220  1  0.29504848  0.70301468  0.49639922  1
  Mo  Mo221  1  0.20088409  0.79418591  0.20359818  1
  Mo  Mo222  1  0.28410431  0.89392121  0.29665786  1
  Mo  Mo223  1  0.30368864  0.50130945  0.11099068  1
  Mo  Mo224  1  0.00330677  0.80035106  0.59020763  1
  Mo  Mo225  1  0.59892340  0.22073841  0.40127196  1
  Mo  Mo226  1  -0.00599432  0.79739446  0.00544381  1
  Mo  Mo227  1  0.30210900  0.30012150  0.88758821  1
  Mo  Mo228  1  0.80291949  0.40832359  0.59969310  1
  Mo  Mo229  1  0.59902419  -0.00905141  0.60213581  1
  Mo  Mo230  1  0.20013715  0.21169409  0.40322740  1
  Mo  Mo231  1  0.69414104  0.49909152  0.09723364  1
  Mo  Mo232  1  0.40197169  0.79767065  0.79334507  1
  Mo  Mo233  1  0.70421143  0.49930706  0.29549502  1
  Mo  Mo234  1  0.50210924  0.70770140  0.50292151  1
  Mo  Mo235  1  0.29981676  0.49495790  0.70188948  1
  Mo  Mo236  1  0.80971634  0.40095919  0.80222954  1
  Mo  Mo237  1  0.60436545  -0.01589045  0.39477869  1
  Mo  Mo238  1  0.90235361  0.49753113  0.69229969  1
  Mo  Mo239  1  0.10007687  0.89314133  0.69391694  1
  Mo  Mo240  1  0.40042355  0.60375731  0.79586355  1
  Mo  Mo241  1  0.89497278  0.49803028  0.10696352  1
  Mo  Mo242  1  0.39639920  0.39587314  0.60271064  1
  Mo  Mo243  1  0.40068297  0.20367110  0.79617640  1
  Mo  Mo244  1  0.19602803  -0.00093592  0.20204379  1
  Mo  Mo245  1  0.79867844  0.80149641  0.19786054  1
  Mo  Mo246  1  0.49070581  0.29733822  0.70068770  1
  Mo  Mo247  1  0.50206201  0.89413705  0.69573653  1
  Mo  Mo248  1  0.10273666  0.50502979  0.29801150  1
  Mo  Mo249  1  -0.00310266  0.60022206  0.40081741  1
