# generated using pymatgen
data_HfZrTaTiMo
_symmetry_space_group_name_H-M   'P 1'
_cell_length_a   16.89704054
_cell_length_b   16.88302654
_cell_length_c   16.88409056
_cell_angle_alpha   90.01785203
_cell_angle_beta   90.00949715
_cell_angle_gamma   89.96710252
_symmetry_Int_Tables_number   1
_chemical_formula_structural   HfZrTaTiMo
_chemical_formula_sum   'Hf50 Zr50 Ta50 Ti50 Mo50'
_cell_volume   4816.57717567
_cell_formula_units_Z   50
loop_
 _symmetry_equiv_pos_site_id
 _symmetry_equiv_pos_as_xyz
  1  'x, y, z'
loop_
 _atom_site_type_symbol
 _atom_site_label
 _atom_site_symmetry_multiplicity
 _atom_site_fract_x
 _atom_site_fract_y
 _atom_site_fract_z
 _atom_site_occupancy
  Hf  Hf0  1  0.90717505  0.90863249  0.28573008  1
  Hf  Hf1  1  0.61178614  0.59541999  0.81535464  1
  Hf  Hf2  1  0.50639049  0.10452327  0.50300966  1
  Hf  Hf3  1  0.70590334  0.91366943  0.89699640  1
  Hf  Hf4  1  0.90515823  0.10097194  0.29540477  1
  Hf  Hf5  1  0.09485832  0.29091966  0.50389908  1
  Hf  Hf6  1  0.10179966  0.49315990  0.49010677  1
  Hf  Hf7  1  0.20012466  0.40133913  0.80448608  1
  Hf  Hf8  1  0.70597284  0.50107846  0.50254271  1
  Hf  Hf9  1  0.50618038  0.29520818  0.50466243  1
  Hf  Hf10  1  0.70346478  0.28991390  0.90006576  1
  Hf  Hf11  1  0.40756755  0.00477014  0.79727991  1
  Hf  Hf12  1  0.10422174  0.70456888  0.49426602  1
  Hf  Hf13  1  0.09448818  0.70140011  0.90785872  1
  Hf  Hf14  1  0.79544322  0.40019244  0.79935369  1
  Hf  Hf15  1  0.70419335  0.29817353  0.09150850  1
  Hf  Hf16  1  0.59359833  0.79101359  0.59582617  1
  Hf  Hf17  1  0.08285957  0.89754452  0.91231115  1
  Hf  Hf18  1  0.80573734  0.79501051  0.79731148  1
  Hf  Hf19  1  0.29241239  0.70349077  0.49413365  1
  Hf  Hf20  1  0.80396889  0.19818371  0.19137899  1
  Hf  Hf21  1  0.29302193  0.29602083  0.50756520  1
  Hf  Hf22  1  0.28406926  0.10626740  0.68959498  1
  Hf  Hf23  1  0.39414230  0.20324024  0.39853789  1
  Hf  Hf24  1  0.61093659  0.39613474  0.60911008  1
  Hf  Hf25  1  0.39697189  0.39499405  0.39185070  1
  Hf  Hf26  1  0.70947244  0.09697354  0.51152081  1
  Hf  Hf27  1  0.30171171  0.70352803  0.69972609  1
  Hf  Hf28  1  0.40294740  0.80502819  0.00600909  1
  Hf  Hf29  1  0.60804259  0.00373070  0.18508806  1
  Hf  Hf30  1  0.20027813  0.40488050  0.61060019  1
  Hf  Hf31  1  0.28517474  0.11075901  0.29332387  1
  Hf  Hf32  1  0.39865083  0.21115886  0.20119075  1
  Hf  Hf33  1  0.40090555  0.00725982  0.60075335  1
  Hf  Hf34  1  0.29696229  0.90109733  0.69373295  1
  Hf  Hf35  1  0.50789302  0.69095926  0.91743373  1
  Hf  Hf36  1  0.18447135  0.00143549  0.79654834  1
  Hf  Hf37  1  0.38640736  0.00458540  0.39961964  1
  Hf  Hf38  1  0.09240700  0.10948048  0.68753173  1
  Hf  Hf39  1  -0.00281759  0.59675990  0.59624124  1
  Hf  Hf40  1  0.79898203  0.60479973  0.80708769  1
  Hf  Hf41  1  0.89819866  0.91040361  0.90970615  1
  Hf  Hf42  1  0.40380942  0.60180853  0.59729283  1
  Hf  Hf43  1  0.50066144  0.69519276  0.10373464  1
  Hf  Hf44  1  0.01668528  0.58381586  0.00732869  1
  Hf  Hf45  1  0.90553871  0.49946495  0.29654065  1
  Hf  Hf46  1  0.79754976  0.80373259  0.19102389  1
  Hf  Hf47  1  0.39982128  0.20036161  0.79709622  1
  Hf  Hf48  1  0.09130148  0.10476727  0.30252120  1
  Hf  Hf49  1  0.80084943  0.80105235  0.38928069  1
  Zr  Zr50  1  -0.00226982  0.19684755  -0.00535409  1
  Zr  Zr51  1  0.29434087  0.90282476  0.90195174  1
  Zr  Zr52  1  0.18761536  0.00847568  0.00186918  1
  Zr  Zr53  1  0.91079844  0.70385324  0.90912000  1
  Zr  Zr54  1  0.29255353  0.89436447  0.50005684  1
  Zr  Zr55  1  0.00252616  0.60111759  0.39465426  1
  Zr  Zr56  1  0.68675902  0.69572643  0.09225786  1
  Zr  Zr57  1  0.61079370  0.00082805  0.39428663  1
  Zr  Zr58  1  0.79991265  0.60326919  0.39269509  1
  Zr  Zr59  1  0.80819507  0.59834835  0.60393816  1
  Zr  Zr60  1  0.40545357  0.80047967  0.81202587  1
  Zr  Zr61  1  0.20181684  0.58980894  0.80758349  1
  Zr  Zr62  1  0.79364846  0.80139424  0.00161219  1
  Zr  Zr63  1  0.60590891  0.39963219  0.19669676  1
  Zr  Zr64  1  0.19326772  0.80126989  0.79986003  1
  Zr  Zr65  1  0.50213955  0.10255602  0.29557868  1
  Zr  Zr66  1  0.10815935  0.29240448  0.29841857  1
  Zr  Zr67  1  0.79870484  0.00477595  0.39099595  1
  Zr  Zr68  1  0.19056742  -0.00651958  0.20640071  1
  Zr  Zr69  1  0.60574018  0.39861270  0.39465987  1
  Zr  Zr70  1  0.20430029  0.58871695  0.60585514  1
  Zr  Zr71  1  0.59814648  0.60430756  0.39972112  1
  Zr  Zr72  1  0.50496660  0.29844930  0.70607167  1
  Zr  Zr73  1  0.29785057  0.10673387  0.90087937  1
  Zr  Zr74  1  0.39340117  0.80023016  0.20042995  1
  Zr  Zr75  1  0.29175454  0.30793089  0.11143426  1
  Zr  Zr76  1  0.91192675  0.69679793  0.10288804  1
  Zr  Zr77  1  0.90934092  0.49583526  0.89736048  1
  Zr  Zr78  1  0.60548157  0.79333236  0.39923811  1
  Zr  Zr79  1  0.39505731  0.40380320  0.61002213  1
  Zr  Zr80  1  0.80126194  0.20482107  0.60406110  1
  Zr  Zr81  1  0.50612469  0.89269603  0.29331852  1
  Zr  Zr82  1  0.89619490  0.71251974  0.50156071  1
  Zr  Zr83  1  0.19851863  0.79359137  0.00782726  1
  Zr  Zr84  1  0.50270394  0.29960725  0.90429937  1
  Zr  Zr85  1  0.61527315  0.19855606  0.38913008  1
  Zr  Zr86  1  0.18568079  0.20837307  -0.00421816  1
  Zr  Zr87  1  0.50420389  0.50217650  0.50238512  1
  Zr  Zr88  1  0.60447609  0.58568062  0.20136576  1
  Zr  Zr89  1  0.00685787  0.38940923  -0.00156268  1
  Zr  Zr90  1  0.39708674  -0.00114530  0.19559117  1
  Zr  Zr91  1  0.49775461  0.90062764  0.49818293  1
  Zr  Zr92  1  0.09758392  0.70008043  0.69605628  1
  Zr  Zr93  1  0.38802270  0.40567881  -0.00396268  1
  Zr  Zr94  1  0.70279000  0.90104516  0.70193494  1
  Zr  Zr95  1  0.40836333  -0.00411941  0.00292410  1
  Zr  Zr96  1  0.90609075  0.49154364  0.70317329  1
  Zr  Zr97  1  0.71316052  0.89727205  0.51374740  1
  Zr  Zr98  1  -0.00749786  0.00712667  0.79954546  1
  Zr  Zr99  1  0.50641763  0.69601149  0.70816907  1
  Ta  Ta100  1  0.89941976  0.90669633  0.50331944  1
  Ta  Ta101  1  0.50643564  0.50315963  0.70860372  1
  Ta  Ta102  1  -0.00359434  0.20575268  0.18798858  1
  Ta  Ta103  1  0.79063826  0.59127803  -0.00087502  1
  Ta  Ta104  1  0.70061752  0.70085691  0.69739706  1
  Ta  Ta105  1  0.60221155  0.00548102  -0.00267760  1
  Ta  Ta106  1  0.59585993  0.82181304  0.00471438  1
  Ta  Ta107  1  -0.00464545  0.80910165  0.60197357  1
  Ta  Ta108  1  0.29482980  0.10632405  0.10181193  1
  Ta  Ta109  1  0.00599920  -0.00462558  0.40374039  1
  Ta  Ta110  1  0.91066775  0.09982090  0.50384078  1
  Ta  Ta111  1  0.49862128  0.69765020  0.29398647  1
  Ta  Ta112  1  -0.00232173  0.39377402  0.39584371  1
  Ta  Ta113  1  0.80944665  0.39598191  0.19629106  1
  Ta  Ta114  1  0.80496230  0.39453326  0.59599109  1
  Ta  Ta115  1  0.08777492  0.89674630  0.10693649  1
  Ta  Ta116  1  0.81011059  0.39198289  0.40251234  1
  Ta  Ta117  1  -0.00521652  0.80776993  0.78475861  1
  Ta  Ta118  1  0.59804603  0.00747255  0.80199283  1
  Ta  Ta119  1  0.50200243  0.30474522  0.09781147  1
  Ta  Ta120  1  0.19189270  -0.00178238  0.40669772  1
  Ta  Ta121  1  0.71347440  0.29857699  0.29673305  1
  Ta  Ta122  1  0.60729129  0.41131629  -0.00118352  1
  Ta  Ta123  1  0.90445482  0.49860415  0.10372040  1
  Ta  Ta124  1  0.28777451  0.89754327  0.10465469  1
  Ta  Ta125  1  0.50541765  0.89823109  0.70385788  1
  Ta  Ta126  1  0.00292460  0.80834979  0.39666401  1
  Ta  Ta127  1  0.00117686  0.39717712  0.19763091  1
  Ta  Ta128  1  0.60496203  0.40691934  0.80662476  1
  Ta  Ta129  1  0.29438007  0.69081128  0.10597650  1
  Ta  Ta130  1  0.89820614  0.09189441  0.09198837  1
  Ta  Ta131  1  0.19029334  0.41081659  -0.00336859  1
  Ta  Ta132  1  0.20168175  0.58753197  0.00484666  1
  Ta  Ta133  1  -0.00348851  0.19867690  0.80581080  1
  Ta  Ta134  1  0.59848789  0.00605861  0.61349850  1
  Ta  Ta135  1  0.50546286  0.10596537  0.90256507  1
  Ta  Ta136  1  0.60767485  0.19884085  0.19293883  1
  Ta  Ta137  1  0.29601694  0.49405444  0.29336218  1
  Ta  Ta138  1  0.09817870  0.10245948  0.50386455  1
  Ta  Ta139  1  0.39634580  0.60310996  0.39238274  1
  Ta  Ta140  1  0.09050184  0.29850880  0.69873150  1
  Ta  Ta141  1  0.39446581  0.59689758  0.20361147  1
  Ta  Ta142  1  0.29819687  0.50055709  0.48810915  1
  Ta  Ta143  1  0.49942972  0.11075732  0.09399533  1
  Ta  Ta144  1  0.49030841  0.49969631  0.09730995  1
  Ta  Ta145  1  0.80553298  0.39931860  0.00293458  1
  Ta  Ta146  1  0.80020509  0.59510105  0.19430799  1
  Ta  Ta147  1  0.39693961  0.59020932  0.80944320  1
  Ta  Ta148  1  0.10549377  0.69286898  0.11456281  1
  Ta  Ta149  1  0.90573325  0.29641010  0.70248062  1
  Ti  Ti150  1  0.18072832  0.81685649  0.60036069  1
  Ti  Ti151  1  -0.00109679  0.60720602  0.79697736  1
  Ti  Ti152  1  0.10398673  0.69817724  0.29256276  1
  Ti  Ti153  1  0.89607023  0.10309907  0.69774320  1
  Ti  Ti154  1  0.90653343  0.69851965  0.29082941  1
  Ti  Ti155  1  0.71281135  0.09428566  0.71128532  1
  Ti  Ti156  1  0.39715045  0.20385774  0.00263227  1
  Ti  Ti157  1  0.71097504  0.09807020  0.08556198  1
  Ti  Ti158  1  0.60291991  0.19522831  0.00095761  1
  Ti  Ti159  1  0.29566193  0.30038102  0.90014888  1
  Ti  Ti160  1  0.50573721  0.30345577  0.29155674  1
  Ti  Ti161  1  0.90702063  0.29060654  0.49781140  1
  Ti  Ti162  1  0.49752612  0.50261190  0.90826048  1
  Ti  Ti163  1  0.69885853  0.50626559  0.69715552  1
  Ti  Ti164  1  0.39828404  0.19583005  0.60293841  1
  Ti  Ti165  1  0.88850437  0.90951513  0.69231200  1
  Ti  Ti166  1  -0.00685851  0.39863618  0.59256449  1
  Ti  Ti167  1  0.89395600  0.29309832  0.89543146  1
  Ti  Ti168  1  0.18491954  0.81100488  0.38766277  1
  Ti  Ti169  1  0.40154407  0.79069007  0.39690616  1
  Ti  Ti170  1  0.70515124  0.29283195  0.70960571  1
  Ti  Ti171  1  0.00777699  0.80025303  0.20598819  1
  Ti  Ti172  1  0.20269517  0.19488525  0.40893853  1
  Ti  Ti173  1  0.10409447  0.30434000  0.10885633  1
  Ti  Ti174  1  0.80421170  0.19924058  0.39752890  1
  Ti  Ti175  1  0.18656781  0.20388662  0.80499353  1
  Ti  Ti176  1  0.30546909  0.68909449  0.91326432  1
  Ti  Ti177  1  0.71321590  0.49152506  0.29853132  1
  Ti  Ti178  1  0.90493129  0.91205817  0.09695742  1
  Ti  Ti179  1  0.20353445  0.39520528  0.39255737  1
  Ti  Ti180  1  0.39502514  0.40676887  0.80166815  1
  Ti  Ti181  1  0.08552265  0.49081352  0.70940344  1
  Ti  Ti182  1  0.69374368  0.70421269  0.28458067  1
  Ti  Ti183  1  0.08990554  0.09563825  0.10629458  1
  Ti  Ti184  1  0.49002825  0.49682122  0.29210142  1
  Ti  Ti185  1  0.60427604  0.79967830  0.81376260  1
  Ti  Ti186  1  0.40673773  0.79619900  0.59651312  1
  Ti  Ti187  1  0.00472543  -0.00782858  0.59841372  1
  Ti  Ti188  1  0.28938477  0.69911750  0.29472690  1
  Ti  Ti189  1  0.60509232  0.19300781  0.61513703  1
  Ti  Ti190  1  0.29168925  0.89427431  0.30058783  1
  Ti  Ti191  1  0.10548348  0.49759137  0.28827069  1
  Ti  Ti192  1  0.70185563  0.90224850  0.28358897  1
  Ti  Ti193  1  0.70377377  0.29629530  0.49784491  1
  Ti  Ti194  1  0.70348758  0.69578960  0.51100240  1
  Ti  Ti195  1  0.29247418  0.29430775  0.70218901  1
  Ti  Ti196  1  0.29590768  0.50162127  0.11005846  1
  Ti  Ti197  1  0.60461566  0.18919352  0.79907790  1
  Ti  Ti198  1  0.90583929  0.29448474  0.30023808  1
  Ti  Ti199  1  0.20229305  0.59540984  0.38998155  1
  Mo  Mo200  1  0.09516500  0.90021826  0.30182835  1
  Mo  Mo201  1  0.80938340  0.00587061  0.60552994  1
  Mo  Mo202  1  0.40108728  0.40411556  0.20085595  1
  Mo  Mo203  1  0.71263244  0.49412791  0.09899516  1
  Mo  Mo204  1  0.69462959  0.70227646  0.90248432  1
  Mo  Mo205  1  0.08961205  0.10376395  0.89415426  1
  Mo  Mo206  1  0.70256336  0.90901596  0.09567729  1
  Mo  Mo207  1  0.80549232  0.19814717  0.79998982  1
  Mo  Mo208  1  0.50615426  0.10231231  0.70174916  1
  Mo  Mo209  1  0.48958625  0.70006002  0.48824286  1
  Mo  Mo210  1  0.80411991  0.19822269  -0.00445395  1
  Mo  Mo211  1  0.20229784  0.59799290  0.20450238  1
  Mo  Mo212  1  0.80279581  0.80039806  0.60375679  1
  Mo  Mo213  1  -0.00401877  0.00360152  0.00480820  1
  Mo  Mo214  1  0.00219229  0.38524746  0.80126528  1
  Mo  Mo215  1  0.09224033  0.90521075  0.69311016  1
  Mo  Mo216  1  0.50379133  0.90667552  0.09726449  1
  Mo  Mo217  1  0.19575484  0.20609351  0.60134949  1
  Mo  Mo218  1  0.60126582  0.80594932  0.19637373  1
  Mo  Mo219  1  0.80143959  0.01003090  0.79984815  1
  Mo  Mo220  1  0.70956264  0.10645472  0.28560047  1
  Mo  Mo221  1  0.19606413  0.79536513  0.20606080  1
  Mo  Mo222  1  0.51146706  0.90729673  0.89685296  1
  Mo  Mo223  1  0.09399996  0.90161296  0.49859131  1
  Mo  Mo224  1  0.60424872  0.60017345  0.60809034  1
  Mo  Mo225  1  -0.00524381  0.20034422  0.60151545  1
  Mo  Mo226  1  0.31385181  0.49890790  0.70681947  1
  Mo  Mo227  1  0.19092484  0.19855327  0.19169788  1
  Mo  Mo228  1  0.59944314  0.58205899  0.00317784  1
  Mo  Mo229  1  -0.00552158  0.19819310  0.40406124  1
  Mo  Mo230  1  -0.00145554  0.00516947  0.19632702  1
  Mo  Mo231  1  0.28977264  0.10184209  0.50109300  1
  Mo  Mo232  1  0.09942309  0.30088364  0.89067270  1
  Mo  Mo233  1  0.90346054  0.48242538  0.49519044  1
  Mo  Mo234  1  0.88709156  0.10361561  0.89995730  1
  Mo  Mo235  1  0.90154166  0.70733666  0.69965385  1
  Mo  Mo236  1  0.79831072  0.00622968  -0.00147102  1
  Mo  Mo237  1  0.69966256  0.10381743  0.89958727  1
  Mo  Mo238  1  0.10461862  0.49533680  0.11238084  1
  Mo  Mo239  1  0.29130225  0.30268260  0.30344808  1
  Mo  Mo240  1  0.70541899  0.49397791  0.90489650  1
  Mo  Mo241  1  0.10112719  0.49942985  0.89188203  1
  Mo  Mo242  1  0.19657702  0.40353971  0.20082491  1
  Mo  Mo243  1  0.90124319  0.30145622  0.09963005  1
  Mo  Mo244  1  0.39267023  0.59794582  0.00689524  1
  Mo  Mo245  1  0.29948080  0.50000382  0.90442286  1
  Mo  Mo246  1  0.19367187  0.00334344  0.59195880  1
  Mo  Mo247  1  0.79794336  0.00161264  0.18861407  1
  Mo  Mo248  1  0.00131058  0.80095974  0.01908305  1
  Mo  Mo249  1  0.00554637  0.59530662  0.20230296  1
