# generated using pymatgen
data_HfZrTaTiMo
_symmetry_space_group_name_H-M   'P 1'
_cell_length_a   16.87700795
_cell_length_b   16.88788881
_cell_length_c   16.88339267
_cell_angle_alpha   90.02929849
_cell_angle_beta   90.07185116
_cell_angle_gamma   90.02045768
_symmetry_Int_Tables_number   1
_chemical_formula_structural   HfZrTaTiMo
_chemical_formula_sum   'Hf50 Zr50 Ta50 Ti50 Mo50'
_cell_volume   4812.04977658
_cell_formula_units_Z   50
loop_
 _symmetry_equiv_pos_site_id
 _symmetry_equiv_pos_as_xyz
  1  'x, y, z'
loop_
 _atom_site_type_symbol
 _atom_site_label
 _atom_site_symmetry_multiplicity
 _atom_site_fract_x
 _atom_site_fract_y
 _atom_site_fract_z
 _atom_site_occupancy
  Hf  Hf0  1  0.70083188  0.89436197  0.10218010  1
  Hf  Hf1  1  0.10032551  0.69603427  0.69201141  1
  Hf  Hf2  1  0.40334883  -0.00610448  0.40511434  1
  Hf  Hf3  1  0.50528818  0.69160589  0.30116378  1
  Hf  Hf4  1  0.69989144  0.49366882  0.69252874  1
  Hf  Hf5  1  0.38902644  0.60002668  0.19260474  1
  Hf  Hf6  1  0.39514745  0.79781051  0.19749402  1
  Hf  Hf7  1  0.30296256  0.30734705  0.49079243  1
  Hf  Hf8  1  0.50696311  0.69659043  0.09812779  1
  Hf  Hf9  1  -0.00336385  0.19307510  0.59257529  1
  Hf  Hf10  1  0.20078366  0.40456448  0.19457848  1
  Hf  Hf11  1  0.20344528  0.00094913  0.59951185  1
  Hf  Hf12  1  -0.00251821  0.60394606  0.20393250  1
  Hf  Hf13  1  0.11066202  0.71597789  0.30882365  1
  Hf  Hf14  1  0.18868086  0.00068679  0.40623860  1
  Hf  Hf15  1  0.90270411  0.70316021  0.89549334  1
  Hf  Hf16  1  0.60651262  0.20317722  0.39549776  1
  Hf  Hf17  1  0.60967863  0.59577881  0.00640289  1
  Hf  Hf18  1  0.68874339  0.09981313  0.70217119  1
  Hf  Hf19  1  0.09765269  0.30351942  0.70379829  1
  Hf  Hf20  1  0.59792518  0.80192642  0.20514028  1
  Hf  Hf21  1  0.50384814  0.69990060  0.50318678  1
  Hf  Hf22  1  0.09860809  0.30012531  0.90619730  1
  Hf  Hf23  1  0.10311175  0.30672258  0.50169089  1
  Hf  Hf24  1  0.40099784  0.80460337  0.59792801  1
  Hf  Hf25  1  -0.01707302  0.21459220  0.20161466  1
  Hf  Hf26  1  0.80542384  0.60665743  0.40218260  1
  Hf  Hf27  1  0.39855211  0.59669637  0.40856359  1
  Hf  Hf28  1  0.61238687  0.39649087  0.39817984  1
  Hf  Hf29  1  0.30511755  0.49162346  0.30737895  1
  Hf  Hf30  1  0.09168808  0.88436274  0.48820034  1
  Hf  Hf31  1  0.20606989  0.60282555  0.40695741  1
  Hf  Hf32  1  0.80266170  0.59870719  0.80033348  1
  Hf  Hf33  1  0.70992620  0.89968195  0.30610518  1
  Hf  Hf34  1  0.39495228  0.39911710  0.19138874  1
  Hf  Hf35  1  0.50494839  0.09600619  0.50124226  1
  Hf  Hf36  1  0.00384711  0.80668925  0.20689208  1
  Hf  Hf37  1  0.89578386  0.49833372  0.49932414  1
  Hf  Hf38  1  0.50196761  0.29544564  0.08967950  1
  Hf  Hf39  1  0.09418381  0.10510920  0.90543171  1
  Hf  Hf40  1  0.50120831  0.49869754  0.09777096  1
  Hf  Hf41  1  0.21035467  0.79651798  0.59835580  1
  Hf  Hf42  1  0.20622731  0.40600349  0.80874147  1
  Hf  Hf43  1  0.28281517  0.88516599  0.30381395  1
  Hf  Hf44  1  0.40034272  -0.00627374  0.19812026  1
  Hf  Hf45  1  0.09586534  0.10634297  0.09662971  1
  Hf  Hf46  1  0.09966452  0.50644791  0.50373934  1
  Hf  Hf47  1  0.79819692  -0.00777283  0.80099500  1
  Hf  Hf48  1  0.40047893  0.80699840  0.79651153  1
  Hf  Hf49  1  0.59547956  -0.00677423  -0.00524201  1
  Zr  Zr50  1  0.90147216  0.30006749  0.70036322  1
  Zr  Zr51  1  0.10306170  0.50079539  0.69859084  1
  Zr  Zr52  1  0.20265363  0.80289687  0.79837016  1
  Zr  Zr53  1  0.50529234  0.10754092  0.69760835  1
  Zr  Zr54  1  0.59282876  0.58717235  0.79368919  1
  Zr  Zr55  1  0.50174669  0.11276369  0.89752957  1
  Zr  Zr56  1  0.80310936  0.39422904  0.80672488  1
  Zr  Zr57  1  0.38968851  0.00588114  0.79859825  1
  Zr  Zr58  1  0.30325806  0.30271470  0.69497539  1
  Zr  Zr59  1  -0.00836706  -0.00021626  -0.00172389  1
  Zr  Zr60  1  0.80098532  0.00462010  -0.00557321  1
  Zr  Zr61  1  0.59583372  0.00068412  0.20374584  1
  Zr  Zr62  1  0.41539010  0.40833406  0.79472451  1
  Zr  Zr63  1  0.00792211  0.59898229  0.80508219  1
  Zr  Zr64  1  0.81153287  0.59211230  0.01263589  1
  Zr  Zr65  1  0.79597591  -0.00693749  0.60086188  1
  Zr  Zr66  1  0.90276384  0.49560076  0.69693622  1
  Zr  Zr67  1  0.18829257  -0.00877560  0.19737467  1
  Zr  Zr68  1  0.49556210  0.69169809  0.89924455  1
  Zr  Zr69  1  0.49613419  0.10611431  0.09453870  1
  Zr  Zr70  1  0.49731627  0.29917712  0.50117612  1
  Zr  Zr71  1  0.29595144  0.28850105  0.08480674  1
  Zr  Zr72  1  0.40500724  0.41280988  0.59791392  1
  Zr  Zr73  1  0.00295024  0.60096846  0.00525533  1
  Zr  Zr74  1  0.49292933  0.30644201  0.29989556  1
  Zr  Zr75  1  0.89912996  0.90049073  0.11056814  1
  Zr  Zr76  1  0.29845195  0.09634081  0.29599981  1
  Zr  Zr77  1  0.69671140  0.70179910  0.90230954  1
  Zr  Zr78  1  0.19310191  0.19558459  0.40222340  1
  Zr  Zr79  1  0.80617473  0.79241276  0.00617507  1
  Zr  Zr80  1  0.88868418  0.31181833  0.49788213  1
  Zr  Zr81  1  0.69931971  0.48914509  0.90266514  1
  Zr  Zr82  1  0.50556382  0.90881715  0.69673642  1
  Zr  Zr83  1  0.31402540  0.51430461  0.90130090  1
  Zr  Zr84  1  0.08787016  0.89663928  0.69628297  1
  Zr  Zr85  1  0.08966135  0.30287031  0.09286201  1
  Zr  Zr86  1  -0.01518966  0.00178129  0.58347096  1
  Zr  Zr87  1  0.69517749  0.11117330  0.89937889  1
  Zr  Zr88  1  0.09208600  0.09857874  0.70231478  1
  Zr  Zr89  1  0.10856875  0.70587973  0.10215580  1
  Zr  Zr90  1  0.60325967  0.80812903  0.41105848  1
  Zr  Zr91  1  0.69569590  0.29766839  0.70373422  1
  Zr  Zr92  1  0.70780898  0.50381427  0.29545229  1
  Zr  Zr93  1  0.20431355  -0.00020118  0.79844405  1
  Zr  Zr94  1  0.08457250  0.09522969  0.29218691  1
  Zr  Zr95  1  0.21211033  0.19755913  0.79982809  1
  Zr  Zr96  1  -0.00755239  0.20017119  0.40142852  1
  Zr  Zr97  1  0.80289368  0.00077056  0.41362618  1
  Zr  Zr98  1  0.90988726  0.29512432  0.91136852  1
  Zr  Zr99  1  0.39946741  0.80197375  -0.00323476  1
  Ta  Ta100  1  0.79370326  0.20753943  0.39493244  1
  Ta  Ta101  1  0.69297452  0.29513661  0.90609210  1
  Ta  Ta102  1  0.79662100  0.80108740  0.59403775  1
  Ta  Ta103  1  0.70325349  0.69843458  0.11583879  1
  Ta  Ta104  1  0.39112337  -0.00215143  0.59854522  1
  Ta  Ta105  1  0.61101924  0.39491202  0.19685492  1
  Ta  Ta106  1  0.39860841  0.19643950  0.39615553  1
  Ta  Ta107  1  0.50604232  0.50075887  0.29679690  1
  Ta  Ta108  1  0.60817064  0.59697077  0.40348427  1
  Ta  Ta109  1  0.19930401  0.20377255  0.20032907  1
  Ta  Ta110  1  0.09877371  0.30959581  0.29606926  1
  Ta  Ta111  1  0.09818319  0.69872021  0.50090206  1
  Ta  Ta112  1  0.60732942  0.80295659  0.60193376  1
  Ta  Ta113  1  0.20523120  0.59992870  0.19754889  1
  Ta  Ta114  1  0.79416494  0.80354453  0.78865152  1
  Ta  Ta115  1  -0.00229903  0.60554172  0.39757534  1
  Ta  Ta116  1  0.30519393  0.68987905  0.70387474  1
  Ta  Ta117  1  0.29434971  0.89810011  0.09728689  1
  Ta  Ta118  1  0.20138878  0.41009312  -0.00351408  1
  Ta  Ta119  1  0.60587334  0.20646904  0.20100359  1
  Ta  Ta120  1  0.00019949  0.40502392  0.39173277  1
  Ta  Ta121  1  0.91566700  0.48663833  0.90620918  1
  Ta  Ta122  1  0.30148607  0.69586186  0.90026707  1
  Ta  Ta123  1  0.20251275  0.80103423  -0.00226392  1
  Ta  Ta124  1  0.69968369  0.10019072  0.29930322  1
  Ta  Ta125  1  0.09861404  0.49962756  0.10049830  1
  Ta  Ta126  1  0.70880063  0.49371717  0.50280515  1
  Ta  Ta127  1  0.60025249  0.80309744  0.79742470  1
  Ta  Ta128  1  0.80823274  0.38986467  0.19817992  1
  Ta  Ta129  1  0.20061262  0.19077068  0.59610946  1
  Ta  Ta130  1  0.09461327  0.89685620  0.90329891  1
  Ta  Ta131  1  0.39988430  0.59764284  0.59742569  1
  Ta  Ta132  1  0.20117324  -0.00299783  -0.00339245  1
  Ta  Ta133  1  0.50169294  0.69514001  0.69631808  1
  Ta  Ta134  1  -0.01499625  -0.00112599  0.80545338  1
  Ta  Ta135  1  0.69841604  0.69976285  0.69482287  1
  Ta  Ta136  1  0.70483062  0.70078507  0.29834855  1
  Ta  Ta137  1  0.80567315  0.39594430  0.01463617  1
  Ta  Ta138  1  0.39604827  -0.00339264  -0.00438379  1
  Ta  Ta139  1  0.90110993  0.90065606  0.30637828  1
  Ta  Ta140  1  0.29730882  0.09929874  0.09387766  1
  Ta  Ta141  1  0.29743726  0.30039480  0.30245796  1
  Ta  Ta142  1  0.89192413  0.09812247  0.29856197  1
  Ta  Ta143  1  0.90114784  0.49588697  0.29832638  1
  Ta  Ta144  1  0.39643513  0.19812873  0.20154833  1
  Ta  Ta145  1  0.79529805  0.20600847  0.20270392  1
  Ta  Ta146  1  0.79506166  0.19460678  0.58933305  1
  Ta  Ta147  1  0.79966875  0.00695766  0.20118549  1
  Ta  Ta148  1  0.69857528  0.10802220  0.10065095  1
  Ta  Ta149  1  0.89635251  0.70461482  0.69653317  1
  Ti  Ti150  1  0.30105420  0.11308424  0.91506034  1
  Ti  Ti151  1  0.60090005  0.39859537  0.59605357  1
  Ti  Ti152  1  0.90108655  0.89078394  0.89768477  1
  Ti  Ti153  1  0.50898254  0.29921594  0.70320214  1
  Ti  Ti154  1  0.39684363  0.79593181  0.40634327  1
  Ti  Ti155  1  -0.00925578  0.60674061  0.59410708  1
  Ti  Ti156  1  0.50252295  0.10018603  0.30221925  1
  Ti  Ti157  1  -0.00706405  -0.00103452  0.40260186  1
  Ti  Ti158  1  0.29576593  0.70452934  0.30127015  1
  Ti  Ti159  1  0.19873164  0.60045018  0.80624422  1
  Ti  Ti160  1  -0.00130456  0.80075525  0.79846498  1
  Ti  Ti161  1  -0.01490062  0.79335112  0.58920011  1
  Ti  Ti162  1  0.30191844  0.10228653  0.49916881  1
  Ti  Ti163  1  0.60604794  -0.01624837  0.58329197  1
  Ti  Ti164  1  0.89909025  0.89212704  0.69725371  1
  Ti  Ti165  1  0.20772312  0.59982587  0.00665385  1
  Ti  Ti166  1  0.09974138  0.89928665  0.09588073  1
  Ti  Ti167  1  0.50030411  0.89442249  0.09210447  1
  Ti  Ti168  1  -0.00985687  0.19237570  0.80268875  1
  Ti  Ti169  1  0.69510756  0.88778059  0.90339539  1
  Ti  Ti170  1  0.81276868  0.60441406  0.19733454  1
  Ti  Ti171  1  0.80239617  0.20500401  0.01066756  1
  Ti  Ti172  1  0.10575121  0.70480146  0.90266175  1
  Ti  Ti173  1  0.39445266  0.19540815  0.60021272  1
  Ti  Ti174  1  0.89434936  0.71218242  0.30294406  1
  Ti  Ti175  1  0.00049909  0.40083965  0.59830923  1
  Ti  Ti176  1  0.29772707  0.89472101  0.49390663  1
  Ti  Ti177  1  0.50008472  0.89957331  0.31070131  1
  Ti  Ti178  1  0.09810535  0.50153215  0.29754567  1
  Ti  Ti179  1  0.19636449  0.40604290  0.39966966  1
  Ti  Ti180  1  0.30145940  0.51223848  0.69979282  1
  Ti  Ti181  1  0.60719507  0.20742819  0.59200460  1
  Ti  Ti182  1  0.50748603  0.49777333  0.49307185  1
  Ti  Ti183  1  0.61037979  0.39506765  0.00706223  1
  Ti  Ti184  1  0.70590153  0.49939017  0.11122318  1
  Ti  Ti185  1  -0.00000164  0.79686154  0.00393151  1
  Ti  Ti186  1  0.80274367  0.19649093  0.80253577  1
  Ti  Ti187  1  0.89844164  0.10389827  0.10341099  1
  Ti  Ti188  1  0.50194992  0.49707666  0.90879029  1
  Ti  Ti189  1  0.89220135  0.10031308  0.70041712  1
  Ti  Ti190  1  0.60110426  0.59699244  0.59434813  1
  Ti  Ti191  1  0.39676077  0.20892679  0.80257369  1
  Ti  Ti192  1  0.20850353  0.41058860  0.59778378  1
  Ti  Ti193  1  0.69482777  0.09843234  0.49572182  1
  Ti  Ti194  1  0.29658448  0.89988930  0.90343409  1
  Ti  Ti195  1  0.50608039  0.30089852  0.90201053  1
  Ti  Ti196  1  0.70374740  0.70059542  0.50057671  1
  Ti  Ti197  1  0.80126640  0.60756145  0.59849370  1
  Ti  Ti198  1  0.39297706  0.39809466  -0.00546926  1
  Ti  Ti199  1  0.60188186  -0.01161009  0.80629341  1
  Mo  Mo200  1  0.50871387  0.50379607  0.68300283  1
  Mo  Mo201  1  0.29545544  0.50187408  0.09418993  1
  Mo  Mo202  1  0.09626145  0.09666857  0.50065153  1
  Mo  Mo203  1  0.69711465  0.89583137  0.70022056  1
  Mo  Mo204  1  0.40063916  0.60029935  0.00299257  1
  Mo  Mo205  1  0.80165366  0.79758621  0.20925074  1
  Mo  Mo206  1  0.89629345  0.30121660  0.10131983  1
  Mo  Mo207  1  0.79261731  0.39505009  0.59658133  1
  Mo  Mo208  1  0.20226537  0.79914852  0.19112187  1
  Mo  Mo209  1  0.00246061  0.40655597  0.00724151  1
  Mo  Mo210  1  0.00017764  0.40829850  0.20286112  1
  Mo  Mo211  1  -0.00680004  0.79275297  0.40033815  1
  Mo  Mo212  1  0.30727611  0.10546554  0.68878095  1
  Mo  Mo213  1  0.50394218  0.90131248  0.89939945  1
  Mo  Mo214  1  0.89735354  0.88179808  0.49268300  1
  Mo  Mo215  1  0.60342259  0.20650626  0.00273498  1
  Mo  Mo216  1  -0.01026231  -0.00049727  0.20344006  1
  Mo  Mo217  1  0.40415284  0.40310712  0.39661442  1
  Mo  Mo218  1  0.80247118  0.40217054  0.39361495  1
  Mo  Mo219  1  0.60225781  0.79973351  -0.00099424  1
  Mo  Mo220  1  0.89172702  0.11075156  0.49219407  1
  Mo  Mo221  1  0.01010835  0.40111181  0.80807304  1
  Mo  Mo222  1  0.29540888  0.49976313  0.50238654  1
  Mo  Mo223  1  0.59281966  0.39485532  0.80647844  1
  Mo  Mo224  1  0.60611842  0.59553156  0.20390472  1
  Mo  Mo225  1  0.90099848  0.69581029  0.50286070  1
  Mo  Mo226  1  -0.01114059  0.19429350  0.00508132  1
  Mo  Mo227  1  0.08960648  0.89995188  0.30435734  1
  Mo  Mo228  1  0.90044599  0.70232521  0.11177375  1
  Mo  Mo229  1  0.70075494  0.29977691  0.09854655  1
  Mo  Mo230  1  0.49807878  0.90158694  0.50010724  1
  Mo  Mo231  1  0.80209828  0.79696055  0.40473126  1
  Mo  Mo232  1  0.20313023  0.79528002  0.40931424  1
  Mo  Mo233  1  0.10694304  0.50199853  0.90876720  1
  Mo  Mo234  1  0.70445784  0.29980607  0.29525191  1
  Mo  Mo235  1  0.60009459  0.00418363  0.40110701  1
  Mo  Mo236  1  0.40413139  0.60187696  0.78930113  1
  Mo  Mo237  1  0.59476179  0.21143111  0.80040713  1
  Mo  Mo238  1  0.30325415  0.90214341  0.69688277  1
  Mo  Mo239  1  0.30760196  0.30147017  0.90217029  1
  Mo  Mo240  1  0.21071492  0.60225242  0.59831332  1
  Mo  Mo241  1  0.39916214  0.20081516  -0.00664811  1
  Mo  Mo242  1  0.90508014  0.49340450  0.10778373  1
  Mo  Mo243  1  0.89442486  0.10619008  0.89530371  1
  Mo  Mo244  1  0.89651023  0.30701446  0.30101889  1
  Mo  Mo245  1  0.30296993  0.69809716  0.50582324  1
  Mo  Mo246  1  0.29689572  0.70005069  0.09350177  1
  Mo  Mo247  1  0.70072847  0.30196939  0.50232392  1
  Mo  Mo248  1  0.70150687  0.89538879  0.50225161  1
  Mo  Mo249  1  0.19957385  0.19548147  -0.00067148  1
