# generated using pymatgen
data_HfZrTaTiMo
_symmetry_space_group_name_H-M   'P 1'
_cell_length_a   16.88881368
_cell_length_b   16.88977572
_cell_length_c   16.88273323
_cell_angle_alpha   90.06869720
_cell_angle_beta   90.08781206
_cell_angle_gamma   89.93379053
_symmetry_Int_Tables_number   1
_chemical_formula_structural   HfZrTaTiMo
_chemical_formula_sum   'Hf50 Zr50 Ta50 Ti50 Mo50'
_cell_volume   4815.75821402
_cell_formula_units_Z   50
loop_
 _symmetry_equiv_pos_site_id
 _symmetry_equiv_pos_as_xyz
  1  'x, y, z'
loop_
 _atom_site_type_symbol
 _atom_site_label
 _atom_site_symmetry_multiplicity
 _atom_site_fract_x
 _atom_site_fract_y
 _atom_site_fract_z
 _atom_site_occupancy
  Hf  Hf0  1  0.09865702  0.69349613  0.30314730  1
  Hf  Hf1  1  0.39885181  0.20567434  0.00503438  1
  Hf  Hf2  1  0.19682510  0.79466995  -0.00118376  1
  Hf  Hf3  1  0.29474336  0.68329083  0.69191473  1
  Hf  Hf4  1  0.49468530  0.10280948  0.50649229  1
  Hf  Hf5  1  0.50086561  0.89994545  0.29364486  1
  Hf  Hf6  1  0.19831147  0.59428573  0.19593962  1
  Hf  Hf7  1  0.89728564  0.49608872  0.71057397  1
  Hf  Hf8  1  0.50226165  0.10381464  0.29546122  1
  Hf  Hf9  1  0.68786770  0.89715605  0.11199617  1
  Hf  Hf10  1  0.49742459  0.50045045  0.50442517  1
  Hf  Hf11  1  0.70938237  0.70675292  0.48724682  1
  Hf  Hf12  1  -0.00088857  0.40249000  0.19163576  1
  Hf  Hf13  1  0.79954118  0.39450778  0.38996373  1
  Hf  Hf14  1  0.60214118  0.40157223  0.79949520  1
  Hf  Hf15  1  0.49691064  0.90276103  0.49797895  1
  Hf  Hf16  1  0.69932227  0.88662053  0.30141522  1
  Hf  Hf17  1  0.80290410  0.79713656  0.59783033  1
  Hf  Hf18  1  0.80080049  0.21180359  0.00805001  1
  Hf  Hf19  1  0.29486212  0.10039509  0.69246647  1
  Hf  Hf20  1  0.19661577  0.00042036  0.19696055  1
  Hf  Hf21  1  0.89905184  0.69797279  0.29986343  1
  Hf  Hf22  1  0.60923536  0.60304814  0.59796606  1
  Hf  Hf23  1  0.69413950  0.90186820  0.91015306  1
  Hf  Hf24  1  0.69550122  0.10476279  0.90862249  1
  Hf  Hf25  1  0.60023831  0.60190714  0.39302004  1
  Hf  Hf26  1  0.10312850  0.90446243  0.50191230  1
  Hf  Hf27  1  0.31076230  0.69049774  0.30244604  1
  Hf  Hf28  1  0.60310248  0.21149790  0.39520902  1
  Hf  Hf29  1  0.10344861  0.09528180  0.50251659  1
  Hf  Hf30  1  0.59507342  0.21550366  0.01204197  1
  Hf  Hf31  1  0.59554077  0.21133297  0.80013260  1
  Hf  Hf32  1  0.10100614  0.69005367  0.70858934  1
  Hf  Hf33  1  0.88823602  0.30588095  0.69680779  1
  Hf  Hf34  1  0.80484645  0.00304812  0.80828306  1
  Hf  Hf35  1  0.10470248  0.30338595  0.30516938  1
  Hf  Hf36  1  0.90578836  0.89667575  0.49359242  1
  Hf  Hf37  1  0.19806878  0.40347535  0.61466545  1
  Hf  Hf38  1  0.39252420  0.39603043  0.79684757  1
  Hf  Hf39  1  0.30479763  0.89608619  0.30273075  1
  Hf  Hf40  1  0.39218190  0.80507805  0.59649333  1
  Hf  Hf41  1  -0.00594019  0.41065060  -0.00441168  1
  Hf  Hf42  1  0.09748577  0.29435725  0.09431702  1
  Hf  Hf43  1  0.39546718  0.39970658  0.19010564  1
  Hf  Hf44  1  0.00328986  0.80343034  0.39273397  1
  Hf  Hf45  1  0.10333559  0.69404513  0.50630942  1
  Hf  Hf46  1  0.29747233  0.10445384  0.30375209  1
  Hf  Hf47  1  0.49504435  0.89757027  0.91452425  1
  Hf  Hf48  1  0.90956037  0.11110012  0.11294346  1
  Hf  Hf49  1  0.39783611  0.20448133  0.40733940  1
  Zr  Zr50  1  0.29939974  0.69228951  0.89691105  1
  Zr  Zr51  1  0.09917040  0.10731415  0.89879292  1
  Zr  Zr52  1  0.39788318  0.80206414  0.79376496  1
  Zr  Zr53  1  0.39830532  0.00768362  0.19403174  1
  Zr  Zr54  1  0.20146203  -0.00797067  0.79793048  1
  Zr  Zr55  1  0.10751160  0.49360460  0.49851002  1
  Zr  Zr56  1  0.60637047  0.59418111  0.20211654  1
  Zr  Zr57  1  0.60634857  0.39173240  0.19663332  1
  Zr  Zr58  1  0.89312316  0.50147772  0.28099808  1
  Zr  Zr59  1  0.49001085  0.10342125  0.69024320  1
  Zr  Zr60  1  0.80098985  0.79650634  0.80892500  1
  Zr  Zr61  1  0.90125833  0.11090499  0.70124280  1
  Zr  Zr62  1  0.28772557  0.31254552  0.49641694  1
  Zr  Zr63  1  0.80732278  -0.00605203  0.19971795  1
  Zr  Zr64  1  0.70992004  0.29938917  0.50973324  1
  Zr  Zr65  1  -0.00564774  0.40285889  0.40382250  1
  Zr  Zr66  1  -0.00162656  0.20736068  0.40962836  1
  Zr  Zr67  1  0.39756405  -0.01314956  0.78502390  1
  Zr  Zr68  1  0.60374932  0.00077528  0.39856013  1
  Zr  Zr69  1  0.90964227  0.69497328  0.70701880  1
  Zr  Zr70  1  0.69729980  0.89711454  0.69660963  1
  Zr  Zr71  1  0.09860435  0.10144796  0.70294852  1
  Zr  Zr72  1  0.70123606  0.10803336  0.69543141  1
  Zr  Zr73  1  0.61501484  0.59209128  0.80369782  1
  Zr  Zr74  1  0.49655655  0.50041372  0.69553237  1
  Zr  Zr75  1  0.29584777  0.30173705  0.29998684  1
  Zr  Zr76  1  0.19488427  0.79709875  0.20255880  1
  Zr  Zr77  1  0.09292555  0.89478583  0.89963605  1
  Zr  Zr78  1  0.70822948  0.10855934  0.49915496  1
  Zr  Zr79  1  0.30522748  0.89389583  0.09846031  1
  Zr  Zr80  1  0.80722597  0.00044505  0.00685928  1
  Zr  Zr81  1  0.48691827  0.50597226  0.29976262  1
  Zr  Zr82  1  0.09281917  0.09778930  0.30159099  1
  Zr  Zr83  1  0.01756727  0.40487948  0.79692736  1
  Zr  Zr84  1  0.59910421  0.78518210  0.00665111  1
  Zr  Zr85  1  0.81126079  0.80007092  0.00712268  1
  Zr  Zr86  1  0.59183946  -0.00265225  0.79668084  1
  Zr  Zr87  1  0.59489464  0.79492567  0.79746088  1
  Zr  Zr88  1  0.79929411  0.58720730  0.39771051  1
  Zr  Zr89  1  0.91564704  0.89526290  0.70732546  1
  Zr  Zr90  1  0.81030111  0.59382607  -0.00407723  1
  Zr  Zr91  1  0.80760753  -0.00328684  0.39353412  1
  Zr  Zr92  1  0.30058802  0.49894351  0.90410124  1
  Zr  Zr93  1  0.49473279  0.69171115  0.69611087  1
  Zr  Zr94  1  0.80271338  0.59433682  0.60108961  1
  Zr  Zr95  1  0.19803498  0.40841637  0.19329476  1
  Zr  Zr96  1  0.60438418  0.40156466  0.38957684  1
  Zr  Zr97  1  0.80427784  -0.00151334  0.59707678  1
  Zr  Zr98  1  0.49017592  0.10303758  0.90149652  1
  Zr  Zr99  1  0.89311196  0.31561384  0.89340704  1
  Ta  Ta100  1  0.30467361  0.69065577  0.09627714  1
  Ta  Ta101  1  0.29737052  0.50050182  0.30874544  1
  Ta  Ta102  1  0.49470967  0.68424717  0.90522778  1
  Ta  Ta103  1  0.70447449  0.10836940  0.29369474  1
  Ta  Ta104  1  0.59826701  0.21055730  0.60311711  1
  Ta  Ta105  1  0.20089965  0.79842959  0.79699204  1
  Ta  Ta106  1  0.00038686  0.00405432  0.59788460  1
  Ta  Ta107  1  0.58831510  0.78754670  0.39558069  1
  Ta  Ta108  1  0.30069296  0.89893735  0.90629484  1
  Ta  Ta109  1  0.60851483  0.59249844  0.00144017  1
  Ta  Ta110  1  0.79601917  0.21105503  0.19678835  1
  Ta  Ta111  1  0.71158260  0.49203676  0.09814299  1
  Ta  Ta112  1  0.00164564  0.58570689  0.60004794  1
  Ta  Ta113  1  0.81331008  0.80111173  0.19883960  1
  Ta  Ta114  1  0.49808263  0.30928926  0.50795246  1
  Ta  Ta115  1  0.91772704  0.69603970  0.89377926  1
  Ta  Ta116  1  0.19624954  0.59984406  0.00146151  1
  Ta  Ta117  1  0.50077919  0.49833803  0.90872411  1
  Ta  Ta118  1  0.70987484  0.69378119  0.10779121  1
  Ta  Ta119  1  0.09345943  0.90374881  0.09734782  1
  Ta  Ta120  1  0.20915222  0.79736994  0.40842011  1
  Ta  Ta121  1  0.39636476  0.40410193  0.40573228  1
  Ta  Ta122  1  0.38793944  0.40266819  0.60445759  1
  Ta  Ta123  1  0.39984467  0.79364346  0.40415072  1
  Ta  Ta124  1  0.78889670  0.21170071  0.80322328  1
  Ta  Ta125  1  0.19869028  0.19725673  0.19297225  1
  Ta  Ta126  1  0.00365432  0.20967996  0.59717225  1
  Ta  Ta127  1  0.19920129  0.00277935  0.00220859  1
  Ta  Ta128  1  0.70008886  0.31542229  0.90871847  1
  Ta  Ta129  1  0.69412969  0.10352540  0.11021319  1
  Ta  Ta130  1  0.29726805  0.10148201  0.89845387  1
  Ta  Ta131  1  0.09423080  0.10100058  0.10009186  1
  Ta  Ta132  1  0.50205861  0.89785553  0.10576712  1
  Ta  Ta133  1  0.90242463  0.10750373  0.30124085  1
  Ta  Ta134  1  0.40299616  0.79048191  0.00499190  1
  Ta  Ta135  1  0.59246645  0.00640860  0.01307102  1
  Ta  Ta136  1  0.49286826  0.30166496  0.69293042  1
  Ta  Ta137  1  -0.00084663  0.80292433  0.19663646  1
  Ta  Ta138  1  -0.00483104  0.20644704  -0.00098023  1
  Ta  Ta139  1  0.59592218  0.79644442  0.59267577  1
  Ta  Ta140  1  0.50132995  0.49619917  0.08915082  1
  Ta  Ta141  1  0.70330286  0.49124245  0.50442017  1
  Ta  Ta142  1  0.90893588  0.69489652  0.49579626  1
  Ta  Ta143  1  0.20404566  0.80238089  0.60064093  1
  Ta  Ta144  1  0.20306691  0.59981993  0.40274066  1
  Ta  Ta145  1  0.19750918  0.20559075  0.59912911  1
  Ta  Ta146  1  -0.00349952  0.00376170  0.00294361  1
  Ta  Ta147  1  0.90112292  0.29389467  0.28860067  1
  Ta  Ta148  1  0.28986538  0.29614501  0.89994331  1
  Ta  Ta149  1  0.00396452  0.59693559  0.19058849  1
  Ti  Ti150  1  0.39683964  0.59187526  0.18815393  1
  Ti  Ti151  1  -0.00047142  0.58822437  0.40081882  1
  Ti  Ti152  1  0.00241420  0.59901932  -0.00379206  1
  Ti  Ti153  1  0.39722171  0.00353132  0.00540215  1
  Ti  Ti154  1  0.09942976  0.89798516  0.69745490  1
  Ti  Ti155  1  0.70645665  0.69239150  0.90429334  1
  Ti  Ti156  1  -0.00000024  0.79628463  0.00462171  1
  Ti  Ti157  1  -0.00188555  0.20922607  0.80442968  1
  Ti  Ti158  1  0.10901445  0.29759603  0.89923270  1
  Ti  Ti159  1  0.59869960  -0.00491984  0.59905211  1
  Ti  Ti160  1  0.19697933  0.40681086  -0.00258073  1
  Ti  Ti161  1  -0.00366079  -0.01028364  0.20411969  1
  Ti  Ti162  1  0.10040386  0.90638201  0.30628330  1
  Ti  Ti163  1  0.60868497  0.39903774  0.60986854  1
  Ti  Ti164  1  0.39112518  0.20854603  0.79851882  1
  Ti  Ti165  1  0.49103431  0.30181684  0.29827347  1
  Ti  Ti166  1  0.60294860  0.21188491  0.19959946  1
  Ti  Ti167  1  0.00483187  0.79637426  0.60029621  1
  Ti  Ti168  1  -0.00238349  0.00304698  0.80497942  1
  Ti  Ti169  1  0.39704819  0.58921202  0.79882327  1
  Ti  Ti170  1  0.50454331  0.10261247  0.10844690  1
  Ti  Ti171  1  0.90427464  0.69379479  0.10279191  1
  Ti  Ti172  1  0.90988458  0.89394003  0.90202571  1
  Ti  Ti173  1  0.48686161  0.68968256  0.49833598  1
  Ti  Ti174  1  0.49579862  0.31003037  0.90509549  1
  Ti  Ti175  1  0.39716569  0.39693288  0.00518398  1
  Ti  Ti176  1  0.39067620  0.00188704  0.41006580  1
  Ti  Ti177  1  0.39824789  0.20842223  0.18982943  1
  Ti  Ti178  1  0.29040305  0.30120511  0.09248933  1
  Ti  Ti179  1  0.29479995  0.10382878  0.09599808  1
  Ti  Ti180  1  0.89159108  0.30066699  0.50801352  1
  Ti  Ti181  1  0.21032135  -0.00306892  0.40874048  1
  Ti  Ti182  1  0.71192853  0.70023350  0.29501025  1
  Ti  Ti183  1  0.00309257  0.39772915  0.60008747  1
  Ti  Ti184  1  0.10374427  0.51594453  0.89085226  1
  Ti  Ti185  1  0.49795926  0.68733141  0.09760699  1
  Ti  Ti186  1  0.89959762  0.10600474  0.49855665  1
  Ti  Ti187  1  0.90077195  0.11021517  0.90151834  1
  Ti  Ti188  1  0.20263943  0.40347477  0.79555531  1
  Ti  Ti189  1  0.09625724  0.69920169  0.09642086  1
  Ti  Ti190  1  0.30007711  0.51178263  0.50434949  1
  Ti  Ti191  1  0.70729970  0.69641849  0.70393359  1
  Ti  Ti192  1  0.19849910  0.19936499  0.40988768  1
  Ti  Ti193  1  0.69915772  0.89086641  0.49174192  1
  Ti  Ti194  1  0.10471104  0.29262851  0.70502185  1
  Ti  Ti195  1  0.19932844  0.19520125  -0.00130129  1
  Ti  Ti196  1  0.38786210  0.21074456  0.59684864  1
  Ti  Ti197  1  0.09872072  0.50412532  0.09168430  1
  Ti  Ti198  1  0.59169806  0.77982634  0.20582675  1
  Ti  Ti199  1  0.40816684  0.78810291  0.19769201  1
  Mo  Mo200  1  0.80316431  0.60225154  0.19176889  1
  Mo  Mo201  1  0.80589574  0.20449879  0.60327493  1
  Mo  Mo202  1  0.80179741  0.39590674  0.18909363  1
  Mo  Mo203  1  0.19723564  -0.00528859  0.60075917  1
  Mo  Mo204  1  0.70213144  0.30485114  0.09999397  1
  Mo  Mo205  1  0.40525858  0.59773975  0.00410750  1
  Mo  Mo206  1  0.10194014  0.50366293  0.69984207  1
  Mo  Mo207  1  0.90236271  0.49431544  0.50852667  1
  Mo  Mo208  1  0.70567972  0.49525719  0.69869585  1
  Mo  Mo209  1  0.91380122  0.89644563  0.09984951  1
  Mo  Mo210  1  -0.00112806  0.00305364  0.39932703  1
  Mo  Mo211  1  0.29864643  0.29588021  0.70422755  1
  Mo  Mo212  1  0.90375520  0.50303061  0.09238526  1
  Mo  Mo213  1  0.39512815  0.60047590  0.40818737  1
  Mo  Mo214  1  0.90735912  0.90012145  0.29684548  1
  Mo  Mo215  1  0.38534834  -0.00316778  0.58865591  1
  Mo  Mo216  1  0.29574754  0.50113928  0.70279893  1
  Mo  Mo217  1  0.70984276  0.29640276  0.29557661  1
  Mo  Mo218  1  0.28809498  0.89707143  0.69294606  1
  Mo  Mo219  1  0.39225300  0.59511389  0.59501473  1
  Mo  Mo220  1  0.89897916  0.30612272  0.09972712  1
  Mo  Mo221  1  0.20479391  0.20708440  0.80019195  1
  Mo  Mo222  1  0.90050582  0.50866960  0.89350156  1
  Mo  Mo223  1  0.60040188  0.01030476  0.19832955  1
  Mo  Mo224  1  0.29605257  0.09954874  0.50387422  1
  Mo  Mo225  1  0.29753780  0.69832536  0.49925725  1
  Mo  Mo226  1  0.19841590  0.59677628  0.59980677  1
  Mo  Mo227  1  0.69798942  0.30425064  0.70417644  1
  Mo  Mo228  1  0.49137229  0.70029203  0.29666289  1
  Mo  Mo229  1  0.70463030  0.49735057  0.29149267  1
  Mo  Mo230  1  0.80713112  0.20118095  0.39249306  1
  Mo  Mo231  1  0.78441363  0.40869171  0.80149668  1
  Mo  Mo232  1  0.59930319  0.40464978  -0.00066420  1
  Mo  Mo233  1  0.01023513  0.79701101  0.80505485  1
  Mo  Mo234  1  0.80318142  0.59805412  0.80740009  1
  Mo  Mo235  1  0.20195700  0.41187891  0.39785742  1
  Mo  Mo236  1  0.29797530  0.90179559  0.49755547  1
  Mo  Mo237  1  0.30062496  0.50147412  0.09239730  1
  Mo  Mo238  1  0.09982638  0.50658173  0.30114416  1
  Mo  Mo239  1  0.80549851  0.79640894  0.39459341  1
  Mo  Mo240  1  0.19742764  0.59437956  0.80154943  1
  Mo  Mo241  1  0.09781073  0.69731655  0.90152818  1
  Mo  Mo242  1  0.50298155  0.90005554  0.67834424  1
  Mo  Mo243  1  0.49581763  0.30288097  0.10129302  1
  Mo  Mo244  1  0.00200957  0.20612660  0.19858074  1
  Mo  Mo245  1  0.79975031  0.40548178  0.00030544  1
  Mo  Mo246  1  0.10016593  0.29885387  0.50729259  1
  Mo  Mo247  1  0.79900305  0.40339520  0.60181501  1
  Mo  Mo248  1  0.70363768  0.49594553  0.90496092  1
  Mo  Mo249  1  0.00314267  0.59659286  0.80480842  1
