# generated using pymatgen
data_HfZrTaTiMo
_symmetry_space_group_name_H-M   'P 1'
_cell_length_a   16.89336796
_cell_length_b   16.88015161
_cell_length_c   16.89038079
_cell_angle_alpha   90.06143599
_cell_angle_beta   89.96409078
_cell_angle_gamma   89.97896919
_symmetry_Int_Tables_number   1
_chemical_formula_structural   HfZrTaTiMo
_chemical_formula_sum   'Hf50 Zr50 Ta50 Ti50 Mo50'
_cell_volume   4816.50106705
_cell_formula_units_Z   50
loop_
 _symmetry_equiv_pos_site_id
 _symmetry_equiv_pos_as_xyz
  1  'x, y, z'
loop_
 _atom_site_type_symbol
 _atom_site_label
 _atom_site_symmetry_multiplicity
 _atom_site_fract_x
 _atom_site_fract_y
 _atom_site_fract_z
 _atom_site_occupancy
  Hf  Hf0  1  0.40089921  0.20095004  0.20512770  1
  Hf  Hf1  1  0.89656934  0.09986418  0.89861958  1
  Hf  Hf2  1  0.60191283  -0.00033028  0.81241260  1
  Hf  Hf3  1  0.59956062  0.19570218  0.80161864  1
  Hf  Hf4  1  0.80319035  0.40109045  0.00312541  1
  Hf  Hf5  1  0.20161292  0.39880764  0.40317093  1
  Hf  Hf6  1  0.20862462  0.79525084  0.00132618  1
  Hf  Hf7  1  0.70125642  0.51113930  0.90848567  1
  Hf  Hf8  1  0.30411852  0.89844141  0.69930067  1
  Hf  Hf9  1  -0.00560633  0.40165296  0.60509297  1
  Hf  Hf10  1  0.19616602  -0.00864866  0.39421260  1
  Hf  Hf11  1  0.40180607  0.80247647  0.58666006  1
  Hf  Hf12  1  0.89719352  0.69498358  0.09882405  1
  Hf  Hf13  1  0.78538112  0.20194139  0.79848713  1
  Hf  Hf14  1  0.19688112  0.19370181  0.80163080  1
  Hf  Hf15  1  0.49432700  0.09865380  0.91306281  1
  Hf  Hf16  1  0.50479146  0.89428715  0.29754268  1
  Hf  Hf17  1  -0.00306642  0.40215634  0.80150899  1
  Hf  Hf18  1  0.20239939  0.40164364  -0.00698844  1
  Hf  Hf19  1  0.60847863  0.59394281  0.39082769  1
  Hf  Hf20  1  0.30838038  0.70884185  0.71051927  1
  Hf  Hf21  1  0.09962085  0.30122275  0.29721870  1
  Hf  Hf22  1  0.10634133  0.30501561  0.10120347  1
  Hf  Hf23  1  0.79662802  0.59838040  0.60140953  1
  Hf  Hf24  1  0.80298171  0.80821244  0.19553710  1
  Hf  Hf25  1  0.69325308  0.29971788  0.50015544  1
  Hf  Hf26  1  0.80138950  0.40431105  0.60918430  1
  Hf  Hf27  1  0.59757287  0.20054522  0.19821645  1
  Hf  Hf28  1  0.50743092  0.70349991  0.90732773  1
  Hf  Hf29  1  0.19770677  0.79462267  0.38890890  1
  Hf  Hf30  1  0.09332328  0.09748030  0.29552671  1
  Hf  Hf31  1  0.69091498  0.09383169  0.68612091  1
  Hf  Hf32  1  0.31605280  0.49295147  0.71164334  1
  Hf  Hf33  1  0.90551797  0.50495523  0.49333896  1
  Hf  Hf34  1  0.79633893  0.59964051  0.39539742  1
  Hf  Hf35  1  0.49678065  0.30103201  0.09459917  1
  Hf  Hf36  1  0.09880903  0.49887911  0.10534485  1
  Hf  Hf37  1  0.89947799  0.29338947  0.89656423  1
  Hf  Hf38  1  0.20444324  0.39502920  0.80942552  1
  Hf  Hf39  1  0.69410371  0.89767396  0.49553165  1
  Hf  Hf40  1  0.79870944  0.79778420  0.39565488  1
  Hf  Hf41  1  0.68838356  0.90830753  0.29605674  1
  Hf  Hf42  1  0.30672765  0.29446930  0.69839762  1
  Hf  Hf43  1  0.40959949  0.38671308  0.39568122  1
  Hf  Hf44  1  0.70106217  0.10066185  0.29373304  1
  Hf  Hf45  1  0.90097883  0.71005859  0.70017397  1
  Hf  Hf46  1  0.51246606  0.48604580  0.70820875  1
  Hf  Hf47  1  0.08889105  0.69948848  0.90305765  1
  Hf  Hf48  1  0.60672248  0.59902857  0.60073180  1
  Hf  Hf49  1  0.19692253  0.61485107  0.21069687  1
  Zr  Zr50  1  0.70095525  0.30354323  0.10096515  1
  Zr  Zr51  1  0.80000091  0.40976880  0.79339799  1
  Zr  Zr52  1  0.19622341  0.80309658  0.59682212  1
  Zr  Zr53  1  0.50575998  0.70198173  0.47749972  1
  Zr  Zr54  1  0.79742771  0.20383464  0.60173590  1
  Zr  Zr55  1  0.29809369  0.09709974  0.30352905  1
  Zr  Zr56  1  0.50602098  0.89833189  0.69321000  1
  Zr  Zr57  1  0.80997316  -0.00425547  0.39773778  1
  Zr  Zr58  1  0.70980331  0.71623684  0.69670900  1
  Zr  Zr59  1  0.39350206  0.60549255  0.00016365  1
  Zr  Zr60  1  0.89911835  0.89343913  0.69611962  1
  Zr  Zr61  1  0.10767890  0.09555099  0.10120377  1
  Zr  Zr62  1  0.61031874  0.81243391  0.81389931  1
  Zr  Zr63  1  0.90203390  0.50560324  0.09546084  1
  Zr  Zr64  1  0.29524638  0.50011914  0.11390723  1
  Zr  Zr65  1  -0.00266946  0.00043279  0.00101281  1
  Zr  Zr66  1  0.79545385  0.40750595  0.39619252  1
  Zr  Zr67  1  0.50325615  0.89718172  0.10432058  1
  Zr  Zr68  1  0.89630099  0.10662033  0.30343123  1
  Zr  Zr69  1  0.10385622  0.49950717  0.70831045  1
  Zr  Zr70  1  0.09030813  0.29219602  0.49996300  1
  Zr  Zr71  1  -0.01182154  0.80959481  0.00261386  1
  Zr  Zr72  1  0.30241733  0.50737650  0.30567291  1
  Zr  Zr73  1  0.20888972  0.80277626  0.20932027  1
  Zr  Zr74  1  0.09144253  0.70138778  0.10195740  1
  Zr  Zr75  1  0.40634736  0.39499719  0.58734411  1
  Zr  Zr76  1  0.00789798  0.00056167  0.60381938  1
  Zr  Zr77  1  0.90311656  0.10262833  0.69964277  1
  Zr  Zr78  1  0.50655289  0.89978813  0.48187929  1
  Zr  Zr79  1  0.39207616  0.40605641  -0.00405451  1
  Zr  Zr80  1  0.20927518  0.60322630  0.81340950  1
  Zr  Zr81  1  0.09506627  0.71279755  0.70552801  1
  Zr  Zr82  1  0.38944454  -0.00487344  0.20011502  1
  Zr  Zr83  1  0.69309247  0.10173383  0.48958811  1
  Zr  Zr84  1  0.19557218  -0.00020223  0.79947452  1
  Zr  Zr85  1  0.59914306  0.40745753  0.20630739  1
  Zr  Zr86  1  0.00031712  0.59836227  0.60376135  1
  Zr  Zr87  1  0.89027855  0.09510605  0.10641907  1
  Zr  Zr88  1  0.40776028  0.59726048  0.59784197  1
  Zr  Zr89  1  0.60178386  0.59781856  0.19666932  1
  Zr  Zr90  1  0.49688188  0.30099315  0.89696232  1
  Zr  Zr91  1  0.20363266  0.39906417  0.59546465  1
  Zr  Zr92  1  0.20186953  0.59848834  0.59600862  1
  Zr  Zr93  1  0.78816483  -0.00546267  0.80319566  1
  Zr  Zr94  1  -0.00668785  0.20929328  0.19201315  1
  Zr  Zr95  1  0.50049657  0.70646272  0.70806218  1
  Zr  Zr96  1  0.40676692  -0.00562716  0.80760802  1
  Zr  Zr97  1  0.30597230  0.09802697  0.69362076  1
  Zr  Zr98  1  0.50304560  0.50064448  0.89520915  1
  Zr  Zr99  1  0.30298302  0.69098380  0.48474892  1
  Ta  Ta100  1  0.50250997  0.09324510  0.30146513  1
  Ta  Ta101  1  0.09644003  0.28997660  0.69901806  1
  Ta  Ta102  1  0.89591424  0.29805153  0.30614235  1
  Ta  Ta103  1  0.90121164  0.29303539  0.49313848  1
  Ta  Ta104  1  0.70256769  0.29590589  0.30391932  1
  Ta  Ta105  1  0.78960458  -0.00460908  0.00862568  1
  Ta  Ta106  1  0.20763084  0.19589928  0.19724974  1
  Ta  Ta107  1  0.40203045  0.00182957  0.58782169  1
  Ta  Ta108  1  0.29770895  0.10161570  0.91300543  1
  Ta  Ta109  1  0.60254408  0.40950363  0.00576976  1
  Ta  Ta110  1  0.60879019  -0.00087713  0.00490621  1
  Ta  Ta111  1  0.20478068  0.60391220  0.00002662  1
  Ta  Ta112  1  0.29547568  0.29862655  0.10357330  1
  Ta  Ta113  1  0.09317779  0.50539886  0.90968679  1
  Ta  Ta114  1  0.30393216  0.28178593  0.49429832  1
  Ta  Ta115  1  0.69328694  0.30517622  0.90266961  1
  Ta  Ta116  1  0.49888378  0.30178624  0.70126388  1
  Ta  Ta117  1  0.80555881  -0.00252710  0.59008329  1
  Ta  Ta118  1  0.29891302  0.90418160  0.49312779  1
  Ta  Ta119  1  0.90253624  0.70602927  0.49904745  1
  Ta  Ta120  1  0.80069349  0.80198528  0.81906519  1
  Ta  Ta121  1  0.29710801  0.09760135  0.49763602  1
  Ta  Ta122  1  0.79484413  0.80605782  0.00036337  1
  Ta  Ta123  1  -0.00429882  0.59754144  0.21111504  1
  Ta  Ta124  1  0.09578011  0.89569830  0.49914686  1
  Ta  Ta125  1  0.58585425  0.20856270  0.39415173  1
  Ta  Ta126  1  0.90229322  0.69730238  0.30159735  1
  Ta  Ta127  1  0.80216144  0.40441579  0.20370675  1
  Ta  Ta128  1  0.01208260  -0.00131980  0.80049686  1
  Ta  Ta129  1  -0.00079188  -0.00572604  0.40058870  1
  Ta  Ta130  1  0.79431634  0.19647635  0.00125852  1
  Ta  Ta131  1  -0.00235821  0.20456929  0.00074189  1
  Ta  Ta132  1  0.70309169  0.69212557  0.09136928  1
  Ta  Ta133  1  0.40206354  0.39744511  0.20390338  1
  Ta  Ta134  1  0.09776775  0.49705722  0.29881810  1
  Ta  Ta135  1  0.60979041  0.80293593  0.00446428  1
  Ta  Ta136  1  0.19532797  0.19159200  0.59791700  1
  Ta  Ta137  1  0.90738686  0.89075617  0.50124662  1
  Ta  Ta138  1  0.09688293  0.09927834  0.49620438  1
  Ta  Ta139  1  -0.00365582  0.40252026  0.39395268  1
  Ta  Ta140  1  -0.00249508  0.39559528  -0.00123727  1
  Ta  Ta141  1  0.59442712  0.39700623  0.39612242  1
  Ta  Ta142  1  0.10306050  0.90416922  0.10592249  1
  Ta  Ta143  1  0.08592592  0.70189335  0.49153510  1
  Ta  Ta144  1  0.19744283  0.19607142  0.39932284  1
  Ta  Ta145  1  0.60784592  0.19242336  0.00167022  1
  Ta  Ta146  1  0.79559595  0.59115373  0.20501770  1
  Ta  Ta147  1  0.10488500  0.90164194  0.90659016  1
  Ta  Ta148  1  0.61414113  0.60428505  0.79938503  1
  Ta  Ta149  1  0.50218979  0.09446483  0.10207655  1
  Ti  Ti150  1  0.40592170  0.19582817  0.59117538  1
  Ti  Ti151  1  0.91055301  0.28815793  0.69896665  1
  Ti  Ti152  1  0.79961176  0.20888616  0.19393660  1
  Ti  Ti153  1  0.40094507  0.60496447  0.81028678  1
  Ti  Ti154  1  -0.01317624  0.40123402  0.20305020  1
  Ti  Ti155  1  0.89536322  0.69271676  0.90692252  1
  Ti  Ti156  1  0.09636242  0.50518363  0.49074166  1
  Ti  Ti157  1  -0.00890521  0.59614384  0.80022220  1
  Ti  Ti158  1  0.89710242  0.90821425  0.90161245  1
  Ti  Ti159  1  0.39196244  0.79720075  0.38044041  1
  Ti  Ti160  1  0.31289334  0.70279709  0.11038233  1
  Ti  Ti161  1  0.20937164  -0.00211428  0.00663337  1
  Ti  Ti162  1  0.49233697  0.10428900  0.48763678  1
  Ti  Ti163  1  0.69856954  0.70328656  0.29298576  1
  Ti  Ti164  1  0.39731767  -0.00303194  0.39830955  1
  Ti  Ti165  1  0.49714067  0.50713852  0.09913476  1
  Ti  Ti166  1  0.29654521  0.29798429  0.29950603  1
  Ti  Ti167  1  0.50598457  0.49703495  0.49545041  1
  Ti  Ti168  1  0.58583329  0.20559847  0.59529744  1
  Ti  Ti169  1  0.20070082  0.80565139  0.80882912  1
  Ti  Ti170  1  0.69219749  0.49124164  0.50515492  1
  Ti  Ti171  1  0.29891746  0.89788200  0.10501622  1
  Ti  Ti172  1  0.01143923  0.18884511  0.79898283  1
  Ti  Ti173  1  0.60390393  0.79316859  0.19429907  1
  Ti  Ti174  1  -0.00528823  0.80359892  0.20415675  1
  Ti  Ti175  1  0.60586537  0.79100809  0.58751639  1
  Ti  Ti176  1  0.30726253  0.50483543  0.49022971  1
  Ti  Ti177  1  0.19636100  -0.00125396  0.59937068  1
  Ti  Ti178  1  0.18816291  0.60677554  0.39225175  1
  Ti  Ti179  1  -0.00062054  0.80267174  0.39029462  1
  Ti  Ti180  1  0.49789619  0.09979602  0.69556883  1
  Ti  Ti181  1  -0.01535127  -0.01491306  0.20285135  1
  Ti  Ti182  1  0.30448641  0.89840100  0.90297207  1
  Ti  Ti183  1  0.00035410  0.81483896  0.80685707  1
  Ti  Ti184  1  0.90792224  0.11214186  0.49553633  1
  Ti  Ti185  1  0.49989240  0.70103622  0.10244782  1
  Ti  Ti186  1  0.39095786  0.19288256  0.01263576  1
  Ti  Ti187  1  0.39617221  -0.00391781  0.00631962  1
  Ti  Ti188  1  0.40158430  0.80428230  -0.00081291  1
  Ti  Ti189  1  0.58980564  0.00355786  0.58905814  1
  Ti  Ti190  1  0.70326811  0.89994908  0.68457956  1
  Ti  Ti191  1  0.09696978  0.29365294  0.90282162  1
  Ti  Ti192  1  0.40094142  0.19402395  0.80107755  1
  Ti  Ti193  1  0.30375742  0.28762554  0.90414193  1
  Ti  Ti194  1  0.67675924  0.31773063  0.69984952  1
  Ti  Ti195  1  0.49233979  0.50687814  0.29888252  1
  Ti  Ti196  1  0.90229787  0.51072779  0.90536614  1
  Ti  Ti197  1  0.10538903  0.10081957  0.91239968  1
  Ti  Ti198  1  0.79937760  0.60421103  0.79942383  1
  Ti  Ti199  1  0.09521058  0.90209063  0.29228237  1
  Mo  Mo200  1  0.69960573  0.50425495  0.70679913  1
  Mo  Mo201  1  0.31972518  0.69486724  0.29572578  1
  Mo  Mo202  1  0.89891976  0.30209527  0.09799323  1
  Mo  Mo203  1  0.39972966  0.38698611  0.80213231  1
  Mo  Mo204  1  0.30064211  0.10011155  0.09587227  1
  Mo  Mo205  1  0.89761488  0.51106532  0.70846415  1
  Mo  Mo206  1  -0.00063961  0.59573196  -0.00257906  1
  Mo  Mo207  1  0.50049435  0.90025093  0.91846598  1
  Mo  Mo208  1  0.69992151  0.49341369  0.29825560  1
  Mo  Mo209  1  0.40777247  0.60425103  0.20063847  1
  Mo  Mo210  1  0.49978624  0.29296701  0.50066260  1
  Mo  Mo211  1  0.69909125  0.10209827  0.90863977  1
  Mo  Mo212  1  0.59948567  0.00759958  0.19544725  1
  Mo  Mo213  1  0.30650702  0.70982880  0.90401164  1
  Mo  Mo214  1  0.49912073  0.29829449  0.29853628  1
  Mo  Mo215  1  0.30438834  0.89725514  0.30194351  1
  Mo  Mo216  1  0.90657287  0.89468277  0.30189403  1
  Mo  Mo217  1  0.59406886  0.01369047  0.39713587  1
  Mo  Mo218  1  0.70364654  0.50416860  0.10001705  1
  Mo  Mo219  1  0.70639445  0.70064760  0.90516094  1
  Mo  Mo220  1  0.79920912  0.20614486  0.40011742  1
  Mo  Mo221  1  0.89691243  0.90057685  0.10480297  1
  Mo  Mo222  1  0.40188273  0.79496106  0.19770232  1
  Mo  Mo223  1  0.19765708  -0.00502494  0.19705679  1
  Mo  Mo224  1  0.10183940  0.10128674  0.69376722  1
  Mo  Mo225  1  0.29703609  0.50652528  0.90041529  1
  Mo  Mo226  1  0.59976836  0.40020692  0.59502601  1
  Mo  Mo227  1  0.80170017  0.80225717  0.58679403  1
  Mo  Mo228  1  0.00192486  0.80014054  0.59268353  1
  Mo  Mo229  1  0.08108735  0.70052646  0.30328649  1
  Mo  Mo230  1  0.70203408  0.90174516  0.91293544  1
  Mo  Mo231  1  0.00073326  0.59984638  0.39594818  1
  Mo  Mo232  1  0.90203263  0.49752015  0.29668366  1
  Mo  Mo233  1  0.60099179  0.60411725  0.00479801  1
  Mo  Mo234  1  0.41263863  0.59369056  0.39416236  1
  Mo  Mo235  1  0.10344389  0.90198847  0.70743525  1
  Mo  Mo236  1  0.50152641  0.70216230  0.28929937  1
  Mo  Mo237  1  0.20725397  0.39255746  0.20736864  1
  Mo  Mo238  1  0.20138875  0.20242636  -0.00168977  1
  Mo  Mo239  1  0.80184431  0.60689769  -0.00091252  1
  Mo  Mo240  1  0.00103431  0.19909647  0.59837021  1
  Mo  Mo241  1  0.70271789  0.70143462  0.49561373  1
  Mo  Mo242  1  0.79771133  -0.00796612  0.19512240  1
  Mo  Mo243  1  0.69867790  0.09763722  0.10346756  1
  Mo  Mo244  1  0.60297363  0.40022414  0.80629011  1
  Mo  Mo245  1  0.60869069  0.78612055  0.38644401  1
  Mo  Mo246  1  -0.00096047  0.19879652  0.40070694  1
  Mo  Mo247  1  0.39743370  0.19546363  0.39928907  1
  Mo  Mo248  1  0.69908909  0.89850642  0.10459877  1
  Mo  Mo249  1  0.39888713  0.80380429  0.81974962  1
