# generated using pymatgen
data_HfZrTaTiMo
_symmetry_space_group_name_H-M   'P 1'
_cell_length_a   16.88444341
_cell_length_b   16.88725654
_cell_length_c   16.89594760
_cell_angle_alpha   90.08852860
_cell_angle_beta   90.06547492
_cell_angle_gamma   90.02330404
_symmetry_Int_Tables_number   1
_chemical_formula_structural   HfZrTaTiMo
_chemical_formula_sum   'Hf50 Zr50 Ta50 Ti50 Mo50'
_cell_volume   4817.56480527
_cell_formula_units_Z   50
loop_
 _symmetry_equiv_pos_site_id
 _symmetry_equiv_pos_as_xyz
  1  'x, y, z'
loop_
 _atom_site_type_symbol
 _atom_site_label
 _atom_site_symmetry_multiplicity
 _atom_site_fract_x
 _atom_site_fract_y
 _atom_site_fract_z
 _atom_site_occupancy
  Hf  Hf0  1  0.40120948  0.00064220  0.39706929  1
  Hf  Hf1  1  0.49559871  0.30370071  0.29691214  1
  Hf  Hf2  1  0.40066103  0.20008734  0.40491143  1
  Hf  Hf3  1  0.39699861  -0.00431934  0.78630390  1
  Hf  Hf4  1  0.40099672  0.59867292  0.40384673  1
  Hf  Hf5  1  0.09415283  0.09382056  0.10590616  1
  Hf  Hf6  1  -0.00130171  0.58673371  0.59467696  1
  Hf  Hf7  1  -0.00577600  0.00194651  0.80983943  1
  Hf  Hf8  1  0.29722077  0.69606470  0.70299937  1
  Hf  Hf9  1  0.01030650  0.40256651  0.01042126  1
  Hf  Hf10  1  0.19956135  0.21045764  0.39779317  1
  Hf  Hf11  1  0.49401996  0.09636437  0.90522220  1
  Hf  Hf12  1  0.19845627  0.79287433  0.58636615  1
  Hf  Hf13  1  0.29737412  0.88508965  0.10068438  1
  Hf  Hf14  1  0.38827619  0.00924670  0.01335966  1
  Hf  Hf15  1  0.09861851  0.10239661  0.69736744  1
  Hf  Hf16  1  0.90038102  0.09457518  0.29900796  1
  Hf  Hf17  1  0.61498769  0.79950838  0.18748147  1
  Hf  Hf18  1  0.00483038  0.78396085  0.58261474  1
  Hf  Hf19  1  0.89555061  0.29417253  0.09633049  1
  Hf  Hf20  1  0.19809858  0.40779098  0.40266388  1
  Hf  Hf21  1  0.40489743  0.80710181  0.79603390  1
  Hf  Hf22  1  0.39725359  0.80713206  0.60277753  1
  Hf  Hf23  1  0.71023704  0.29599527  0.90501440  1
  Hf  Hf24  1  0.89919481  0.70765928  0.70356420  1
  Hf  Hf25  1  0.30338381  0.89175421  0.90897871  1
  Hf  Hf26  1  0.50445547  0.69990890  0.29520348  1
  Hf  Hf27  1  0.89350047  0.51533866  0.30708308  1
  Hf  Hf28  1  0.19508699  0.40071002  0.59676468  1
  Hf  Hf29  1  0.71086419  0.11582045  0.50140731  1
  Hf  Hf30  1  0.09609342  0.30038368  0.70418991  1
  Hf  Hf31  1  0.70600693  0.69374598  0.29632895  1
  Hf  Hf32  1  0.50524062  0.89322005  0.30318726  1
  Hf  Hf33  1  0.40206316  0.60517427  0.80468673  1
  Hf  Hf34  1  0.60067281  0.38811693  0.79004264  1
  Hf  Hf35  1  0.00548635  0.81055290  0.81837408  1
  Hf  Hf36  1  0.90063853  0.29757585  0.90308520  1
  Hf  Hf37  1  0.10111861  0.90163589  0.30428151  1
  Hf  Hf38  1  0.09432442  0.90202580  0.68596569  1
  Hf  Hf39  1  0.59794146  0.59539755  0.40486364  1
  Hf  Hf40  1  0.39888053  0.60414159  0.59542724  1
  Hf  Hf41  1  0.60435711  0.18994983  0.00028910  1
  Hf  Hf42  1  -0.00786428  0.20434052  0.39735336  1
  Hf  Hf43  1  0.40059782  0.19195350  0.77462334  1
  Hf  Hf44  1  0.59996169  0.80693797  0.80183486  1
  Hf  Hf45  1  0.50420514  0.90689173  0.10287253  1
  Hf  Hf46  1  0.11129681  0.30238762  0.89700221  1
  Hf  Hf47  1  0.80403328  0.00076436  0.39837601  1
  Hf  Hf48  1  0.10064513  0.09431026  0.49245937  1
  Hf  Hf49  1  0.29786665  0.49170092  0.90257709  1
  Zr  Zr50  1  0.70910322  0.29166714  0.09870003  1
  Zr  Zr51  1  0.80238950  0.39647252  0.20410082  1
  Zr  Zr52  1  0.18844935  0.40762569  0.19236707  1
  Zr  Zr53  1  0.19500175  0.00057591  0.00022850  1
  Zr  Zr54  1  0.40586599  0.38863422  0.59964613  1
  Zr  Zr55  1  0.60639170  0.60562626  0.59896854  1
  Zr  Zr56  1  0.59978417  -0.00513195  0.79943019  1
  Zr  Zr57  1  0.70489795  0.09262290  0.10679498  1
  Zr  Zr58  1  -0.00104823  0.59831781  -0.00429318  1
  Zr  Zr59  1  0.60252628  0.61492989  0.00288992  1
  Zr  Zr60  1  0.80041128  0.59790957  0.60093107  1
  Zr  Zr61  1  0.60146632  0.40121248  0.00805427  1
  Zr  Zr62  1  0.30681471  0.70200700  0.29808812  1
  Zr  Zr63  1  0.19830593  0.59061178  0.59090276  1
  Zr  Zr64  1  0.70235779  0.10362618  0.69390663  1
  Zr  Zr65  1  0.89481712  0.09467576  0.10103358  1
  Zr  Zr66  1  0.50238088  0.50284392  0.70128653  1
  Zr  Zr67  1  0.80727125  0.59619703  0.80246990  1
  Zr  Zr68  1  0.09701916  0.69998860  0.10411225  1
  Zr  Zr69  1  0.69728477  0.50131950  0.89711737  1
  Zr  Zr70  1  0.69727023  0.89418413  0.49456495  1
  Zr  Zr71  1  0.89968968  0.89819325  0.69855818  1
  Zr  Zr72  1  0.09576541  0.09110696  0.30153378  1
  Zr  Zr73  1  0.89184161  0.29931711  0.49995075  1
  Zr  Zr74  1  0.59781453  0.19769135  0.79380573  1
  Zr  Zr75  1  0.30051518  0.29953878  0.89717579  1
  Zr  Zr76  1  0.29871361  0.89808826  0.48535472  1
  Zr  Zr77  1  0.29990203  0.30780206  0.08972666  1
  Zr  Zr78  1  0.80394326  0.00102463  0.59900381  1
  Zr  Zr79  1  0.00511727  0.19464007  -0.00033602  1
  Zr  Zr80  1  0.90964022  0.89799739  0.49361316  1
  Zr  Zr81  1  0.59883095  0.39821902  0.20119760  1
  Zr  Zr82  1  0.59121479  0.20133131  0.40535491  1
  Zr  Zr83  1  0.19339001  0.20757932  0.20071156  1
  Zr  Zr84  1  0.70046530  0.50471141  0.30125294  1
  Zr  Zr85  1  0.48826876  0.29421213  0.90656587  1
  Zr  Zr86  1  0.49683684  0.50312133  0.90404466  1
  Zr  Zr87  1  0.60887287  0.80638699  -0.00215925  1
  Zr  Zr88  1  0.08722904  0.52016226  0.31136414  1
  Zr  Zr89  1  -0.00584030  0.59145808  0.80480720  1
  Zr  Zr90  1  0.80524791  0.19606588  0.79588568  1
  Zr  Zr91  1  0.80481099  0.60655803  -0.00218464  1
  Zr  Zr92  1  0.09917355  0.69329532  0.70439551  1
  Zr  Zr93  1  0.40187669  0.00787418  0.60252561  1
  Zr  Zr94  1  0.38814956  0.19239204  0.19918517  1
  Zr  Zr95  1  0.90723025  0.51194473  0.11718024  1
  Zr  Zr96  1  0.59943152  0.00714944  0.40407107  1
  Zr  Zr97  1  0.20044992  0.59861685  0.20133414  1
  Zr  Zr98  1  0.19991622  0.80681887  0.80059908  1
  Zr  Zr99  1  0.20593693  -0.00049293  0.79560110  1
  Ta  Ta100  1  0.20202172  0.19497880  0.00562465  1
  Ta  Ta101  1  0.39253311  -0.00288472  0.20395893  1
  Ta  Ta102  1  0.80469736  0.79587489  0.39231327  1
  Ta  Ta103  1  0.29646531  0.49455584  0.70745994  1
  Ta  Ta104  1  0.49672065  0.51338724  0.10650505  1
  Ta  Ta105  1  0.10536852  0.69734650  0.90584975  1
  Ta  Ta106  1  0.60265590  0.80330926  0.60337097  1
  Ta  Ta107  1  0.09284856  0.30252379  0.50377773  1
  Ta  Ta108  1  0.59136680  0.00309825  0.59957017  1
  Ta  Ta109  1  0.90054143  0.70759202  0.10444405  1
  Ta  Ta110  1  0.50403005  0.70514912  0.69706660  1
  Ta  Ta111  1  -0.00494952  0.80006851  0.20467764  1
  Ta  Ta112  1  0.20633634  -0.00745994  0.19961356  1
  Ta  Ta113  1  -0.00162786  0.21444586  0.20424216  1
  Ta  Ta114  1  0.57881205  0.20362283  0.59943784  1
  Ta  Ta115  1  0.00217740  0.78750760  0.39131341  1
  Ta  Ta116  1  0.50189613  0.09462825  0.29112761  1
  Ta  Ta117  1  0.70317337  0.29311016  0.31290130  1
  Ta  Ta118  1  0.50358422  0.09686827  0.10609404  1
  Ta  Ta119  1  0.29959485  0.69865131  0.91298004  1
  Ta  Ta120  1  0.70175672  0.10071251  0.29596726  1
  Ta  Ta121  1  0.50081475  0.71467396  0.49364381  1
  Ta  Ta122  1  0.48772003  0.69905043  0.10344243  1
  Ta  Ta123  1  0.19964336  0.79122209  0.39485368  1
  Ta  Ta124  1  0.60050734  0.19877027  0.20306774  1
  Ta  Ta125  1  0.69939018  0.49922319  0.70162084  1
  Ta  Ta126  1  0.70104186  0.51666410  0.11011962  1
  Ta  Ta127  1  0.50309745  0.89370395  0.49597826  1
  Ta  Ta128  1  0.10376787  0.67419816  0.47260776  1
  Ta  Ta129  1  0.60417773  0.39085279  0.59871289  1
  Ta  Ta130  1  0.29173156  0.09055854  0.30610345  1
  Ta  Ta131  1  0.79603650  0.39805546  0.60795997  1
  Ta  Ta132  1  -0.00363136  0.19801822  0.59671145  1
  Ta  Ta133  1  0.80426133  0.80573402  0.19817673  1
  Ta  Ta134  1  0.19803223  0.59309074  0.00429559  1
  Ta  Ta135  1  0.29508229  0.10180056  0.49753263  1
  Ta  Ta136  1  0.09268526  0.89413917  0.10113652  1
  Ta  Ta137  1  0.60196226  0.61640786  0.80281352  1
  Ta  Ta138  1  0.80437909  0.40008627  0.79363656  1
  Ta  Ta139  1  0.10871667  0.49234385  0.89926338  1
  Ta  Ta140  1  0.20065012  0.20110586  0.59760292  1
  Ta  Ta141  1  0.10223260  0.10241474  0.89784370  1
  Ta  Ta142  1  0.59704144  0.39851512  0.40820660  1
  Ta  Ta143  1  0.80747067  0.41638106  -0.00072521  1
  Ta  Ta144  1  0.79556598  0.79383364  0.59490680  1
  Ta  Ta145  1  0.30624351  0.69891523  0.09505029  1
  Ta  Ta146  1  0.70235391  0.29753490  0.50413681  1
  Ta  Ta147  1  0.71125084  0.71183563  0.89830285  1
  Ta  Ta148  1  0.20567324  -0.00055075  0.59760470  1
  Ta  Ta149  1  0.49407986  0.29069480  0.10002410  1
  Ti  Ti150  1  0.90356766  0.89749381  0.30210703  1
  Ti  Ti151  1  -0.00702210  -0.01323222  0.19552708  1
  Ti  Ti152  1  0.39879626  0.80499171  0.20282594  1
  Ti  Ti153  1  0.90129762  0.10238614  0.69365328  1
  Ti  Ti154  1  0.70346499  0.90020279  0.69807965  1
  Ti  Ti155  1  0.50272849  0.49534547  0.50409655  1
  Ti  Ti156  1  0.40509634  0.40181114  0.40277753  1
  Ti  Ti157  1  0.10370064  0.49240583  0.70945606  1
  Ti  Ti158  1  -0.00742665  0.40407652  0.80056588  1
  Ti  Ti159  1  0.90023969  0.71731364  0.90796310  1
  Ti  Ti160  1  0.49047607  0.70750066  0.90994104  1
  Ti  Ti161  1  0.49830640  0.50471082  0.29072736  1
  Ti  Ti162  1  0.70441154  0.70602465  0.70680264  1
  Ti  Ti163  1  0.09960088  0.90484369  0.48844061  1
  Ti  Ti164  1  0.29459489  0.30048074  0.69679814  1
  Ti  Ti165  1  -0.00404324  0.40547522  0.40555393  1
  Ti  Ti166  1  0.69611594  0.90011207  0.30046259  1
  Ti  Ti167  1  0.19649118  0.79906248  0.20659344  1
  Ti  Ti168  1  0.79738552  -0.01763964  0.19787677  1
  Ti  Ti169  1  0.80271419  -0.00725879  -0.00800100  1
  Ti  Ti170  1  -0.00506682  0.40485822  0.60194945  1
  Ti  Ti171  1  0.89171213  0.49879464  0.49614095  1
  Ti  Ti172  1  0.90163266  0.29893732  0.69636361  1
  Ti  Ti173  1  0.30604422  0.50753994  0.09573959  1
  Ti  Ti174  1  0.39983365  0.40626066  0.19478872  1
  Ti  Ti175  1  0.80262332  0.81493950  0.00846479  1
  Ti  Ti176  1  0.30282567  0.49799138  0.49871521  1
  Ti  Ti177  1  -0.00373551  0.00791089  0.58985901  1
  Ti  Ti178  1  0.70470892  0.49431407  0.50112729  1
  Ti  Ti179  1  0.30155004  0.10890837  0.90255779  1
  Ti  Ti180  1  0.79671664  0.39649473  0.40066424  1
  Ti  Ti181  1  0.20638900  0.19484655  0.79412908  1
  Ti  Ti182  1  0.30083642  0.29913361  0.50163596  1
  Ti  Ti183  1  0.00208941  0.39750834  0.20147849  1
  Ti  Ti184  1  0.09144439  0.31052717  0.30497888  1
  Ti  Ti185  1  0.30746576  0.49980578  0.29838806  1
  Ti  Ti186  1  0.61479302  -0.00378165  -0.00297332  1
  Ti  Ti187  1  0.40549661  0.40560752  0.00750748  1
  Ti  Ti188  1  0.89250901  0.69235205  0.48782015  1
  Ti  Ti189  1  0.79957940  0.81549400  0.80910680  1
  Ti  Ti190  1  0.18857564  0.79742458  -0.00030184  1
  Ti  Ti191  1  0.69911924  0.70515708  0.49072938  1
  Ti  Ti192  1  0.49406166  0.90421489  0.91186929  1
  Ti  Ti193  1  -0.00445149  0.19400193  0.80060845  1
  Ti  Ti194  1  0.80575778  0.20615269  0.21789547  1
  Ti  Ti195  1  0.80214535  0.00080059  0.81267468  1
  Ti  Ti196  1  0.40247246  0.39358952  0.79164404  1
  Ti  Ti197  1  0.20016837  0.59629502  0.80760600  1
  Ti  Ti198  1  0.30315100  0.31261375  0.29932014  1
  Ti  Ti199  1  -0.00612595  -0.01316086  -0.00763488  1
  Mo  Mo200  1  0.89623596  0.90065909  0.90818184  1
  Mo  Mo201  1  0.09919790  0.29889912  0.10236133  1
  Mo  Mo202  1  0.20157689  -0.00564137  0.39988474  1
  Mo  Mo203  1  0.40527701  0.79921171  0.00339603  1
  Mo  Mo204  1  0.60265859  0.00095040  0.20376957  1
  Mo  Mo205  1  0.29136095  0.89860221  0.69287234  1
  Mo  Mo206  1  0.49897229  0.30460272  0.49704738  1
  Mo  Mo207  1  0.21787475  0.59545474  0.39965970  1
  Mo  Mo208  1  0.90105357  0.89884266  0.10099294  1
  Mo  Mo209  1  0.39086096  0.20051020  0.59290069  1
  Mo  Mo210  1  0.70862319  0.90224934  0.90126821  1
  Mo  Mo211  1  0.50959621  0.89858142  0.69133628  1
  Mo  Mo212  1  -0.01758195  0.60313381  0.40492842  1
  Mo  Mo213  1  0.29177064  0.10472016  0.68885700  1
  Mo  Mo214  1  0.29346111  0.09803057  0.10926459  1
  Mo  Mo215  1  0.60667567  0.79664033  0.40009538  1
  Mo  Mo216  1  -0.00397992  0.61734164  0.20931579  1
  Mo  Mo217  1  0.09955643  0.50216359  0.10167695  1
  Mo  Mo218  1  0.39393752  0.60269642  0.00235440  1
  Mo  Mo219  1  0.71293946  0.70495965  0.09794496  1
  Mo  Mo220  1  0.70800812  0.90439153  0.09891790  1
  Mo  Mo221  1  0.49267307  0.10125472  0.50154224  1
  Mo  Mo222  1  0.39828814  0.19111173  0.00838925  1
  Mo  Mo223  1  0.19990872  0.40483350  0.00192907  1
  Mo  Mo224  1  0.89836278  0.70317043  0.29837394  1
  Mo  Mo225  1  0.70146173  0.30176477  0.69218738  1
  Mo  Mo226  1  0.80263529  0.17724054  -0.01391426  1
  Mo  Mo227  1  0.39905334  0.59522238  0.19945804  1
  Mo  Mo228  1  0.90190197  0.09530744  0.90209930  1
  Mo  Mo229  1  -0.00163908  0.80218955  0.00435951  1
  Mo  Mo230  1  0.90035091  0.30878430  0.30213098  1
  Mo  Mo231  1  0.49867538  0.29762090  0.69367522  1
  Mo  Mo232  1  0.90646779  0.48513001  0.89628584  1
  Mo  Mo233  1  0.08868737  0.49274848  0.49691815  1
  Mo  Mo234  1  -0.00119129  -0.00664939  0.39839419  1
  Mo  Mo235  1  0.89964102  0.48706504  0.69715740  1
  Mo  Mo236  1  0.79975663  0.19959768  0.39564931  1
  Mo  Mo237  1  0.90490505  0.10223866  0.49914152  1
  Mo  Mo238  1  0.40327174  0.79953007  0.39935563  1
  Mo  Mo239  1  0.20060718  0.40136379  0.79226657  1
  Mo  Mo240  1  0.81075656  0.20674965  0.60198861  1
  Mo  Mo241  1  0.29978058  0.69760227  0.49254518  1
  Mo  Mo242  1  0.70769301  0.09285636  0.90276190  1
  Mo  Mo243  1  0.29789315  0.89564913  0.29465158  1
  Mo  Mo244  1  0.49973156  0.09820656  0.69496644  1
  Mo  Mo245  1  0.80039248  0.61411759  0.19594972  1
  Mo  Mo246  1  0.59775747  0.60487969  0.19532510  1
  Mo  Mo247  1  0.79394560  0.60189021  0.40996283  1
  Mo  Mo248  1  0.09852909  0.70338891  0.30027122  1
  Mo  Mo249  1  0.09897012  0.90243454  0.91327894  1
