# generated using pymatgen
data_HfZrTaTiMo
_symmetry_space_group_name_H-M   'P 1'
_cell_length_a   16.89431873
_cell_length_b   16.87439651
_cell_length_c   16.88417837
_cell_angle_alpha   90.06427509
_cell_angle_beta   90.01652587
_cell_angle_gamma   89.94460305
_symmetry_Int_Tables_number   1
_chemical_formula_structural   HfZrTaTiMo
_chemical_formula_sum   'Hf50 Zr50 Ta50 Ti50 Mo50'
_cell_volume   4813.36028947
_cell_formula_units_Z   50
loop_
 _symmetry_equiv_pos_site_id
 _symmetry_equiv_pos_as_xyz
  1  'x, y, z'
loop_
 _atom_site_type_symbol
 _atom_site_label
 _atom_site_symmetry_multiplicity
 _atom_site_fract_x
 _atom_site_fract_y
 _atom_site_fract_z
 _atom_site_occupancy
  Hf  Hf0  1  0.90332077  0.29880340  0.90583830  1
  Hf  Hf1  1  0.19707728  0.39805400  0.79342301  1
  Hf  Hf2  1  0.38685134  0.40344564  0.60719778  1
  Hf  Hf3  1  0.90812234  0.10068475  0.51138841  1
  Hf  Hf4  1  0.19668079  0.79024407  0.19368373  1
  Hf  Hf5  1  0.58519553  0.00647910  -0.00324376  1
  Hf  Hf6  1  0.90627780  0.69018428  0.29468933  1
  Hf  Hf7  1  0.79755265  0.79661348  0.40431567  1
  Hf  Hf8  1  0.10199818  0.69761050  0.49274983  1
  Hf  Hf9  1  0.38632572  0.20496626  0.60088854  1
  Hf  Hf10  1  0.79758876  0.20779107  0.80551612  1
  Hf  Hf11  1  0.90240782  0.31083973  0.29684980  1
  Hf  Hf12  1  0.70302258  0.69199284  0.88670886  1
  Hf  Hf13  1  0.00642074  0.40144245  0.79940386  1
  Hf  Hf14  1  0.40183204  0.00607000  0.18796824  1
  Hf  Hf15  1  0.70037255  0.69903162  0.09509492  1
  Hf  Hf16  1  0.39570442  0.00168566  0.81221149  1
  Hf  Hf17  1  0.09807196  0.69739342  0.69701526  1
  Hf  Hf18  1  0.69910715  0.89186039  0.70003919  1
  Hf  Hf19  1  0.49003137  0.10543873  0.70328671  1
  Hf  Hf20  1  0.37876717  0.61508583  0.40152852  1
  Hf  Hf21  1  0.11027092  0.08955716  0.29957288  1
  Hf  Hf22  1  0.59873500  0.80027824  0.40325448  1
  Hf  Hf23  1  0.59595554  0.40521861  0.60245072  1
  Hf  Hf24  1  0.21148480  0.00001286  -0.00619007  1
  Hf  Hf25  1  0.39771193  0.19923789  0.39462441  1
  Hf  Hf26  1  0.58131871  0.80050789  0.79522661  1
  Hf  Hf27  1  0.09746453  0.91120451  0.89161146  1
  Hf  Hf28  1  -0.00352190  0.00074159  0.40060163  1
  Hf  Hf29  1  0.20531502  0.20355306  0.40944007  1
  Hf  Hf30  1  0.89744614  0.89683613  0.29990236  1
  Hf  Hf31  1  0.10049139  0.10472005  0.70225226  1
  Hf  Hf32  1  0.30276832  0.89370699  0.29645230  1
  Hf  Hf33  1  0.39242230  0.59981417  0.60491214  1
  Hf  Hf34  1  0.71709121  0.50468650  0.29171326  1
  Hf  Hf35  1  0.20514638  0.18798394  -0.00464975  1
  Hf  Hf36  1  0.89042802  0.10998041  0.09574570  1
  Hf  Hf37  1  0.20250635  0.59656388  0.79902380  1
  Hf  Hf38  1  0.29977983  0.70226273  0.90909461  1
  Hf  Hf39  1  0.69823741  0.10747412  0.09511006  1
  Hf  Hf40  1  0.59077010  0.20319923  0.38111185  1
  Hf  Hf41  1  0.21014219  0.59751570  0.59569855  1
  Hf  Hf42  1  0.49887465  0.69230023  0.90241217  1
  Hf  Hf43  1  0.49620936  0.09637384  0.50531381  1
  Hf  Hf44  1  0.90685040  0.90290933  0.70699646  1
  Hf  Hf45  1  0.00292208  0.40358786  0.60377344  1
  Hf  Hf46  1  0.69578968  0.51293509  0.71866691  1
  Hf  Hf47  1  0.39783754  0.80789287  0.80514219  1
  Hf  Hf48  1  0.69709255  0.89669449  0.28724701  1
  Hf  Hf49  1  0.50243577  0.49370237  0.09793444  1
  Zr  Zr50  1  0.69082970  0.69846723  0.51243812  1
  Zr  Zr51  1  0.69063878  0.30822776  0.71466018  1
  Zr  Zr52  1  0.20730253  0.00102150  0.60147242  1
  Zr  Zr53  1  0.81351947  0.19415957  0.39023399  1
  Zr  Zr54  1  0.20549639  0.19538715  0.20127583  1
  Zr  Zr55  1  0.59720926  -0.00039825  0.39665564  1
  Zr  Zr56  1  0.70084824  0.50520173  0.50174404  1
  Zr  Zr57  1  0.80666564  0.40474694  0.60713857  1
  Zr  Zr58  1  0.81297096  0.59811662  0.60440853  1
  Zr  Zr59  1  0.79720776  0.00687921  0.80423133  1
  Zr  Zr60  1  0.10360791  0.50471763  0.10435764  1
  Zr  Zr61  1  0.20490808  -0.01258504  0.41171353  1
  Zr  Zr62  1  0.91517748  0.09988578  0.70164731  1
  Zr  Zr63  1  0.80176335  0.20641620  0.60468373  1
  Zr  Zr64  1  0.00295092  0.79366315  0.80480670  1
  Zr  Zr65  1  0.60258910  0.39133951  0.20023714  1
  Zr  Zr66  1  0.40147859  0.40125516  0.80378515  1
  Zr  Zr67  1  0.70495459  0.30114535  0.49441011  1
  Zr  Zr68  1  0.68931477  0.10294957  0.70337952  1
  Zr  Zr69  1  0.89177352  0.30844393  0.10391237  1
  Zr  Zr70  1  -0.00252184  0.19522832  0.20774138  1
  Zr  Zr71  1  0.20277153  0.80579062  0.80330903  1
  Zr  Zr72  1  0.70907567  0.09780109  0.28881106  1
  Zr  Zr73  1  0.49528716  0.70507792  0.29320713  1
  Zr  Zr74  1  -0.00501374  -0.00303942  0.19862347  1
  Zr  Zr75  1  0.49252261  0.30658952  0.49942946  1
  Zr  Zr76  1  0.29207287  0.49125662  0.91038587  1
  Zr  Zr77  1  0.50244769  0.70036606  0.10014147  1
  Zr  Zr78  1  0.59852322  0.39770994  0.39090310  1
  Zr  Zr79  1  0.00632636  0.79958476  0.00546308  1
  Zr  Zr80  1  0.39893056  0.59148209  0.00417800  1
  Zr  Zr81  1  0.00151131  0.00614327  -0.00011585  1
  Zr  Zr82  1  0.09672199  0.50340105  0.48915228  1
  Zr  Zr83  1  0.00675251  0.41084497  -0.00677596  1
  Zr  Zr84  1  0.69896734  0.09998976  0.50041382  1
  Zr  Zr85  1  0.49638947  0.89187518  0.29149145  1
  Zr  Zr86  1  0.29832134  0.30404694  0.09248803  1
  Zr  Zr87  1  0.70373820  0.89246546  0.90146954  1
  Zr  Zr88  1  0.59737647  0.60247997  0.39836116  1
  Zr  Zr89  1  0.40833521  0.19631970  0.20028849  1
  Zr  Zr90  1  0.10407318  0.30554952  0.10172822  1
  Zr  Zr91  1  0.80188267  0.59337440  -0.00531690  1
  Zr  Zr92  1  0.58504258  -0.00531188  0.80825891  1
  Zr  Zr93  1  0.49084315  0.50476363  0.29976665  1
  Zr  Zr94  1  0.10472951  0.88747207  0.30314180  1
  Zr  Zr95  1  0.80853836  0.79582782  0.60421406  1
  Zr  Zr96  1  0.09423320  0.10444398  0.51169814  1
  Zr  Zr97  1  0.80528472  0.79783842  0.18996604  1
  Zr  Zr98  1  0.29447575  0.31059509  0.29864330  1
  Zr  Zr99  1  0.69002968  0.69539087  0.70377160  1
  Ta  Ta100  1  0.10815704  0.09406667  0.10288987  1
  Ta  Ta101  1  0.69592693  0.90247246  0.09663859  1
  Ta  Ta102  1  0.59645343  0.20088450  0.19557454  1
  Ta  Ta103  1  0.09930167  0.68730420  0.30315478  1
  Ta  Ta104  1  0.50395468  0.29572835  0.09149775  1
  Ta  Ta105  1  0.40241155  -0.00168583  0.39880611  1
  Ta  Ta106  1  0.90897523  0.68893876  0.09804798  1
  Ta  Ta107  1  0.49327502  0.89599745  0.50530581  1
  Ta  Ta108  1  0.49869404  0.29862644  0.70910045  1
  Ta  Ta109  1  0.50290142  0.50474758  0.70524148  1
  Ta  Ta110  1  0.00472170  0.20251479  0.39744040  1
  Ta  Ta111  1  0.19754085  0.80060163  0.00312627  1
  Ta  Ta112  1  0.90131268  0.10684824  0.90253338  1
  Ta  Ta113  1  0.30231746  0.90618808  0.69666309  1
  Ta  Ta114  1  0.40033510  0.00087646  -0.00421597  1
  Ta  Ta115  1  0.89999623  0.50428539  0.10992069  1
  Ta  Ta116  1  0.60552090  0.58288095  -0.00803974  1
  Ta  Ta117  1  0.60617064  0.59713085  0.19288348  1
  Ta  Ta118  1  0.91229981  0.30687065  0.49441838  1
  Ta  Ta119  1  0.49405634  0.70610136  0.50934323  1
  Ta  Ta120  1  0.89781214  0.90302683  0.89935611  1
  Ta  Ta121  1  0.29974864  0.08739468  0.29983218  1
  Ta  Ta122  1  0.89320070  0.90005165  0.09055342  1
  Ta  Ta123  1  0.40383469  0.18720150  -0.00277221  1
  Ta  Ta124  1  0.30388930  0.89501036  0.09476513  1
  Ta  Ta125  1  0.30165278  0.29072733  0.89867298  1
  Ta  Ta126  1  0.11071887  0.29600583  0.89825309  1
  Ta  Ta127  1  0.79947989  -0.00432689  0.59833049  1
  Ta  Ta128  1  0.59037532  0.00625492  0.19131164  1
  Ta  Ta129  1  0.70077678  0.69829041  0.28866259  1
  Ta  Ta130  1  0.68851849  0.11566715  0.90276480  1
  Ta  Ta131  1  0.59370150  0.20512124  0.60306926  1
  Ta  Ta132  1  0.29224210  0.49101287  0.10536595  1
  Ta  Ta133  1  0.10092820  0.50400909  0.69644040  1
  Ta  Ta134  1  0.40696969  0.39200425  -0.00316420  1
  Ta  Ta135  1  0.91207877  0.69492247  0.49467373  1
  Ta  Ta136  1  0.20352266  0.39655557  0.60150055  1
  Ta  Ta137  1  0.49919348  0.89088728  0.09756855  1
  Ta  Ta138  1  0.59728110  -0.00452549  0.60118378  1
  Ta  Ta139  1  0.00215585  0.79666439  0.60000011  1
  Ta  Ta140  1  0.20313988  0.21203671  0.60354712  1
  Ta  Ta141  1  0.09814754  0.90926626  0.69928136  1
  Ta  Ta142  1  0.90695384  0.50140476  0.48438432  1
  Ta  Ta143  1  0.90388788  0.89751915  0.50378760  1
  Ta  Ta144  1  0.49359642  0.50789977  0.50256582  1
  Ta  Ta145  1  0.09950981  0.30687976  0.49705318  1
  Ta  Ta146  1  0.40022502  0.39955445  0.19797055  1
  Ta  Ta147  1  0.39708953  0.59695108  0.79608364  1
  Ta  Ta148  1  0.70661406  0.49362956  0.10092586  1
  Ta  Ta149  1  0.20164484  0.80378606  0.59929038  1
  Ti  Ti150  1  0.39596301  0.40253677  0.39621838  1
  Ti  Ti151  1  0.21134240  0.00990671  0.80130968  1
  Ti  Ti152  1  0.80413722  0.00108502  0.19414954  1
  Ti  Ti153  1  0.09468894  0.89373228  0.50554467  1
  Ti  Ti154  1  0.19783838  0.41027229  0.39220005  1
  Ti  Ti155  1  0.59707654  0.80135744  -0.00338713  1
  Ti  Ti156  1  0.80517618  0.79757211  -0.00362153  1
  Ti  Ti157  1  0.21973383  0.78107693  0.40126211  1
  Ti  Ti158  1  0.00876603  0.41136203  0.20867983  1
  Ti  Ti159  1  0.79177833  0.40173544  -0.00402924  1
  Ti  Ti160  1  0.39618170  0.79511139  0.60506484  1
  Ti  Ti161  1  0.90255468  0.50479139  0.90087274  1
  Ti  Ti162  1  0.90089642  0.69744990  0.89916039  1
  Ti  Ti163  1  0.71647769  0.29917695  0.28470165  1
  Ti  Ti164  1  0.78482860  0.21512283  -0.00275583  1
  Ti  Ti165  1  0.10665818  0.90741590  0.10394794  1
  Ti  Ti166  1  0.80361371  0.60472467  0.40085167  1
  Ti  Ti167  1  0.09431058  0.68663169  0.10363895  1
  Ti  Ti168  1  0.38789315  0.59659582  0.20112605  1
  Ti  Ti169  1  0.60674698  0.39450510  -0.00633481  1
  Ti  Ti170  1  0.79575370  0.00402699  -0.00526034  1
  Ti  Ti171  1  0.00328157  0.79751215  0.19390362  1
  Ti  Ti172  1  0.19269040  0.59596056  -0.00023952  1
  Ti  Ti173  1  0.48910393  0.90337649  0.68487632  1
  Ti  Ti174  1  0.29612375  0.49440842  0.48986258  1
  Ti  Ti175  1  0.29336514  0.69220797  0.09685406  1
  Ti  Ti176  1  0.31409961  0.89182783  0.50330250  1
  Ti  Ti177  1  0.30504121  0.09465716  0.50279087  1
  Ti  Ti178  1  0.38908337  0.79004579  0.19132089  1
  Ti  Ti179  1  0.00739757  0.59324256  0.81077538  1
  Ti  Ti180  1  0.00911745  0.19909799  0.00103279  1
  Ti  Ti181  1  0.79933607  0.40538493  0.81321510  1
  Ti  Ti182  1  0.50473609  0.28880190  0.89847322  1
  Ti  Ti183  1  0.09853772  0.69097322  0.90969087  1
  Ti  Ti184  1  0.09719992  0.10355701  0.89062611  1
  Ti  Ti185  1  0.69735800  0.89870679  0.50861749  1
  Ti  Ti186  1  0.29921633  0.70635103  0.70132749  1
  Ti  Ti187  1  0.29800084  0.28988645  0.71363373  1
  Ti  Ti188  1  0.90350190  0.50607348  0.71279557  1
  Ti  Ti189  1  0.80295664  -0.00200246  0.40420397  1
  Ti  Ti190  1  0.90640641  0.30031848  0.70179083  1
  Ti  Ti191  1  0.09963344  0.31069208  0.30522919  1
  Ti  Ti192  1  0.90604793  0.50379233  0.29718915  1
  Ti  Ti193  1  -0.00273634  0.59862515  0.60003025  1
  Ti  Ti194  1  0.90181049  0.69481299  0.71210342  1
  Ti  Ti195  1  0.59557209  0.40734852  0.81735702  1
  Ti  Ti196  1  -0.00049776  0.79706354  0.40095551  1
  Ti  Ti197  1  0.00734220  0.20881849  0.80030883  1
  Ti  Ti198  1  0.80524126  0.40318131  0.39793993  1
  Ti  Ti199  1  0.20545360  0.59517919  0.21471561  1
  Mo  Mo200  1  0.50233765  0.10310548  0.09466922  1
  Mo  Mo201  1  0.49039898  0.69721377  0.69969437  1
  Mo  Mo202  1  0.29953005  0.71075321  0.50776418  1
  Mo  Mo203  1  0.80418767  0.40419631  0.19677606  1
  Mo  Mo204  1  0.69972362  0.49495341  0.90029921  1
  Mo  Mo205  1  0.89988724  0.09581405  0.30042798  1
  Mo  Mo206  1  0.00195297  0.40000416  0.39338754  1
  Mo  Mo207  1  0.39222480  0.79974808  0.00532204  1
  Mo  Mo208  1  0.59662260  0.20701037  -0.00136746  1
  Mo  Mo209  1  -0.00018111  0.59821972  0.39342442  1
  Mo  Mo210  1  0.29518866  0.70054126  0.29174858  1
  Mo  Mo211  1  0.79511897  0.20633379  0.19384655  1
  Mo  Mo212  1  0.39832701  -0.00166284  0.59879119  1
  Mo  Mo213  1  0.48953211  0.88570027  0.91914117  1
  Mo  Mo214  1  0.58622707  0.80453344  0.60172287  1
  Mo  Mo215  1  0.59406832  0.20595114  0.80310115  1
  Mo  Mo216  1  0.00205336  0.59893595  0.20040674  1
  Mo  Mo217  1  0.29045480  0.31259231  0.49503396  1
  Mo  Mo218  1  0.10000720  0.50200965  0.89813546  1
  Mo  Mo219  1  0.69794268  0.30640153  0.90399234  1
  Mo  Mo220  1  0.49091576  0.30161991  0.29153100  1
  Mo  Mo221  1  0.20263371  0.39382011  -0.00412483  1
  Mo  Mo222  1  0.69673058  0.30238511  0.09550871  1
  Mo  Mo223  1  0.58116801  0.60189441  0.60701010  1
  Mo  Mo224  1  0.00207354  -0.01664293  0.59981443  1
  Mo  Mo225  1  0.39723859  0.20070484  0.80406651  1
  Mo  Mo226  1  0.49912381  0.11485123  0.89788548  1
  Mo  Mo227  1  0.39758111  0.80187194  0.40817799  1
  Mo  Mo228  1  0.49757451  0.09776805  0.29729372  1
  Mo  Mo229  1  0.00051727  0.00916423  0.80466685  1
  Mo  Mo230  1  0.20290849  0.19734765  0.79927440  1
  Mo  Mo231  1  0.50231123  0.49494709  0.90145870  1
  Mo  Mo232  1  0.81238900  0.79236437  0.80717331  1
  Mo  Mo233  1  0.81901168  0.59697444  0.80347678  1
  Mo  Mo234  1  0.20068146  0.40586025  0.20583471  1
  Mo  Mo235  1  0.00059696  0.60217889  -0.00176939  1
  Mo  Mo236  1  0.20816960  -0.00557331  0.19024111  1
  Mo  Mo237  1  0.20149525  0.59965665  0.39525943  1
  Mo  Mo238  1  0.80271938  0.59821517  0.19551578  1
  Mo  Mo239  1  0.60592996  0.80093231  0.18973448  1
  Mo  Mo240  1  0.58321533  0.59700696  0.80589190  1
  Mo  Mo241  1  0.29843621  0.49839125  0.70172197  1
  Mo  Mo242  1  0.29747935  0.50138825  0.29752962  1
  Mo  Mo243  1  0.30264425  0.09213532  0.09820012  1
  Mo  Mo244  1  0.10287338  0.29936074  0.69783090  1
  Mo  Mo245  1  0.30392580  0.10255851  0.89567619  1
  Mo  Mo246  1  0.10351010  0.50098384  0.29904416  1
  Mo  Mo247  1  0.29667376  0.10279631  0.70345034  1
  Mo  Mo248  1  0.29596116  0.90041955  0.90299760  1
  Mo  Mo249  1  0.00627554  0.22234340  0.60066996  1
