# generated using pymatgen
data_HfZrTaTiMo
_symmetry_space_group_name_H-M   'P 1'
_cell_length_a   16.89544115
_cell_length_b   16.87930406
_cell_length_c   16.88484791
_cell_angle_alpha   89.98924920
_cell_angle_beta   89.93273290
_cell_angle_gamma   89.99055388
_symmetry_Int_Tables_number   1
_chemical_formula_structural   HfZrTaTiMo
_chemical_formula_sum   'Hf50 Zr50 Ta50 Ti50 Mo50'
_cell_volume   4815.27298458
_cell_formula_units_Z   50
loop_
 _symmetry_equiv_pos_site_id
 _symmetry_equiv_pos_as_xyz
  1  'x, y, z'
loop_
 _atom_site_type_symbol
 _atom_site_label
 _atom_site_symmetry_multiplicity
 _atom_site_fract_x
 _atom_site_fract_y
 _atom_site_fract_z
 _atom_site_occupancy
  Hf  Hf0  1  0.19469755  0.40359353  0.79972323  1
  Hf  Hf1  1  0.00670678  -0.00820781  -0.00111555  1
  Hf  Hf2  1  0.60403730  0.79008494  0.20092692  1
  Hf  Hf3  1  0.72126795  0.89830817  0.49802716  1
  Hf  Hf4  1  0.19839981  -0.00261668  0.60486680  1
  Hf  Hf5  1  0.49706951  0.89437538  0.69182678  1
  Hf  Hf6  1  0.50134434  0.49390408  0.50755986  1
  Hf  Hf7  1  0.90731882  0.50405824  0.70565557  1
  Hf  Hf8  1  0.59788770  0.40904102  0.18970957  1
  Hf  Hf9  1  0.60213722  0.79157527  0.80076764  1
  Hf  Hf10  1  0.10424476  0.11230879  0.51235016  1
  Hf  Hf11  1  0.71614279  0.89457257  0.29823669  1
  Hf  Hf12  1  0.89472899  0.88728799  0.90602872  1
  Hf  Hf13  1  0.89923423  0.70791037  0.49781631  1
  Hf  Hf14  1  0.80251341  0.19587508  0.80919494  1
  Hf  Hf15  1  -0.01052298  0.00078318  0.41803616  1
  Hf  Hf16  1  0.70625758  0.89158202  0.09444342  1
  Hf  Hf17  1  0.90445810  0.10568760  0.09626130  1
  Hf  Hf18  1  0.09124006  0.29620273  0.09498239  1
  Hf  Hf19  1  0.40594924  0.80696468  0.20200163  1
  Hf  Hf20  1  0.88660688  0.70289560  0.09309666  1
  Hf  Hf21  1  0.00325194  -0.00061941  0.19969277  1
  Hf  Hf22  1  0.79807526  0.39862023  0.19552162  1
  Hf  Hf23  1  0.40366238  0.19995170  0.60302371  1
  Hf  Hf24  1  0.10092604  0.10339552  0.90074186  1
  Hf  Hf25  1  0.60501720  0.19609834  0.59893681  1
  Hf  Hf26  1  0.29799279  0.29591850  0.51087897  1
  Hf  Hf27  1  0.60392203  -0.00263815  0.19687144  1
  Hf  Hf28  1  0.09065702  0.30460693  0.29996033  1
  Hf  Hf29  1  0.39901511  0.60339824  0.79629615  1
  Hf  Hf30  1  0.69923563  0.70964283  0.50751648  1
  Hf  Hf31  1  -0.00815774  0.00207114  0.61072731  1
  Hf  Hf32  1  0.09340229  0.51149953  0.50570776  1
  Hf  Hf33  1  0.19867189  0.40387001  0.60399803  1
  Hf  Hf34  1  0.89122169  0.09828852  0.30470300  1
  Hf  Hf35  1  0.49508491  0.69610187  0.09250033  1
  Hf  Hf36  1  0.50967767  0.29863723  0.30414886  1
  Hf  Hf37  1  0.69738114  0.09835383  0.70514316  1
  Hf  Hf38  1  0.70230315  0.89729277  0.69508857  1
  Hf  Hf39  1  0.09614457  0.70264607  0.49827653  1
  Hf  Hf40  1  0.89338507  0.70921843  0.29675150  1
  Hf  Hf41  1  0.41244692  0.20068886  -0.00874495  1
  Hf  Hf42  1  0.20065335  0.79712822  0.19420913  1
  Hf  Hf43  1  0.79815121  0.40488799  0.61117665  1
  Hf  Hf44  1  0.79799464  0.60276956  0.39792999  1
  Hf  Hf45  1  0.79518348  0.59591580  0.79846708  1
  Hf  Hf46  1  0.39280665  0.60104086  0.60011499  1
  Hf  Hf47  1  0.59958927  0.60532864  0.39868204  1
  Hf  Hf48  1  0.69594702  0.30066454  0.08890512  1
  Hf  Hf49  1  0.69604627  0.49507095  0.50248274  1
  Zr  Zr50  1  0.09611158  0.29605677  0.50638814  1
  Zr  Zr51  1  0.50880004  0.30297049  0.49788999  1
  Zr  Zr52  1  0.30952922  0.08703269  0.08953292  1
  Zr  Zr53  1  0.61132091  0.59365567  0.01176507  1
  Zr  Zr54  1  0.31047129  0.30974375  0.89057795  1
  Zr  Zr55  1  0.10226811  0.10174298  0.30955649  1
  Zr  Zr56  1  0.69538387  0.29141671  0.31151886  1
  Zr  Zr57  1  0.59387893  0.80932241  0.39893181  1
  Zr  Zr58  1  0.00995044  0.80076074  0.19393352  1
  Zr  Zr59  1  0.89664935  0.29685061  0.50773531  1
  Zr  Zr60  1  0.30145548  0.10157467  0.69871731  1
  Zr  Zr61  1  0.42810761  -0.00340789  -0.02627223  1
  Zr  Zr62  1  0.30407881  0.70274082  0.90447427  1
  Zr  Zr63  1  0.59879005  -0.00518016  0.59236432  1
  Zr  Zr64  1  0.30756192  0.49140032  0.70174740  1
  Zr  Zr65  1  0.79772907  0.01344753  -0.00465029  1
  Zr  Zr66  1  0.69691904  0.49334789  0.30373173  1
  Zr  Zr67  1  0.19774181  0.79981464  0.61123192  1
  Zr  Zr68  1  0.60098949  -0.00082757  0.40046507  1
  Zr  Zr69  1  0.31421990  0.90999429  0.30783176  1
  Zr  Zr70  1  0.39097516  0.40183514  0.40087958  1
  Zr  Zr71  1  0.19533756  -0.00873062  0.18583358  1
  Zr  Zr72  1  -0.01108851  0.39998831  -0.01387352  1
  Zr  Zr73  1  0.18800358  0.80006211  0.00706409  1
  Zr  Zr74  1  0.80630942  0.00472922  0.80178427  1
  Zr  Zr75  1  0.19970359  0.40693175  0.40304843  1
  Zr  Zr76  1  0.39568376  0.59795435  0.40598103  1
  Zr  Zr77  1  0.80169039  0.78979905  0.79579057  1
  Zr  Zr78  1  0.20298058  0.40095091  0.20029328  1
  Zr  Zr79  1  0.20047596  0.19783992  0.19727697  1
  Zr  Zr80  1  0.61565909  0.41231172  0.79493546  1
  Zr  Zr81  1  0.49750705  0.49868569  0.90128262  1
  Zr  Zr82  1  0.19343626  0.60117272  0.00096314  1
  Zr  Zr83  1  0.89415371  0.29814776  0.30280493  1
  Zr  Zr84  1  0.19021038  -0.00674715  0.79492954  1
  Zr  Zr85  1  0.40971108  0.20288109  0.19185886  1
  Zr  Zr86  1  0.58713318  -0.00523551  0.81446382  1
  Zr  Zr87  1  0.40082659  0.59870130  0.19986630  1
  Zr  Zr88  1  -0.00362055  0.60096100  -0.00295600  1
  Zr  Zr89  1  0.30082347  0.89635317  0.89627472  1
  Zr  Zr90  1  0.09037620  0.49262856  0.10613358  1
  Zr  Zr91  1  0.88945639  0.89366601  0.10503378  1
  Zr  Zr92  1  0.29698973  0.09902759  0.89502722  1
  Zr  Zr93  1  0.30451378  0.30824802  0.08916472  1
  Zr  Zr94  1  0.29566608  0.70839739  0.50033343  1
  Zr  Zr95  1  0.09431501  0.29236381  0.89445938  1
  Zr  Zr96  1  0.29693703  0.70419533  0.30628385  1
  Zr  Zr97  1  0.49717844  0.09435057  0.29713696  1
  Zr  Zr98  1  0.10243256  0.90017455  0.31219911  1
  Zr  Zr99  1  0.30635904  0.09335442  0.30154948  1
  Ta  Ta100  1  0.30463354  0.50188956  0.09189869  1
  Ta  Ta101  1  0.50503109  0.69676937  0.69581984  1
  Ta  Ta102  1  0.29598547  0.50282271  0.29270531  1
  Ta  Ta103  1  0.50041653  0.10184365  0.70178141  1
  Ta  Ta104  1  0.50444979  0.49995981  0.69874072  1
  Ta  Ta105  1  0.78850018  0.60159479  0.19495505  1
  Ta  Ta106  1  0.50198973  0.70970139  0.50795842  1
  Ta  Ta107  1  -0.00589812  0.40761194  0.40204834  1
  Ta  Ta108  1  -0.00758517  0.19760078  0.40674339  1
  Ta  Ta109  1  0.09239303  0.50512899  0.29936327  1
  Ta  Ta110  1  0.60055675  0.79499342  -0.00266973  1
  Ta  Ta111  1  0.80414978  0.20424805  -0.00581664  1
  Ta  Ta112  1  0.51046554  0.30828635  0.89731733  1
  Ta  Ta113  1  0.50133039  0.30725732  0.70540105  1
  Ta  Ta114  1  0.19402718  0.60507890  0.19661480  1
  Ta  Ta115  1  0.09156795  0.50865912  0.88504123  1
  Ta  Ta116  1  0.80593701  0.39836806  0.80629084  1
  Ta  Ta117  1  0.50417475  0.89968861  0.09289560  1
  Ta  Ta118  1  0.09824715  0.69546182  0.30739594  1
  Ta  Ta119  1  0.09335604  0.70082325  0.88824241  1
  Ta  Ta120  1  0.69692201  0.30145974  0.89979579  1
  Ta  Ta121  1  0.49537600  0.09677499  0.49966461  1
  Ta  Ta122  1  0.08970758  0.29552816  0.69788696  1
  Ta  Ta123  1  0.70056612  0.29733574  0.49911969  1
  Ta  Ta124  1  0.40304251  0.40297275  0.19866848  1
  Ta  Ta125  1  0.80049888  0.60246918  0.60521520  1
  Ta  Ta126  1  0.90213977  0.29517553  0.70297258  1
  Ta  Ta127  1  0.70446724  0.29548032  0.70219463  1
  Ta  Ta128  1  0.52161715  0.09752057  0.08254804  1
  Ta  Ta129  1  0.67821037  0.10935696  0.91272057  1
  Ta  Ta130  1  0.50141833  0.49735552  0.30218586  1
  Ta  Ta131  1  0.19952421  0.60434164  0.79357478  1
  Ta  Ta132  1  0.19610521  0.40782838  -0.00891295  1
  Ta  Ta133  1  0.39947122  0.19674846  0.40328939  1
  Ta  Ta134  1  0.50154954  0.69329912  0.90108815  1
  Ta  Ta135  1  0.31189488  0.90052622  0.08577322  1
  Ta  Ta136  1  0.31118471  0.90534251  0.50372488  1
  Ta  Ta137  1  -0.00779956  -0.00114745  0.79948446  1
  Ta  Ta138  1  -0.00430506  0.19984409  0.20080001  1
  Ta  Ta139  1  0.09195843  0.50596002  0.70226014  1
  Ta  Ta140  1  0.89049161  0.90078089  0.30692248  1
  Ta  Ta141  1  0.90236065  0.50026699  0.29388975  1
  Ta  Ta142  1  0.69940662  0.89512784  0.90562857  1
  Ta  Ta143  1  0.90138415  0.29980645  0.09832488  1
  Ta  Ta144  1  0.49796626  0.70157782  0.30578024  1
  Ta  Ta145  1  -0.00712851  0.79818278  0.79261724  1
  Ta  Ta146  1  -0.00346453  0.60334634  0.19985574  1
  Ta  Ta147  1  0.80026047  0.40332499  -0.00665226  1
  Ta  Ta148  1  0.79386031  0.19551941  0.19119671  1
  Ta  Ta149  1  0.89309119  0.50104164  0.10082421  1
  Ti  Ti150  1  0.09084857  0.69446691  0.70297727  1
  Ti  Ti151  1  0.30543248  0.49936478  0.90440575  1
  Ti  Ti152  1  0.48979390  0.49564450  0.08990567  1
  Ti  Ti153  1  -0.00275216  0.40096059  0.60174031  1
  Ti  Ti154  1  0.70378808  0.50116866  0.90639155  1
  Ti  Ti155  1  0.30377266  0.29789195  0.29850350  1
  Ti  Ti156  1  0.30705254  0.69859931  0.09326362  1
  Ti  Ti157  1  0.30826884  0.89829453  0.69899876  1
  Ti  Ti158  1  0.60346979  0.59786353  0.60714073  1
  Ti  Ti159  1  0.79353552  0.01155388  0.19688139  1
  Ti  Ti160  1  -0.01394902  0.19247479  0.80179870  1
  Ti  Ti161  1  0.09928552  0.89645785  0.50593114  1
  Ti  Ti162  1  0.20635530  0.20118107  0.40061887  1
  Ti  Ti163  1  0.19935298  0.79160509  0.79125616  1
  Ti  Ti164  1  0.30279797  0.09822726  0.50394356  1
  Ti  Ti165  1  0.79615617  0.18455853  0.41669817  1
  Ti  Ti166  1  0.20095134  0.59531687  0.40038232  1
  Ti  Ti167  1  0.70026880  0.10313278  0.30739410  1
  Ti  Ti168  1  0.70158865  0.69439548  0.90783321  1
  Ti  Ti169  1  0.90117221  0.50454424  0.50154868  1
  Ti  Ti170  1  0.40703823  -0.00102520  0.79584168  1
  Ti  Ti171  1  0.09367760  0.11337910  0.70089812  1
  Ti  Ti172  1  0.10172075  0.10345142  0.08961599  1
  Ti  Ti173  1  0.20289125  -0.00033187  0.41294029  1
  Ti  Ti174  1  0.20124093  0.80736980  0.40450597  1
  Ti  Ti175  1  -0.00550673  0.59918383  0.39507632  1
  Ti  Ti176  1  0.30877622  0.30381810  0.70142817  1
  Ti  Ti177  1  0.89860244  0.69428170  0.89964959  1
  Ti  Ti178  1  -0.00902183  0.60974597  0.60442095  1
  Ti  Ti179  1  0.39874939  0.79780034  0.60070944  1
  Ti  Ti180  1  0.81515513  0.80042885  0.60954336  1
  Ti  Ti181  1  0.00522316  0.79470374  0.00031057  1
  Ti  Ti182  1  0.60671296  0.39699413  0.60746769  1
  Ti  Ti183  1  0.80462163  0.40286198  0.40533305  1
  Ti  Ti184  1  0.40330001  0.79520523  0.79700493  1
  Ti  Ti185  1  0.69451112  0.69758669  0.69377040  1
  Ti  Ti186  1  0.20389770  0.60280821  0.60839695  1
  Ti  Ti187  1  0.20367108  0.20328512  -0.00294695  1
  Ti  Ti188  1  0.09127594  0.89386319  0.70589394  1
  Ti  Ti189  1  -0.00709716  0.39730314  0.80170145  1
  Ti  Ti190  1  0.60445474  0.59982949  0.20067873  1
  Ti  Ti191  1  0.20146929  0.20616283  0.78998414  1
  Ti  Ti192  1  0.60709993  0.19380066  0.19072202  1
  Ti  Ti193  1  -0.00815313  0.80752778  0.60705902  1
  Ti  Ti194  1  -0.00481385  0.80883287  0.40360904  1
  Ti  Ti195  1  0.41119242  0.20155772  0.79919253  1
  Ti  Ti196  1  0.80396058  0.19010575  0.60371724  1
  Ti  Ti197  1  0.50575504  0.30786297  0.08764371  1
  Ti  Ti198  1  0.81181739  0.00759464  0.59538987  1
  Ti  Ti199  1  0.09836164  0.89169687  0.89455231  1
  Mo  Mo200  1  0.40317072  0.00253094  0.41503149  1
  Mo  Mo201  1  0.29049011  0.50143106  0.50276936  1
  Mo  Mo202  1  0.69989909  0.10641881  0.09808628  1
  Mo  Mo203  1  0.60549768  -0.00979959  -0.00287028  1
  Mo  Mo204  1  0.60429860  0.19319137  0.40779725  1
  Mo  Mo205  1  0.40385676  0.39786196  0.60653273  1
  Mo  Mo206  1  0.41241868  -0.00232016  0.17605512  1
  Mo  Mo207  1  0.69723270  0.69822945  0.29676575  1
  Mo  Mo208  1  0.40271014  0.40218183  0.00081240  1
  Mo  Mo209  1  0.80119500  0.59291016  -0.00417695  1
  Mo  Mo210  1  0.80078360  0.00435316  0.40255709  1
  Mo  Mo211  1  0.79432523  0.79041855  0.20334625  1
  Mo  Mo212  1  0.60093550  0.40041494  0.40367441  1
  Mo  Mo213  1  0.60305478  0.60469269  0.79654541  1
  Mo  Mo214  1  0.48465666  0.89909181  0.49994618  1
  Mo  Mo215  1  0.90065815  0.89833625  0.50382969  1
  Mo  Mo216  1  0.60099101  0.20740603  0.79658305  1
  Mo  Mo217  1  0.70823402  0.49895025  0.09785269  1
  Mo  Mo218  1  0.69937332  0.69661607  0.09894054  1
  Mo  Mo219  1  0.19166774  -0.00642813  -0.00437649  1
  Mo  Mo220  1  -0.00481538  0.19770765  0.00101863  1
  Mo  Mo221  1  -0.00962294  0.40205235  0.20386805  1
  Mo  Mo222  1  -0.00159853  0.60814499  0.79813292  1
  Mo  Mo223  1  0.40692662  0.79750659  -0.00031454  1
  Mo  Mo224  1  0.39863341  0.00129109  0.60347209  1
  Mo  Mo225  1  0.40734257  0.80692076  0.40341693  1
  Mo  Mo226  1  0.30227907  0.70508101  0.70422500  1
  Mo  Mo227  1  0.79037624  0.78510520  -0.00651178  1
  Mo  Mo228  1  0.89498149  0.29828862  0.89759245  1
  Mo  Mo229  1  0.90037624  0.89997615  0.70044950  1
  Mo  Mo230  1  0.80428862  0.79903327  0.40079218  1
  Mo  Mo231  1  0.39594709  0.59891721  -0.00227807  1
  Mo  Mo232  1  0.70134265  0.50372141  0.69655435  1
  Mo  Mo233  1  0.59645823  0.79716442  0.60098621  1
  Mo  Mo234  1  0.50160255  0.87412882  0.89696907  1
  Mo  Mo235  1  0.70360358  0.10006586  0.50264410  1
  Mo  Mo236  1  0.90126388  0.69868232  0.69473422  1
  Mo  Mo237  1  0.89659903  0.49910960  0.89705487  1
  Mo  Mo238  1  0.89996142  0.10295452  0.70256639  1
  Mo  Mo239  1  -0.00639577  0.19747716  0.60962815  1
  Mo  Mo240  1  0.09268465  0.69664597  0.10517168  1
  Mo  Mo241  1  0.20154672  0.20390221  0.61499225  1
  Mo  Mo242  1  0.50573070  0.11860561  0.88914173  1
  Mo  Mo243  1  0.60175620  0.40276771  -0.00293359  1
  Mo  Mo244  1  0.60025580  0.21203178  -0.00247086  1
  Mo  Mo245  1  0.10245236  0.90079494  0.09197433  1
  Mo  Mo246  1  0.89579463  0.10165105  0.50577099  1
  Mo  Mo247  1  0.49767554  0.90043881  0.29401700  1
  Mo  Mo248  1  0.40780814  0.40084561  0.80019317  1
  Mo  Mo249  1  0.91251347  0.10268498  0.90314836  1
