# generated using pymatgen
data_HfZrTaTiMo
_symmetry_space_group_name_H-M   'P 1'
_cell_length_a   16.87900067
_cell_length_b   16.88676935
_cell_length_c   16.88931965
_cell_angle_alpha   89.97359835
_cell_angle_beta   89.95178897
_cell_angle_gamma   90.01660169
_symmetry_Int_Tables_number   1
_chemical_formula_structural   HfZrTaTiMo
_chemical_formula_sum   'Hf50 Zr50 Ta50 Ti50 Mo50'
_cell_volume   4813.99061273
_cell_formula_units_Z   50
loop_
 _symmetry_equiv_pos_site_id
 _symmetry_equiv_pos_as_xyz
  1  'x, y, z'
loop_
 _atom_site_type_symbol
 _atom_site_label
 _atom_site_symmetry_multiplicity
 _atom_site_fract_x
 _atom_site_fract_y
 _atom_site_fract_z
 _atom_site_occupancy
  Hf  Hf0  1  0.00635410  0.19507286  0.39862877  1
  Hf  Hf1  1  0.59365657  0.20575324  0.80695026  1
  Hf  Hf2  1  0.89532758  0.90278720  0.09906004  1
  Hf  Hf3  1  0.90502056  0.30400053  0.09292331  1
  Hf  Hf4  1  0.20577903  0.59306404  0.39804125  1
  Hf  Hf5  1  0.49692193  0.90327545  0.50073998  1
  Hf  Hf6  1  0.58984823  0.60236866  0.59338508  1
  Hf  Hf7  1  0.10417177  0.68745531  0.89951851  1
  Hf  Hf8  1  0.80144398  0.40219301  0.20445349  1
  Hf  Hf9  1  0.19722713  0.40391588  0.81060902  1
  Hf  Hf10  1  0.40314348  -0.00202251  0.00925245  1
  Hf  Hf11  1  0.90459375  0.10225057  0.09618271  1
  Hf  Hf12  1  0.59407352  0.59986151  0.20893986  1
  Hf  Hf13  1  0.69194511  0.70742265  0.09763995  1
  Hf  Hf14  1  0.49640228  0.89866197  0.89550744  1
  Hf  Hf15  1  0.70271918  0.69978858  0.49696889  1
  Hf  Hf16  1  0.71524255  0.90346206  0.51419566  1
  Hf  Hf17  1  0.80552370  0.40530790  0.79432214  1
  Hf  Hf18  1  0.30446218  0.69298329  0.30090760  1
  Hf  Hf19  1  0.89790321  0.09638655  0.29411206  1
  Hf  Hf20  1  0.29770130  0.09557206  0.89761922  1
  Hf  Hf21  1  0.00706491  0.38676611  0.38978915  1
  Hf  Hf22  1  0.11073081  0.49712814  0.28368473  1
  Hf  Hf23  1  0.69978678  0.10181483  0.89560374  1
  Hf  Hf24  1  0.09046147  0.68903077  0.30122899  1
  Hf  Hf25  1  0.10589459  0.90616199  0.89960173  1
  Hf  Hf26  1  0.30188929  0.68699959  0.09500929  1
  Hf  Hf27  1  0.60592516  -0.00093374  0.39837635  1
  Hf  Hf28  1  -0.00656915  0.79962887  0.20519610  1
  Hf  Hf29  1  0.49922818  0.30020973  0.09486188  1
  Hf  Hf30  1  0.20916791  0.39146176  0.61127191  1
  Hf  Hf31  1  0.30224033  0.30149036  0.10238449  1
  Hf  Hf32  1  0.20634202  0.00603075  0.40799243  1
  Hf  Hf33  1  0.80213105  0.00030967  0.79828824  1
  Hf  Hf34  1  0.80564450  0.59388159  0.60563476  1
  Hf  Hf35  1  0.91605257  0.70234374  0.49409360  1
  Hf  Hf36  1  0.49095404  0.90363130  0.70840244  1
  Hf  Hf37  1  0.80318732  0.39957727  0.39195951  1
  Hf  Hf38  1  0.80039184  -0.00375171  0.39574668  1
  Hf  Hf39  1  0.59962471  0.80315237  0.60508607  1
  Hf  Hf40  1  0.80213310  0.19730627  -0.00680468  1
  Hf  Hf41  1  0.09850128  0.89760601  0.30366973  1
  Hf  Hf42  1  0.60356800  -0.00784545  0.00552818  1
  Hf  Hf43  1  0.49621498  0.70177672  0.71313871  1
  Hf  Hf44  1  0.10198785  0.50080272  0.50342815  1
  Hf  Hf45  1  0.29886249  0.10467702  0.09864088  1
  Hf  Hf46  1  0.79806201  0.20871788  0.20115542  1
  Hf  Hf47  1  0.29831701  0.29674575  0.49315005  1
  Hf  Hf48  1  0.89899244  0.70036828  0.90286093  1
  Hf  Hf49  1  0.91165906  0.50458200  0.09699094  1
  Zr  Zr50  1  0.20408244  0.79358444  0.79916710  1
  Zr  Zr51  1  -0.00896864  -0.01145114  0.40182261  1
  Zr  Zr52  1  0.38855560  0.20206780  0.60166025  1
  Zr  Zr53  1  0.69348116  0.09869606  0.10599021  1
  Zr  Zr54  1  0.50379708  0.10526497  0.49410721  1
  Zr  Zr55  1  0.10235881  0.50329445  0.69861319  1
  Zr  Zr56  1  0.39718039  0.79330031  0.59834239  1
  Zr  Zr57  1  0.60307558  0.80091455  0.39983308  1
  Zr  Zr58  1  0.92027892  0.51825245  0.29487982  1
  Zr  Zr59  1  0.69483190  0.49872592  0.90157543  1
  Zr  Zr60  1  0.39255076  0.81298911  0.20067853  1
  Zr  Zr61  1  0.90209945  0.90324374  0.89846359  1
  Zr  Zr62  1  0.20361698  0.80013082  0.19588467  1
  Zr  Zr63  1  -0.00540600  0.58742301  0.79776560  1
  Zr  Zr64  1  0.49802356  0.70671752  0.90851067  1
  Zr  Zr65  1  0.49710994  0.30422255  0.70127948  1
  Zr  Zr66  1  0.89999509  0.69645839  0.09756464  1
  Zr  Zr67  1  0.29776835  0.90771010  0.69820822  1
  Zr  Zr68  1  0.49390007  0.09137702  0.70839232  1
  Zr  Zr69  1  0.79922626  0.60099417  0.80031448  1
  Zr  Zr70  1  0.18894121  0.00581003  0.78580001  1
  Zr  Zr71  1  0.10608103  0.30523553  0.10515216  1
  Zr  Zr72  1  0.79475505  0.20519762  0.60483137  1
  Zr  Zr73  1  0.50551134  0.28991143  0.30859887  1
  Zr  Zr74  1  0.20551232  0.79932240  0.40406107  1
  Zr  Zr75  1  0.89988944  0.09445732  0.51320812  1
  Zr  Zr76  1  0.40195445  0.40561752  0.60087461  1
  Zr  Zr77  1  0.21283468  -0.00623660  0.20115088  1
  Zr  Zr78  1  0.69773784  0.49898252  0.09467200  1
  Zr  Zr79  1  0.60090602  0.20248838  0.60186135  1
  Zr  Zr80  1  0.30408130  0.29943552  0.90924778  1
  Zr  Zr81  1  0.38572955  0.59912804  0.81182070  1
  Zr  Zr82  1  0.80112636  0.60565083  0.39190427  1
  Zr  Zr83  1  0.69523859  0.69829576  0.70514922  1
  Zr  Zr84  1  0.00677045  0.20338875  0.20604125  1
  Zr  Zr85  1  0.90525517  0.29494462  0.89336643  1
  Zr  Zr86  1  0.90037483  0.29538834  0.50270185  1
  Zr  Zr87  1  0.10404068  0.28788397  0.51258401  1
  Zr  Zr88  1  0.00468316  0.80309951  0.78758667  1
  Zr  Zr89  1  0.00020699  0.00864884  0.79125160  1
  Zr  Zr90  1  0.49647101  0.70401030  0.09924707  1
  Zr  Zr91  1  0.09736736  0.89834487  0.50738000  1
  Zr  Zr92  1  0.49228873  0.50157664  0.08519979  1
  Zr  Zr93  1  0.59924303  0.40507287  0.20627149  1
  Zr  Zr94  1  0.40095748  0.40325208  0.21081227  1
  Zr  Zr95  1  0.01775229  0.40396448  -0.01789821  1
  Zr  Zr96  1  0.68990555  0.30116105  0.48789053  1
  Zr  Zr97  1  0.81846908  0.81062638  0.38487501  1
  Zr  Zr98  1  0.90968771  0.50427488  0.49929453  1
  Zr  Zr99  1  0.00702344  0.80101795  0.00053935  1
  Ta  Ta100  1  0.20682076  0.80119027  0.00014613  1
  Ta  Ta101  1  0.39448111  0.19385675  0.39437265  1
  Ta  Ta102  1  0.39547475  0.20229653  0.80417756  1
  Ta  Ta103  1  0.49589527  0.69832456  0.31117922  1
  Ta  Ta104  1  0.09251456  0.29724326  0.70620456  1
  Ta  Ta105  1  0.10326923  0.68965633  0.68928504  1
  Ta  Ta106  1  0.29376087  0.29668089  0.29811189  1
  Ta  Ta107  1  0.68965146  0.49689083  0.69747953  1
  Ta  Ta108  1  0.40225020  0.59901410  0.59772306  1
  Ta  Ta109  1  0.09715645  0.10753462  0.90391269  1
  Ta  Ta110  1  0.29567581  0.49870276  0.10316689  1
  Ta  Ta111  1  0.89747644  0.90535094  0.68506589  1
  Ta  Ta112  1  0.10537794  0.09616239  0.30016979  1
  Ta  Ta113  1  0.41174522  0.19403899  -0.00193838  1
  Ta  Ta114  1  0.60638254  -0.00098928  0.60741107  1
  Ta  Ta115  1  0.49909138  0.50351660  0.70598456  1
  Ta  Ta116  1  0.79655777  0.60347183  -0.00037442  1
  Ta  Ta117  1  0.00377932  0.00908179  0.00225255  1
  Ta  Ta118  1  0.79617836  0.40307025  0.60346633  1
  Ta  Ta119  1  0.78408700  0.80923904  -0.00603706  1
  Ta  Ta120  1  0.79726449  0.80670004  0.79615974  1
  Ta  Ta121  1  0.69487378  0.50113499  0.49783566  1
  Ta  Ta122  1  0.39639103  0.40104272  0.80444171  1
  Ta  Ta123  1  0.20173166  0.40528634  -0.00184455  1
  Ta  Ta124  1  0.00812211  0.00093335  0.19507729  1
  Ta  Ta125  1  0.50172949  0.09330870  0.29380829  1
  Ta  Ta126  1  0.69981630  0.30045446  0.89829486  1
  Ta  Ta127  1  0.19920343  0.20473998  0.79730680  1
  Ta  Ta128  1  0.10332937  0.90164423  0.09707822  1
  Ta  Ta129  1  0.38978791  0.00810027  0.59148270  1
  Ta  Ta130  1  0.30161773  0.69119167  0.50195368  1
  Ta  Ta131  1  0.59363856  0.40077891  0.80128561  1
  Ta  Ta132  1  0.90408491  0.29614181  0.70439173  1
  Ta  Ta133  1  0.39332450  0.00202406  0.39707173  1
  Ta  Ta134  1  0.40022500  0.59002973  0.21103525  1
  Ta  Ta135  1  0.49891595  0.30259687  0.49133069  1
  Ta  Ta136  1  0.49852624  0.90394591  0.29977299  1
  Ta  Ta137  1  0.40226037  0.19258222  0.19988173  1
  Ta  Ta138  1  0.19838336  0.79592927  0.60126031  1
  Ta  Ta139  1  0.70279115  0.09913546  0.70274955  1
  Ta  Ta140  1  0.19065247  0.20110222  -0.00031433  1
  Ta  Ta141  1  -0.00598600  0.39997590  0.61105429  1
  Ta  Ta142  1  0.79879669  0.60740094  0.20184414  1
  Ta  Ta143  1  0.30129582  0.50144488  0.49989197  1
  Ta  Ta144  1  0.79784738  -0.00132202  -0.00333259  1
  Ta  Ta145  1  0.59818881  0.40575837  0.59755891  1
  Ta  Ta146  1  0.39721879  0.40532093  0.39738789  1
  Ta  Ta147  1  0.69311729  0.29512967  0.30065773  1
  Ta  Ta148  1  0.10422790  0.68639881  0.09812909  1
  Ta  Ta149  1  0.69385089  0.30135065  0.09188492  1
  Ti  Ti150  1  0.38305601  0.79527005  0.80819423  1
  Ti  Ti151  1  0.38868576  0.80690164  0.00135508  1
  Ti  Ti152  1  0.20355732  0.39760039  0.39254465  1
  Ti  Ti153  1  0.00346060  0.80109530  0.60124535  1
  Ti  Ti154  1  0.89730777  0.10897686  0.70097330  1
  Ti  Ti155  1  0.40211610  -0.00111444  0.19883492  1
  Ti  Ti156  1  0.59479805  0.59503768  0.80668901  1
  Ti  Ti157  1  0.79932921  0.40066917  -0.00309958  1
  Ti  Ti158  1  0.61472543  0.81251587  0.80542047  1
  Ti  Ti159  1  0.39815234  0.80224660  0.40265066  1
  Ti  Ti160  1  0.69626824  0.70255793  0.29813683  1
  Ti  Ti161  1  0.30235813  0.10188439  0.29847416  1
  Ti  Ti162  1  0.59752604  0.60302196  -0.00508109  1
  Ti  Ti163  1  0.59447511  0.19625919  0.19578871  1
  Ti  Ti164  1  0.79655925  0.19803224  0.39438015  1
  Ti  Ti165  1  0.29423708  0.10266714  0.69661742  1
  Ti  Ti166  1  0.59260850  0.39053287  -0.01326803  1
  Ti  Ti167  1  0.69166487  0.10414904  0.29692950  1
  Ti  Ti168  1  0.00781722  0.00253825  0.60437373  1
  Ti  Ti169  1  0.60914027  -0.00708688  0.79806731  1
  Ti  Ti170  1  0.19549356  0.00341840  0.00670097  1
  Ti  Ti171  1  0.10089165  0.11470526  0.68336055  1
  Ti  Ti172  1  0.70187804  0.10000064  0.50256673  1
  Ti  Ti173  1  0.19864745  0.19164759  0.40104864  1
  Ti  Ti174  1  0.29081893  0.68817344  0.69577484  1
  Ti  Ti175  1  0.00243529  0.19643688  0.80304609  1
  Ti  Ti176  1  0.79836796  0.79991127  0.20062097  1
  Ti  Ti177  1  0.79403942  -0.00424792  0.19727902  1
  Ti  Ti178  1  0.69420053  0.70571207  0.90281661  1
  Ti  Ti179  1  0.09874965  0.69174345  0.50357903  1
  Ti  Ti180  1  0.59350032  0.41081705  0.39876691  1
  Ti  Ti181  1  0.50844591  0.89780547  0.10533780  1
  Ti  Ti182  1  0.20553801  0.58992913  -0.01087330  1
  Ti  Ti183  1  0.59763074  0.80422690  0.20331769  1
  Ti  Ti184  1  0.49734733  0.50683951  0.49062006  1
  Ti  Ti185  1  0.19735570  0.19681531  0.20365426  1
  Ti  Ti186  1  0.29878021  0.90815194  0.89994195  1
  Ti  Ti187  1  0.80540132  0.79843402  0.60731349  1
  Ti  Ti188  1  0.29869740  0.90171602  0.50494603  1
  Ti  Ti189  1  0.59227085  0.19705063  -0.00320293  1
  Ti  Ti190  1  0.00197242  0.38814373  0.20926056  1
  Ti  Ti191  1  0.90280154  0.50128225  0.90628418  1
  Ti  Ti192  1  0.48999636  0.49574433  0.90290150  1
  Ti  Ti193  1  0.69441080  0.50615130  0.30722595  1
  Ti  Ti194  1  0.10452305  0.50680608  0.10107662  1
  Ti  Ti195  1  0.29822647  0.50677131  0.70104189  1
  Ti  Ti196  1  0.70026396  0.30321422  0.70739841  1
  Ti  Ti197  1  0.90741316  0.69861692  0.69482312  1
  Ti  Ti198  1  0.49690949  0.09083375  0.89576870  1
  Ti  Ti199  1  0.69538060  0.90357587  0.28409660  1
  Mo  Mo200  1  0.39684039  0.40064494  -0.00259774  1
  Mo  Mo201  1  0.90028300  0.70390303  0.29523401  1
  Mo  Mo202  1  0.79734015  0.20132395  0.79784200  1
  Mo  Mo203  1  0.29738344  0.69895519  0.91000329  1
  Mo  Mo204  1  0.01139742  0.59957412  0.40289720  1
  Mo  Mo205  1  0.10426380  0.09807233  0.50728170  1
  Mo  Mo206  1  0.49140346  0.69882750  0.49228287  1
  Mo  Mo207  1  0.88949243  0.29437241  0.30178188  1
  Mo  Mo208  1  0.89673153  0.90455515  0.28118739  1
  Mo  Mo209  1  0.89807297  0.49174554  0.69732351  1
  Mo  Mo210  1  0.49917110  0.10201561  0.10490576  1
  Mo  Mo211  1  0.00255931  0.60106479  0.60065319  1
  Mo  Mo212  1  0.70428032  0.90220128  0.70217502  1
  Mo  Mo213  1  0.29702937  0.29878088  0.71241249  1
  Mo  Mo214  1  0.00073686  0.79687738  0.40181420  1
  Mo  Mo215  1  0.90313250  0.89532359  0.51925413  1
  Mo  Mo216  1  0.00499236  0.19557068  -0.00401541  1
  Mo  Mo217  1  0.09648273  0.89105292  0.69026441  1
  Mo  Mo218  1  0.20458921  0.59494472  0.19485711  1
  Mo  Mo219  1  0.40230353  0.59741262  0.40465167  1
  Mo  Mo220  1  0.70076400  0.89664965  0.10487358  1
  Mo  Mo221  1  0.79889361  0.00646123  0.60609652  1
  Mo  Mo222  1  0.60212354  0.80626315  -0.00084138  1
  Mo  Mo223  1  0.30227322  0.49793421  0.90955266  1
  Mo  Mo224  1  0.29783607  0.90464409  0.08779862  1
  Mo  Mo225  1  0.11976845  0.29397532  0.30201077  1
  Mo  Mo226  1  0.10282459  0.29187924  0.89630612  1
  Mo  Mo227  1  0.10767844  0.50396206  0.89808222  1
  Mo  Mo228  1  0.00390143  0.59506231  -0.00112633  1
  Mo  Mo229  1  0.69879838  0.90230691  0.89830606  1
  Mo  Mo230  1  0.59848615  0.60138587  0.39962726  1
  Mo  Mo231  1  0.90479467  0.10159388  0.90043129  1
  Mo  Mo232  1  0.60233823  0.18904171  0.39310292  1
  Mo  Mo233  1  0.20327212  0.59757805  0.79795942  1
  Mo  Mo234  1  0.20002570  0.19926897  0.60777552  1
  Mo  Mo235  1  0.00027990  0.39646483  0.79655131  1
  Mo  Mo236  1  0.30182319  0.49488614  0.30215543  1
  Mo  Mo237  1  0.00555672  0.60402251  0.19068833  1
  Mo  Mo238  1  -0.00100325  0.20006549  0.60981015  1
  Mo  Mo239  1  0.19876122  0.00858430  0.59517018  1
  Mo  Mo240  1  0.39435633  0.59417256  0.00117319  1
  Mo  Mo241  1  0.49855911  0.30127378  0.90134852  1
  Mo  Mo242  1  0.20692842  0.60114890  0.59715474  1
  Mo  Mo243  1  0.49898975  0.50718282  0.31459263  1
  Mo  Mo244  1  0.31001415  0.90252278  0.31107129  1
  Mo  Mo245  1  0.29767145  0.10367872  0.49909692  1
  Mo  Mo246  1  0.39168155  0.00653928  0.80378005  1
  Mo  Mo247  1  0.59661630  -0.00541557  0.20362054  1
  Mo  Mo248  1  0.20417059  0.40022820  0.19605507  1
  Mo  Mo249  1  0.10398339  0.09754377  0.10049486  1
