# generated using pymatgen
data_HfZrTaTiMo
_symmetry_space_group_name_H-M   'P 1'
_cell_length_a   16.89684341
_cell_length_b   16.89010235
_cell_length_c   16.88984353
_cell_angle_alpha   89.98168668
_cell_angle_beta   90.01541069
_cell_angle_gamma   89.98976591
_symmetry_Int_Tables_number   1
_chemical_formula_structural   HfZrTaTiMo
_chemical_formula_sum   'Hf50 Zr50 Ta50 Ti50 Mo50'
_cell_volume   4820.18205869
_cell_formula_units_Z   50
loop_
 _symmetry_equiv_pos_site_id
 _symmetry_equiv_pos_as_xyz
  1  'x, y, z'
loop_
 _atom_site_type_symbol
 _atom_site_label
 _atom_site_symmetry_multiplicity
 _atom_site_fract_x
 _atom_site_fract_y
 _atom_site_fract_z
 _atom_site_occupancy
  Hf  Hf0  1  0.69887831  0.90087505  0.50470468  1
  Hf  Hf1  1  0.30557708  0.08828410  0.10470917  1
  Hf  Hf2  1  0.19635790  0.78571611  0.00214542  1
  Hf  Hf3  1  0.78594464  -0.00399599  0.20217550  1
  Hf  Hf4  1  0.79407983  0.39791625  0.40484993  1
  Hf  Hf5  1  0.70003228  0.50486067  0.70245854  1
  Hf  Hf6  1  0.80571330  0.80591062  0.38348052  1
  Hf  Hf7  1  0.79897641  0.00328410  -0.00345400  1
  Hf  Hf8  1  0.60480168  0.20830394  0.80348701  1
  Hf  Hf9  1  0.10008027  0.69832377  0.70126532  1
  Hf  Hf10  1  0.89632322  0.51698762  0.31115549  1
  Hf  Hf11  1  0.30531462  0.09541861  0.29755296  1
  Hf  Hf12  1  0.78611237  0.19145839  0.40124534  1
  Hf  Hf13  1  -0.00610278  0.79557815  0.81294890  1
  Hf  Hf14  1  0.69461379  0.30273888  0.28835628  1
  Hf  Hf15  1  0.79745362  0.60666999  0.18732831  1
  Hf  Hf16  1  0.38964994  0.40926282  0.00573421  1
  Hf  Hf17  1  0.40286269  -0.00988830  0.60425026  1
  Hf  Hf18  1  -0.00158337  0.00924059  0.59944414  1
  Hf  Hf19  1  0.70566178  0.70318447  0.49801871  1
  Hf  Hf20  1  0.59338175  0.80423031  0.39592964  1
  Hf  Hf21  1  0.10065804  0.10163927  0.30263320  1
  Hf  Hf22  1  0.41579181  -0.00159745  0.39680947  1
  Hf  Hf23  1  0.89107293  0.29240825  0.50779737  1
  Hf  Hf24  1  0.51332901  0.30728666  0.10262533  1
  Hf  Hf25  1  0.09302129  0.89587661  0.50158610  1
  Hf  Hf26  1  0.69563837  0.10462677  0.69374530  1
  Hf  Hf27  1  0.50251984  0.30096494  0.29181753  1
  Hf  Hf28  1  0.00290183  0.19717651  0.79942902  1
  Hf  Hf29  1  0.88984867  0.68372026  0.90429032  1
  Hf  Hf30  1  0.80613138  0.40375054  0.19616444  1
  Hf  Hf31  1  0.19050050  0.78810713  0.20147627  1
  Hf  Hf32  1  0.61024750  0.00226602  0.38345804  1
  Hf  Hf33  1  0.20817049  0.40630036  0.38355258  1
  Hf  Hf34  1  0.40921098  0.20058192  0.60233397  1
  Hf  Hf35  1  0.08477097  0.30436051  0.09595976  1
  Hf  Hf36  1  0.00058277  0.40016719  0.60671389  1
  Hf  Hf37  1  0.69219026  0.50757245  0.29672822  1
  Hf  Hf38  1  0.19473774  0.61028911  0.39320238  1
  Hf  Hf39  1  0.20325125  0.79543068  0.59307223  1
  Hf  Hf40  1  0.49790770  0.50709545  0.70881142  1
  Hf  Hf41  1  0.31164292  0.68916509  0.90009121  1
  Hf  Hf42  1  0.80274418  -0.00173908  0.80235195  1
  Hf  Hf43  1  0.00945472  0.19875364  0.60712332  1
  Hf  Hf44  1  0.60035135  0.19260094  0.39779074  1
  Hf  Hf45  1  0.30102848  0.69026747  0.70401106  1
  Hf  Hf46  1  0.40525523  -0.00145151  0.80414516  1
  Hf  Hf47  1  0.29739069  0.29805325  0.70547218  1
  Hf  Hf48  1  0.59872916  0.40258879  0.40300944  1
  Hf  Hf49  1  0.09784520  0.29640359  0.29768804  1
  Zr  Zr50  1  0.60172935  0.00744996  0.01118345  1
  Zr  Zr51  1  0.20160791  0.20256193  0.18743399  1
  Zr  Zr52  1  0.88836556  0.50401797  0.70834257  1
  Zr  Zr53  1  0.09611592  0.90070071  0.09563111  1
  Zr  Zr54  1  0.90150531  0.88933387  0.50338407  1
  Zr  Zr55  1  0.20111229  0.59079500  0.00639644  1
  Zr  Zr56  1  0.49686487  0.69649121  0.70433317  1
  Zr  Zr57  1  0.40447755  0.19771199  0.00376991  1
  Zr  Zr58  1  0.40577487  -0.00073913  -0.00245728  1
  Zr  Zr59  1  0.50661573  0.31086762  0.90736603  1
  Zr  Zr60  1  0.49828452  0.50653449  0.50451722  1
  Zr  Zr61  1  0.51081130  0.70378339  0.10820326  1
  Zr  Zr62  1  0.20819234  0.40161692  0.00838159  1
  Zr  Zr63  1  0.20558779  -0.00667443  0.40386117  1
  Zr  Zr64  1  0.39951428  0.80765081  0.79958796  1
  Zr  Zr65  1  0.10900392  0.29711917  0.49553492  1
  Zr  Zr66  1  0.38454762  0.40146512  0.19891291  1
  Zr  Zr67  1  0.90526038  0.89830396  0.09552348  1
  Zr  Zr68  1  0.09378534  0.50490033  0.49829184  1
  Zr  Zr69  1  0.09776467  0.89455260  0.69504328  1
  Zr  Zr70  1  0.39550462  0.40090925  0.60905139  1
  Zr  Zr71  1  0.30155436  0.09588501  0.69758468  1
  Zr  Zr72  1  0.69439849  0.89530628  0.90208890  1
  Zr  Zr73  1  0.51899112  0.09036953  0.51727668  1
  Zr  Zr74  1  0.61307780  0.60275939  0.00332411  1
  Zr  Zr75  1  0.00209928  0.59651143  0.80408006  1
  Zr  Zr76  1  -0.00683876  0.00508781  0.80286205  1
  Zr  Zr77  1  0.20309569  0.40950763  0.80198141  1
  Zr  Zr78  1  0.60181982  0.39410387  0.60203542  1
  Zr  Zr79  1  -0.00550624  0.18904825  0.40418317  1
  Zr  Zr80  1  0.31710410  0.69809382  0.10711247  1
  Zr  Zr81  1  0.00344502  0.60823585  0.20101579  1
  Zr  Zr82  1  0.20569211  0.40746433  0.19368430  1
  Zr  Zr83  1  0.30969071  0.89566858  0.29061531  1
  Zr  Zr84  1  0.88819261  0.30231479  0.70387064  1
  Zr  Zr85  1  0.70557430  0.69725760  0.70065913  1
  Zr  Zr86  1  0.79709935  0.79811673  0.00274656  1
  Zr  Zr87  1  0.09857689  0.89435625  0.90618205  1
  Zr  Zr88  1  0.09437024  0.90252778  0.30201531  1
  Zr  Zr89  1  0.79720192  0.00038145  0.60096660  1
  Zr  Zr90  1  0.09955340  0.30449235  0.90222091  1
  Zr  Zr91  1  0.29467064  0.50519262  0.50490460  1
  Zr  Zr92  1  0.39908219  0.40980902  0.38734387  1
  Zr  Zr93  1  0.69305868  0.70303905  0.28874955  1
  Zr  Zr94  1  0.89285626  0.10549442  0.09546769  1
  Zr  Zr95  1  -0.00625270  0.19427515  -0.01255011  1
  Zr  Zr96  1  0.50949832  0.50161066  0.10838625  1
  Zr  Zr97  1  -0.00775241  0.39705763  0.39792737  1
  Zr  Zr98  1  0.29840337  0.29258738  0.49406905  1
  Zr  Zr99  1  0.20370119  -0.00333657  0.80847122  1
  Ta  Ta100  1  -0.00675959  0.00342713  0.20200189  1
  Ta  Ta101  1  0.60528384  0.18766895  0.19338682  1
  Ta  Ta102  1  -0.00227262  0.78677058  0.38881349  1
  Ta  Ta103  1  0.30532409  0.89806510  0.10261684  1
  Ta  Ta104  1  0.30661445  0.70239490  0.49696443  1
  Ta  Ta105  1  0.30175818  0.29615441  0.90013211  1
  Ta  Ta106  1  0.20108647  0.19474360  -0.00246825  1
  Ta  Ta107  1  0.09294863  0.50545424  0.29947585  1
  Ta  Ta108  1  0.60924988  0.19902190  0.00230471  1
  Ta  Ta109  1  0.49551544  0.70235429  0.29287038  1
  Ta  Ta110  1  -0.00746122  0.79595611  0.20415577  1
  Ta  Ta111  1  0.39685217  0.40656055  0.80573618  1
  Ta  Ta112  1  0.88885976  0.11031145  0.69794419  1
  Ta  Ta113  1  0.70311624  0.51302695  0.49865264  1
  Ta  Ta114  1  0.30697966  0.70443986  0.30036205  1
  Ta  Ta115  1  0.70249874  0.30421910  0.09257626  1
  Ta  Ta116  1  0.19627937  0.19854311  0.80242287  1
  Ta  Ta117  1  0.78783512  0.39739736  0.59710049  1
  Ta  Ta118  1  0.30010381  0.09849006  0.50186138  1
  Ta  Ta119  1  0.50778925  0.89345082  0.90458879  1
  Ta  Ta120  1  0.79829916  0.40474989  -0.00662531  1
  Ta  Ta121  1  0.89351692  0.09811997  0.29720344  1
  Ta  Ta122  1  0.40954124  0.18904908  0.39844621  1
  Ta  Ta123  1  0.40613979  0.80118708  0.00133177  1
  Ta  Ta124  1  0.59591796  0.79803229  0.60112761  1
  Ta  Ta125  1  0.70029838  0.69858327  0.89934031  1
  Ta  Ta126  1  0.79540214  0.19880465  0.19536409  1
  Ta  Ta127  1  -0.00135479  0.40092923  0.80157007  1
  Ta  Ta128  1  0.19662087  0.19679553  0.60530859  1
  Ta  Ta129  1  0.19989759  0.79382639  0.40032327  1
  Ta  Ta130  1  0.90278378  0.50409329  0.08315729  1
  Ta  Ta131  1  0.89992719  0.88719815  0.69477868  1
  Ta  Ta132  1  0.89527163  0.30474745  0.09215537  1
  Ta  Ta133  1  0.40404366  0.20129312  0.80327613  1
  Ta  Ta134  1  0.50863485  0.10007245  0.70435012  1
  Ta  Ta135  1  0.60906946  0.40215815  0.80680104  1
  Ta  Ta136  1  0.40173499  0.60478463  0.39628031  1
  Ta  Ta137  1  0.79432889  0.20752297  0.80666881  1
  Ta  Ta138  1  -0.00671411  0.00623494  -0.01467146  1
  Ta  Ta139  1  0.10171526  0.50260441  0.69896550  1
  Ta  Ta140  1  0.58885426  0.60641600  0.39836373  1
  Ta  Ta141  1  0.80266735  0.80047618  0.80151760  1
  Ta  Ta142  1  0.50287114  0.50527103  0.90366083  1
  Ta  Ta143  1  0.89328249  0.50910294  0.50072309  1
  Ta  Ta144  1  -0.00867875  0.19748405  0.19771793  1
  Ta  Ta145  1  0.60128281  0.79825472  0.80140505  1
  Ta  Ta146  1  -0.00471079  0.60353751  0.59938395  1
  Ta  Ta147  1  0.90228049  0.69900793  0.09345993  1
  Ta  Ta148  1  0.60176810  -0.00159161  0.80086875  1
  Ta  Ta149  1  0.19811965  0.59920051  0.20045552  1
  Ti  Ti150  1  0.50709542  0.89884693  0.50711611  1
  Ti  Ti151  1  0.40510539  0.79782589  0.59582086  1
  Ti  Ti152  1  -0.01511404  -0.00207117  0.39623121  1
  Ti  Ti153  1  0.20112273  0.59096891  0.80865892  1
  Ti  Ti154  1  0.19593158  0.39910252  0.61000046  1
  Ti  Ti155  1  0.59896701  0.00572703  0.19872701  1
  Ti  Ti156  1  0.89279696  0.30888335  0.90082864  1
  Ti  Ti157  1  0.11093695  0.09230520  0.70000260  1
  Ti  Ti158  1  0.40146796  0.59043547  0.21195852  1
  Ti  Ti159  1  0.20011451  0.79380157  0.80734307  1
  Ti  Ti160  1  0.51044380  0.89995932  0.70197812  1
  Ti  Ti161  1  0.40570778  0.79893957  0.40399902  1
  Ti  Ti162  1  0.19302265  -0.00294061  0.19592308  1
  Ti  Ti163  1  0.30196730  0.28100663  0.30066377  1
  Ti  Ti164  1  0.50826141  0.10096273  0.89715439  1
  Ti  Ti165  1  0.50150927  0.69894839  0.90381366  1
  Ti  Ti166  1  0.60175751  0.60145650  0.80873225  1
  Ti  Ti167  1  0.71420706  0.50518333  0.89505422  1
  Ti  Ti168  1  0.29149375  0.89789178  0.69599193  1
  Ti  Ti169  1  0.30042222  0.89472056  0.91112362  1
  Ti  Ti170  1  -0.00962353  0.40259137  0.20107335  1
  Ti  Ti171  1  0.19823106  0.60011379  0.60044247  1
  Ti  Ti172  1  0.30330790  0.89717788  0.50076549  1
  Ti  Ti173  1  0.61219041  0.21355574  0.59644667  1
  Ti  Ti174  1  0.08927742  0.49506568  0.90663188  1
  Ti  Ti175  1  0.49898012  0.89631643  0.10328515  1
  Ti  Ti176  1  0.79538490  -0.00008331  0.39172251  1
  Ti  Ti177  1  0.59444514  0.60993156  0.59198220  1
  Ti  Ti178  1  0.88770053  0.10051469  0.50337997  1
  Ti  Ti179  1  0.19724265  0.00532401  -0.00176591  1
  Ti  Ti180  1  0.09402191  0.09661840  0.09583233  1
  Ti  Ti181  1  0.68382041  0.88232803  0.10719838  1
  Ti  Ti182  1  0.41106341  0.19109052  0.19732706  1
  Ti  Ti183  1  0.11414567  0.09629389  0.50019657  1
  Ti  Ti184  1  0.70321708  0.10771465  0.90171323  1
  Ti  Ti185  1  0.01055004  0.60733062  -0.00155205  1
  Ti  Ti186  1  0.89635649  0.70315913  0.69585654  1
  Ti  Ti187  1  0.09014932  0.70038633  0.50080737  1
  Ti  Ti188  1  0.80321130  0.60254692  0.59744887  1
  Ti  Ti189  1  0.89788646  0.69606975  0.49507767  1
  Ti  Ti190  1  0.49840358  0.29896381  0.49604016  1
  Ti  Ti191  1  0.80291005  0.80253010  0.20001045  1
  Ti  Ti192  1  0.39726934  0.60392479  0.59764984  1
  Ti  Ti193  1  0.29933559  0.10466862  0.89907000  1
  Ti  Ti194  1  0.89746417  0.29214530  0.29511193  1
  Ti  Ti195  1  0.70057925  0.89345024  0.69754731  1
  Ti  Ti196  1  0.50072611  0.89566071  0.28212796  1
  Ti  Ti197  1  0.69825904  0.49461140  0.09965248  1
  Ti  Ti198  1  0.08716419  0.49679864  0.10063415  1
  Ti  Ti199  1  0.50199928  0.30238424  0.70839742  1
  Mo  Mo200  1  0.60057220  0.59990492  0.20333228  1
  Mo  Mo201  1  0.40323207  0.80388322  0.19958171  1
  Mo  Mo202  1  0.50255564  0.50864778  0.29989904  1
  Mo  Mo203  1  0.50024321  0.09923220  0.28944079  1
  Mo  Mo204  1  0.79626202  0.40091094  0.80511784  1
  Mo  Mo205  1  0.69840962  0.30454092  0.70437853  1
  Mo  Mo206  1  0.79623475  0.59574858  0.00250203  1
  Mo  Mo207  1  0.79764566  0.60625961  0.40397584  1
  Mo  Mo208  1  0.70269661  0.09877380  0.50267099  1
  Mo  Mo209  1  0.89979666  0.49582565  0.90470880  1
  Mo  Mo210  1  0.59643783  0.79835263  -0.00047719  1
  Mo  Mo211  1  0.41408549  -0.00348412  0.19497117  1
  Mo  Mo212  1  -0.00378210  0.60827286  0.40553103  1
  Mo  Mo213  1  0.70433559  0.70685868  0.09875561  1
  Mo  Mo214  1  -0.00403442  0.78528737  0.59643015  1
  Mo  Mo215  1  0.20300721  -0.00115689  0.59400847  1
  Mo  Mo216  1  0.10477914  0.30451670  0.70354835  1
  Mo  Mo217  1  0.60081829  -0.01384433  0.61417443  1
  Mo  Mo218  1  0.10429829  0.69250701  0.90090609  1
  Mo  Mo219  1  0.61356721  0.40632579  -0.00314561  1
  Mo  Mo220  1  0.09905528  0.70088894  0.30026854  1
  Mo  Mo221  1  0.40987633  0.60057959  -0.00294422  1
  Mo  Mo222  1  0.09044429  0.70037769  0.09829193  1
  Mo  Mo223  1  0.29508099  0.50709173  0.70251821  1
  Mo  Mo224  1  0.80197125  0.79511081  0.60586242  1
  Mo  Mo225  1  -0.00896809  0.40575760  -0.00446707  1
  Mo  Mo226  1  0.60777237  0.39934136  0.19658724  1
  Mo  Mo227  1  0.59748741  0.80357411  0.20057216  1
  Mo  Mo228  1  0.21184571  0.19410421  0.40381250  1
  Mo  Mo229  1  0.79680974  0.60235653  0.80352068  1
  Mo  Mo230  1  0.89690741  0.70437164  0.29328939  1
  Mo  Mo231  1  0.69678828  0.90030671  0.29116246  1
  Mo  Mo232  1  0.90046992  0.90516978  0.29785118  1
  Mo  Mo233  1  0.78885351  0.20074647  0.59952790  1
  Mo  Mo234  1  0.29461773  0.51866848  0.29660195  1
  Mo  Mo235  1  0.79536657  0.21024106  -0.00462916  1
  Mo  Mo236  1  0.11054922  0.09744832  0.90270143  1
  Mo  Mo237  1  0.88632138  0.10532179  0.89203617  1
  Mo  Mo238  1  -0.00053023  0.78675596  0.00192473  1
  Mo  Mo239  1  0.69693036  0.30103791  0.50130362  1
  Mo  Mo240  1  0.30654521  0.28187406  0.09580180  1
  Mo  Mo241  1  0.40316753  0.59344296  0.80649855  1
  Mo  Mo242  1  0.70124812  0.10818732  0.09764876  1
  Mo  Mo243  1  0.31205707  0.50322996  0.89912725  1
  Mo  Mo244  1  0.30819776  0.51915914  0.10230776  1
  Mo  Mo245  1  0.70337876  0.30797429  0.90293651  1
  Mo  Mo246  1  0.89936208  0.89736985  0.89708477  1
  Mo  Mo247  1  0.70107603  0.09882814  0.29317851  1
  Mo  Mo248  1  0.49356512  0.70655635  0.49885353  1
  Mo  Mo249  1  0.50535365  0.09963311  0.10177636  1
