# generated using pymatgen
data_HfZrTaTiMo
_symmetry_space_group_name_H-M   'P 1'
_cell_length_a   16.86679093
_cell_length_b   16.87551770
_cell_length_c   16.88960201
_cell_angle_alpha   89.96963778
_cell_angle_beta   89.96926959
_cell_angle_gamma   89.95249003
_symmetry_Int_Tables_number   1
_chemical_formula_structural   HfZrTaTiMo
_chemical_formula_sum   'Hf50 Zr50 Ta50 Ti50 Mo50'
_cell_volume   4807.38284950
_cell_formula_units_Z   50
loop_
 _symmetry_equiv_pos_site_id
 _symmetry_equiv_pos_as_xyz
  1  'x, y, z'
loop_
 _atom_site_type_symbol
 _atom_site_label
 _atom_site_symmetry_multiplicity
 _atom_site_fract_x
 _atom_site_fract_y
 _atom_site_fract_z
 _atom_site_occupancy
  Hf  Hf0  1  0.20336056  0.40237895  0.00696990  1
  Hf  Hf1  1  0.59878177  0.40413550  -0.00155878  1
  Hf  Hf2  1  0.30012254  0.69936737  0.30764092  1
  Hf  Hf3  1  0.50204454  0.90153581  0.08777167  1
  Hf  Hf4  1  0.00469436  -0.00958550  0.00772109  1
  Hf  Hf5  1  0.90086071  0.09657986  0.69388074  1
  Hf  Hf6  1  0.29774368  0.90705746  0.70001319  1
  Hf  Hf7  1  0.00576462  0.79561697  0.59700089  1
  Hf  Hf8  1  0.69644713  0.69300389  0.89696138  1
  Hf  Hf9  1  0.19827422  0.39870749  0.19734236  1
  Hf  Hf10  1  0.89759906  0.68953461  0.70013306  1
  Hf  Hf11  1  0.30625799  0.10597505  0.10805075  1
  Hf  Hf12  1  0.60341483  0.79374192  0.20145179  1
  Hf  Hf13  1  0.41049613  0.79935682  0.20243453  1
  Hf  Hf14  1  0.20340134  0.00145164  0.40076632  1
  Hf  Hf15  1  0.00421302  0.01347287  0.81814436  1
  Hf  Hf16  1  0.00588517  0.20218439  0.21011152  1
  Hf  Hf17  1  0.21115234  0.79133740  0.81035195  1
  Hf  Hf18  1  0.40506765  0.00172832  0.21447617  1
  Hf  Hf19  1  0.79073940  0.20680915  0.40388988  1
  Hf  Hf20  1  0.49579249  0.50418249  0.90328095  1
  Hf  Hf21  1  0.39591622  0.80674512  0.59805027  1
  Hf  Hf22  1  0.90035169  0.10038207  0.30300523  1
  Hf  Hf23  1  0.80013383  0.59709652  -0.00127873  1
  Hf  Hf24  1  0.69023541  0.90206746  0.90618230  1
  Hf  Hf25  1  0.50171466  0.08765689  0.90280806  1
  Hf  Hf26  1  0.50263453  0.70375734  0.50083828  1
  Hf  Hf27  1  0.89640291  0.49765816  0.30730096  1
  Hf  Hf28  1  0.79728203  0.20527812  0.59829001  1
  Hf  Hf29  1  0.70104554  0.89814165  0.10186717  1
  Hf  Hf30  1  0.59665578  0.19928948  0.79196121  1
  Hf  Hf31  1  0.90039328  0.89425278  0.48990971  1
  Hf  Hf32  1  0.19423865  0.41691853  0.59121043  1
  Hf  Hf33  1  0.20626330  0.40625595  0.80253422  1
  Hf  Hf34  1  0.18882045  0.00376382  0.20529600  1
  Hf  Hf35  1  0.00004299  0.40123651  0.19652757  1
  Hf  Hf36  1  0.59260215  0.39934042  0.40048931  1
  Hf  Hf37  1  0.39610962  0.40344991  0.20163828  1
  Hf  Hf38  1  0.80226673  0.79437923  0.00713815  1
  Hf  Hf39  1  0.40648098  0.59797110  0.20346664  1
  Hf  Hf40  1  0.49576800  0.29500930  0.30546301  1
  Hf  Hf41  1  0.69788159  0.29751684  0.10275868  1
  Hf  Hf42  1  0.08230398  0.29928348  0.08520486  1
  Hf  Hf43  1  0.60116091  -0.00414563  0.78758972  1
  Hf  Hf44  1  0.49943863  0.70333467  0.90223630  1
  Hf  Hf45  1  0.19712829  0.20955815  0.20303665  1
  Hf  Hf46  1  0.39312713  0.20776012  -0.00268931  1
  Hf  Hf47  1  0.09229996  0.70354682  0.10741424  1
  Hf  Hf48  1  0.31566182  0.30864741  0.49856763  1
  Hf  Hf49  1  0.49327768  0.29718179  0.10910926  1
  Zr  Zr50  1  0.20016106  0.59079983  0.19596446  1
  Zr  Zr51  1  0.10830828  0.11168957  0.49409702  1
  Zr  Zr52  1  0.10561064  0.69296235  0.69783395  1
  Zr  Zr53  1  0.10866874  0.90060641  0.70588489  1
  Zr  Zr54  1  -0.00651058  0.20480811  0.80052194  1
  Zr  Zr55  1  0.79932096  0.80007095  0.60269760  1
  Zr  Zr56  1  0.09543282  0.70343256  0.30474489  1
  Zr  Zr57  1  0.30518032  0.30614302  0.68944053  1
  Zr  Zr58  1  0.80052658  0.60459507  0.39911958  1
  Zr  Zr59  1  0.69931161  0.09875722  0.90937881  1
  Zr  Zr60  1  0.69537961  0.90628098  0.49625480  1
  Zr  Zr61  1  0.69522060  0.10210216  0.30330638  1
  Zr  Zr62  1  0.11279665  0.10121037  0.69457492  1
  Zr  Zr63  1  0.09933736  0.30604915  0.69403006  1
  Zr  Zr64  1  0.69564332  0.30963443  0.68900082  1
  Zr  Zr65  1  0.50157954  0.49951886  0.69456766  1
  Zr  Zr66  1  0.00689982  -0.00291575  0.38824760  1
  Zr  Zr67  1  0.30008796  0.88972462  0.31268601  1
  Zr  Zr68  1  0.30391661  0.89968392  0.09990581  1
  Zr  Zr69  1  0.59036689  0.19998927  0.00205483  1
  Zr  Zr70  1  0.81126765  0.40218875  0.00047334  1
  Zr  Zr71  1  0.40732484  0.18976792  0.41618766  1
  Zr  Zr72  1  0.30472117  0.50536999  0.49565589  1
  Zr  Zr73  1  0.20687806  0.19849807  0.80852367  1
  Zr  Zr74  1  0.01371052  -0.00328188  0.58998776  1
  Zr  Zr75  1  0.38801095  0.60892119  0.79980460  1
  Zr  Zr76  1  0.19194419  -0.00025331  -0.00058819  1
  Zr  Zr77  1  0.90589565  0.90383146  0.70240541  1
  Zr  Zr78  1  -0.00682406  0.59437621  0.00310125  1
  Zr  Zr79  1  0.19798642  0.60064541  -0.00011124  1
  Zr  Zr80  1  0.49531722  0.30326736  0.67947347  1
  Zr  Zr81  1  0.90212940  0.10614025  0.10343037  1
  Zr  Zr82  1  0.39807610  0.19880195  0.80034046  1
  Zr  Zr83  1  0.70034301  0.29880632  0.90065079  1
  Zr  Zr84  1  0.19686147  0.80166895  -0.00000098  1
  Zr  Zr85  1  0.89802829  0.30850190  0.31204840  1
  Zr  Zr86  1  0.78720584  0.80339745  0.79206418  1
  Zr  Zr87  1  0.09469544  0.30655913  0.90036834  1
  Zr  Zr88  1  0.59705399  0.59508475  0.39896327  1
  Zr  Zr89  1  0.59690396  -0.00913704  0.21380399  1
  Zr  Zr90  1  0.70014670  0.69952569  0.50217246  1
  Zr  Zr91  1  0.80984915  0.39963430  0.80167827  1
  Zr  Zr92  1  0.10360087  0.30211941  0.49949583  1
  Zr  Zr93  1  0.81008204  -0.01766749  0.20604246  1
  Zr  Zr94  1  0.70236656  0.49749513  0.29630418  1
  Zr  Zr95  1  0.60438902  0.80985070  0.61303366  1
  Zr  Zr96  1  0.81278893  -0.00075757  -0.00035847  1
  Zr  Zr97  1  0.89563247  0.10005891  0.49666344  1
  Zr  Zr98  1  0.80901934  0.20055814  0.80157805  1
  Zr  Zr99  1  0.39862058  0.60641969  0.59967266  1
  Ta  Ta100  1  0.90739730  0.69872049  0.49290357  1
  Ta  Ta101  1  0.89704982  0.49324114  0.49988632  1
  Ta  Ta102  1  0.68425100  0.09935017  0.49925969  1
  Ta  Ta103  1  0.49992403  0.70065251  0.30701787  1
  Ta  Ta104  1  0.00181862  0.59169919  0.59133408  1
  Ta  Ta105  1  0.09652619  0.50022174  0.30201324  1
  Ta  Ta106  1  -0.00714950  0.20936896  0.59785637  1
  Ta  Ta107  1  0.09387413  0.49949031  0.89728749  1
  Ta  Ta108  1  0.30255131  0.09280160  0.90314905  1
  Ta  Ta109  1  -0.00654099  0.59727034  0.20390107  1
  Ta  Ta110  1  0.70142612  0.50230899  0.69446039  1
  Ta  Ta111  1  0.49953903  0.90516675  0.49466029  1
  Ta  Ta112  1  0.59523092  0.40620817  0.20051805  1
  Ta  Ta113  1  0.90149277  0.89381576  0.89674456  1
  Ta  Ta114  1  0.89811933  0.69756830  0.89309959  1
  Ta  Ta115  1  0.79855117  0.39612590  0.19566337  1
  Ta  Ta116  1  0.70109296  0.49203231  0.51060527  1
  Ta  Ta117  1  0.80011584  0.20821173  0.19899722  1
  Ta  Ta118  1  0.19884671  0.40007560  0.39232154  1
  Ta  Ta119  1  0.29389384  0.70504632  0.49219824  1
  Ta  Ta120  1  0.30138661  0.50201568  0.90319020  1
  Ta  Ta121  1  0.20701111  0.20592307  -0.00044291  1
  Ta  Ta122  1  0.39984827  -0.00318520  0.79903735  1
  Ta  Ta123  1  0.60324593  0.79018360  0.00565229  1
  Ta  Ta124  1  0.60073036  0.80773931  0.39052783  1
  Ta  Ta125  1  0.30535125  0.29725221  0.30557539  1
  Ta  Ta126  1  0.19445233  0.59302303  0.40312128  1
  Ta  Ta127  1  0.89617946  0.70069451  0.10985609  1
  Ta  Ta128  1  0.09831752  0.88660616  0.29974554  1
  Ta  Ta129  1  0.50621354  0.70102827  0.70225424  1
  Ta  Ta130  1  0.00514840  -0.00978101  0.19802149  1
  Ta  Ta131  1  0.69487558  0.50656989  0.10139376  1
  Ta  Ta132  1  0.89771808  0.31357335  0.50113575  1
  Ta  Ta133  1  0.79255374  -0.00689035  0.39398657  1
  Ta  Ta134  1  0.30038436  0.10952189  0.30678352  1
  Ta  Ta135  1  0.69765172  0.09925788  0.10341285  1
  Ta  Ta136  1  0.79835964  0.00232122  0.79868034  1
  Ta  Ta137  1  0.59928833  0.40469657  0.79923541  1
  Ta  Ta138  1  0.49934027  0.89591063  0.90169070  1
  Ta  Ta139  1  0.49685061  0.09808842  0.68508590  1
  Ta  Ta140  1  0.50270683  0.50611167  0.09583960  1
  Ta  Ta141  1  0.60077024  0.59601435  0.79840069  1
  Ta  Ta142  1  -0.00607822  0.59257954  0.79951196  1
  Ta  Ta143  1  0.10388671  0.69589167  0.49815452  1
  Ta  Ta144  1  0.09450301  0.50262827  0.69945415  1
  Ta  Ta145  1  0.39993297  0.80162598  0.79843009  1
  Ta  Ta146  1  0.09114061  0.69594074  0.89730316  1
  Ta  Ta147  1  -0.00538054  0.79977798  0.00303767  1
  Ta  Ta148  1  0.30855629  0.70462082  0.09603833  1
  Ta  Ta149  1  0.89892531  0.49667449  0.69133552  1
  Ti  Ti150  1  0.49450749  0.90579798  0.69663671  1
  Ti  Ti151  1  0.69482698  0.30205786  0.30052302  1
  Ti  Ti152  1  0.30475543  0.09513561  0.69631996  1
  Ti  Ti153  1  -0.01838474  0.80540044  0.20621680  1
  Ti  Ti154  1  0.50249774  0.69402240  0.09281812  1
  Ti  Ti155  1  0.39708070  0.00458781  0.58918397  1
  Ti  Ti156  1  0.10755377  0.88371679  0.48555410  1
  Ti  Ti157  1  0.30360007  0.49647884  0.30829609  1
  Ti  Ti158  1  0.20297209  0.00082150  0.81307616  1
  Ti  Ti159  1  0.89657764  0.50035728  0.10744700  1
  Ti  Ti160  1  0.21000696  -0.00404949  0.58416695  1
  Ti  Ti161  1  0.00906628  0.20653337  0.39642389  1
  Ti  Ti162  1  0.30939867  0.50472187  0.09462507  1
  Ti  Ti163  1  0.39459502  0.40266599  0.80098436  1
  Ti  Ti164  1  0.50164442  0.09884520  0.10540506  1
  Ti  Ti165  1  0.40058938  -0.00151451  0.40555584  1
  Ti  Ti166  1  0.19921832  0.59910795  0.80414586  1
  Ti  Ti167  1  0.59768560  0.60154557  0.19805374  1
  Ti  Ti168  1  0.59844527  0.19816293  0.20467118  1
  Ti  Ti169  1  -0.00013359  0.59941150  0.40069932  1
  Ti  Ti170  1  0.39984375  0.00158812  0.00047668  1
  Ti  Ti171  1  0.20084259  0.80156043  0.19723178  1
  Ti  Ti172  1  -0.00572955  0.18570443  -0.01495498  1
  Ti  Ti173  1  0.70000793  0.50480498  0.89473530  1
  Ti  Ti174  1  0.70232607  0.70172080  0.29460071  1
  Ti  Ti175  1  0.49858127  0.48987859  0.50716933  1
  Ti  Ti176  1  0.31305584  0.89735456  0.90439149  1
  Ti  Ti177  1  0.40764932  0.59467591  0.39715417  1
  Ti  Ti178  1  0.09546961  0.89091290  0.89713693  1
  Ti  Ti179  1  0.39547435  0.60627018  -0.00088408  1
  Ti  Ti180  1  0.21906641  0.19499144  0.58960621  1
  Ti  Ti181  1  -0.00081624  0.79392295  0.80226960  1
  Ti  Ti182  1  0.81160609  0.20454003  0.00194005  1
  Ti  Ti183  1  0.49622987  0.30768243  0.89349492  1
  Ti  Ti184  1  0.09930628  0.10741870  0.09736926  1
  Ti  Ti185  1  0.39342558  0.39491354  0.00068739  1
  Ti  Ti186  1  0.80332089  0.59583210  0.59617021  1
  Ti  Ti187  1  0.50570427  0.10089842  0.31308955  1
  Ti  Ti188  1  0.69221823  0.09916655  0.68585269  1
  Ti  Ti189  1  0.29566493  0.50658621  0.69538791  1
  Ti  Ti190  1  0.01093239  0.40562879  0.40587833  1
  Ti  Ti191  1  0.20433739  0.80302302  0.59109733  1
  Ti  Ti192  1  0.80499812  0.80181183  0.38004687  1
  Ti  Ti193  1  0.29292257  0.69961082  0.69147728  1
  Ti  Ti194  1  -0.01026748  0.40215068  0.80039656  1
  Ti  Ti195  1  0.59847812  0.80260486  0.79472450  1
  Ti  Ti196  1  0.79128999  -0.00210652  0.60087910  1
  Ti  Ti197  1  0.69579145  0.68212946  0.69834509  1
  Ti  Ti198  1  0.68936792  0.30421895  0.50286477  1
  Ti  Ti199  1  0.79966362  0.60569764  0.19946717  1
  Mo  Mo200  1  0.59323121  0.00075359  0.40131594  1
  Mo  Mo201  1  0.30358493  0.09556398  0.50196290  1
  Mo  Mo202  1  0.59956278  0.40279165  0.59496400  1
  Mo  Mo203  1  0.80034555  0.78883310  0.20466245  1
  Mo  Mo204  1  0.49826428  0.89645605  0.31230347  1
  Mo  Mo205  1  0.59674191  -0.00152285  0.00803472  1
  Mo  Mo206  1  0.78920784  0.39795454  0.40490555  1
  Mo  Mo207  1  0.39951180  0.41114556  0.59608150  1
  Mo  Mo208  1  0.40623299  0.79805519  0.40475146  1
  Mo  Mo209  1  0.40192362  0.19357101  0.20890831  1
  Mo  Mo210  1  0.90295391  0.89445687  0.30164749  1
  Mo  Mo211  1  0.59969683  0.20389859  0.40615835  1
  Mo  Mo212  1  0.49942141  0.50306437  0.29510661  1
  Mo  Mo213  1  0.89996022  0.69802455  0.29917841  1
  Mo  Mo214  1  0.89718185  0.29703153  0.10065514  1
  Mo  Mo215  1  0.39783758  0.18444615  0.59877832  1
  Mo  Mo216  1  0.79865116  0.59338529  0.79685767  1
  Mo  Mo217  1  0.89748022  0.09634554  0.90134765  1
  Mo  Mo218  1  0.50557331  0.29830873  0.50242999  1
  Mo  Mo219  1  0.50415813  0.09278440  0.50281835  1
  Mo  Mo220  1  0.11100748  0.10320512  0.90962775  1
  Mo  Mo221  1  0.59586446  0.19931407  0.59130184  1
  Mo  Mo222  1  0.40251278  0.40476930  0.39677102  1
  Mo  Mo223  1  0.60153848  0.59818250  0.00005065  1
  Mo  Mo224  1  0.91203010  0.30431082  0.91906519  1
  Mo  Mo225  1  0.10365216  0.30599409  0.30865572  1
  Mo  Mo226  1  0.60340369  0.59739993  0.60403620  1
  Mo  Mo227  1  -0.00390537  0.41245010  0.00099511  1
  Mo  Mo228  1  -0.00312335  0.40502839  0.59865333  1
  Mo  Mo229  1  0.10407752  0.10428145  0.29860965  1
  Mo  Mo230  1  0.40395962  0.79567448  -0.00402913  1
  Mo  Mo231  1  0.30336343  0.89994185  0.50297505  1
  Mo  Mo232  1  0.70153500  0.91494092  0.69903268  1
  Mo  Mo233  1  0.30215493  0.30021522  0.10372182  1
  Mo  Mo234  1  0.70016693  0.69070134  0.10441626  1
  Mo  Mo235  1  0.09418456  0.50434322  0.49419018  1
  Mo  Mo236  1  0.90398619  0.30944129  0.68371713  1
  Mo  Mo237  1  0.59264778  0.00274914  0.59797127  1
  Mo  Mo238  1  0.90125232  0.50224619  0.88933155  1
  Mo  Mo239  1  0.19617776  0.60474552  0.59757438  1
  Mo  Mo240  1  0.09385947  0.88891932  0.11311245  1
  Mo  Mo241  1  0.08960246  0.49869218  0.10170147  1
  Mo  Mo242  1  0.19902457  0.79530957  0.40391116  1
  Mo  Mo243  1  0.70205336  0.89287646  0.30267324  1
  Mo  Mo244  1  0.79937519  0.40139585  0.59631806  1
  Mo  Mo245  1  0.20766454  0.20491061  0.39591803  1
  Mo  Mo246  1  0.00053731  0.79335963  0.39975081  1
  Mo  Mo247  1  0.90433201  0.88828773  0.10164150  1
  Mo  Mo248  1  0.30032761  0.69880280  0.90275124  1
  Mo  Mo249  1  0.30505264  0.30993108  0.90451593  1
