# generated using pymatgen
data_HfZrTaTiMo
_symmetry_space_group_name_H-M   'P 1'
_cell_length_a   16.89879843
_cell_length_b   16.89675316
_cell_length_c   16.89506200
_cell_angle_alpha   89.96011055
_cell_angle_beta   90.02290728
_cell_angle_gamma   90.04087649
_symmetry_Int_Tables_number   1
_chemical_formula_structural   HfZrTaTiMo
_chemical_formula_sum   'Hf50 Zr50 Ta50 Ti50 Mo50'
_cell_volume   4824.12580061
_cell_formula_units_Z   50
loop_
 _symmetry_equiv_pos_site_id
 _symmetry_equiv_pos_as_xyz
  1  'x, y, z'
loop_
 _atom_site_type_symbol
 _atom_site_label
 _atom_site_symmetry_multiplicity
 _atom_site_fract_x
 _atom_site_fract_y
 _atom_site_fract_z
 _atom_site_occupancy
  Hf  Hf0  1  0.90071409  0.89461560  0.29745954  1
  Hf  Hf1  1  0.41018017  0.60088313  0.21394560  1
  Hf  Hf2  1  0.49449366  0.69600467  0.09388115  1
  Hf  Hf3  1  0.49296150  0.10261668  0.68985799  1
  Hf  Hf4  1  0.19987492  0.00179362  0.80762823  1
  Hf  Hf5  1  0.40024034  0.19847447  0.00486573  1
  Hf  Hf6  1  0.30430432  0.50164632  0.69726371  1
  Hf  Hf7  1  0.90388923  0.89704809  0.10054096  1
  Hf  Hf8  1  0.20458669  0.00600885  0.40563142  1
  Hf  Hf9  1  0.10422399  0.30154433  0.89585464  1
  Hf  Hf10  1  0.09519980  0.30173699  0.49985556  1
  Hf  Hf11  1  0.60892656  0.00330573  0.59555630  1
  Hf  Hf12  1  0.79253639  0.79636609  -0.00412092  1
  Hf  Hf13  1  0.69946951  0.10067007  0.29497563  1
  Hf  Hf14  1  0.70395969  0.30462750  0.48443548  1
  Hf  Hf15  1  0.89794381  0.29737393  0.09244448  1
  Hf  Hf16  1  0.88849757  0.50530542  0.08845145  1
  Hf  Hf17  1  -0.00076817  0.40683345  0.20563033  1
  Hf  Hf18  1  0.59849277  0.39958487  0.60007346  1
  Hf  Hf19  1  0.20251437  0.79922843  0.19477896  1
  Hf  Hf20  1  -0.00450158  0.40366775  0.80245977  1
  Hf  Hf21  1  0.59414388  0.00107178  0.80655390  1
  Hf  Hf22  1  0.60007918  0.40016566  0.80189183  1
  Hf  Hf23  1  -0.00481119  0.01540860  0.39820122  1
  Hf  Hf24  1  0.90832322  0.51063791  0.69637034  1
  Hf  Hf25  1  0.30789722  0.50108792  0.09707926  1
  Hf  Hf26  1  0.00523446  0.59929378  0.20905014  1
  Hf  Hf27  1  0.29943091  0.11272428  0.70355324  1
  Hf  Hf28  1  0.50022098  0.49955875  0.10325503  1
  Hf  Hf29  1  0.29750040  0.50264751  0.89787854  1
  Hf  Hf30  1  0.79983883  0.40379366  0.60264260  1
  Hf  Hf31  1  0.79586253  0.60332431  0.20905931  1
  Hf  Hf32  1  0.90145993  0.90256757  0.90231394  1
  Hf  Hf33  1  0.79752775  0.19773346  0.19289947  1
  Hf  Hf34  1  0.29670435  0.29859355  0.88961610  1
  Hf  Hf35  1  0.00455899  0.79732425  0.60852982  1
  Hf  Hf36  1  0.90504393  0.50951903  0.50914998  1
  Hf  Hf37  1  0.49054403  0.50016083  0.90273392  1
  Hf  Hf38  1  0.19580715  0.00688852  0.59370708  1
  Hf  Hf39  1  0.60149984  0.39142591  0.00927430  1
  Hf  Hf40  1  0.20398735  0.79577578  0.39925260  1
  Hf  Hf41  1  0.59508062  0.19849252  0.80657277  1
  Hf  Hf42  1  0.59976895  0.80065742  -0.00939395  1
  Hf  Hf43  1  0.00577867  0.00975511  0.59669010  1
  Hf  Hf44  1  0.69760776  0.69102611  0.09767723  1
  Hf  Hf45  1  0.90044217  0.70155548  0.09933365  1
  Hf  Hf46  1  0.20351719  -0.00128519  0.00201857  1
  Hf  Hf47  1  0.39997781  0.00865114  0.81321053  1
  Hf  Hf48  1  0.00846490  0.41790871  0.40018876  1
  Hf  Hf49  1  0.30952776  0.30474387  0.49588373  1
  Zr  Zr50  1  0.79671592  0.78552540  0.61909022  1
  Zr  Zr51  1  0.89093164  0.91161927  0.70666932  1
  Zr  Zr52  1  0.30072854  0.90120549  0.70312073  1
  Zr  Zr53  1  0.70616516  0.50866482  0.91302971  1
  Zr  Zr54  1  0.48600826  0.29508516  0.68857019  1
  Zr  Zr55  1  0.49702217  0.90102145  0.50430982  1
  Zr  Zr56  1  0.59792917  0.20606807  0.19666844  1
  Zr  Zr57  1  0.19797644  0.19526137  0.59242877  1
  Zr  Zr58  1  0.20542241  0.19448259  0.00472197  1
  Zr  Zr59  1  0.70068293  0.29481045  0.70170965  1
  Zr  Zr60  1  0.79087196  0.39635073  0.19799114  1
  Zr  Zr61  1  0.90583097  0.69627083  0.50303188  1
  Zr  Zr62  1  0.59404399  0.61197428  0.80084014  1
  Zr  Zr63  1  0.59497871  0.79954979  0.20469742  1
  Zr  Zr64  1  0.09607238  0.88995917  0.49719965  1
  Zr  Zr65  1  0.89857507  0.89043702  0.49301743  1
  Zr  Zr66  1  0.30425706  0.48971467  0.30487874  1
  Zr  Zr67  1  0.10029589  0.29332955  0.30857969  1
  Zr  Zr68  1  0.19721448  0.80106241  -0.00580096  1
  Zr  Zr69  1  0.90556471  0.30184928  0.49841296  1
  Zr  Zr70  1  0.79207767  0.60998397  0.79511960  1
  Zr  Zr71  1  0.89382903  0.29342607  0.31274811  1
  Zr  Zr72  1  0.31137188  0.09908971  0.11289302  1
  Zr  Zr73  1  0.29642422  0.69153322  0.50654710  1
  Zr  Zr74  1  0.00938895  0.80220777  0.80303364  1
  Zr  Zr75  1  0.00321537  0.18847155  0.00201387  1
  Zr  Zr76  1  0.50451741  0.91235897  0.09911180  1
  Zr  Zr77  1  0.59415398  0.79541891  0.39030790  1
  Zr  Zr78  1  0.69720010  0.69334891  0.50759028  1
  Zr  Zr79  1  0.09623011  0.89808453  0.30085691  1
  Zr  Zr80  1  0.90090742  0.09964925  0.70462961  1
  Zr  Zr81  1  0.20413471  0.39303700  0.20246324  1
  Zr  Zr82  1  0.70886951  0.09224851  0.71051005  1
  Zr  Zr83  1  0.40361032  0.59818545  0.40010575  1
  Zr  Zr84  1  0.09533860  0.29951996  0.09818478  1
  Zr  Zr85  1  0.59356943  0.00106720  0.39022267  1
  Zr  Zr86  1  0.89456275  0.09588861  0.90125663  1
  Zr  Zr87  1  0.19224641  0.60531604  0.20774831  1
  Zr  Zr88  1  0.30645598  0.69509735  0.09175736  1
  Zr  Zr89  1  0.49828754  0.69444245  0.50756524  1
  Zr  Zr90  1  0.39145332  0.79980560  0.60326441  1
  Zr  Zr91  1  0.09826206  0.29800893  0.69808605  1
  Zr  Zr92  1  0.90031551  0.69151650  0.89857427  1
  Zr  Zr93  1  0.10496183  0.49708577  0.08971351  1
  Zr  Zr94  1  0.80023154  0.19069238  0.58864208  1
  Zr  Zr95  1  0.79516619  0.60474364  0.39573039  1
  Zr  Zr96  1  0.00631264  0.59974160  -0.00651281  1
  Zr  Zr97  1  0.70559858  0.89530460  0.49750236  1
  Zr  Zr98  1  0.49597665  0.10983489  0.49979220  1
  Zr  Zr99  1  0.80397015  0.40111076  0.80686168  1
  Ta  Ta100  1  0.20135042  0.19605524  0.20119957  1
  Ta  Ta101  1  0.69295629  0.49139554  0.30615018  1
  Ta  Ta102  1  0.39987244  0.80493465  0.20573195  1
  Ta  Ta103  1  0.80299139  0.00964736  0.39645345  1
  Ta  Ta104  1  0.69862359  0.90912822  0.90098807  1
  Ta  Ta105  1  -0.00195499  0.18725409  0.20334036  1
  Ta  Ta106  1  0.10076137  0.50454202  0.69781416  1
  Ta  Ta107  1  0.59557982  0.20530426  0.39200439  1
  Ta  Ta108  1  0.01469554  -0.00055489  -0.00062900  1
  Ta  Ta109  1  0.19844096  0.00016781  0.19839641  1
  Ta  Ta110  1  0.69489594  0.50006984  0.49656807  1
  Ta  Ta111  1  0.39731708  0.00231570  0.00031191  1
  Ta  Ta112  1  0.59472207  0.80168644  0.80111986  1
  Ta  Ta113  1  0.39785485  0.80644207  0.39262965  1
  Ta  Ta114  1  0.39604857  0.60947945  0.79491065  1
  Ta  Ta115  1  0.78633635  0.79757420  0.80445112  1
  Ta  Ta116  1  0.70052462  0.28770583  0.91302684  1
  Ta  Ta117  1  0.49144028  0.50238126  0.69402465  1
  Ta  Ta118  1  0.30076989  0.90594299  0.29625109  1
  Ta  Ta119  1  0.19894990  0.40645071  0.59502349  1
  Ta  Ta120  1  0.49932139  0.29926025  0.90648811  1
  Ta  Ta121  1  0.39597346  0.39131915  0.00434393  1
  Ta  Ta122  1  0.39610854  0.00066524  0.39660432  1
  Ta  Ta123  1  0.59309405  0.59653480  0.39064980  1
  Ta  Ta124  1  0.38336882  0.00425598  0.58652266  1
  Ta  Ta125  1  0.09844869  0.90005065  0.10153126  1
  Ta  Ta126  1  0.68972453  0.09661011  0.09132233  1
  Ta  Ta127  1  0.40391757  0.19971497  0.39124526  1
  Ta  Ta128  1  0.80328534  0.00279319  0.19728895  1
  Ta  Ta129  1  0.00111952  0.00696364  0.19530434  1
  Ta  Ta130  1  0.49212206  0.29835740  0.10779927  1
  Ta  Ta131  1  0.69859200  0.90915428  0.10182710  1
  Ta  Ta132  1  0.69317510  0.50247860  0.10495609  1
  Ta  Ta133  1  0.40185516  0.19651619  0.81222347  1
  Ta  Ta134  1  0.10061837  0.69287954  0.50349651  1
  Ta  Ta135  1  0.59812941  0.80152108  0.61590015  1
  Ta  Ta136  1  0.30366957  0.10132145  0.29819011  1
  Ta  Ta137  1  0.11009445  0.69115579  0.70059560  1
  Ta  Ta138  1  0.90789283  0.29748680  0.69462133  1
  Ta  Ta139  1  0.70261994  0.90564861  0.29132380  1
  Ta  Ta140  1  0.01537678  0.00214795  0.80485955  1
  Ta  Ta141  1  0.70127588  0.10136131  0.91073875  1
  Ta  Ta142  1  0.01218084  0.78897614  0.19875520  1
  Ta  Ta143  1  0.20391756  0.79476291  0.80016731  1
  Ta  Ta144  1  0.10861835  0.50114954  0.88879861  1
  Ta  Ta145  1  0.49930000  0.30151208  0.49596282  1
  Ta  Ta146  1  0.49651811  0.90489887  0.70195502  1
  Ta  Ta147  1  0.49949743  0.49414905  0.50302962  1
  Ta  Ta148  1  0.80390147  0.20428290  0.80742923  1
  Ta  Ta149  1  0.69849049  0.90311563  0.70779912  1
  Ti  Ti150  1  0.20130937  0.40065220  0.78818115  1
  Ti  Ti151  1  0.59339961  0.39554406  0.20852965  1
  Ti  Ti152  1  0.79382527  0.79729042  0.20354284  1
  Ti  Ti153  1  0.80085766  0.00698844  0.58300629  1
  Ti  Ti154  1  0.40415707  -0.00559044  0.20309269  1
  Ti  Ti155  1  0.59811855  0.60191817  0.21460080  1
  Ti  Ti156  1  0.49541610  0.89962094  0.90176603  1
  Ti  Ti157  1  -0.00694506  0.40651307  -0.01223376  1
  Ti  Ti158  1  0.00139714  0.19724617  0.79849129  1
  Ti  Ti159  1  0.79507748  0.39559992  -0.00013929  1
  Ti  Ti160  1  0.01282233  0.60080901  0.39519836  1
  Ti  Ti161  1  0.49451194  0.10106876  0.28578115  1
  Ti  Ti162  1  0.19794926  0.60620652  -0.00359247  1
  Ti  Ti163  1  0.48371066  0.70145498  0.90569031  1
  Ti  Ti164  1  0.20813876  0.39382230  0.00205207  1
  Ti  Ti165  1  0.79072457  0.79330214  0.38692874  1
  Ti  Ti166  1  0.30342486  0.29976292  0.69472547  1
  Ti  Ti167  1  0.51003161  0.10118663  0.92207981  1
  Ti  Ti168  1  0.60881236  0.19773644  0.59074906  1
  Ti  Ti169  1  0.40258839  0.39589903  0.79767744  1
  Ti  Ti170  1  0.19692003  0.40874702  0.40518930  1
  Ti  Ti171  1  0.00315778  0.18680698  0.59328450  1
  Ti  Ti172  1  0.41641623  0.39661062  0.38952375  1
  Ti  Ti173  1  0.90778246  0.70669499  0.30420152  1
  Ti  Ti174  1  0.69718290  0.50819741  0.69566682  1
  Ti  Ti175  1  0.10371275  0.10463473  0.29942749  1
  Ti  Ti176  1  0.79745983  -0.00046158  0.00487983  1
  Ti  Ti177  1  0.10863810  0.10883213  0.89245584  1
  Ti  Ti178  1  0.59753077  0.60388954  -0.00606128  1
  Ti  Ti179  1  0.59688498  0.59939618  0.60519530  1
  Ti  Ti180  1  0.01360932  0.79758547  0.00012026  1
  Ti  Ti181  1  0.30156336  0.70034981  0.30284394  1
  Ti  Ti182  1  0.20272529  0.79952283  0.60287889  1
  Ti  Ti183  1  0.30315031  0.69639182  0.89768719  1
  Ti  Ti184  1  0.39850993  0.79710483  0.79971210  1
  Ti  Ti185  1  0.30318389  0.89592473  0.90056527  1
  Ti  Ti186  1  0.20778689  0.19577730  0.39861128  1
  Ti  Ti187  1  0.20215082  0.59508812  0.60069742  1
  Ti  Ti188  1  0.10618163  0.89988132  0.70276233  1
  Ti  Ti189  1  0.31176775  0.29472642  0.29258561  1
  Ti  Ti190  1  0.31003854  0.49483855  0.50559674  1
  Ti  Ti191  1  0.89703119  0.29454096  0.90450681  1
  Ti  Ti192  1  0.10515258  0.69111056  0.88829099  1
  Ti  Ti193  1  0.39296103  0.81259157  0.00620892  1
  Ti  Ti194  1  0.89713941  0.09564978  0.09571976  1
  Ti  Ti195  1  0.19328664  0.58982338  0.40167313  1
  Ti  Ti196  1  0.89029999  0.49686001  0.30805551  1
  Ti  Ti197  1  0.70014360  0.30561060  0.30814465  1
  Ti  Ti198  1  0.91376304  0.68768447  0.70137702  1
  Ti  Ti199  1  0.49219610  0.70051432  0.69784367  1
  Mo  Mo200  1  0.50160018  0.09904207  0.10294306  1
  Mo  Mo201  1  0.09868751  0.70499512  0.09462919  1
  Mo  Mo202  1  0.69446836  0.69856238  0.29615953  1
  Mo  Mo203  1  0.50805302  0.49047947  0.30115511  1
  Mo  Mo204  1  0.79778956  0.41064813  0.40195563  1
  Mo  Mo205  1  0.79580773  0.19343483  0.39341336  1
  Mo  Mo206  1  0.10215155  0.69712687  0.30982303  1
  Mo  Mo207  1  0.39370726  0.20236811  0.58893586  1
  Mo  Mo208  1  0.69582795  0.30151486  0.09825785  1
  Mo  Mo209  1  0.10209293  0.09429696  0.10929378  1
  Mo  Mo210  1  0.30553042  0.30131271  0.10697141  1
  Mo  Mo211  1  0.10685521  0.50062709  0.30739028  1
  Mo  Mo212  1  0.90033823  0.49512240  0.89987112  1
  Mo  Mo213  1  0.79600616  0.19733602  0.00272776  1
  Mo  Mo214  1  0.00979739  0.59825696  0.79836077  1
  Mo  Mo215  1  0.70120203  0.10595703  0.48475034  1
  Mo  Mo216  1  0.09751953  0.11165710  0.48817997  1
  Mo  Mo217  1  0.49600034  0.70451089  0.30031397  1
  Mo  Mo218  1  0.59662416  0.19946494  0.00569203  1
  Mo  Mo219  1  0.10183141  0.89928879  0.90270989  1
  Mo  Mo220  1  0.10811508  0.50471323  0.50455890  1
  Mo  Mo221  1  0.40106359  0.20241459  0.20570576  1
  Mo  Mo222  1  0.40477865  0.39484163  0.19908692  1
  Mo  Mo223  1  0.68312990  0.70431206  0.70417251  1
  Mo  Mo224  1  0.78337599  0.59560346  0.60385326  1
  Mo  Mo225  1  0.89894304  0.10531630  0.49001487  1
  Mo  Mo226  1  0.89579849  0.09834888  0.29224058  1
  Mo  Mo227  1  0.60191120  0.00439896  0.19693888  1
  Mo  Mo228  1  0.59637792  0.40040289  0.40029336  1
  Mo  Mo229  1  0.49193810  0.90504379  0.29697671  1
  Mo  Mo230  1  0.29944740  0.90116041  0.49294466  1
  Mo  Mo231  1  -0.00228846  0.19140546  0.39745560  1
  Mo  Mo232  1  0.30293809  0.10190400  0.90179438  1
  Mo  Mo233  1  0.79432292  -0.00241609  0.81323567  1
  Mo  Mo234  1  0.40149264  0.59632731  -0.01020729  1
  Mo  Mo235  1  0.30171169  0.10682456  0.48883889  1
  Mo  Mo236  1  0.01787155  0.60219815  0.60108736  1
  Mo  Mo237  1  0.69241310  0.70769112  0.90082376  1
  Mo  Mo238  1  0.30431261  0.90317819  0.10421211  1
  Mo  Mo239  1  0.29515590  0.69736611  0.70550702  1
  Mo  Mo240  1  0.59774339  -0.00021801  -0.00146535  1
  Mo  Mo241  1  0.00540106  0.40548913  0.60306622  1
  Mo  Mo242  1  0.39743382  0.40068575  0.59355815  1
  Mo  Mo243  1  0.40297413  0.59397119  0.60428500  1
  Mo  Mo244  1  0.49958832  0.30068323  0.30079302  1
  Mo  Mo245  1  0.20371362  0.60235412  0.79970129  1
  Mo  Mo246  1  0.09872237  0.10225820  0.70857954  1
  Mo  Mo247  1  0.20398305  0.20206760  0.79692962  1
  Mo  Mo248  1  0.79409786  0.60035018  0.00493481  1
  Mo  Mo249  1  0.00491602  0.78339118  0.39313078  1
