# generated using pymatgen
data_HfZrTaTiMo
_symmetry_space_group_name_H-M   'P 1'
_cell_length_a   16.89239767
_cell_length_b   16.88759051
_cell_length_c   16.88646122
_cell_angle_alpha   90.01863906
_cell_angle_beta   90.04208061
_cell_angle_gamma   89.91134469
_symmetry_Int_Tables_number   1
_chemical_formula_structural   HfZrTaTiMo
_chemical_formula_sum   'Hf50 Zr50 Ta50 Ti50 Mo50'
_cell_volume   4817.22546578
_cell_formula_units_Z   50
loop_
 _symmetry_equiv_pos_site_id
 _symmetry_equiv_pos_as_xyz
  1  'x, y, z'
loop_
 _atom_site_type_symbol
 _atom_site_label
 _atom_site_symmetry_multiplicity
 _atom_site_fract_x
 _atom_site_fract_y
 _atom_site_fract_z
 _atom_site_occupancy
  Hf  Hf0  1  0.60019035  0.00291076  0.20098229  1
  Hf  Hf1  1  0.79685800  0.00171855  0.19962262  1
  Hf  Hf2  1  0.30070435  0.30016818  0.90310646  1
  Hf  Hf3  1  0.09429643  0.07855270  0.07523935  1
  Hf  Hf4  1  0.20278573  0.19183851  0.79866524  1
  Hf  Hf5  1  0.60957839  0.20927783  0.60668656  1
  Hf  Hf6  1  0.29684662  0.29873693  0.09675912  1
  Hf  Hf7  1  0.60597731  0.59932952  -0.00335027  1
  Hf  Hf8  1  0.49654746  0.10346997  0.50471271  1
  Hf  Hf9  1  0.89832667  0.10601218  0.30768361  1
  Hf  Hf10  1  0.89494024  0.09508685  0.89840027  1
  Hf  Hf11  1  0.01588557  0.59525764  0.58981698  1
  Hf  Hf12  1  0.49800822  0.70636628  0.89920331  1
  Hf  Hf13  1  0.30148462  0.70248114  0.89672862  1
  Hf  Hf14  1  0.51164670  0.29178150  0.89958558  1
  Hf  Hf15  1  0.70357997  0.49639007  0.50139141  1
  Hf  Hf16  1  0.80341698  0.79156550  0.39743713  1
  Hf  Hf17  1  0.69661719  0.89620151  0.09325914  1
  Hf  Hf18  1  0.70847089  0.49352034  0.70614642  1
  Hf  Hf19  1  0.89624798  0.29435900  0.49122671  1
  Hf  Hf20  1  0.69836592  0.90357138  0.90772238  1
  Hf  Hf21  1  0.30435181  0.49883736  0.50047828  1
  Hf  Hf22  1  0.09330959  0.50337349  0.29529289  1
  Hf  Hf23  1  0.49077039  0.69283564  0.49877995  1
  Hf  Hf24  1  0.49767656  0.30585996  0.50476645  1
  Hf  Hf25  1  0.19704597  0.19356765  0.19379002  1
  Hf  Hf26  1  0.70223913  0.89811162  0.69256280  1
  Hf  Hf27  1  0.09806089  0.29857669  0.50000635  1
  Hf  Hf28  1  0.19831176  0.00126661  0.40364358  1
  Hf  Hf29  1  0.49419688  0.49699094  0.49815768  1
  Hf  Hf30  1  0.70341679  0.50322574  0.10843432  1
  Hf  Hf31  1  0.81123570  0.60017241  0.60351677  1
  Hf  Hf32  1  0.79967541  0.00428057  0.60372271  1
  Hf  Hf33  1  0.41121400  0.39927063  0.79765891  1
  Hf  Hf34  1  0.30185925  0.51218112  0.69220916  1
  Hf  Hf35  1  0.60007724  0.60554910  0.60659331  1
  Hf  Hf36  1  0.00085476  0.79220078  0.20282214  1
  Hf  Hf37  1  -0.00335476  0.40540924  0.60340000  1
  Hf  Hf38  1  0.39802049  0.00305161  -0.00524565  1
  Hf  Hf39  1  0.40400136  -0.00160529  0.19136647  1
  Hf  Hf40  1  0.19529328  0.60198348  -0.00067373  1
  Hf  Hf41  1  0.80536870  0.80251456  0.80283185  1
  Hf  Hf42  1  0.00039509  -0.00782036  0.19762653  1
  Hf  Hf43  1  0.29741411  0.69141079  0.51182042  1
  Hf  Hf44  1  0.90294382  0.89534655  0.49921676  1
  Hf  Hf45  1  0.70219170  0.69257609  0.29435523  1
  Hf  Hf46  1  0.60297702  0.00774265  0.79785702  1
  Hf  Hf47  1  0.38371841  0.20510474  0.40932145  1
  Hf  Hf48  1  0.50085817  0.11567826  0.70209771  1
  Hf  Hf49  1  0.90102913  0.10661579  0.49443875  1
  Zr  Zr50  1  0.18647451  0.59996349  0.40959720  1
  Zr  Zr51  1  0.29905863  0.50399343  0.10727049  1
  Zr  Zr52  1  0.10136166  0.91448416  0.91599260  1
  Zr  Zr53  1  0.20099478  0.20400068  0.39727998  1
  Zr  Zr54  1  0.40480986  0.60012492  0.00130879  1
  Zr  Zr55  1  0.78618087  0.20240710  -0.00710356  1
  Zr  Zr56  1  0.21152958  0.00462534  0.79842722  1
  Zr  Zr57  1  0.69671776  0.70001512  0.10278728  1
  Zr  Zr58  1  0.30453740  0.50384634  0.89504337  1
  Zr  Zr59  1  0.51032160  0.90771670  0.50066671  1
  Zr  Zr60  1  0.28888302  0.89393188  0.50369370  1
  Zr  Zr61  1  0.19689288  0.79659577  0.20263818  1
  Zr  Zr62  1  0.50903364  0.30299726  0.10078511  1
  Zr  Zr63  1  0.19511297  0.60594196  0.20509820  1
  Zr  Zr64  1  0.09779031  0.29653056  0.08639172  1
  Zr  Zr65  1  0.60540654  0.19315422  0.19701182  1
  Zr  Zr66  1  0.49550861  0.69007301  0.29349622  1
  Zr  Zr67  1  0.09293973  0.29236309  0.89848184  1
  Zr  Zr68  1  -0.00292222  0.39628832  0.19663042  1
  Zr  Zr69  1  0.70836392  0.29647118  0.71855701  1
  Zr  Zr70  1  0.70313778  0.09745333  0.49363531  1
  Zr  Zr71  1  0.30306174  0.09683878  0.29719451  1
  Zr  Zr72  1  -0.00048755  0.19473470  0.19272253  1
  Zr  Zr73  1  0.20941550  0.18713937  0.59731937  1
  Zr  Zr74  1  0.00465780  0.59139209  0.78906396  1
  Zr  Zr75  1  0.49369557  0.30066352  0.30510952  1
  Zr  Zr76  1  0.50195956  0.09385134  0.31278703  1
  Zr  Zr77  1  0.18720592  0.40998483  0.79976437  1
  Zr  Zr78  1  0.30190134  0.30286332  0.69270726  1
  Zr  Zr79  1  0.20113857  0.80634186  0.79793698  1
  Zr  Zr80  1  0.61358516  0.20685947  0.40016916  1
  Zr  Zr81  1  0.40539593  0.18940829  0.00765276  1
  Zr  Zr82  1  0.69697710  0.90073461  0.30682985  1
  Zr  Zr83  1  0.89455725  0.29853860  0.89107225  1
  Zr  Zr84  1  0.00196434  0.00059302  0.60292256  1
  Zr  Zr85  1  0.40430392  0.80202763  0.61658338  1
  Zr  Zr86  1  0.38797170  0.00294791  0.61308378  1
  Zr  Zr87  1  0.39545396  0.80313536  0.39545383  1
  Zr  Zr88  1  0.39032342  0.40029474  0.21268708  1
  Zr  Zr89  1  0.89610992  0.50137157  0.48754052  1
  Zr  Zr90  1  0.60347554  0.60003295  0.80232249  1
  Zr  Zr91  1  0.39517523  0.81523345  0.79153769  1
  Zr  Zr92  1  0.00559390  0.80586854  0.79771961  1
  Zr  Zr93  1  0.79472502  0.19926790  0.19616210  1
  Zr  Zr94  1  0.60547090  0.59493132  0.39827176  1
  Zr  Zr95  1  0.19579184  -0.00534711  0.19343653  1
  Zr  Zr96  1  0.90855573  0.69964056  0.90346303  1
  Zr  Zr97  1  0.80207419  0.59987455  0.80392167  1
  Zr  Zr98  1  0.50632166  0.50552054  0.11531714  1
  Zr  Zr99  1  0.59094574  0.80043543  0.78321146  1
  Ta  Ta100  1  0.90530920  0.70045981  0.49712242  1
  Ta  Ta101  1  0.80793270  0.79875607  0.19805038  1
  Ta  Ta102  1  0.40142319  -0.00000881  0.80125460  1
  Ta  Ta103  1  0.31042799  0.70536832  0.10445059  1
  Ta  Ta104  1  -0.00551889  -0.00227363  0.79848539  1
  Ta  Ta105  1  0.20412941  0.39844238  0.38995808  1
  Ta  Ta106  1  0.50276308  0.89325443  0.09344819  1
  Ta  Ta107  1  -0.00226080  0.40634000  0.79446696  1
  Ta  Ta108  1  0.40539033  0.40161357  -0.00086176  1
  Ta  Ta109  1  0.79553884  0.40627466  -0.00450579  1
  Ta  Ta110  1  0.09947099  0.89485052  0.49998645  1
  Ta  Ta111  1  0.89922012  0.30093499  0.30313227  1
  Ta  Ta112  1  0.60959893  0.40404690  0.21760731  1
  Ta  Ta113  1  0.19910445  0.80126500  0.00592642  1
  Ta  Ta114  1  0.60439434  0.40113076  0.80682930  1
  Ta  Ta115  1  0.59476810  0.80226880  0.20337978  1
  Ta  Ta116  1  0.50478475  0.90088171  0.90441198  1
  Ta  Ta117  1  0.19634001  0.39611152  0.20466306  1
  Ta  Ta118  1  0.69670473  0.31060887  0.09654264  1
  Ta  Ta119  1  0.19437713  0.60416255  0.79551850  1
  Ta  Ta120  1  0.00295443  0.80337018  0.00601795  1
  Ta  Ta121  1  0.20986539  0.17691909  -0.00788546  1
  Ta  Ta122  1  0.49938218  0.70483614  0.10494691  1
  Ta  Ta123  1  0.89558141  0.10740803  0.70712161  1
  Ta  Ta124  1  0.89448718  0.09157665  0.08825376  1
  Ta  Ta125  1  0.89694361  0.50382533  0.29773941  1
  Ta  Ta126  1  0.80797043  0.79933244  0.00027813  1
  Ta  Ta127  1  0.09280488  0.50141755  0.09905346  1
  Ta  Ta128  1  0.90051784  0.50237964  0.09750340  1
  Ta  Ta129  1  0.90207509  0.89653753  0.30120307  1
  Ta  Ta130  1  0.80199499  0.39975112  0.19910398  1
  Ta  Ta131  1  0.09997252  0.70048017  0.90390547  1
  Ta  Ta132  1  -0.00055091  0.60936550  0.39305646  1
  Ta  Ta133  1  0.00451558  0.40198099  0.39646517  1
  Ta  Ta134  1  -0.00224823  0.19973856  0.60295866  1
  Ta  Ta135  1  0.90302755  0.69510459  0.09835665  1
  Ta  Ta136  1  0.89966549  0.90097222  0.69964622  1
  Ta  Ta137  1  0.80091592  0.59821100  -0.00317549  1
  Ta  Ta138  1  0.60119770  0.79692670  0.40220989  1
  Ta  Ta139  1  0.90035817  0.29418335  0.70693529  1
  Ta  Ta140  1  0.89442221  0.30551654  0.09147109  1
  Ta  Ta141  1  0.89882347  0.90046554  0.09471259  1
  Ta  Ta142  1  0.29977922  0.89738408  0.09507206  1
  Ta  Ta143  1  0.19416956  0.40927630  -0.00068310  1
  Ta  Ta144  1  0.09733301  0.89540061  0.30773838  1
  Ta  Ta145  1  0.00149767  -0.00468177  0.39923833  1
  Ta  Ta146  1  0.09378981  0.29686399  0.69956718  1
  Ta  Ta147  1  0.60773584  0.39946487  0.39698892  1
  Ta  Ta148  1  0.09361810  0.10034334  0.49713872  1
  Ta  Ta149  1  0.80405584  0.39331013  0.60428153  1
  Ti  Ti150  1  0.09033796  0.10411084  0.70260544  1
  Ti  Ti151  1  0.39742925  0.80627007  -0.00108433  1
  Ti  Ti152  1  0.39868871  0.19291816  0.19559302  1
  Ti  Ti153  1  0.71069225  0.50568512  0.29920859  1
  Ti  Ti154  1  0.80364008  0.79699921  0.59670214  1
  Ti  Ti155  1  0.08951944  0.09668244  0.89706790  1
  Ti  Ti156  1  0.50729512  0.10662364  0.89763049  1
  Ti  Ti157  1  0.30823536  0.68625015  0.30294555  1
  Ti  Ti158  1  0.69607976  0.89807066  0.50033990  1
  Ti  Ti159  1  0.81374074  0.60362671  0.20145140  1
  Ti  Ti160  1  0.79711938  0.20303277  0.60139440  1
  Ti  Ti161  1  0.09167789  0.09961772  0.30666882  1
  Ti  Ti162  1  0.79915869  -0.00298108  0.39792587  1
  Ti  Ti163  1  0.50197465  0.90138472  0.30579596  1
  Ti  Ti164  1  0.70772555  0.70396923  0.69691199  1
  Ti  Ti165  1  0.60235427  0.39676775  0.60818117  1
  Ti  Ti166  1  0.10734487  0.69695426  0.69382765  1
  Ti  Ti167  1  0.89720930  0.49654409  0.89772859  1
  Ti  Ti168  1  0.59510536  0.79482353  0.60119350  1
  Ti  Ti169  1  0.00718028  0.79767071  0.59901195  1
  Ti  Ti170  1  0.40053462  0.80476532  0.20147004  1
  Ti  Ti171  1  0.70957518  0.30037900  0.29999801  1
  Ti  Ti172  1  0.19174512  0.78904617  0.39533127  1
  Ti  Ti173  1  0.18478492  0.41476585  0.59656774  1
  Ti  Ti174  1  0.39818479  0.19954180  0.79694019  1
  Ti  Ti175  1  0.48720305  0.50332465  0.30816724  1
  Ti  Ti176  1  0.00110233  0.59444685  -0.00257234  1
  Ti  Ti177  1  0.69805641  0.71136749  0.90551895  1
  Ti  Ti178  1  0.60440852  0.00675971  0.60712838  1
  Ti  Ti179  1  0.60638239  0.40523343  -0.00628046  1
  Ti  Ti180  1  0.90660224  0.70673290  0.69428944  1
  Ti  Ti181  1  0.29645669  0.89854615  0.29885009  1
  Ti  Ti182  1  0.79602204  0.39655163  0.39552734  1
  Ti  Ti183  1  -0.00754984  0.19481977  -0.00227439  1
  Ti  Ti184  1  0.41030825  0.39885244  0.60973912  1
  Ti  Ti185  1  0.10207884  0.90457094  0.69484725  1
  Ti  Ti186  1  0.79606911  0.00232010  0.80003593  1
  Ti  Ti187  1  0.39168341  -0.00192583  0.40737535  1
  Ti  Ti188  1  0.09327314  0.69561839  0.09754829  1
  Ti  Ti189  1  0.09337155  0.29494483  0.30168893  1
  Ti  Ti190  1  0.50003177  0.50554391  0.70222027  1
  Ti  Ti191  1  0.59288861  0.00999133  -0.00083520  1
  Ti  Ti192  1  0.19774677  0.79584008  0.60672890  1
  Ti  Ti193  1  0.30227111  0.31421251  0.50691826  1
  Ti  Ti194  1  0.70483073  0.69847808  0.50015282  1
  Ti  Ti195  1  0.50150131  0.50103880  0.89850887  1
  Ti  Ti196  1  0.69863602  0.09432514  0.08442752  1
  Ti  Ti197  1  0.00003463  0.40805066  -0.00784461  1
  Ti  Ti198  1  0.00312728  0.79305191  0.39695046  1
  Ti  Ti199  1  0.20065488  0.00585919  0.60329107  1
  Mo  Mo200  1  0.31377400  0.10244349  0.89282901  1
  Mo  Mo201  1  0.09987979  0.89341421  0.09889504  1
  Mo  Mo202  1  0.21753874  -0.00271159  -0.00473833  1
  Mo  Mo203  1  0.89683509  0.90336194  0.90026143  1
  Mo  Mo204  1  0.70752976  0.10374128  0.70310208  1
  Mo  Mo205  1  0.09242530  0.50497342  0.90451595  1
  Mo  Mo206  1  0.39061150  0.59225041  0.39737711  1
  Mo  Mo207  1  0.00354681  0.20235821  0.39866869  1
  Mo  Mo208  1  0.10289468  0.49957989  0.69684742  1
  Mo  Mo209  1  0.29715297  0.09492390  0.50343416  1
  Mo  Mo210  1  0.10064674  0.49084914  0.49176223  1
  Mo  Mo211  1  0.00169594  0.19391728  0.79408241  1
  Mo  Mo212  1  0.29869971  0.09513084  0.09760197  1
  Mo  Mo213  1  0.09303007  0.70286528  0.30543175  1
  Mo  Mo214  1  0.29549099  0.49877385  0.30616835  1
  Mo  Mo215  1  0.59378235  0.79902783  0.00315286  1
  Mo  Mo216  1  0.30480498  0.90067885  0.90660543  1
  Mo  Mo217  1  0.80580645  0.60195866  0.39855539  1
  Mo  Mo218  1  0.28366743  0.90344808  0.69874053  1
  Mo  Mo219  1  0.50465584  0.09344169  0.09859616  1
  Mo  Mo220  1  0.69560004  0.30352218  0.90409539  1
  Mo  Mo221  1  0.70510483  0.31128072  0.50348461  1
  Mo  Mo222  1  -0.00551556  0.60068768  0.19532084  1
  Mo  Mo223  1  0.59645759  0.59583300  0.20474843  1
  Mo  Mo224  1  0.79511098  -0.00395223  -0.00135485  1
  Mo  Mo225  1  0.79626128  0.19190156  0.80058416  1
  Mo  Mo226  1  0.70299772  0.49493857  0.90315069  1
  Mo  Mo227  1  0.19590078  0.60513858  0.60387642  1
  Mo  Mo228  1  0.90043479  0.69776848  0.29849240  1
  Mo  Mo229  1  0.40279234  0.59775544  0.60432351  1
  Mo  Mo230  1  0.70686825  0.09807430  0.30749052  1
  Mo  Mo231  1  0.50601948  0.30472883  0.70445005  1
  Mo  Mo232  1  -0.01592402  -0.00686766  -0.00604655  1
  Mo  Mo233  1  0.89961405  0.49001088  0.70037305  1
  Mo  Mo234  1  0.29245996  0.69618564  0.70027760  1
  Mo  Mo235  1  0.29289550  0.29877649  0.29301105  1
  Mo  Mo236  1  0.60254994  -0.00532660  0.40331271  1
  Mo  Mo237  1  0.39583816  0.60346581  0.20445939  1
  Mo  Mo238  1  0.40000758  0.20891204  0.60111474  1
  Mo  Mo239  1  0.48432640  0.68023765  0.70139672  1
  Mo  Mo240  1  0.39189962  0.39851085  0.40185612  1
  Mo  Mo241  1  0.79991213  0.20810571  0.39493207  1
  Mo  Mo242  1  0.60438122  0.19236980  0.00033735  1
  Mo  Mo243  1  0.69547054  0.10067975  0.89742304  1
  Mo  Mo244  1  0.80620084  0.40019623  0.80421229  1
  Mo  Mo245  1  0.51320989  0.91850668  0.70050497  1
  Mo  Mo246  1  0.40224941  0.60102744  0.79695778  1
  Mo  Mo247  1  0.30815539  0.10353747  0.70182276  1
  Mo  Mo248  1  0.60661366  0.19894819  0.80801847  1
  Mo  Mo249  1  0.09717584  0.71533539  0.50135529  1
