# generated using pymatgen
data_HfZrTaTiMo
_symmetry_space_group_name_H-M   'P 1'
_cell_length_a   16.89451793
_cell_length_b   16.88393538
_cell_length_c   16.88526422
_cell_angle_alpha   90.02425660
_cell_angle_beta   90.04572385
_cell_angle_gamma   90.01803355
_symmetry_Int_Tables_number   1
_chemical_formula_structural   HfZrTaTiMo
_chemical_formula_sum   'Hf50 Zr50 Ta50 Ti50 Mo50'
_cell_volume   4816.45101386
_cell_formula_units_Z   50
loop_
 _symmetry_equiv_pos_site_id
 _symmetry_equiv_pos_as_xyz
  1  'x, y, z'
loop_
 _atom_site_type_symbol
 _atom_site_label
 _atom_site_symmetry_multiplicity
 _atom_site_fract_x
 _atom_site_fract_y
 _atom_site_fract_z
 _atom_site_occupancy
  Hf  Hf0  1  0.59749087  0.60287838  0.59674209  1
  Hf  Hf1  1  -0.00467679  0.20117788  0.00390352  1
  Hf  Hf2  1  0.30027932  0.49899165  0.90002831  1
  Hf  Hf3  1  0.90683320  0.30646784  0.89482803  1
  Hf  Hf4  1  0.40059016  0.20237591  0.60399881  1
  Hf  Hf5  1  0.89864728  0.89871135  0.30327358  1
  Hf  Hf6  1  0.51138793  0.30072446  0.50243154  1
  Hf  Hf7  1  0.70010802  0.10015017  0.90580162  1
  Hf  Hf8  1  0.30027532  0.69577407  0.30209107  1
  Hf  Hf9  1  0.50492835  0.49311209  0.48864191  1
  Hf  Hf10  1  0.59582544  0.60133466  0.80639442  1
  Hf  Hf11  1  0.10547518  0.30753907  0.50143487  1
  Hf  Hf12  1  0.69530176  0.29392123  0.90477527  1
  Hf  Hf13  1  0.09560985  0.70564933  0.69787745  1
  Hf  Hf14  1  0.80078975  0.20007562  0.79466513  1
  Hf  Hf15  1  0.00568919  -0.00146426  0.40290689  1
  Hf  Hf16  1  0.81738727  0.00500090  0.80959314  1
  Hf  Hf17  1  0.39434862  0.19813926  0.00776615  1
  Hf  Hf18  1  0.18867409  0.79431585  0.20465632  1
  Hf  Hf19  1  0.59876120  0.39746118  0.80193524  1
  Hf  Hf20  1  0.29178025  0.49535341  0.68992612  1
  Hf  Hf21  1  0.49185923  0.71086621  0.69476093  1
  Hf  Hf22  1  0.39211937  0.00836076  0.79478981  1
  Hf  Hf23  1  0.89254653  0.89053131  0.08905550  1
  Hf  Hf24  1  0.70020342  0.70139576  0.09786979  1
  Hf  Hf25  1  0.10204658  0.30311539  0.90219501  1
  Hf  Hf26  1  0.80629728  0.59012699  0.80339753  1
  Hf  Hf27  1  0.79663262  0.59973773  0.20841826  1
  Hf  Hf28  1  0.30207925  0.69923874  0.10123225  1
  Hf  Hf29  1  0.90016160  0.69448279  0.31541350  1
  Hf  Hf30  1  0.80718309  0.59391110  -0.00732607  1
  Hf  Hf31  1  -0.00737507  -0.00677685  -0.01368393  1
  Hf  Hf32  1  0.39585468  0.00973930  -0.00066132  1
  Hf  Hf33  1  0.21081012  0.20211676  0.79535930  1
  Hf  Hf34  1  0.50176953  0.49843662  0.11651987  1
  Hf  Hf35  1  0.59187060  0.79566981  -0.00226625  1
  Hf  Hf36  1  0.41241278  0.60510063  -0.00574929  1
  Hf  Hf37  1  0.10823374  0.10260212  0.90097516  1
  Hf  Hf38  1  0.10175130  0.50030612  0.49868504  1
  Hf  Hf39  1  0.00214771  0.40343710  0.01626932  1
  Hf  Hf40  1  0.28365797  0.09660618  0.68283283  1
  Hf  Hf41  1  0.69813831  0.49735160  0.10553338  1
  Hf  Hf42  1  0.50083404  0.48937796  0.68954882  1
  Hf  Hf43  1  0.71532464  0.71185229  0.89590882  1
  Hf  Hf44  1  0.29615529  0.89823769  0.89999769  1
  Hf  Hf45  1  0.71159380  0.89860170  0.70803418  1
  Hf  Hf46  1  0.70265338  0.49354602  0.49559598  1
  Hf  Hf47  1  0.29340910  0.30443055  0.50302374  1
  Hf  Hf48  1  0.39182555  0.60273841  0.59026066  1
  Hf  Hf49  1  0.09706087  0.50522111  0.89960087  1
  Zr  Zr50  1  0.81192851  0.59487008  0.60585208  1
  Zr  Zr51  1  0.60176012  0.80717937  0.59388492  1
  Zr  Zr52  1  0.20515993  0.40062334  0.01165227  1
  Zr  Zr53  1  0.70631675  0.70593823  0.70342676  1
  Zr  Zr54  1  0.71072103  0.90187912  0.90740813  1
  Zr  Zr55  1  0.49004646  0.70784439  0.49008724  1
  Zr  Zr56  1  0.11020088  0.09302375  0.29598116  1
  Zr  Zr57  1  0.49838475  0.09957459  0.29954990  1
  Zr  Zr58  1  0.10365648  0.30431113  0.30487756  1
  Zr  Zr59  1  0.80559651  0.20496562  0.59382106  1
  Zr  Zr60  1  0.48911349  0.90636233  0.30362072  1
  Zr  Zr61  1  0.00599222  -0.00446161  0.80093427  1
  Zr  Zr62  1  0.39433975  0.37961839  0.78898244  1
  Zr  Zr63  1  0.30511316  0.08719770  0.29765305  1
  Zr  Zr64  1  0.89034655  0.09067030  0.10118494  1
  Zr  Zr65  1  0.49543545  0.29157957  0.90106686  1
  Zr  Zr66  1  0.49311415  0.89976207  0.10560596  1
  Zr  Zr67  1  0.19843611  0.39566116  0.79336871  1
  Zr  Zr68  1  0.81002376  0.38916173  0.21023167  1
  Zr  Zr69  1  0.20988397  0.40383249  0.20678806  1
  Zr  Zr70  1  0.80008863  0.40130120  0.00149013  1
  Zr  Zr71  1  0.60046539  0.59479866  -0.00902263  1
  Zr  Zr72  1  0.69898619  0.09922685  0.10215647  1
  Zr  Zr73  1  0.69995549  0.10769362  0.49446837  1
  Zr  Zr74  1  0.39355850  -0.01046087  0.59758940  1
  Zr  Zr75  1  0.60112088  0.00107710  0.60027650  1
  Zr  Zr76  1  0.40080871  0.60281644  0.79769494  1
  Zr  Zr77  1  0.11489887  0.10207499  0.50824055  1
  Zr  Zr78  1  0.09491777  0.69727370  0.50178358  1
  Zr  Zr79  1  0.49424271  0.90233458  0.89476499  1
  Zr  Zr80  1  0.90336691  0.89617278  0.50234882  1
  Zr  Zr81  1  0.67979455  0.29781212  0.67943663  1
  Zr  Zr82  1  0.88915912  0.09944793  0.30153333  1
  Zr  Zr83  1  0.70937356  0.69364616  0.49267173  1
  Zr  Zr84  1  0.69271592  0.29187588  0.11578871  1
  Zr  Zr85  1  0.50415157  0.30027468  0.30024964  1
  Zr  Zr86  1  0.79280825  0.79808778  0.20620167  1
  Zr  Zr87  1  0.79961214  0.40517262  0.79568992  1
  Zr  Zr88  1  0.00804561  0.60037499  0.20753876  1
  Zr  Zr89  1  -0.00147431  0.20082940  0.40243035  1
  Zr  Zr90  1  -0.01412008  0.21251805  0.20058928  1
  Zr  Zr91  1  0.08957033  0.69891516  0.08735130  1
  Zr  Zr92  1  0.90686723  0.71250100  0.70849519  1
  Zr  Zr93  1  0.29395881  0.70355576  0.89827902  1
  Zr  Zr94  1  0.31333605  0.50773998  0.11119240  1
  Zr  Zr95  1  0.80993645  0.40079892  0.60131264  1
  Zr  Zr96  1  0.29390277  0.89786131  0.10320825  1
  Zr  Zr97  1  0.00359671  0.19737203  0.79326072  1
  Zr  Zr98  1  0.10371218  0.09591750  0.10512834  1
  Zr  Zr99  1  0.49254578  0.70034684  0.30498435  1
  Ta  Ta100  1  0.60557373  0.80173528  0.20799982  1
  Ta  Ta101  1  0.90576968  0.50458431  0.49059683  1
  Ta  Ta102  1  0.90124220  0.50125584  0.31092946  1
  Ta  Ta103  1  0.00018657  0.79898685  0.20282974  1
  Ta  Ta104  1  0.10544556  0.29870554  0.10579397  1
  Ta  Ta105  1  0.21152337  0.20816370  0.20071907  1
  Ta  Ta106  1  0.19791356  0.80282523  0.40055671  1
  Ta  Ta107  1  -0.00046370  -0.01251820  0.19766838  1
  Ta  Ta108  1  0.49938301  0.69775446  0.11357481  1
  Ta  Ta109  1  0.59439576  0.00368428  0.00292181  1
  Ta  Ta110  1  0.00141772  0.00178134  0.60115870  1
  Ta  Ta111  1  0.10328795  0.90124789  0.29889687  1
  Ta  Ta112  1  0.49380949  0.90190438  0.49192154  1
  Ta  Ta113  1  0.40133160  0.39292285  0.01196624  1
  Ta  Ta114  1  0.61035248  0.80703141  0.39327262  1
  Ta  Ta115  1  0.59497891  0.39822355  0.00226077  1
  Ta  Ta116  1  0.49618630  0.09761140  0.48972872  1
  Ta  Ta117  1  0.59404367  0.80453325  0.80104326  1
  Ta  Ta118  1  0.90398539  0.09869813  0.69268125  1
  Ta  Ta119  1  0.00989345  0.79787165  0.39657967  1
  Ta  Ta120  1  0.50129219  0.30132859  0.11263691  1
  Ta  Ta121  1  0.79453087  0.80024694  0.40063141  1
  Ta  Ta122  1  0.00413178  0.40681459  0.20343654  1
  Ta  Ta123  1  0.30012281  0.09579737  0.49600935  1
  Ta  Ta124  1  -0.00063138  0.20332705  0.59825954  1
  Ta  Ta125  1  0.50060970  0.10104011  0.89718099  1
  Ta  Ta126  1  0.21210983  0.20284495  0.39544467  1
  Ta  Ta127  1  0.59271821  0.19380810  0.79182619  1
  Ta  Ta128  1  0.19193211  0.59784527  0.00388913  1
  Ta  Ta129  1  -0.00011575  0.40416517  0.60291162  1
  Ta  Ta130  1  0.80845885  0.20415072  0.00499764  1
  Ta  Ta131  1  0.29559975  0.09337377  0.10917576  1
  Ta  Ta132  1  0.20033748  0.60392420  0.60009129  1
  Ta  Ta133  1  0.19219946  0.80636050  0.79626339  1
  Ta  Ta134  1  0.19342636  0.59470122  0.20571249  1
  Ta  Ta135  1  0.39456906  0.40235825  0.39043176  1
  Ta  Ta136  1  0.79045284  -0.00836971  0.20295003  1
  Ta  Ta137  1  0.19816293  -0.00577588  0.79781066  1
  Ta  Ta138  1  0.60303617  0.60188315  0.21430264  1
  Ta  Ta139  1  0.90768638  0.89594814  0.69984989  1
  Ta  Ta140  1  0.80460565  0.00076362  0.60145010  1
  Ta  Ta141  1  0.69171912  0.49813086  0.69598343  1
  Ta  Ta142  1  0.60536325  -0.00630169  0.20197944  1
  Ta  Ta143  1  0.20625186  0.80561275  0.59802776  1
  Ta  Ta144  1  0.69884356  0.10695793  0.29506718  1
  Ta  Ta145  1  0.58952775  0.19583436  0.00702294  1
  Ta  Ta146  1  0.90596827  0.50743014  0.10602542  1
  Ta  Ta147  1  0.89806348  0.09896619  0.50052727  1
  Ta  Ta148  1  0.59741485  0.00291304  0.79753495  1
  Ta  Ta149  1  0.19808856  -0.00199340  -0.00467664  1
  Ti  Ti150  1  0.39656211  0.80011046  0.20449228  1
  Ti  Ti151  1  0.20908533  0.40803191  0.39001782  1
  Ti  Ti152  1  0.29265255  0.49740960  0.49905158  1
  Ti  Ti153  1  0.10571232  0.30310910  0.68850491  1
  Ti  Ti154  1  0.19609822  0.60743171  0.79815214  1
  Ti  Ti155  1  0.69469153  0.30870967  0.48928977  1
  Ti  Ti156  1  0.20942288  0.19798139  0.00794795  1
  Ti  Ti157  1  0.80102444  0.21817122  0.38963780  1
  Ti  Ti158  1  0.09697254  0.50228355  0.70086390  1
  Ti  Ti159  1  0.49366077  0.48700519  0.90075197  1
  Ti  Ti160  1  0.39161617  0.80556282  0.79107070  1
  Ti  Ti161  1  0.91626301  0.49699704  0.89734282  1
  Ti  Ti162  1  0.90340735  0.30852957  0.49240426  1
  Ti  Ti163  1  0.39319969  0.20751227  0.19973847  1
  Ti  Ti164  1  0.49559569  0.89756019  0.69633009  1
  Ti  Ti165  1  0.60344147  0.40507426  0.21884977  1
  Ti  Ti166  1  0.60532403  -0.00331226  0.39639836  1
  Ti  Ti167  1  0.60409844  0.59956267  0.39011533  1
  Ti  Ti168  1  0.39443694  0.20468182  0.40077724  1
  Ti  Ti169  1  0.79291375  -0.00279654  0.39977560  1
  Ti  Ti170  1  -0.00054049  0.40431321  0.39403607  1
  Ti  Ti171  1  0.38177453  0.81444049  0.40716926  1
  Ti  Ti172  1  0.91276885  0.30532931  0.70144126  1
  Ti  Ti173  1  0.09332267  0.89672764  0.09460908  1
  Ti  Ti174  1  0.30026777  0.29716498  0.90737364  1
  Ti  Ti175  1  0.60502825  0.20237707  0.39533933  1
  Ti  Ti176  1  0.70302162  0.90294769  0.49894677  1
  Ti  Ti177  1  0.29567531  0.90589299  0.29516456  1
  Ti  Ti178  1  0.49820981  0.10034919  0.11258263  1
  Ti  Ti179  1  0.29606466  0.70712693  0.69467095  1
  Ti  Ti180  1  0.39840943  0.39440911  0.59622507  1
  Ti  Ti181  1  0.50289793  0.10189219  0.69491662  1
  Ti  Ti182  1  0.90201442  0.70083165  0.09007506  1
  Ti  Ti183  1  0.29373240  0.70218007  0.49581721  1
  Ti  Ti184  1  0.70035319  0.09965567  0.69619991  1
  Ti  Ti185  1  0.19422993  0.59813957  0.39164611  1
  Ti  Ti186  1  0.20742405  -0.01211557  0.40945724  1
  Ti  Ti187  1  -0.00253208  0.59469319  0.60469116  1
  Ti  Ti188  1  0.10177530  0.89726412  0.50610042  1
  Ti  Ti189  1  0.10251833  0.09960767  0.69172402  1
  Ti  Ti190  1  0.39470152  0.19448241  0.79525392  1
  Ti  Ti191  1  0.40533861  0.79286480  -0.00359332  1
  Ti  Ti192  1  0.70678076  0.49469982  0.31452401  1
  Ti  Ti193  1  0.70286488  0.89945027  0.09135061  1
  Ti  Ti194  1  0.80491845  0.80211334  0.59664953  1
  Ti  Ti195  1  0.09716938  0.89639246  0.69340155  1
  Ti  Ti196  1  0.18409561  0.80020176  -0.01068139  1
  Ti  Ti197  1  0.00074162  0.60736837  0.80742679  1
  Ti  Ti198  1  0.90619264  0.69890899  0.49970556  1
  Ti  Ti199  1  0.39212652  0.58634055  0.39512930  1
  Mo  Mo200  1  0.00771996  0.80410223  0.80648063  1
  Mo  Mo201  1  0.10098987  0.50322538  0.30736514  1
  Mo  Mo202  1  0.90027982  0.30757690  0.30801911  1
  Mo  Mo203  1  0.40569161  0.40072856  0.20678357  1
  Mo  Mo204  1  0.59795438  0.40226623  0.59377572  1
  Mo  Mo205  1  0.80566576  0.39688121  0.40197057  1
  Mo  Mo206  1  0.79517958  0.19890644  0.20528074  1
  Mo  Mo207  1  0.09949510  0.69892488  0.89391522  1
  Mo  Mo208  1  0.69118864  0.49531962  0.89837751  1
  Mo  Mo209  1  0.39419932  -0.00192350  0.40477407  1
  Mo  Mo210  1  -0.00083660  0.79686363  -0.00675792  1
  Mo  Mo211  1  0.00602792  0.40422039  0.78868965  1
  Mo  Mo212  1  -0.00367092  0.59809593  -0.00349974  1
  Mo  Mo213  1  0.89654801  0.11110965  0.90024985  1
  Mo  Mo214  1  0.39747417  0.00001484  0.19695264  1
  Mo  Mo215  1  0.19744880  0.20723381  0.59790411  1
  Mo  Mo216  1  0.00283194  0.80695766  0.59582241  1
  Mo  Mo217  1  0.69807377  0.90706569  0.30702321  1
  Mo  Mo218  1  0.38911243  0.80202723  0.59415605  1
  Mo  Mo219  1  0.10110885  0.70346686  0.30513140  1
  Mo  Mo220  1  0.49453913  0.71238757  0.88970494  1
  Mo  Mo221  1  0.29728000  0.09970985  0.90269865  1
  Mo  Mo222  1  0.00141929  0.59951110  0.40396637  1
  Mo  Mo223  1  0.10242065  0.89636684  0.89934998  1
  Mo  Mo224  1  0.91882114  0.50147210  0.70470858  1
  Mo  Mo225  1  0.19463602  0.40879645  0.59892661  1
  Mo  Mo226  1  0.80659133  0.79351616  -0.00013144  1
  Mo  Mo227  1  0.79885105  -0.00080699  0.00074336  1
  Mo  Mo228  1  0.29430596  0.89807409  0.50105339  1
  Mo  Mo229  1  0.69814036  0.29565718  0.30675012  1
  Mo  Mo230  1  0.10022314  0.50236178  0.10577652  1
  Mo  Mo231  1  0.69688953  0.70043200  0.30432606  1
  Mo  Mo232  1  0.40503206  0.60282480  0.20821098  1
  Mo  Mo233  1  0.91110748  0.69999230  0.90511652  1
  Mo  Mo234  1  0.19264519  -0.01195826  0.60155197  1
  Mo  Mo235  1  0.19469162  -0.01127089  0.19242552  1
  Mo  Mo236  1  0.60704099  0.39833011  0.39487933  1
  Mo  Mo237  1  0.29122753  0.89667541  0.70191232  1
  Mo  Mo238  1  0.30133165  0.50484344  0.30465464  1
  Mo  Mo239  1  0.30726252  0.30014988  0.30472866  1
  Mo  Mo240  1  0.30611340  0.29556685  0.10673599  1
  Mo  Mo241  1  0.49518783  0.29159845  0.69607861  1
  Mo  Mo242  1  0.29619798  0.29636628  0.68889896  1
  Mo  Mo243  1  0.50013579  0.50070888  0.30302135  1
  Mo  Mo244  1  0.81226029  0.80533850  0.80307962  1
  Mo  Mo245  1  0.59572759  0.19218284  0.20143576  1
  Mo  Mo246  1  0.59309715  0.19115624  0.59596818  1
  Mo  Mo247  1  0.80407607  0.59798463  0.40259919  1
  Mo  Mo248  1  0.90177816  0.30503612  0.10444203  1
  Mo  Mo249  1  0.90399263  0.88017486  0.89687968  1
