# generated using pymatgen
data_HfZrTaTiMo
_symmetry_space_group_name_H-M   'P 1'
_cell_length_a   16.88842199
_cell_length_b   16.89374518
_cell_length_c   16.89289614
_cell_angle_alpha   90.02106735
_cell_angle_beta   90.05870354
_cell_angle_gamma   89.99198199
_symmetry_Int_Tables_number   1
_chemical_formula_structural   HfZrTaTiMo
_chemical_formula_sum   'Hf50 Zr50 Ta50 Ti50 Mo50'
_cell_volume   4819.68729356
_cell_formula_units_Z   50
loop_
 _symmetry_equiv_pos_site_id
 _symmetry_equiv_pos_as_xyz
  1  'x, y, z'
loop_
 _atom_site_type_symbol
 _atom_site_label
 _atom_site_symmetry_multiplicity
 _atom_site_fract_x
 _atom_site_fract_y
 _atom_site_fract_z
 _atom_site_occupancy
  Hf  Hf0  1  0.79383119  0.20123435  0.40082374  1
  Hf  Hf1  1  0.01159661  -0.00059439  0.59431956  1
  Hf  Hf2  1  -0.00044151  0.20498252  0.79799626  1
  Hf  Hf3  1  0.11126795  0.88288165  0.48851297  1
  Hf  Hf4  1  0.41142671  0.20712910  0.39985220  1
  Hf  Hf5  1  -0.00040528  0.20438922  0.39971650  1
  Hf  Hf6  1  0.70597195  0.49670351  0.29818843  1
  Hf  Hf7  1  0.20389561  0.20404748  0.20918702  1
  Hf  Hf8  1  0.60042732  -0.00467450  0.20575315  1
  Hf  Hf9  1  0.81754308  0.78344263  0.20119133  1
  Hf  Hf10  1  0.50155446  0.90205068  0.69303108  1
  Hf  Hf11  1  0.70103182  0.89495082  0.09835804  1
  Hf  Hf12  1  0.39212630  0.60227545  0.60325772  1
  Hf  Hf13  1  0.09903035  0.89337837  0.30224493  1
  Hf  Hf14  1  0.09810719  0.69504268  0.09598889  1
  Hf  Hf15  1  0.60609223  0.38588084  0.40403846  1
  Hf  Hf16  1  0.19632954  0.58496549  0.19645446  1
  Hf  Hf17  1  0.58924476  0.79891866  0.38992275  1
  Hf  Hf18  1  0.29973352  0.30837948  0.10332153  1
  Hf  Hf19  1  0.70282772  0.08958581  0.88656102  1
  Hf  Hf20  1  0.39701025  0.79671407  0.79808850  1
  Hf  Hf21  1  0.20006401  0.19834061  -0.00209005  1
  Hf  Hf22  1  0.50698025  0.89185729  0.09061078  1
  Hf  Hf23  1  0.19707792  0.00605115  0.79261371  1
  Hf  Hf24  1  0.90245321  0.50903291  0.90804426  1
  Hf  Hf25  1  0.30280723  0.09716147  0.31154912  1
  Hf  Hf26  1  0.60490125  0.19954912  0.00365378  1
  Hf  Hf27  1  -0.00519038  0.79433952  -0.00997451  1
  Hf  Hf28  1  0.70817080  0.30098851  0.89268469  1
  Hf  Hf29  1  0.30253316  0.09852694  0.50139091  1
  Hf  Hf30  1  0.50089990  0.69583969  0.09316846  1
  Hf  Hf31  1  0.49459732  0.29689641  0.68830699  1
  Hf  Hf32  1  0.69608244  0.30925489  0.69321107  1
  Hf  Hf33  1  0.39393895  0.19843789  0.79739178  1
  Hf  Hf34  1  0.18810384  0.79981460  0.79133012  1
  Hf  Hf35  1  0.39334994  0.40193785  0.59915287  1
  Hf  Hf36  1  0.89949435  0.49726493  0.50573809  1
  Hf  Hf37  1  0.01110101  0.79693559  0.60628646  1
  Hf  Hf38  1  0.91664374  0.88485987  0.30713018  1
  Hf  Hf39  1  0.19886644  0.40399790  0.60052169  1
  Hf  Hf40  1  0.29644684  0.89337148  0.09418760  1
  Hf  Hf41  1  0.30487868  0.29290275  0.50505852  1
  Hf  Hf42  1  0.59940742  0.40841467  0.80418890  1
  Hf  Hf43  1  0.39374903  0.78935762  -0.01245425  1
  Hf  Hf44  1  0.50574838  0.50231346  0.50253473  1
  Hf  Hf45  1  0.40811711  0.40011257  0.19653982  1
  Hf  Hf46  1  0.89874296  0.90545797  0.69891715  1
  Hf  Hf47  1  0.29404244  0.71022024  0.49633928  1
  Hf  Hf48  1  0.39040842  0.40454260  0.79632889  1
  Hf  Hf49  1  0.00413935  0.00692421  0.79701258  1
  Zr  Zr50  1  0.50863456  0.50931066  0.69617521  1
  Zr  Zr51  1  0.49023811  0.70788006  0.50111759  1
  Zr  Zr52  1  -0.00776047  0.20966659  -0.00460554  1
  Zr  Zr53  1  0.41109036  0.20157835  0.20198309  1
  Zr  Zr54  1  0.59703185  0.39807991  0.01192997  1
  Zr  Zr55  1  0.10544389  0.32168767  0.89451168  1
  Zr  Zr56  1  0.90936633  0.89991689  0.10157800  1
  Zr  Zr57  1  0.19728520  -0.00247559  0.19891825  1
  Zr  Zr58  1  0.08907115  0.71165403  0.30416848  1
  Zr  Zr59  1  0.50860901  0.90104387  0.89539589  1
  Zr  Zr60  1  0.70058489  0.69607261  0.09819775  1
  Zr  Zr61  1  0.30202874  0.09904213  0.09955508  1
  Zr  Zr62  1  -0.00782635  0.59918806  0.20680274  1
  Zr  Zr63  1  0.50210133  0.09344727  0.50295631  1
  Zr  Zr64  1  0.69735201  0.50402697  0.50361506  1
  Zr  Zr65  1  0.00037883  0.60229238  0.79490614  1
  Zr  Zr66  1  0.39767505  0.60710104  0.80409095  1
  Zr  Zr67  1  0.39706771  0.00299046  -0.00803668  1
  Zr  Zr68  1  0.80327098  0.79691666  0.40707089  1
  Zr  Zr69  1  0.10238704  0.68731253  0.90305914  1
  Zr  Zr70  1  0.89493690  0.69809483  0.69451944  1
  Zr  Zr71  1  0.29613665  0.89376663  0.32048327  1
  Zr  Zr72  1  0.29074209  0.31301522  0.90345204  1
  Zr  Zr73  1  0.90950199  0.10637345  0.50540124  1
  Zr  Zr74  1  -0.00200999  0.00849132  0.20663081  1
  Zr  Zr75  1  0.40237081  0.79098367  0.20897759  1
  Zr  Zr76  1  0.80579163  0.39331990  0.00324988  1
  Zr  Zr77  1  0.80959437  0.19588895  0.79240807  1
  Zr  Zr78  1  0.80543557  0.79459432  -0.01000566  1
  Zr  Zr79  1  0.59931457  0.19020878  0.78734194  1
  Zr  Zr80  1  0.49873855  0.30095112  0.89802695  1
  Zr  Zr81  1  0.69425681  0.69604915  0.90069692  1
  Zr  Zr82  1  0.79888625  0.59977594  0.80065033  1
  Zr  Zr83  1  0.89635890  0.10921701  0.10115265  1
  Zr  Zr84  1  0.10011112  0.90570461  0.90749459  1
  Zr  Zr85  1  0.79443615  0.00245262  0.59662158  1
  Zr  Zr86  1  0.60371429  0.19813978  0.21115223  1
  Zr  Zr87  1  0.19407827  -0.00088961  0.60172157  1
  Zr  Zr88  1  0.80503252  0.00417751  -0.00520969  1
  Zr  Zr89  1  0.40898015  -0.00766116  0.20792678  1
  Zr  Zr90  1  0.10112011  0.30833607  0.10468067  1
  Zr  Zr91  1  0.50106709  0.50079367  0.30264004  1
  Zr  Zr92  1  0.10140411  0.30926947  0.29810236  1
  Zr  Zr93  1  0.70475679  0.89615283  0.30088821  1
  Zr  Zr94  1  0.79258018  0.19972064  0.59895839  1
  Zr  Zr95  1  0.19845911  0.40016229  0.40353870  1
  Zr  Zr96  1  0.72081019  0.29345808  0.11467974  1
  Zr  Zr97  1  0.79748227  0.80769160  0.59493627  1
  Zr  Zr98  1  0.19101344  0.59137535  0.39714205  1
  Zr  Zr99  1  0.69428879  0.50730801  0.69091465  1
  Ta  Ta100  1  0.30230199  0.49274279  0.29684110  1
  Ta  Ta101  1  0.79902179  0.39161303  0.40244221  1
  Ta  Ta102  1  -0.00243686  0.79942228  0.79837761  1
  Ta  Ta103  1  0.69472514  0.69930783  0.50240354  1
  Ta  Ta104  1  -0.00060615  0.40669146  0.00840416  1
  Ta  Ta105  1  0.29896159  0.89572700  0.69391439  1
  Ta  Ta106  1  0.09915501  0.49782078  0.70293811  1
  Ta  Ta107  1  0.80465837  0.00502014  0.21322220  1
  Ta  Ta108  1  0.00655492  0.59407230  0.59812544  1
  Ta  Ta109  1  0.39883559  0.00053335  0.60437358  1
  Ta  Ta110  1  0.60319939  0.39594938  0.19800572  1
  Ta  Ta111  1  0.80912700  -0.00249418  0.40370646  1
  Ta  Ta112  1  0.00064766  0.40687041  0.40230772  1
  Ta  Ta113  1  0.20057192  0.79256938  0.19747531  1
  Ta  Ta114  1  0.40018072  0.39512577  0.40012134  1
  Ta  Ta115  1  0.69755393  0.90087031  0.89073622  1
  Ta  Ta116  1  0.60207666  0.79797534  0.79533559  1
  Ta  Ta117  1  0.49253578  0.90202775  0.49610279  1
  Ta  Ta118  1  0.59984474  0.60958110  0.39477496  1
  Ta  Ta119  1  0.40422559  0.40836286  0.00721591  1
  Ta  Ta120  1  0.19643616  0.20560712  0.60171213  1
  Ta  Ta121  1  0.39807334  0.00460339  0.79272348  1
  Ta  Ta122  1  -0.00488088  0.20314563  0.20589092  1
  Ta  Ta123  1  0.68312913  0.90549039  0.49823583  1
  Ta  Ta124  1  0.68964143  0.69917948  0.69503821  1
  Ta  Ta125  1  0.40704220  0.20332537  0.00062347  1
  Ta  Ta126  1  0.19220600  0.59893520  0.60103957  1
  Ta  Ta127  1  0.59706964  0.59874265  0.20103613  1
  Ta  Ta128  1  0.29034802  0.70334820  0.69371488  1
  Ta  Ta129  1  -0.00112655  0.59409272  0.40370588  1
  Ta  Ta130  1  0.59909303  0.19549773  0.59372710  1
  Ta  Ta131  1  0.59428565  0.79173021  0.20638077  1
  Ta  Ta132  1  0.90382059  0.30599503  0.50405256  1
  Ta  Ta133  1  0.70666791  0.50216588  0.10693951  1
  Ta  Ta134  1  0.30623321  0.89400009  0.50347230  1
  Ta  Ta135  1  0.79643064  0.80215168  0.79643683  1
  Ta  Ta136  1  0.30047872  0.10628102  0.69404768  1
  Ta  Ta137  1  0.70497057  0.09696535  0.10622959  1
  Ta  Ta138  1  0.09641110  0.10302901  0.10070689  1
  Ta  Ta139  1  0.89424893  0.49920252  0.10381544  1
  Ta  Ta140  1  0.29436478  0.69114801  0.09568622  1
  Ta  Ta141  1  0.29438224  0.90253337  0.89326923  1
  Ta  Ta142  1  0.49740976  0.50702978  0.90354780  1
  Ta  Ta143  1  0.09880899  0.10377768  0.30471827  1
  Ta  Ta144  1  0.28899920  0.50385010  0.90537056  1
  Ta  Ta145  1  0.50315746  0.09535556  0.89557503  1
  Ta  Ta146  1  0.89623714  0.30689743  0.29766213  1
  Ta  Ta147  1  0.50744099  0.09741195  0.09376225  1
  Ta  Ta148  1  0.59963722  0.58974751  0.00395489  1
  Ta  Ta149  1  0.89542627  0.90629290  0.88760466  1
  Ti  Ti150  1  -0.00468767  0.40948628  0.79390882  1
  Ti  Ti151  1  0.51058931  0.69448943  0.90064318  1
  Ti  Ti152  1  0.19656405  0.00494302  -0.00069734  1
  Ti  Ti153  1  0.50575571  0.08664621  0.31590023  1
  Ti  Ti154  1  0.91065059  0.30936026  0.68636833  1
  Ti  Ti155  1  0.10027781  0.10643799  0.90074611  1
  Ti  Ti156  1  0.68966578  0.08947336  0.49540739  1
  Ti  Ti157  1  0.18927989  0.01013097  0.40771895  1
  Ti  Ti158  1  -0.00372336  0.40639766  0.20077732  1
  Ti  Ti159  1  0.09779884  0.11569942  0.69180198  1
  Ti  Ti160  1  0.90114879  0.68021478  0.08047458  1
  Ti  Ti161  1  0.50630275  0.30247218  0.29996203  1
  Ti  Ti162  1  0.29806107  0.69591144  0.30121414  1
  Ti  Ti163  1  0.69947751  0.09171405  0.30967404  1
  Ti  Ti164  1  0.80628322  0.19295292  0.21801176  1
  Ti  Ti165  1  0.10684712  0.50245458  0.90150789  1
  Ti  Ti166  1  0.90197507  0.31048657  0.89165743  1
  Ti  Ti167  1  0.28511604  0.68808185  0.89943589  1
  Ti  Ti168  1  0.80512404  0.60025571  0.20445323  1
  Ti  Ti169  1  0.79967413  0.39881971  0.59650634  1
  Ti  Ti170  1  0.20103055  0.79738057  -0.00188657  1
  Ti  Ti171  1  0.09862510  0.30882405  0.70006421  1
  Ti  Ti172  1  0.90333603  0.09926121  0.69571051  1
  Ti  Ti173  1  0.69304419  0.90946668  0.70354346  1
  Ti  Ti174  1  0.30250647  0.50531446  0.49346624  1
  Ti  Ti175  1  0.29828402  0.10045696  0.89551578  1
  Ti  Ti176  1  0.19615072  0.20408652  0.40472686  1
  Ti  Ti177  1  0.40074782  0.60283423  0.39242688  1
  Ti  Ti178  1  0.60544086  0.20458591  0.40441675  1
  Ti  Ti179  1  0.40014124  0.59629455  0.19692596  1
  Ti  Ti180  1  0.10352588  0.69781036  0.50038447  1
  Ti  Ti181  1  0.20187269  0.20862532  0.79199034  1
  Ti  Ti182  1  0.80879987  0.40940524  0.78958056  1
  Ti  Ti183  1  0.00196403  0.00482271  0.40566945  1
  Ti  Ti184  1  0.70223763  0.69469689  0.30016003  1
  Ti  Ti185  1  -0.00286338  0.00978941  -0.00595473  1
  Ti  Ti186  1  0.19913112  0.42794008  0.02700255  1
  Ti  Ti187  1  0.09743126  0.89643039  0.10076687  1
  Ti  Ti188  1  0.60586081  0.00267070  -0.00072296  1
  Ti  Ti189  1  0.80131835  0.60178217  0.59827589  1
  Ti  Ti190  1  0.80782802  0.19868596  -0.00861213  1
  Ti  Ti191  1  0.50441797  0.70150749  0.69686805  1
  Ti  Ti192  1  0.28579639  0.50815696  0.71044740  1
  Ti  Ti193  1  0.89518690  0.49576368  0.30413555  1
  Ti  Ti194  1  0.39606217  0.59234316  0.00320017  1
  Ti  Ti195  1  0.90385390  0.69680422  0.49952564  1
  Ti  Ti196  1  0.70089866  0.50323624  0.90479057  1
  Ti  Ti197  1  0.80331764  0.60394673  0.39927152  1
  Ti  Ti198  1  0.59974244  0.80254946  0.59902514  1
  Ti  Ti199  1  0.08889054  0.30096006  0.51137269  1
  Mo  Mo200  1  0.79664144  0.59176509  0.00440123  1
  Mo  Mo201  1  0.00213791  0.79554963  0.18242940  1
  Mo  Mo202  1  0.09995882  0.89511167  0.70076933  1
  Mo  Mo203  1  0.09318543  0.49613577  0.30174538  1
  Mo  Mo204  1  0.19631148  0.40828398  0.79217745  1
  Mo  Mo205  1  0.39723942  0.80382256  0.60437179  1
  Mo  Mo206  1  0.19956878  0.59966047  0.79768506  1
  Mo  Mo207  1  0.90469196  0.30435562  0.11588746  1
  Mo  Mo208  1  0.68832097  0.08791202  0.69280112  1
  Mo  Mo209  1  -0.00340861  0.78801704  0.41903984  1
  Mo  Mo210  1  0.20177255  0.59479042  0.00292721  1
  Mo  Mo211  1  0.31304819  0.50537635  0.10204762  1
  Mo  Mo212  1  0.49341173  0.09682395  0.69775309  1
  Mo  Mo213  1  0.29156388  0.29648738  0.69900360  1
  Mo  Mo214  1  0.59645554  0.61889007  0.59391648  1
  Mo  Mo215  1  0.00280568  0.40078567  0.60139518  1
  Mo  Mo216  1  0.08592322  0.50083524  0.10340053  1
  Mo  Mo217  1  -0.00047810  0.59068852  0.00161457  1
  Mo  Mo218  1  0.20771166  0.40713843  0.20475534  1
  Mo  Mo219  1  0.70390585  0.29867618  0.30362579  1
  Mo  Mo220  1  0.50543346  0.50401868  0.10076484  1
  Mo  Mo221  1  0.59677579  0.38456221  0.59073536  1
  Mo  Mo222  1  0.90243889  0.09869154  0.89330812  1
  Mo  Mo223  1  0.20083453  0.79506124  0.60082987  1
  Mo  Mo224  1  0.30396279  0.30548813  0.30669798  1
  Mo  Mo225  1  0.70230732  0.29698695  0.50361077  1
  Mo  Mo226  1  0.10614786  0.11269561  0.49467412  1
  Mo  Mo227  1  0.60117226  -0.00424215  0.39872596  1
  Mo  Mo228  1  0.59728475  0.60508195  0.80680371  1
  Mo  Mo229  1  0.09460848  0.49966661  0.50474007  1
  Mo  Mo230  1  0.59766073  -0.00000818  0.59972409  1
  Mo  Mo231  1  0.90119646  0.49290443  0.69363257  1
  Mo  Mo232  1  0.80008802  -0.00288441  0.79215367  1
  Mo  Mo233  1  0.49420461  0.69199918  0.29691451  1
  Mo  Mo234  1  0.20114619  0.78897340  0.39650312  1
  Mo  Mo235  1  0.80502292  0.40519219  0.20786022  1
  Mo  Mo236  1  0.89875525  0.69062245  0.31338547  1
  Mo  Mo237  1  0.50236892  0.29708184  0.50218520  1
  Mo  Mo238  1  0.49924851  0.29480131  0.10149335  1
  Mo  Mo239  1  0.90067800  0.10141017  0.30752327  1
  Mo  Mo240  1  0.00493761  0.20712058  0.60445566  1
  Mo  Mo241  1  0.39754522  0.19499945  0.60261351  1
  Mo  Mo242  1  0.40435626  -0.00368350  0.40791473  1
  Mo  Mo243  1  0.59970777  0.79767900  -0.00577079  1
  Mo  Mo244  1  0.59815517  -0.00338720  0.79298813  1
  Mo  Mo245  1  0.10188628  0.69290157  0.69533807  1
  Mo  Mo246  1  0.89850483  0.70500575  0.89516344  1
  Mo  Mo247  1  0.49835161  0.89731973  0.30489730  1
  Mo  Mo248  1  0.91187451  0.90327873  0.49532347  1
  Mo  Mo249  1  0.39806134  0.79933060  0.39925300  1
