# generated using pymatgen
data_HfZrTaTiMo
_symmetry_space_group_name_H-M   'P 1'
_cell_length_a   16.89127646
_cell_length_b   16.88689373
_cell_length_c   16.89638395
_cell_angle_alpha   89.95515796
_cell_angle_beta   90.00146938
_cell_angle_gamma   89.96750226
_symmetry_Int_Tables_number   1
_chemical_formula_structural   HfZrTaTiMo
_chemical_formula_sum   'Hf50 Zr50 Ta50 Ti50 Mo50'
_cell_volume   4819.54241867
_cell_formula_units_Z   50
loop_
 _symmetry_equiv_pos_site_id
 _symmetry_equiv_pos_as_xyz
  1  'x, y, z'
loop_
 _atom_site_type_symbol
 _atom_site_label
 _atom_site_symmetry_multiplicity
 _atom_site_fract_x
 _atom_site_fract_y
 _atom_site_fract_z
 _atom_site_occupancy
  Hf  Hf0  1  0.40443381  0.39787862  0.01232472  1
  Hf  Hf1  1  0.70219138  0.90074763  0.30229582  1
  Hf  Hf2  1  0.70048685  0.90205215  0.90122918  1
  Hf  Hf3  1  -0.00306154  0.40203677  0.19526340  1
  Hf  Hf4  1  -0.00401176  0.18132469  0.00118740  1
  Hf  Hf5  1  0.49964641  0.09064033  0.70818726  1
  Hf  Hf6  1  0.00388874  0.19776070  0.39740274  1
  Hf  Hf7  1  0.40018064  0.60053482  0.80238594  1
  Hf  Hf8  1  0.60525087  0.79384150  0.40540417  1
  Hf  Hf9  1  0.69659565  0.09328225  0.49199706  1
  Hf  Hf10  1  0.10251229  0.70235145  0.90222169  1
  Hf  Hf11  1  -0.00711408  0.19927725  0.59523577  1
  Hf  Hf12  1  0.29303248  0.50323976  0.10035224  1
  Hf  Hf13  1  0.50372745  0.09680813  0.30373274  1
  Hf  Hf14  1  0.20230207  0.19156171  0.00373521  1
  Hf  Hf15  1  0.10820801  0.70779992  0.09375607  1
  Hf  Hf16  1  0.50386319  0.29811364  0.29791833  1
  Hf  Hf17  1  0.01093764  -0.00054035  0.40354851  1
  Hf  Hf18  1  0.20081793  0.39843099  0.60258550  1
  Hf  Hf19  1  0.00041203  0.18299334  0.20549754  1
  Hf  Hf20  1  0.89069781  0.50922852  0.29378806  1
  Hf  Hf21  1  0.89357367  0.89556070  0.30398394  1
  Hf  Hf22  1  0.78805777  0.62363128  0.39352845  1
  Hf  Hf23  1  0.30043988  0.49697161  0.29873155  1
  Hf  Hf24  1  0.50719030  0.70271086  0.28769340  1
  Hf  Hf25  1  0.20083285  0.60072982  0.60033655  1
  Hf  Hf26  1  0.20076556  0.18882263  0.20435444  1
  Hf  Hf27  1  0.69827836  0.29859467  0.70968093  1
  Hf  Hf28  1  -0.00953361  0.39945865  0.59190417  1
  Hf  Hf29  1  0.30277327  0.08855248  0.89927051  1
  Hf  Hf30  1  -0.00198278  0.61466619  0.39800362  1
  Hf  Hf31  1  0.30741070  0.29770496  0.89743209  1
  Hf  Hf32  1  0.70233473  0.88968892  0.10853693  1
  Hf  Hf33  1  0.80745171  0.00283573  0.79681431  1
  Hf  Hf34  1  -0.00875927  0.40828830  0.81678036  1
  Hf  Hf35  1  0.51135354  0.69852426  0.09935055  1
  Hf  Hf36  1  0.39293404  0.20299980  0.19173336  1
  Hf  Hf37  1  0.60027006  0.60766643  0.40394311  1
  Hf  Hf38  1  0.39547921  0.19342464  0.59520537  1
  Hf  Hf39  1  -0.00528630  0.59709257  -0.00024791  1
  Hf  Hf40  1  0.80051989  0.19454165  0.60307406  1
  Hf  Hf41  1  0.19644879  0.81545287  0.39524666  1
  Hf  Hf42  1  0.80691086  -0.00017255  0.00328410  1
  Hf  Hf43  1  0.09880879  0.90496275  0.70638034  1
  Hf  Hf44  1  0.69611081  0.29981310  0.29731210  1
  Hf  Hf45  1  -0.00997621  0.40642956  -0.00701234  1
  Hf  Hf46  1  0.89416236  0.29861331  0.29478897  1
  Hf  Hf47  1  0.59823531  0.19327674  0.60344800  1
  Hf  Hf48  1  0.50569194  0.90871107  0.30184123  1
  Hf  Hf49  1  0.00009482  0.00609267  0.59676134  1
  Zr  Zr50  1  0.29820977  0.09774245  0.70829801  1
  Zr  Zr51  1  0.30843326  0.90417825  0.49825319  1
  Zr  Zr52  1  0.50670898  0.29943707  0.90388626  1
  Zr  Zr53  1  0.50247399  0.49674023  0.70325617  1
  Zr  Zr54  1  0.09303147  0.29365275  0.09816419  1
  Zr  Zr55  1  0.60631557  0.19421657  0.19430902  1
  Zr  Zr56  1  0.89101031  0.28920202  0.09476380  1
  Zr  Zr57  1  0.59958202  0.00596363  -0.00281038  1
  Zr  Zr58  1  0.40811718  -0.00617842  0.59870634  1
  Zr  Zr59  1  0.49601839  0.70537522  0.90446577  1
  Zr  Zr60  1  0.89449005  0.72157241  0.49156465  1
  Zr  Zr61  1  0.79711291  0.40406201  0.40542033  1
  Zr  Zr62  1  0.80006257  0.40386310  -0.00264717  1
  Zr  Zr63  1  0.29935914  0.70640650  0.29383393  1
  Zr  Zr64  1  0.19602146  0.39467706  0.00122576  1
  Zr  Zr65  1  -0.00392110  0.39427565  0.40263684  1
  Zr  Zr66  1  0.20684777  0.37781058  0.20760711  1
  Zr  Zr67  1  0.39597792  0.39220107  0.59568767  1
  Zr  Zr68  1  0.19777179  0.40089502  0.80461078  1
  Zr  Zr69  1  0.79967302  0.80483501  0.79917185  1
  Zr  Zr70  1  0.69901514  0.50480757  0.70101587  1
  Zr  Zr71  1  0.30174206  0.71687083  0.70050963  1
  Zr  Zr72  1  0.49956177  0.70632422  0.69237478  1
  Zr  Zr73  1  0.69385841  0.70312689  0.69407411  1
  Zr  Zr74  1  0.79869465  0.60489459  0.59207599  1
  Zr  Zr75  1  -0.00030851  0.60622545  0.19938912  1
  Zr  Zr76  1  0.89546026  0.30117992  0.70680136  1
  Zr  Zr77  1  0.39734900  0.59764865  0.59367630  1
  Zr  Zr78  1  -0.00711651  0.18823605  0.80439899  1
  Zr  Zr79  1  0.69610449  0.69889213  0.90565539  1
  Zr  Zr80  1  0.40351441  0.60537752  0.39959918  1
  Zr  Zr81  1  0.12666415  0.12145121  0.50759524  1
  Zr  Zr82  1  0.09172990  0.50547365  0.70314135  1
  Zr  Zr83  1  0.10053272  0.29273289  0.70090379  1
  Zr  Zr84  1  0.29474776  0.70156518  0.90721898  1
  Zr  Zr85  1  0.39299418  0.81159383  0.19434060  1
  Zr  Zr86  1  0.80401385  0.40502681  0.81132509  1
  Zr  Zr87  1  0.09628214  0.70374377  0.70466829  1
  Zr  Zr88  1  0.30383473  0.89369155  0.89522924  1
  Zr  Zr89  1  0.10527123  0.06356917  0.11053540  1
  Zr  Zr90  1  0.49457095  0.30049677  0.71264789  1
  Zr  Zr91  1  0.19809327  0.61116225  0.40205062  1
  Zr  Zr92  1  0.28248505  0.28290282  0.49197587  1
  Zr  Zr93  1  0.69310934  0.50838861  0.28807395  1
  Zr  Zr94  1  0.10595974  0.49680015  0.30470330  1
  Zr  Zr95  1  0.40785460  -0.00546572  0.00285610  1
  Zr  Zr96  1  0.60300498  0.39658026  0.59539433  1
  Zr  Zr97  1  0.00346340  0.81049496  0.59095759  1
  Zr  Zr98  1  0.39562221  0.39202049  0.39513411  1
  Zr  Zr99  1  0.20086632  0.00603473  0.39454324  1
  Ta  Ta100  1  0.50228758  0.49859878  0.49597521  1
  Ta  Ta101  1  0.30739306  0.09339916  0.30271416  1
  Ta  Ta102  1  0.10010330  0.50047865  0.49840738  1
  Ta  Ta103  1  0.29093274  0.49502164  0.49130951  1
  Ta  Ta104  1  0.29679741  0.69986834  0.09388563  1
  Ta  Ta105  1  0.78962572  0.40257228  0.18735980  1
  Ta  Ta106  1  0.59888946  0.40198367  0.39936733  1
  Ta  Ta107  1  0.70072150  0.29047745  0.90836725  1
  Ta  Ta108  1  0.80268675  0.39821543  0.59156573  1
  Ta  Ta109  1  0.88731943  0.50995422  0.10212474  1
  Ta  Ta110  1  0.70401032  0.90056073  0.49842730  1
  Ta  Ta111  1  0.89448517  0.70520669  0.10119521  1
  Ta  Ta112  1  0.89521348  0.09005416  0.30447622  1
  Ta  Ta113  1  -0.00357627  -0.01071355  -0.00135546  1
  Ta  Ta114  1  0.80009048  -0.00175811  0.60447350  1
  Ta  Ta115  1  0.90357614  0.70398649  0.70233319  1
  Ta  Ta116  1  0.50319494  0.09373991  0.48832634  1
  Ta  Ta117  1  0.40385661  0.59545490  0.00728257  1
  Ta  Ta118  1  0.60305797  0.18902079  0.80973035  1
  Ta  Ta119  1  0.59776781  0.60206735  0.80532051  1
  Ta  Ta120  1  0.59203907  0.80997778  0.80003948  1
  Ta  Ta121  1  0.51273634  0.89758339  0.10553493  1
  Ta  Ta122  1  0.20472192  0.00098134  0.60111375  1
  Ta  Ta123  1  -0.00311158  0.80134203  0.19809641  1
  Ta  Ta124  1  -0.00259784  0.60467486  0.59307382  1
  Ta  Ta125  1  0.89045197  0.09509736  0.49407426  1
  Ta  Ta126  1  0.50266885  0.50022727  0.90663529  1
  Ta  Ta127  1  0.10132971  0.09473453  0.70627016  1
  Ta  Ta128  1  0.69456097  0.50800568  0.90622924  1
  Ta  Ta129  1  0.09948722  0.91504853  0.27296090  1
  Ta  Ta130  1  0.89859399  0.70318279  0.90317761  1
  Ta  Ta131  1  0.09925414  0.71520233  0.29390865  1
  Ta  Ta132  1  0.50774668  0.28860937  0.48825772  1
  Ta  Ta133  1  0.80399420  0.79947514  0.00355798  1
  Ta  Ta134  1  0.50344841  0.49895416  0.29101426  1
  Ta  Ta135  1  0.30468781  0.50162212  0.90397333  1
  Ta  Ta136  1  0.79995388  0.19835659  0.39719695  1
  Ta  Ta137  1  0.89832128  0.50977904  0.69837877  1
  Ta  Ta138  1  0.30441093  0.71327553  0.50441436  1
  Ta  Ta139  1  0.90415229  0.90224270  0.70113864  1
  Ta  Ta140  1  0.69676060  0.29322876  0.49391571  1
  Ta  Ta141  1  0.40480433  0.59501096  0.19240358  1
  Ta  Ta142  1  0.60083861  -0.00750622  0.59940174  1
  Ta  Ta143  1  -0.00585656  0.80859268  0.81076425  1
  Ta  Ta144  1  0.40596814  0.19280353  0.00501196  1
  Ta  Ta145  1  0.60590788  0.40559677  0.00840127  1
  Ta  Ta146  1  0.41053394  0.80511774  0.40549932  1
  Ta  Ta147  1  0.90020984  0.89764761  0.10547749  1
  Ta  Ta148  1  0.79854121  0.00548028  0.19811198  1
  Ta  Ta149  1  0.79876496  0.18822502  0.19889457  1
  Ti  Ti150  1  0.69956902  0.09362371  0.30906305  1
  Ti  Ti151  1  0.19597225  0.19588056  0.80556691  1
  Ti  Ti152  1  0.60089814  0.40659946  0.18664456  1
  Ti  Ti153  1  0.69987212  0.29108486  0.09141755  1
  Ti  Ti154  1  0.69707027  0.09353094  0.70495740  1
  Ti  Ti155  1  0.50932008  0.29557472  0.09745996  1
  Ti  Ti156  1  -0.00371037  0.80611044  0.00080614  1
  Ti  Ti157  1  0.30528682  0.49104889  0.70849930  1
  Ti  Ti158  1  0.20154795  0.81240147  0.19600798  1
  Ti  Ti159  1  0.30444965  0.29577354  0.71234120  1
  Ti  Ti160  1  0.50322038  0.09830967  0.09983097  1
  Ti  Ti161  1  0.60821004  0.00502200  0.19488972  1
  Ti  Ti162  1  0.31198712  0.89819297  0.70523695  1
  Ti  Ti163  1  0.40058158  0.39487284  0.19420196  1
  Ti  Ti164  1  0.80170348  0.19213143  0.80478400  1
  Ti  Ti165  1  0.19626486  0.80513166  0.80202083  1
  Ti  Ti166  1  0.89953610  0.09282734  0.90044025  1
  Ti  Ti167  1  0.10114226  0.08304209  0.89769261  1
  Ti  Ti168  1  0.60472533  0.40347540  0.81220687  1
  Ti  Ti169  1  -0.00991300  0.60212714  0.80515157  1
  Ti  Ti170  1  0.10873534  0.30289967  0.49243378  1
  Ti  Ti171  1  0.89909642  0.50963202  0.49679743  1
  Ti  Ti172  1  0.01122793  0.81139567  0.39559044  1
  Ti  Ti173  1  0.69365294  0.50413164  0.50208829  1
  Ti  Ti174  1  0.39366282  0.19333218  0.39874792  1
  Ti  Ti175  1  0.20546165  0.59871984  0.79824132  1
  Ti  Ti176  1  0.79287622  0.60532147  0.00663752  1
  Ti  Ti177  1  0.10408033  0.50374313  0.09919485  1
  Ti  Ti178  1  0.19890873  0.60565915  0.20000559  1
  Ti  Ti179  1  0.10390433  0.70905275  0.50008443  1
  Ti  Ti180  1  0.40300426  0.80515373  0.00585195  1
  Ti  Ti181  1  0.28151614  0.90272098  0.08688519  1
  Ti  Ti182  1  0.20015936  0.81257813  0.59800385  1
  Ti  Ti183  1  0.70106872  0.10502604  0.90457646  1
  Ti  Ti184  1  0.60161948  0.80299618  0.00041959  1
  Ti  Ti185  1  0.88730277  0.90775817  0.49207677  1
  Ti  Ti186  1  0.29859794  0.08713958  0.09759257  1
  Ti  Ti187  1  0.79650923  0.80757395  0.60026027  1
  Ti  Ti188  1  0.19896425  -0.00644649  0.80087182  1
  Ti  Ti189  1  0.10349974  0.90122116  0.90918315  1
  Ti  Ti190  1  0.09366698  0.29158071  0.90195926  1
  Ti  Ti191  1  0.80109993  0.60335030  0.80264753  1
  Ti  Ti192  1  0.78998625  0.61514217  0.19393969  1
  Ti  Ti193  1  0.40918145  0.18933076  0.81136225  1
  Ti  Ti194  1  0.11089448  0.51270321  0.90541138  1
  Ti  Ti195  1  0.59009974  0.80917829  0.59297040  1
  Ti  Ti196  1  0.59408527  -0.00417093  0.80478938  1
  Ti  Ti197  1  0.39642611  -0.00412876  0.19673936  1
  Ti  Ti198  1  0.69512438  0.90281318  0.69766917  1
  Ti  Ti199  1  0.70569609  0.10707632  0.08968933  1
  Mo  Mo200  1  0.00116397  -0.00406082  0.80654314  1
  Mo  Mo201  1  0.89915501  0.09147320  0.69769889  1
  Mo  Mo202  1  0.50270196  0.49907336  0.10431127  1
  Mo  Mo203  1  0.59912796  0.59362664  0.00154853  1
  Mo  Mo204  1  0.90292582  0.89819095  0.90434564  1
  Mo  Mo205  1  0.88909992  0.52449340  0.90187686  1
  Mo  Mo206  1  0.19722348  0.80259621  0.00158685  1
  Mo  Mo207  1  0.79905688  0.00084712  0.40087667  1
  Mo  Mo208  1  0.69790246  0.50997548  0.09689033  1
  Mo  Mo209  1  0.10950242  0.90374762  0.50911187  1
  Mo  Mo210  1  0.30575299  0.29109092  0.29778193  1
  Mo  Mo211  1  0.41200327  -0.00882890  0.80240295  1
  Mo  Mo212  1  0.60357854  0.19972171  0.39803855  1
  Mo  Mo213  1  0.80255264  0.79397886  0.20132946  1
  Mo  Mo214  1  0.70046620  0.70037247  0.09741821  1
  Mo  Mo215  1  0.60007645  0.59859238  0.19291770  1
  Mo  Mo216  1  0.09671435  0.29285899  0.30434523  1
  Mo  Mo217  1  0.49745345  0.70365301  0.50376741  1
  Mo  Mo218  1  -0.01760511  -0.00645755  0.20088804  1
  Mo  Mo219  1  0.60114553  -0.00305061  0.40531067  1
  Mo  Mo220  1  0.60438052  0.79998932  0.19919114  1
  Mo  Mo221  1  0.30723022  0.90476622  0.29910479  1
  Mo  Mo222  1  0.60139227  0.20079700  0.00140628  1
  Mo  Mo223  1  0.09661193  0.89216929  0.09764340  1
  Mo  Mo224  1  0.10101707  0.09282443  0.29809656  1
  Mo  Mo225  1  0.79256486  0.80406143  0.39968809  1
  Mo  Mo226  1  0.88761171  0.29124279  0.49808837  1
  Mo  Mo227  1  0.89942709  0.71051923  0.29374705  1
  Mo  Mo228  1  0.39841462  0.40665856  0.81039358  1
  Mo  Mo229  1  0.30757919  0.29242820  0.09482404  1
  Mo  Mo230  1  0.59748640  0.60280738  0.58828588  1
  Mo  Mo231  1  0.50456725  0.89965859  0.70339236  1
  Mo  Mo232  1  0.50156409  0.09858416  0.89990868  1
  Mo  Mo233  1  0.89138917  0.27714730  0.90338027  1
  Mo  Mo234  1  0.20386705  0.19954783  0.62371816  1
  Mo  Mo235  1  0.50731671  0.90143663  0.49902068  1
  Mo  Mo236  1  0.22428787  -0.00930121  0.20044938  1
  Mo  Mo237  1  0.79888494  0.19129122  -0.00373868  1
  Mo  Mo238  1  0.40688653  0.80795108  0.79525889  1
  Mo  Mo239  1  0.50292982  0.89634667  0.90177077  1
  Mo  Mo240  1  0.19865688  0.20462590  0.37425450  1
  Mo  Mo241  1  0.69890507  0.70940600  0.28132833  1
  Mo  Mo242  1  0.40276790  0.00191149  0.39954792  1
  Mo  Mo243  1  0.30741261  0.10099581  0.49529509  1
  Mo  Mo244  1  0.19578230  -0.00496017  -0.00542381  1
  Mo  Mo245  1  0.20196638  0.59830417  0.00126893  1
  Mo  Mo246  1  0.40559504  0.80359877  0.59625769  1
  Mo  Mo247  1  0.69331932  0.70993588  0.51311210  1
  Mo  Mo248  1  0.89736958  0.08928690  0.10478515  1
  Mo  Mo249  1  0.19535613  0.39628584  0.40131937  1
