# generated using pymatgen
data_HfZrTaTiMo
_symmetry_space_group_name_H-M   'P 1'
_cell_length_a   16.88529382
_cell_length_b   16.89806848
_cell_length_c   16.88903470
_cell_angle_alpha   90.02225224
_cell_angle_beta   89.94024638
_cell_angle_gamma   90.07556154
_symmetry_Int_Tables_number   1
_chemical_formula_structural   HfZrTaTiMo
_chemical_formula_sum   'Hf50 Zr50 Ta50 Ti50 Mo50'
_cell_volume   4818.92169685
_cell_formula_units_Z   50
loop_
 _symmetry_equiv_pos_site_id
 _symmetry_equiv_pos_as_xyz
  1  'x, y, z'
loop_
 _atom_site_type_symbol
 _atom_site_label
 _atom_site_symmetry_multiplicity
 _atom_site_fract_x
 _atom_site_fract_y
 _atom_site_fract_z
 _atom_site_occupancy
  Hf  Hf0  1  0.48811989  0.70638521  0.32413361  1
  Hf  Hf1  1  0.90225640  0.29643900  0.30053924  1
  Hf  Hf2  1  -0.00042027  0.79443544  0.20132225  1
  Hf  Hf3  1  0.00250180  0.80082188  0.39938440  1
  Hf  Hf4  1  0.51040443  0.29001359  0.27645075  1
  Hf  Hf5  1  0.59370500  0.39914597  0.80769134  1
  Hf  Hf6  1  0.49982015  0.70595106  0.10337860  1
  Hf  Hf7  1  0.90129162  0.89831478  0.09743482  1
  Hf  Hf8  1  0.41398045  0.40546098  -0.00036584  1
  Hf  Hf9  1  0.59986552  0.40349958  0.60008047  1
  Hf  Hf10  1  0.70090990  0.29749006  0.70545368  1
  Hf  Hf11  1  0.89539245  0.29386905  0.69744715  1
  Hf  Hf12  1  0.01183387  0.00263867  0.40125551  1
  Hf  Hf13  1  0.00530669  0.39228103  0.80451392  1
  Hf  Hf14  1  0.50599115  0.09752855  0.29672285  1
  Hf  Hf15  1  0.59790990  0.81170176  0.21075162  1
  Hf  Hf16  1  0.89556146  0.89753307  0.50111707  1
  Hf  Hf17  1  0.60498922  0.60586521  0.41232672  1
  Hf  Hf18  1  0.59978607  0.59711424  0.80553093  1
  Hf  Hf19  1  0.78837099  -0.00341683  0.19902904  1
  Hf  Hf20  1  0.29602070  0.49903062  0.09371081  1
  Hf  Hf21  1  0.20188059  0.39121904  0.61032122  1
  Hf  Hf22  1  0.69795868  0.29940704  0.50046184  1
  Hf  Hf23  1  0.89371768  0.90518119  0.30210628  1
  Hf  Hf24  1  0.40353501  0.00595902  0.00365300  1
  Hf  Hf25  1  0.30572143  0.70065886  0.70719427  1
  Hf  Hf26  1  0.79583041  0.59453412  0.59517356  1
  Hf  Hf27  1  0.59981639  -0.01549754  0.80878116  1
  Hf  Hf28  1  0.59462652  0.40540330  0.39627678  1
  Hf  Hf29  1  0.10416595  0.50780679  0.48296387  1
  Hf  Hf30  1  0.09763846  0.29787538  0.10372612  1
  Hf  Hf31  1  0.41282624  0.41036956  0.20039059  1
  Hf  Hf32  1  0.20139152  0.60427848  0.20359184  1
  Hf  Hf33  1  0.40027185  0.39285919  0.60495762  1
  Hf  Hf34  1  0.41008414  -0.00396923  0.19773971  1
  Hf  Hf35  1  0.49295024  0.09060784  0.69740830  1
  Hf  Hf36  1  0.68918707  0.29976144  0.10812182  1
  Hf  Hf37  1  0.08675132  0.10527017  0.70085685  1
  Hf  Hf38  1  0.80303603  0.39453498  -0.00267965  1
  Hf  Hf39  1  0.69636627  0.49715276  0.10246900  1
  Hf  Hf40  1  -0.00408541  0.00589782  -0.00554701  1
  Hf  Hf41  1  0.80038438  0.60642728  0.00620966  1
  Hf  Hf42  1  0.30746575  0.09538589  0.69916456  1
  Hf  Hf43  1  0.19067768  0.40298179  0.21718232  1
  Hf  Hf44  1  -0.00849274  0.59612242  0.59785587  1
  Hf  Hf45  1  0.89965734  0.09734091  0.50052060  1
  Hf  Hf46  1  0.49339217  0.09792819  0.89293351  1
  Hf  Hf47  1  0.79760512  0.19432559  0.39747963  1
  Hf  Hf48  1  0.41459789  0.80923456  0.80058246  1
  Hf  Hf49  1  0.19838456  0.80635227  0.59980781  1
  Zr  Zr50  1  0.10282793  0.30235912  0.49074792  1
  Zr  Zr51  1  0.69694712  0.09636924  0.70470600  1
  Zr  Zr52  1  0.40374567  0.20186390  0.39936965  1
  Zr  Zr53  1  0.10510267  0.50568412  0.70286001  1
  Zr  Zr54  1  0.20100924  0.20122541  0.59802348  1
  Zr  Zr55  1  0.69415367  0.29624483  0.29369978  1
  Zr  Zr56  1  0.32096422  0.69948993  0.47897413  1
  Zr  Zr57  1  -0.00792832  0.20457365  0.81101895  1
  Zr  Zr58  1  0.29890940  0.29737249  0.30302930  1
  Zr  Zr59  1  0.39752865  0.59954334  0.20549474  1
  Zr  Zr60  1  0.79383622  0.79869858  0.00508770  1
  Zr  Zr61  1  0.40158543  0.40175338  0.79928627  1
  Zr  Zr62  1  0.00032361  0.60001718  0.79902708  1
  Zr  Zr63  1  0.20553187  0.19543771  -0.00154348  1
  Zr  Zr64  1  0.89459911  0.09862358  0.09615281  1
  Zr  Zr65  1  0.29926610  0.49552452  0.49494383  1
  Zr  Zr66  1  0.39089746  0.20788012  0.80557457  1
  Zr  Zr67  1  0.60358245  0.19494197  0.00016904  1
  Zr  Zr68  1  0.41430055  0.80741102  0.59749873  1
  Zr  Zr69  1  0.19695634  0.21090862  0.79821644  1
  Zr  Zr70  1  0.79387592  0.19459898  0.59705297  1
  Zr  Zr71  1  0.30480213  0.30135648  0.10756565  1
  Zr  Zr72  1  0.20218958  0.38863391  0.79886970  1
  Zr  Zr73  1  0.90327021  0.71000155  0.90043540  1
  Zr  Zr74  1  0.09811250  0.90693900  0.90024630  1
  Zr  Zr75  1  0.80196532  0.61329884  0.19570510  1
  Zr  Zr76  1  0.29004955  0.90343116  0.10416983  1
  Zr  Zr77  1  0.20299139  0.60921756  0.59738323  1
  Zr  Zr78  1  0.59131671  -0.01724717  0.59998744  1
  Zr  Zr79  1  0.79258087  0.79589234  0.59990021  1
  Zr  Zr80  1  0.78991818  0.79340138  0.39454147  1
  Zr  Zr81  1  0.00295844  -0.00590406  0.60199157  1
  Zr  Zr82  1  0.09529743  0.49849081  0.10059359  1
  Zr  Zr83  1  0.90067316  0.29798002  0.10194220  1
  Zr  Zr84  1  0.60194989  0.00028884  0.00723001  1
  Zr  Zr85  1  0.40943604  0.60002594  0.60364768  1
  Zr  Zr86  1  0.70046088  0.50241359  0.29608782  1
  Zr  Zr87  1  0.59830345  0.60242984  0.00091177  1
  Zr  Zr88  1  0.80374062  0.40860826  0.40649170  1
  Zr  Zr89  1  0.00121365  0.80983234  0.79119031  1
  Zr  Zr90  1  0.80243515  0.60267657  0.79775097  1
  Zr  Zr91  1  0.00251509  0.60277208  -0.00060801  1
  Zr  Zr92  1  0.09594413  0.67866660  0.31531962  1
  Zr  Zr93  1  0.20398537  0.80064843  0.39427741  1
  Zr  Zr94  1  0.40741039  0.80808073  0.00116173  1
  Zr  Zr95  1  0.30182032  0.91229540  0.89240231  1
  Zr  Zr96  1  0.39032561  0.80366199  0.21087649  1
  Zr  Zr97  1  0.19765765  0.80571904  0.79104979  1
  Zr  Zr98  1  0.19416305  0.00191285  0.59465742  1
  Zr  Zr99  1  0.19604576  0.79661112  0.00174948  1
  Ta  Ta100  1  0.90648072  0.29902923  0.50006179  1
  Ta  Ta101  1  -0.00085574  0.20044181  -0.00551040  1
  Ta  Ta102  1  0.09979989  0.90475159  0.10485875  1
  Ta  Ta103  1  0.00508949  0.19670679  0.39752529  1
  Ta  Ta104  1  0.79538566  0.19191169  0.19876613  1
  Ta  Ta105  1  0.80587566  0.40109894  0.20179228  1
  Ta  Ta106  1  -0.00102490  0.39521345  -0.01099231  1
  Ta  Ta107  1  0.70195527  0.49423145  0.90072643  1
  Ta  Ta108  1  0.40582473  0.19894150  0.00969617  1
  Ta  Ta109  1  0.60315041  0.80198993  0.80406252  1
  Ta  Ta110  1  0.29733903  0.50591564  0.89930495  1
  Ta  Ta111  1  0.90423144  0.69949704  0.49867144  1
  Ta  Ta112  1  -0.00327719  0.40250812  0.59502244  1
  Ta  Ta113  1  0.00403685  0.00304884  0.20211366  1
  Ta  Ta114  1  0.20133216  0.60394640  -0.00330869  1
  Ta  Ta115  1  0.00365395  0.40257552  0.39306918  1
  Ta  Ta116  1  0.30383244  0.69588785  0.89804298  1
  Ta  Ta117  1  0.51143520  0.70095400  0.70134274  1
  Ta  Ta118  1  0.89836832  0.09554992  0.30111774  1
  Ta  Ta119  1  0.40828144  0.40139383  0.39436682  1
  Ta  Ta120  1  0.79471042  0.81000613  0.80219862  1
  Ta  Ta121  1  0.69562726  0.89924726  0.49036683  1
  Ta  Ta122  1  0.59262076  0.60447793  0.20423157  1
  Ta  Ta123  1  0.90367621  0.49675297  0.10383432  1
  Ta  Ta124  1  0.79293759  0.79594903  0.19758934  1
  Ta  Ta125  1  0.49759916  0.08816600  0.49467935  1
  Ta  Ta126  1  0.90633307  0.50644884  0.30024218  1
  Ta  Ta127  1  0.69429804  0.09382821  0.29843241  1
  Ta  Ta128  1  0.79259437  -0.00433175  0.59952564  1
  Ta  Ta129  1  0.70187552  0.49666254  0.70467901  1
  Ta  Ta130  1  0.09984226  0.10108456  0.89774430  1
  Ta  Ta131  1  0.30811245  0.91072897  0.49495037  1
  Ta  Ta132  1  0.40902661  0.59824441  0.80749592  1
  Ta  Ta133  1  0.19990899  0.01172936  0.00174592  1
  Ta  Ta134  1  0.19747137  0.79565176  0.20598392  1
  Ta  Ta135  1  0.31209153  0.91269221  0.69495076  1
  Ta  Ta136  1  0.49837618  0.50335196  0.49909100  1
  Ta  Ta137  1  0.89007311  0.09495737  0.70726370  1
  Ta  Ta138  1  0.10530037  0.09774563  0.30039282  1
  Ta  Ta139  1  0.69405817  0.70050437  0.70208450  1
  Ta  Ta140  1  0.60142834  0.80790144  -0.00257759  1
  Ta  Ta141  1  0.79780788  0.60098410  0.40974631  1
  Ta  Ta142  1  0.19726647  0.19457218  0.20501155  1
  Ta  Ta143  1  0.80261377  0.40715353  0.59774754  1
  Ta  Ta144  1  0.89430913  0.90450624  0.70100817  1
  Ta  Ta145  1  0.69052245  0.08701373  0.49143275  1
  Ta  Ta146  1  0.00358153  0.19262164  0.20544627  1
  Ta  Ta147  1  0.59224241  0.19459583  0.59286386  1
  Ta  Ta148  1  0.40326983  0.59796042  -0.00278448  1
  Ta  Ta149  1  0.30358759  0.09217015  0.49001994  1
  Ti  Ti150  1  0.09575878  0.70348709  0.69418189  1
  Ti  Ti151  1  0.80296230  0.39596965  0.80557851  1
  Ti  Ti152  1  0.09898692  0.70158608  0.10053373  1
  Ti  Ti153  1  0.71166144  0.09810706  0.89168588  1
  Ti  Ti154  1  0.40096014  0.19919835  0.59170334  1
  Ti  Ti155  1  0.19632882  0.19377753  0.39759374  1
  Ti  Ti156  1  0.80157937  0.19714427  -0.00739441  1
  Ti  Ti157  1  0.19232300  0.39935176  -0.00575339  1
  Ti  Ti158  1  0.59922862  0.19570060  0.40415166  1
  Ti  Ti159  1  0.19750711  0.00634403  0.79722306  1
  Ti  Ti160  1  0.69912380  0.70269824  0.89796535  1
  Ti  Ti161  1  0.29956773  0.70001512  0.09609346  1
  Ti  Ti162  1  0.69998893  0.89568307  0.70008971  1
  Ti  Ti163  1  0.60055219  0.19945532  0.80187381  1
  Ti  Ti164  1  0.10428900  0.89771934  0.49788389  1
  Ti  Ti165  1  0.59898388  0.79441096  0.59251895  1
  Ti  Ti166  1  0.50488199  0.50437986  0.70049745  1
  Ti  Ti167  1  0.60626948  0.60064579  0.59779307  1
  Ti  Ti168  1  0.10740279  0.69744690  0.89282930  1
  Ti  Ti169  1  0.29932391  0.91388385  0.31052734  1
  Ti  Ti170  1  0.29954949  0.30127568  0.49240135  1
  Ti  Ti171  1  0.50278213  0.29479894  0.90579487  1
  Ti  Ti172  1  0.00182019  0.80141167  0.00123600  1
  Ti  Ti173  1  0.10737684  0.90547677  0.29499190  1
  Ti  Ti174  1  0.49726683  0.89648920  0.48071299  1
  Ti  Ti175  1  0.69551380  0.90004210  0.10164514  1
  Ti  Ti176  1  0.29567600  0.50506386  0.31346035  1
  Ti  Ti177  1  0.19816444  0.00457493  0.20092067  1
  Ti  Ti178  1  0.50112169  0.29870854  0.49838628  1
  Ti  Ti179  1  0.09877740  0.09875090  0.10173500  1
  Ti  Ti180  1  0.59234534  0.40142911  0.00224064  1
  Ti  Ti181  1  -0.01224677  0.00022851  0.80502691  1
  Ti  Ti182  1  0.79616013  -0.00523908  -0.01252973  1
  Ti  Ti183  1  0.10931046  0.50325903  0.89729048  1
  Ti  Ti184  1  0.29781597  0.50927249  0.71044180  1
  Ti  Ti185  1  0.50184886  0.28894815  0.69747384  1
  Ti  Ti186  1  0.69218684  0.70210876  0.30104757  1
  Ti  Ti187  1  -0.00317110  0.60049663  0.19910593  1
  Ti  Ti188  1  0.89992828  0.69476054  0.30517130  1
  Ti  Ti189  1  0.89735107  0.49833263  0.90156712  1
  Ti  Ti190  1  0.90133374  0.71065726  0.69389945  1
  Ti  Ti191  1  0.30328427  0.10433608  0.10996968  1
  Ti  Ti192  1  0.09466848  0.69796358  0.49974785  1
  Ti  Ti193  1  0.30038659  0.09673523  0.30134426  1
  Ti  Ti194  1  0.60042403  -0.01451844  0.38591003  1
  Ti  Ti195  1  0.00143154  0.40010927  0.20881394  1
  Ti  Ti196  1  0.70393174  0.29692177  0.89709439  1
  Ti  Ti197  1  0.30161042  0.30496143  0.91240274  1
  Ti  Ti198  1  0.89706933  0.49234480  0.70339440  1
  Ti  Ti199  1  0.50079526  0.70237561  0.90071676  1
  Mo  Mo200  1  0.40211469  -0.00207013  0.80026995  1
  Mo  Mo201  1  0.49993642  0.90244827  0.30600984  1
  Mo  Mo202  1  0.69842014  0.90093382  0.30204480  1
  Mo  Mo203  1  0.90212405  0.49790225  0.49637616  1
  Mo  Mo204  1  0.69781408  0.50074318  0.50850486  1
  Mo  Mo205  1  0.89359161  0.29902910  0.90207109  1
  Mo  Mo206  1  0.40721490  0.58388666  0.39960449  1
  Mo  Mo207  1  0.29523345  0.09922715  0.90169410  1
  Mo  Mo208  1  0.69873753  0.70122592  0.50698473  1
  Mo  Mo209  1  0.50064917  0.50142489  0.90287534  1
  Mo  Mo210  1  0.40150822  0.00237912  0.39431553  1
  Mo  Mo211  1  0.59971176  0.80186476  0.40608627  1
  Mo  Mo212  1  0.79081701  0.00103099  0.39972679  1
  Mo  Mo213  1  0.09665286  0.29150142  0.30006117  1
  Mo  Mo214  1  0.70289558  0.89780306  0.90241349  1
  Mo  Mo215  1  0.90970963  0.70336344  0.10555839  1
  Mo  Mo216  1  0.07770978  0.29622332  0.68199790  1
  Mo  Mo217  1  0.31701850  0.29051240  0.68797000  1
  Mo  Mo218  1  0.50762734  0.90419750  0.10409828  1
  Mo  Mo219  1  0.60162504  -0.00553731  0.19685617  1
  Mo  Mo220  1  0.20584471  0.60546911  0.80785246  1
  Mo  Mo221  1  0.89324941  0.90695817  0.89617130  1
  Mo  Mo222  1  0.50802884  0.70080707  0.50603756  1
  Mo  Mo223  1  0.50508732  0.89378970  0.70214806  1
  Mo  Mo224  1  0.50480371  0.90000235  0.90422520  1
  Mo  Mo225  1  0.10062745  0.29990783  0.91460990  1
  Mo  Mo226  1  0.40019267  0.81624077  0.39792175  1
  Mo  Mo227  1  0.10369733  0.10499560  0.49031678  1
  Mo  Mo228  1  0.09675851  0.90813974  0.69967490  1
  Mo  Mo229  1  0.39779884  0.19111391  0.19482901  1
  Mo  Mo230  1  0.20095222  0.39881248  0.39681717  1
  Mo  Mo231  1  0.50010168  0.10505003  0.10536300  1
  Mo  Mo232  1  0.00324491  0.79787054  0.59815082  1
  Mo  Mo233  1  -0.01516634  0.59788876  0.40474637  1
  Mo  Mo234  1  0.20958284  0.59982083  0.39675875  1
  Mo  Mo235  1  0.09280937  0.49776177  0.30128048  1
  Mo  Mo236  1  0.40263631  -0.00152813  0.59009865  1
  Mo  Mo237  1  0.89162048  0.10048377  0.89838484  1
  Mo  Mo238  1  0.68913557  0.70713429  0.10771149  1
  Mo  Mo239  1  0.50414399  0.50598620  0.10090972  1
  Mo  Mo240  1  0.60550373  0.17702564  0.18737344  1
  Mo  Mo241  1  0.59442764  0.41665329  0.19417135  1
  Mo  Mo242  1  0.50335613  0.29687817  0.09793284  1
  Mo  Mo243  1  0.20240363  0.00277261  0.39609924  1
  Mo  Mo244  1  -0.00350061  0.20194420  0.59436431  1
  Mo  Mo245  1  0.29730048  0.69555712  0.30168307  1
  Mo  Mo246  1  0.70533853  0.09961870  0.09771322  1
  Mo  Mo247  1  0.79714438  0.19697414  0.80829325  1
  Mo  Mo248  1  0.79980089  -0.00558339  0.79859760  1
  Mo  Mo249  1  0.50320477  0.50514430  0.30459662  1
