# generated using pymatgen
data_HfZrTaTiMo
_symmetry_space_group_name_H-M   'P 1'
_cell_length_a   16.88671367
_cell_length_b   16.90036670
_cell_length_c   16.89031316
_cell_angle_alpha   90.04189565
_cell_angle_beta   90.03929677
_cell_angle_gamma   90.03009680
_symmetry_Int_Tables_number   1
_chemical_formula_structural   HfZrTaTiMo
_chemical_formula_sum   'Hf50 Zr50 Ta50 Ti50 Mo50'
_cell_volume   4820.35131237
_cell_formula_units_Z   50
loop_
 _symmetry_equiv_pos_site_id
 _symmetry_equiv_pos_as_xyz
  1  'x, y, z'
loop_
 _atom_site_type_symbol
 _atom_site_label
 _atom_site_symmetry_multiplicity
 _atom_site_fract_x
 _atom_site_fract_y
 _atom_site_fract_z
 _atom_site_occupancy
  Hf  Hf0  1  0.70093479  0.89062723  0.30720901  1
  Hf  Hf1  1  0.00584171  0.20318064  0.79575035  1
  Hf  Hf2  1  0.49324627  0.29654852  0.10298638  1
  Hf  Hf3  1  0.20045507  0.00916950  0.19228118  1
  Hf  Hf4  1  0.59236053  -0.00361614  0.20211643  1
  Hf  Hf5  1  0.39983593  0.00313056  0.38887005  1
  Hf  Hf6  1  0.29976213  0.29998715  0.30222365  1
  Hf  Hf7  1  0.20574441  0.58582304  0.40951130  1
  Hf  Hf8  1  0.90064406  0.89931514  0.91261143  1
  Hf  Hf9  1  0.40964109  0.20486562  0.81533474  1
  Hf  Hf10  1  0.80455547  0.60420895  0.80215382  1
  Hf  Hf11  1  0.59355794  0.79768480  0.59614004  1
  Hf  Hf12  1  0.00719224  0.01155521  0.20077718  1
  Hf  Hf13  1  0.79221630  0.19654420  -0.00088252  1
  Hf  Hf14  1  0.90444519  0.31412766  0.50244644  1
  Hf  Hf15  1  0.70826954  0.51746434  0.29627746  1
  Hf  Hf16  1  0.58033490  0.19730450  -0.01721392  1
  Hf  Hf17  1  0.30986435  0.29743450  0.09640389  1
  Hf  Hf18  1  0.59741060  0.40256215  0.39544341  1
  Hf  Hf19  1  0.30472913  0.29772383  0.50133116  1
  Hf  Hf20  1  0.00970286  -0.00293007  0.80418791  1
  Hf  Hf21  1  0.69989763  0.30706482  0.88993843  1
  Hf  Hf22  1  0.79988089  0.00290610  0.20334944  1
  Hf  Hf23  1  0.19427001  0.19327497  0.20054724  1
  Hf  Hf24  1  0.38897991  0.80285294  -0.01824637  1
  Hf  Hf25  1  0.59208459  0.60132250  0.19684183  1
  Hf  Hf26  1  0.29837428  0.70263661  0.09730603  1
  Hf  Hf27  1  0.39611981  0.80131574  0.40714243  1
  Hf  Hf28  1  0.10447010  0.30384121  0.90507156  1
  Hf  Hf29  1  0.90358729  0.29831782  0.29288703  1
  Hf  Hf30  1  0.10442812  0.70596583  0.10057133  1
  Hf  Hf31  1  0.20916029  0.20580712  0.80091902  1
  Hf  Hf32  1  0.29151063  0.89325497  0.29093989  1
  Hf  Hf33  1  0.09950541  0.50131386  0.90134931  1
  Hf  Hf34  1  0.49703372  0.69455548  0.90122887  1
  Hf  Hf35  1  0.21593033  0.80106389  0.81421432  1
  Hf  Hf36  1  0.78982524  0.40169908  0.19047341  1
  Hf  Hf37  1  0.69739357  0.71268766  0.29473479  1
  Hf  Hf38  1  0.70102332  0.69578240  0.69301062  1
  Hf  Hf39  1  0.79621787  0.79440569  0.80922600  1
  Hf  Hf40  1  0.49316079  0.09753451  0.09450102  1
  Hf  Hf41  1  0.30841458  0.50078237  0.09143323  1
  Hf  Hf42  1  0.19933203  0.79054391  0.41639490  1
  Hf  Hf43  1  0.21045467  0.39906563  0.79971743  1
  Hf  Hf44  1  0.60279514  0.19771160  0.60251614  1
  Hf  Hf45  1  0.10926960  0.09521133  0.50791664  1
  Hf  Hf46  1  0.11615014  0.90081185  0.69471524  1
  Hf  Hf47  1  0.60391553  0.40293086  0.58636044  1
  Hf  Hf48  1  0.00182376  0.40147356  0.19283643  1
  Hf  Hf49  1  0.09352942  0.68899768  0.51420204  1
  Zr  Zr50  1  0.89986437  0.10246216  0.10331138  1
  Zr  Zr51  1  0.90714627  0.69971730  0.91159586  1
  Zr  Zr52  1  -0.00377483  0.60061183  0.19337810  1
  Zr  Zr53  1  0.69085859  0.90011933  0.70094235  1
  Zr  Zr54  1  0.00679432  0.19726416  0.39623615  1
  Zr  Zr55  1  0.11302386  0.09596023  0.90813958  1
  Zr  Zr56  1  0.09803045  0.50468945  0.69551347  1
  Zr  Zr57  1  0.19482097  0.39623513  0.59600994  1
  Zr  Zr58  1  0.00958885  0.79964791  0.80303342  1
  Zr  Zr59  1  0.89542222  0.30822821  0.69229582  1
  Zr  Zr60  1  0.88937273  0.70584501  0.29358814  1
  Zr  Zr61  1  0.29637943  0.69879095  0.29885297  1
  Zr  Zr62  1  0.49796837  0.10111424  0.50242147  1
  Zr  Zr63  1  0.89244087  0.50660274  0.08783068  1
  Zr  Zr64  1  0.31148131  0.69097490  0.70982583  1
  Zr  Zr65  1  0.70713037  0.50244379  0.69460210  1
  Zr  Zr66  1  0.69192013  0.08949323  0.89663585  1
  Zr  Zr67  1  0.40523162  -0.00186481  0.60284712  1
  Zr  Zr68  1  0.19319781  0.01413326  0.38172863  1
  Zr  Zr69  1  0.49505186  0.50686438  0.69899704  1
  Zr  Zr70  1  0.79837367  0.19728625  0.39590298  1
  Zr  Zr71  1  0.79538820  -0.00262344  0.80104954  1
  Zr  Zr72  1  0.20509972  0.40362565  0.20176646  1
  Zr  Zr73  1  0.49648851  0.69986718  0.09290562  1
  Zr  Zr74  1  0.09372046  0.88437142  0.29039896  1
  Zr  Zr75  1  0.00801837  0.20153534  0.01245382  1
  Zr  Zr76  1  0.89967692  0.10051455  0.50340362  1
  Zr  Zr77  1  0.60389141  0.20368878  0.40115444  1
  Zr  Zr78  1  0.78534921  0.39632610  0.40390856  1
  Zr  Zr79  1  0.09487341  0.90496073  0.50509321  1
  Zr  Zr80  1  0.68884459  0.28872997  0.10512255  1
  Zr  Zr81  1  0.79260089  0.00678005  0.60680523  1
  Zr  Zr82  1  0.89408042  0.89570788  0.29950564  1
  Zr  Zr83  1  0.39856620  0.79819736  0.60055735  1
  Zr  Zr84  1  0.89377956  0.49980613  0.30497730  1
  Zr  Zr85  1  0.01861656  0.21466909  0.60357693  1
  Zr  Zr86  1  0.59842216  0.40187686  -0.00125943  1
  Zr  Zr87  1  0.69343276  0.88611825  0.10849429  1
  Zr  Zr88  1  0.60122419  0.79993281  0.81415701  1
  Zr  Zr89  1  0.59549637  0.19702534  0.79454925  1
  Zr  Zr90  1  0.28591502  0.91621187  0.50926941  1
  Zr  Zr91  1  0.90361330  0.89371416  0.69713115  1
  Zr  Zr92  1  0.59729533  0.60071520  0.40065189  1
  Zr  Zr93  1  0.49916215  0.29321926  0.29230961  1
  Zr  Zr94  1  -0.01715787  0.59837038  0.41396859  1
  Zr  Zr95  1  0.89679982  0.90712812  0.49718305  1
  Zr  Zr96  1  0.90143241  0.09748172  0.90275553  1
  Zr  Zr97  1  0.70559994  0.30803433  0.69382659  1
  Zr  Zr98  1  0.89598836  0.30319083  0.89909676  1
  Zr  Zr99  1  0.09762926  0.69723201  0.29933394  1
  Ta  Ta100  1  0.79190122  -0.00831081  0.00805247  1
  Ta  Ta101  1  0.49400073  0.50394939  0.09261295  1
  Ta  Ta102  1  0.09737301  0.49646889  0.30466738  1
  Ta  Ta103  1  0.30697950  0.10199158  0.70179443  1
  Ta  Ta104  1  0.39871843  0.40744435  0.39703102  1
  Ta  Ta105  1  0.30854022  0.09821091  0.90568379  1
  Ta  Ta106  1  0.20648176  0.59990551  -0.00586902  1
  Ta  Ta107  1  0.90186216  0.50009827  0.89920215  1
  Ta  Ta108  1  0.70114574  0.09442128  0.49941979  1
  Ta  Ta109  1  0.49568087  0.69615423  0.49534621  1
  Ta  Ta110  1  0.10618130  0.69480783  0.70341335  1
  Ta  Ta111  1  0.00028460  0.60036428  0.80032313  1
  Ta  Ta112  1  0.29942556  0.10681475  0.50600071  1
  Ta  Ta113  1  0.60372168  0.60012180  0.80514892  1
  Ta  Ta114  1  -0.00011368  0.40173390  0.00185660  1
  Ta  Ta115  1  -0.00632256  0.79411697  0.40958363  1
  Ta  Ta116  1  0.90584283  0.89015778  0.10296970  1
  Ta  Ta117  1  0.49145192  0.30112916  0.50277806  1
  Ta  Ta118  1  0.31226724  0.29786612  0.69672911  1
  Ta  Ta119  1  0.59211951  0.60305526  0.59694348  1
  Ta  Ta120  1  0.20272360  0.59172563  0.20038310  1
  Ta  Ta121  1  0.39718431  -0.00316414  0.19938121  1
  Ta  Ta122  1  0.49353253  0.30629001  0.69428128  1
  Ta  Ta123  1  0.09929799  0.30650159  0.30500347  1
  Ta  Ta124  1  0.40055232  0.80243836  0.19867497  1
  Ta  Ta125  1  0.00238384  0.40116668  0.79545274  1
  Ta  Ta126  1  0.40490539  0.41358323  0.20935249  1
  Ta  Ta127  1  0.10810104  0.69868456  0.90231939  1
  Ta  Ta128  1  0.79495489  0.18999326  0.78609209  1
  Ta  Ta129  1  0.90500566  0.49992443  0.69007586  1
  Ta  Ta130  1  0.59460986  -0.01533408  -0.00762771  1
  Ta  Ta131  1  0.49522480  0.89363259  0.09603123  1
  Ta  Ta132  1  0.49777191  0.70615489  0.30326602  1
  Ta  Ta133  1  0.20444363  0.20458987  0.60518974  1
  Ta  Ta134  1  0.21019010  0.59465438  0.59606719  1
  Ta  Ta135  1  0.39870504  0.40011594  0.80503059  1
  Ta  Ta136  1  0.59394578  0.41432026  0.20103561  1
  Ta  Ta137  1  0.01230743  -0.00597231  0.00762706  1
  Ta  Ta138  1  0.21085516  -0.00224105  0.80686766  1
  Ta  Ta139  1  0.60071684  -0.00147611  0.39862318  1
  Ta  Ta140  1  0.39594896  0.19635434  0.39890993  1
  Ta  Ta141  1  0.49441980  0.50248831  0.49780077  1
  Ta  Ta142  1  0.11020849  0.89457266  0.09756678  1
  Ta  Ta143  1  0.39967973  0.59578715  0.20825827  1
  Ta  Ta144  1  0.11434446  0.09735363  0.70218507  1
  Ta  Ta145  1  0.49681897  0.90094925  0.71447994  1
  Ta  Ta146  1  0.10619618  0.50086098  0.09335964  1
  Ta  Ta147  1  0.20865723  0.78737610  0.60489057  1
  Ta  Ta148  1  0.29767182  0.89902539  0.09430134  1
  Ta  Ta149  1  0.70273566  0.50501325  0.90224085  1
  Ti  Ti150  1  0.81314604  0.60459847  0.58606540  1
  Ti  Ti151  1  0.20836620  0.19947526  0.00403400  1
  Ti  Ti152  1  0.50514582  0.88915161  0.29977544  1
  Ti  Ti153  1  0.00522504  0.60081356  0.00103962  1
  Ti  Ti154  1  0.69728181  0.09660833  0.30162244  1
  Ti  Ti155  1  0.00249385  0.00489637  0.61042550  1
  Ti  Ti156  1  0.79221922  0.61051299  -0.00297341  1
  Ti  Ti157  1  0.39614539  0.59943268  0.58933258  1
  Ti  Ti158  1  0.90195397  0.10647882  0.69569466  1
  Ti  Ti159  1  0.59858531  0.00051191  0.60325139  1
  Ti  Ti160  1  0.90939478  0.69482293  0.69190197  1
  Ti  Ti161  1  0.49694237  0.09249285  0.70775141  1
  Ti  Ti162  1  0.50874391  0.89946440  0.49355421  1
  Ti  Ti163  1  0.79733181  0.19225335  0.20301025  1
  Ti  Ti164  1  0.68539569  0.70593055  0.09255857  1
  Ti  Ti165  1  0.80634162  0.40982525  0.79958418  1
  Ti  Ti166  1  0.19947338  0.19956305  0.39924514  1
  Ti  Ti167  1  0.70769307  0.51195119  0.50039817  1
  Ti  Ti168  1  0.20630939  0.59630304  0.80494232  1
  Ti  Ti169  1  0.00227770  0.79641305  0.60078355  1
  Ti  Ti170  1  0.69280061  0.50973394  0.08982098  1
  Ti  Ti171  1  0.30833446  0.90387336  0.70977255  1
  Ti  Ti172  1  0.80228325  0.79047203  0.41699004  1
  Ti  Ti173  1  0.59126217  0.40716227  0.79979848  1
  Ti  Ti174  1  0.50233267  0.50495916  0.90650438  1
  Ti  Ti175  1  0.69703865  0.69941095  0.49832645  1
  Ti  Ti176  1  0.10532158  0.30401400  0.10059301  1
  Ti  Ti177  1  0.39414258  0.59293638  0.39845461  1
  Ti  Ti178  1  0.79176667  0.79601003  0.00275859  1
  Ti  Ti179  1  0.79789151  0.61654171  0.17745128  1
  Ti  Ti180  1  0.39017648  0.18419831  0.20461023  1
  Ti  Ti181  1  0.68769541  0.09846389  0.10043889  1
  Ti  Ti182  1  0.39869260  0.40613352  0.59597754  1
  Ti  Ti183  1  0.08109128  0.49028307  0.50274755  1
  Ti  Ti184  1  0.30498187  0.49939743  0.69807010  1
  Ti  Ti185  1  0.20033886  0.40426267  0.40581447  1
  Ti  Ti186  1  0.30415721  0.09545019  0.08783144  1
  Ti  Ti187  1  0.40027936  0.39500673  -0.01665857  1
  Ti  Ti188  1  0.01114798  0.80418843  0.00047345  1
  Ti  Ti189  1  0.20761251  0.40038300  -0.00444510  1
  Ti  Ti190  1  0.40232397  -0.00582969  -0.00729184  1
  Ti  Ti191  1  0.49624213  0.69832630  0.70649842  1
  Ti  Ti192  1  0.89779482  0.29644214  0.10219784  1
  Ti  Ti193  1  0.39318987  0.58754440  0.81653477  1
  Ti  Ti194  1  0.80099760  0.79796722  0.59595262  1
  Ti  Ti195  1  -0.00388261  0.00917521  0.38705802  1
  Ti  Ti196  1  0.50231019  0.10337763  0.29633689  1
  Ti  Ti197  1  0.69767485  0.90237704  0.49417834  1
  Ti  Ti198  1  0.69095168  0.29413613  0.28560449  1
  Ti  Ti199  1  0.79786075  0.39959842  0.00065908  1
  Mo  Mo200  1  0.49641070  0.89853864  0.89955038  1
  Mo  Mo201  1  0.79331394  0.20012711  0.59844130  1
  Mo  Mo202  1  0.10853697  0.30532937  0.49140341  1
  Mo  Mo203  1  0.30969777  0.49513301  0.50186067  1
  Mo  Mo204  1  0.79952012  0.41255686  0.59248783  1
  Mo  Mo205  1  0.00691035  0.20795692  0.20005362  1
  Mo  Mo206  1  0.70345142  0.29166119  0.50632204  1
  Mo  Mo207  1  0.30334461  0.68927930  0.50467934  1
  Mo  Mo208  1  0.00638506  0.40129580  0.39874959  1
  Mo  Mo209  1  0.10809377  0.30183722  0.70446518  1
  Mo  Mo210  1  0.10562138  0.10006978  0.09722956  1
  Mo  Mo211  1  0.20406003  0.79714560  0.18912079  1
  Mo  Mo212  1  0.39829136  0.59430621  -0.00456278  1
  Mo  Mo213  1  0.89478231  0.49936879  0.50682584  1
  Mo  Mo214  1  0.58660936  0.79836357  0.20221642  1
  Mo  Mo215  1  0.30028206  0.68559495  0.90022062  1
  Mo  Mo216  1  0.30424328  0.29816253  0.90568896  1
  Mo  Mo217  1  0.59816244  0.18550099  0.19848024  1
  Mo  Mo218  1  0.19995668  0.80078100  -0.00536347  1
  Mo  Mo219  1  0.59506441  0.79922292  0.00093348  1
  Mo  Mo220  1  0.09586823  0.11326384  0.29608314  1
  Mo  Mo221  1  0.40237590  0.80603412  0.80068742  1
  Mo  Mo222  1  0.79404995  0.61054663  0.41424247  1
  Mo  Mo223  1  0.29880637  0.49846684  0.30343549  1
  Mo  Mo224  1  0.30146657  0.91437731  0.90247730  1
  Mo  Mo225  1  0.00065898  0.40444652  0.59872084  1
  Mo  Mo226  1  0.29967518  0.49593425  0.90077060  1
  Mo  Mo227  1  0.49457146  0.08013281  0.89842245  1
  Mo  Mo228  1  0.20700820  -0.00249032  0.00074512  1
  Mo  Mo229  1  0.78914847  0.00330584  0.39814024  1
  Mo  Mo230  1  0.90280877  0.70888234  0.09205172  1
  Mo  Mo231  1  -0.00073647  0.60020283  0.60799462  1
  Mo  Mo232  1  0.69708566  0.69403659  0.90976229  1
  Mo  Mo233  1  0.58976307  -0.00361018  0.80349583  1
  Mo  Mo234  1  0.30321409  0.10273152  0.30151216  1
  Mo  Mo235  1  0.40234212  0.20170753  0.60551209  1
  Mo  Mo236  1  0.80290403  0.79268620  0.18290722  1
  Mo  Mo237  1  0.39913674  0.00186039  0.80285882  1
  Mo  Mo238  1  0.20897187  0.00795867  0.61497244  1
  Mo  Mo239  1  0.69238943  0.09764512  0.69574833  1
  Mo  Mo240  1  0.59543214  0.80189424  0.40670406  1
  Mo  Mo241  1  0.50093413  0.31784996  0.89234127  1
  Mo  Mo242  1  0.89784127  0.10179452  0.29836528  1
  Mo  Mo243  1  0.69886658  0.89402330  0.91186963  1
  Mo  Mo244  1  0.60232956  0.59766739  -0.00237426  1
  Mo  Mo245  1  0.39621533  0.19855868  -0.00229719  1
  Mo  Mo246  1  -0.00019871  0.80205975  0.19138253  1
  Mo  Mo247  1  0.10926288  0.89744097  0.90927646  1
  Mo  Mo248  1  0.49676312  0.50628391  0.30153844  1
  Mo  Mo249  1  0.89794028  0.70783981  0.51209173  1
