# generated using pymatgen
data_HfZrTaTiMo
_symmetry_space_group_name_H-M   'P 1'
_cell_length_a   16.89261210
_cell_length_b   16.88577925
_cell_length_c   16.87404123
_cell_angle_alpha   90.00275974
_cell_angle_beta   90.00198937
_cell_angle_gamma   89.97608850
_symmetry_Int_Tables_number   1
_chemical_formula_structural   HfZrTaTiMo
_chemical_formula_sum   'Hf50 Zr50 Ta50 Ti50 Mo50'
_cell_volume   4813.23409554
_cell_formula_units_Z   50
loop_
 _symmetry_equiv_pos_site_id
 _symmetry_equiv_pos_as_xyz
  1  'x, y, z'
loop_
 _atom_site_type_symbol
 _atom_site_label
 _atom_site_symmetry_multiplicity
 _atom_site_fract_x
 _atom_site_fract_y
 _atom_site_fract_z
 _atom_site_occupancy
  Hf  Hf0  1  0.09590720  0.89301065  0.10246571  1
  Hf  Hf1  1  0.81851077  -0.00006365  0.79835866  1
  Hf  Hf2  1  0.40427911  0.00303288  0.60772703  1
  Hf  Hf3  1  -0.00460980  0.20098545  0.40437778  1
  Hf  Hf4  1  0.39321480  0.59398163  0.00713142  1
  Hf  Hf5  1  0.19411914  0.19390319  -0.00169788  1
  Hf  Hf6  1  0.09741770  0.90553586  0.50083270  1
  Hf  Hf7  1  0.49298271  0.10171473  0.90747098  1
  Hf  Hf8  1  0.00862324  0.39975415  0.40770662  1
  Hf  Hf9  1  0.00250458  -0.00416692  -0.00668786  1
  Hf  Hf10  1  0.49790148  0.50068182  0.90245862  1
  Hf  Hf11  1  0.30046500  0.09313367  0.90310612  1
  Hf  Hf12  1  0.20891471  0.80391402  0.20332733  1
  Hf  Hf13  1  0.00667081  0.59251820  0.59499093  1
  Hf  Hf14  1  0.10351494  0.70324237  0.70862899  1
  Hf  Hf15  1  0.59430102  0.40591570  0.40226231  1
  Hf  Hf16  1  0.70302036  0.90340994  0.50065777  1
  Hf  Hf17  1  -0.00014557  0.19846054  0.21026956  1
  Hf  Hf18  1  0.48726072  0.29614117  0.69407621  1
  Hf  Hf19  1  0.20778184  -0.00203137  0.60428698  1
  Hf  Hf20  1  0.10105855  0.70225749  0.89820900  1
  Hf  Hf21  1  0.59444354  0.39804187  0.19997726  1
  Hf  Hf22  1  0.70634725  0.09568944  0.49652374  1
  Hf  Hf23  1  0.70763726  0.30147744  0.49735686  1
  Hf  Hf24  1  0.49256532  0.29234695  0.90262762  1
  Hf  Hf25  1  0.50722768  0.89501716  0.29258492  1
  Hf  Hf26  1  0.59652946  0.40354303  0.59281837  1
  Hf  Hf27  1  0.79587880  0.79575182  0.20665163  1
  Hf  Hf28  1  0.88881132  0.51020370  0.47018535  1
  Hf  Hf29  1  0.59368355  0.60343057  0.57468058  1
  Hf  Hf30  1  0.90003296  0.69535692  0.70321055  1
  Hf  Hf31  1  0.80433129  0.59939451  0.20038192  1
  Hf  Hf32  1  0.20970538  -0.00382864  0.39338097  1
  Hf  Hf33  1  0.49053442  0.28690813  0.09384509  1
  Hf  Hf34  1  0.31056973  0.11258877  0.49711341  1
  Hf  Hf35  1  0.68662729  0.51031549  0.09802333  1
  Hf  Hf36  1  0.48313183  0.29121125  0.49811366  1
  Hf  Hf37  1  0.91362592  0.71312100  0.09686044  1
  Hf  Hf38  1  0.81507822  0.19092372  0.59769783  1
  Hf  Hf39  1  0.39754108  0.40121162  0.39558312  1
  Hf  Hf40  1  0.90894303  0.29549429  0.09260363  1
  Hf  Hf41  1  0.20987700  0.59512138  0.19013844  1
  Hf  Hf42  1  0.79874421  0.40175922  0.79289820  1
  Hf  Hf43  1  0.79186901  0.39616274  0.00109494  1
  Hf  Hf44  1  0.59910765  0.00363211  0.39745420  1
  Hf  Hf45  1  0.59760684  0.19780090  0.39181230  1
  Hf  Hf46  1  0.60840965  0.77842645  0.40049250  1
  Hf  Hf47  1  0.79913934  0.80035308  0.59676850  1
  Hf  Hf48  1  0.59602781  0.19237716  0.60139736  1
  Hf  Hf49  1  0.70456597  0.50215498  0.30801003  1
  Zr  Zr50  1  0.39890768  0.80102550  0.20497887  1
  Zr  Zr51  1  0.20091649  0.20816564  0.80342574  1
  Zr  Zr52  1  0.90110699  0.70818452  0.89516021  1
  Zr  Zr53  1  0.30737338  0.49730795  0.50723524  1
  Zr  Zr54  1  0.39133906  0.80500570  0.80201067  1
  Zr  Zr55  1  0.00341059  0.80256397  0.60460777  1
  Zr  Zr56  1  0.00349574  0.40715867  0.79128434  1
  Zr  Zr57  1  0.49841790  0.70278539  0.91016387  1
  Zr  Zr58  1  0.30128854  0.29849447  0.09924434  1
  Zr  Zr59  1  0.00635739  0.00078828  0.80211939  1
  Zr  Zr60  1  0.40294393  -0.00389649  0.39239990  1
  Zr  Zr61  1  0.21003180  0.79969134  -0.00677673  1
  Zr  Zr62  1  0.59433096  0.39810376  0.79416235  1
  Zr  Zr63  1  0.59469565  0.80642493  0.80123604  1
  Zr  Zr64  1  0.90021183  0.10160016  0.09771632  1
  Zr  Zr65  1  0.50303571  0.89453967  0.50499005  1
  Zr  Zr66  1  0.20649933  0.79649976  0.40422678  1
  Zr  Zr67  1  0.00537667  0.19785910  0.79965310  1
  Zr  Zr68  1  0.70032048  0.70264320  0.70229478  1
  Zr  Zr69  1  0.90368251  0.67842372  0.31403187  1
  Zr  Zr70  1  0.00655095  0.78673666  0.41314779  1
  Zr  Zr71  1  0.89986242  0.29799968  0.90199986  1
  Zr  Zr72  1  0.21148009  0.40280018  0.20992499  1
  Zr  Zr73  1  0.69657124  0.50583267  0.69409515  1
  Zr  Zr74  1  0.70100067  0.09532182  0.70579265  1
  Zr  Zr75  1  0.69096245  0.51243577  0.89935890  1
  Zr  Zr76  1  0.89876867  0.11047147  0.91188327  1
  Zr  Zr77  1  0.09864999  0.09827571  0.49782931  1
  Zr  Zr78  1  0.39029064  0.59881758  0.80121723  1
  Zr  Zr79  1  0.19786343  0.19135861  0.20031707  1
  Zr  Zr80  1  0.00143087  0.40792835  0.59628411  1
  Zr  Zr81  1  0.70461917  0.89979747  0.89439262  1
  Zr  Zr82  1  0.59566731  0.39504003  0.00608569  1
  Zr  Zr83  1  0.69464720  0.09911598  0.89732163  1
  Zr  Zr84  1  0.59186820  -0.00413445  -0.00093788  1
  Zr  Zr85  1  0.09912243  0.30619842  0.09940441  1
  Zr  Zr86  1  0.09685409  0.90370190  0.29692832  1
  Zr  Zr87  1  0.09531862  0.50536891  0.30450636  1
  Zr  Zr88  1  0.80230893  0.60738736  0.00132343  1
  Zr  Zr89  1  0.30852614  0.68539908  0.30576886  1
  Zr  Zr90  1  0.80003370  0.39940849  0.19685742  1
  Zr  Zr91  1  0.19699247  0.20709359  0.39482686  1
  Zr  Zr92  1  0.68850976  0.70784933  0.09501005  1
  Zr  Zr93  1  0.90155533  0.50664543  0.89660303  1
  Zr  Zr94  1  -0.01142861  0.00854797  0.61018323  1
  Zr  Zr95  1  0.09638788  0.69662641  0.29252808  1
  Zr  Zr96  1  0.90525973  0.89111941  0.30226759  1
  Zr  Zr97  1  0.60254544  0.19725488  0.19553072  1
  Zr  Zr98  1  0.79916315  0.20189502  0.20405924  1
  Zr  Zr99  1  0.40067281  0.60140236  0.60814550  1
  Ta  Ta100  1  0.89534342  0.69517963  0.50029374  1
  Ta  Ta101  1  -0.00498206  -0.00049727  0.19931037  1
  Ta  Ta102  1  0.48816318  0.29827213  0.29278804  1
  Ta  Ta103  1  0.30631118  0.89416172  0.50354345  1
  Ta  Ta104  1  0.79959392  -0.00634753  0.19768530  1
  Ta  Ta105  1  0.10170645  0.30312844  0.69740388  1
  Ta  Ta106  1  0.10879478  0.49859922  0.90054160  1
  Ta  Ta107  1  0.00352792  0.20514162  0.59788819  1
  Ta  Ta108  1  0.59536571  0.00287102  0.60707606  1
  Ta  Ta109  1  0.10567861  0.49796421  0.09341080  1
  Ta  Ta110  1  0.89836183  0.90489861  0.49311150  1
  Ta  Ta111  1  0.30010164  0.10145719  0.70426001  1
  Ta  Ta112  1  0.69608306  0.09272062  0.09974303  1
  Ta  Ta113  1  0.30557210  0.70180268  0.09770982  1
  Ta  Ta114  1  0.40295143  0.79486571  0.40314716  1
  Ta  Ta115  1  0.49679643  0.50906998  0.29741571  1
  Ta  Ta116  1  0.00477989  0.40657617  -0.00311687  1
  Ta  Ta117  1  0.80398606  0.40920232  0.59626138  1
  Ta  Ta118  1  0.69056050  0.28900583  0.89346759  1
  Ta  Ta119  1  0.49628733  0.89912203  0.09950113  1
  Ta  Ta120  1  0.20002435  0.20659405  0.60295078  1
  Ta  Ta121  1  0.39153582  0.40723836  0.00148055  1
  Ta  Ta122  1  0.10096564  0.70064525  0.09678544  1
  Ta  Ta123  1  0.30322373  0.91173153  0.10331012  1
  Ta  Ta124  1  0.30343477  0.70080354  0.50916336  1
  Ta  Ta125  1  0.20034156  0.40003928  0.60423448  1
  Ta  Ta126  1  0.49953750  0.70131531  0.10358796  1
  Ta  Ta127  1  0.38558884  0.39916611  0.79833625  1
  Ta  Ta128  1  0.20713397  0.59512251  0.80199578  1
  Ta  Ta129  1  0.70633935  0.09230703  0.29653671  1
  Ta  Ta130  1  0.77914725  0.20541096  0.00792191  1
  Ta  Ta131  1  0.69497195  0.89938445  0.10505435  1
  Ta  Ta132  1  0.30403721  0.09244063  0.28685787  1
  Ta  Ta133  1  0.20748722  0.59715495  -0.00408125  1
  Ta  Ta134  1  0.40190327  -0.00292988  0.79895169  1
  Ta  Ta135  1  0.20003824  0.59602082  0.60965953  1
  Ta  Ta136  1  0.42112972  0.60454427  0.41614787  1
  Ta  Ta137  1  0.20187259  0.39807431  0.40805159  1
  Ta  Ta138  1  -0.00038124  0.59262318  0.18862182  1
  Ta  Ta139  1  0.20485439  0.80080808  0.60373061  1
  Ta  Ta140  1  0.10873422  0.10258602  0.70243642  1
  Ta  Ta141  1  0.00934604  0.59787995  -0.00051751  1
  Ta  Ta142  1  -0.00032924  0.81431719  0.80618280  1
  Ta  Ta143  1  0.39218011  0.20056442  0.79875843  1
  Ta  Ta144  1  0.58905635  0.60546513  0.79463317  1
  Ta  Ta145  1  0.70410960  0.29538875  0.69639305  1
  Ta  Ta146  1  0.30408158  0.29832408  0.50747973  1
  Ta  Ta147  1  0.19549185  0.59802232  0.41812699  1
  Ta  Ta148  1  0.89967088  0.30225131  0.69347627  1
  Ta  Ta149  1  0.80695875  0.19644202  0.39573875  1
  Ti  Ti150  1  0.50269219  0.90357610  0.70329259  1
  Ti  Ti151  1  0.30765752  0.50955771  0.30597178  1
  Ti  Ti152  1  0.19642234  0.00037916  0.00131672  1
  Ti  Ti153  1  0.31115279  0.08959308  0.09573528  1
  Ti  Ti154  1  0.80222627  0.80947825  -0.00397767  1
  Ti  Ti155  1  0.29997448  0.30328579  0.90718379  1
  Ti  Ti156  1  0.50391886  0.69513924  0.29619404  1
  Ti  Ti157  1  0.39641515  0.80255791  0.60663373  1
  Ti  Ti158  1  0.79712954  0.59982599  0.79630575  1
  Ti  Ti159  1  0.10178148  0.30946743  0.90444458  1
  Ti  Ti160  1  0.59390444  0.80795421  -0.00134991  1
  Ti  Ti161  1  0.29216074  0.70891283  0.70574287  1
  Ti  Ti162  1  0.40026239  0.18734156  0.19404235  1
  Ti  Ti163  1  0.11659734  0.90031400  0.71186549  1
  Ti  Ti164  1  0.49288706  0.10561681  0.49933289  1
  Ti  Ti165  1  0.80087379  -0.00566894  0.00490964  1
  Ti  Ti166  1  0.40031699  0.41644203  0.19186038  1
  Ti  Ti167  1  0.10990966  0.90011154  0.89599052  1
  Ti  Ti168  1  0.39619605  0.80777303  -0.00195788  1
  Ti  Ti169  1  0.69683373  0.89921031  0.29588035  1
  Ti  Ti170  1  0.76453484  0.61838678  0.40982359  1
  Ti  Ti171  1  0.70003426  0.90512827  0.70337287  1
  Ti  Ti172  1  0.89656674  0.31592668  0.30804335  1
  Ti  Ti173  1  0.09891502  0.08826461  0.29818983  1
  Ti  Ti174  1  0.79405702  0.79322612  0.40003444  1
  Ti  Ti175  1  0.80284209  0.20158712  0.79563789  1
  Ti  Ti176  1  0.09933945  0.30660235  0.29822689  1
  Ti  Ti177  1  0.90081404  0.09017068  0.30396442  1
  Ti  Ti178  1  0.59545284  0.60454041  0.20340128  1
  Ti  Ti179  1  0.20583263  0.40460020  0.79655359  1
  Ti  Ti180  1  0.69676851  0.70315394  0.89836590  1
  Ti  Ti181  1  0.90514779  0.49872022  0.09503328  1
  Ti  Ti182  1  0.59780495  0.00153061  0.19617595  1
  Ti  Ti183  1  0.79671082  0.59623804  0.59260522  1
  Ti  Ti184  1  0.90395928  0.89422065  0.09857942  1
  Ti  Ti185  1  0.89604426  0.30498021  0.49826875  1
  Ti  Ti186  1  0.31031302  0.29154039  0.29955341  1
  Ti  Ti187  1  0.49163078  0.49509289  0.69620230  1
  Ti  Ti188  1  0.49923943  0.70555467  0.69741343  1
  Ti  Ti189  1  0.70222490  0.30144309  0.30423052  1
  Ti  Ti190  1  0.09647275  0.09334495  0.10149732  1
  Ti  Ti191  1  0.49518179  0.10060816  0.29037479  1
  Ti  Ti192  1  0.00668558  0.58982994  0.79322794  1
  Ti  Ti193  1  0.29553231  0.90787014  0.89534689  1
  Ti  Ti194  1  0.80454196  -0.00119091  0.39409905  1
  Ti  Ti195  1  -0.00521640  0.40859568  0.20207951  1
  Ti  Ti196  1  0.60191831  0.80093913  0.60180779  1
  Ti  Ti197  1  0.89450794  0.88987010  0.70426696  1
  Ti  Ti198  1  0.80811848  0.00157955  0.60407194  1
  Ti  Ti199  1  0.59138047  0.19474232  0.79284437  1
  Mo  Mo200  1  0.40525470  0.00137937  0.19407893  1
  Mo  Mo201  1  0.49551460  0.50655137  0.10685536  1
  Mo  Mo202  1  0.49753439  0.49165977  0.49571181  1
  Mo  Mo203  1  0.69584634  0.69688420  0.29364828  1
  Mo  Mo204  1  0.59108618  0.60883645  -0.00154055  1
  Mo  Mo205  1  0.20118939  0.40312901  -0.00830131  1
  Mo  Mo206  1  0.01898691  0.20173674  -0.00125127  1
  Mo  Mo207  1  0.29701694  0.69855857  0.90380724  1
  Mo  Mo208  1  0.20194863  0.00174045  0.19448380  1
  Mo  Mo209  1  0.90692438  0.10993875  0.69966857  1
  Mo  Mo210  1  0.29593530  0.30045552  0.69923558  1
  Mo  Mo211  1  0.11057349  0.69520001  0.51384190  1
  Mo  Mo212  1  0.89269662  0.50425909  0.69559965  1
  Mo  Mo213  1  0.69971875  0.70723742  0.51023503  1
  Mo  Mo214  1  0.00662722  0.80385572  -0.00576287  1
  Mo  Mo215  1  0.90316589  0.49596822  0.29505676  1
  Mo  Mo216  1  0.10780345  0.30111786  0.50649446  1
  Mo  Mo217  1  0.20049584  0.80340384  0.79926243  1
  Mo  Mo218  1  0.89857141  0.09331426  0.49101937  1
  Mo  Mo219  1  0.69076069  0.29464255  0.09792515  1
  Mo  Mo220  1  0.39462116  0.39717289  0.60501142  1
  Mo  Mo221  1  0.39169283  0.19621015  -0.00120532  1
  Mo  Mo222  1  0.10989153  0.50027231  0.70535408  1
  Mo  Mo223  1  0.49652899  0.09953153  0.70938694  1
  Mo  Mo224  1  0.40534509  0.59967949  0.19845082  1
  Mo  Mo225  1  0.29583454  0.49354924  0.90104067  1
  Mo  Mo226  1  0.10788097  0.09096120  0.90175389  1
  Mo  Mo227  1  0.01422374  0.59603279  0.41271941  1
  Mo  Mo228  1  0.00108597  0.79638928  0.19649843  1
  Mo  Mo229  1  0.59408481  0.59968305  0.39533064  1
  Mo  Mo230  1  0.39683900  -0.00819998  -0.00025371  1
  Mo  Mo231  1  0.48836319  0.90296404  0.90517791  1
  Mo  Mo232  1  0.89971260  0.89628268  0.90679287  1
  Mo  Mo233  1  0.39293046  0.19619896  0.60963457  1
  Mo  Mo234  1  -0.00727715  0.00452098  0.39710379  1
  Mo  Mo235  1  0.30122244  0.90181763  0.69921623  1
  Mo  Mo236  1  0.40108286  0.19831720  0.38180834  1
  Mo  Mo237  1  0.59797542  0.80070401  0.19863105  1
  Mo  Mo238  1  0.11070541  0.49758610  0.50459158  1
  Mo  Mo239  1  0.80297484  0.80347799  0.79756332  1
  Mo  Mo240  1  0.58525500  -0.00139232  0.79271992  1
  Mo  Mo241  1  0.79930929  0.39106634  0.39998119  1
  Mo  Mo242  1  0.70257547  0.49996894  0.49659278  1
  Mo  Mo243  1  0.30687058  0.90460093  0.30004583  1
  Mo  Mo244  1  0.20475897  -0.00122175  0.79869863  1
  Mo  Mo245  1  0.49387392  0.09358121  0.10180525  1
  Mo  Mo246  1  0.49485180  0.71166978  0.50870472  1
  Mo  Mo247  1  0.29762046  0.49176676  0.70327782  1
  Mo  Mo248  1  0.60079296  0.19452866  0.00087759  1
  Mo  Mo249  1  0.29849945  0.49913147  0.09939732  1
