# generated using pymatgen
data_HfZrTaTiMo
_symmetry_space_group_name_H-M   'P 1'
_cell_length_a   16.88094042
_cell_length_b   16.89486349
_cell_length_c   16.89485664
_cell_angle_alpha   89.95936238
_cell_angle_beta   89.98711382
_cell_angle_gamma   89.99373055
_symmetry_Int_Tables_number   1
_chemical_formula_structural   HfZrTaTiMo
_chemical_formula_sum   'Hf50 Zr50 Ta50 Ti50 Mo50'
_cell_volume   4818.43175470
_cell_formula_units_Z   50
loop_
 _symmetry_equiv_pos_site_id
 _symmetry_equiv_pos_as_xyz
  1  'x, y, z'
loop_
 _atom_site_type_symbol
 _atom_site_label
 _atom_site_symmetry_multiplicity
 _atom_site_fract_x
 _atom_site_fract_y
 _atom_site_fract_z
 _atom_site_occupancy
  Hf  Hf0  1  0.78812126  0.59825695  0.20617190  1
  Hf  Hf1  1  0.30698814  0.70010840  0.69916289  1
  Hf  Hf2  1  0.59182456  0.20786718  0.39848719  1
  Hf  Hf3  1  0.50027401  0.50274211  0.69894840  1
  Hf  Hf4  1  -0.00500617  0.39179428  0.01062420  1
  Hf  Hf5  1  0.29805809  0.09502207  0.30485581  1
  Hf  Hf6  1  0.89383075  0.89951307  0.70784555  1
  Hf  Hf7  1  0.90577037  0.10420730  0.49763024  1
  Hf  Hf8  1  0.00532200  0.00295372  0.60516351  1
  Hf  Hf9  1  -0.00325667  0.59967394  0.79181934  1
  Hf  Hf10  1  0.01149166  0.39763213  0.38687901  1
  Hf  Hf11  1  0.48923316  0.30349621  0.51538670  1
  Hf  Hf12  1  0.79395192  0.20270508  0.79916621  1
  Hf  Hf13  1  0.59351512  0.00439085  0.60829552  1
  Hf  Hf14  1  0.51675380  0.89096008  0.10275856  1
  Hf  Hf15  1  0.30674971  0.10414944  0.89924621  1
  Hf  Hf16  1  0.80357591  0.40352029  0.60298462  1
  Hf  Hf17  1  0.29898182  0.50182867  0.50103082  1
  Hf  Hf18  1  0.49206977  0.29132836  0.90448176  1
  Hf  Hf19  1  0.20407891  0.39945240  0.79172208  1
  Hf  Hf20  1  0.69437345  0.29809031  0.09938959  1
  Hf  Hf21  1  0.30383816  0.50584976  0.90116674  1
  Hf  Hf22  1  0.40910123  0.40143273  0.00843387  1
  Hf  Hf23  1  0.70464669  0.88865525  0.70854080  1
  Hf  Hf24  1  0.90579126  0.88833422  0.10725975  1
  Hf  Hf25  1  0.39386732  0.00240014  0.60059731  1
  Hf  Hf26  1  -0.00065684  0.20478980  0.20171364  1
  Hf  Hf27  1  0.79888645  -0.00698897  -0.00236926  1
  Hf  Hf28  1  0.10608375  0.30004081  0.50081812  1
  Hf  Hf29  1  0.90019234  0.09939463  0.10018887  1
  Hf  Hf30  1  0.59260432  -0.00263463  0.80877894  1
  Hf  Hf31  1  0.09884052  0.29660131  0.89156374  1
  Hf  Hf32  1  0.50010297  0.89895949  0.30343749  1
  Hf  Hf33  1  0.89683711  0.49910974  0.10352928  1
  Hf  Hf34  1  -0.00092161  0.81006296  0.39763780  1
  Hf  Hf35  1  0.80082514  0.60325119  -0.00091409  1
  Hf  Hf36  1  0.69219872  0.70781524  0.09678476  1
  Hf  Hf37  1  0.69559138  0.90065000  0.29728027  1
  Hf  Hf38  1  0.38720548  0.20308599  0.41353279  1
  Hf  Hf39  1  0.80804681  0.79490686  -0.00258073  1
  Hf  Hf40  1  0.89950599  0.09844808  0.70406965  1
  Hf  Hf41  1  0.00690290  -0.00823829  0.00036423  1
  Hf  Hf42  1  0.00182184  0.41116744  0.60137358  1
  Hf  Hf43  1  0.29854064  0.10411709  0.09505347  1
  Hf  Hf44  1  0.20024532  0.61102114  0.18820146  1
  Hf  Hf45  1  0.89855537  0.09769459  0.89732636  1
  Hf  Hf46  1  0.60295485  0.39612484  0.80031022  1
  Hf  Hf47  1  0.40717180  0.60947290  0.40532476  1
  Hf  Hf48  1  0.88880718  0.71339727  0.69857060  1
  Hf  Hf49  1  0.59697874  0.59564928  0.20325288  1
  Zr  Zr50  1  0.69346500  0.29792386  0.90886133  1
  Zr  Zr51  1  0.60011206  0.60696977  0.39569937  1
  Zr  Zr52  1  0.90550357  0.29601280  0.89729890  1
  Zr  Zr53  1  0.22627283  0.19115583  0.58826776  1
  Zr  Zr54  1  0.79928002  0.20328315  0.60147129  1
  Zr  Zr55  1  0.19873237  0.79792983  0.59376682  1
  Zr  Zr56  1  0.20076917  0.39749546  -0.00272199  1
  Zr  Zr57  1  -0.00534790  0.61525342  0.00046878  1
  Zr  Zr58  1  0.39579595  0.79188159  0.19944616  1
  Zr  Zr59  1  0.81042937  0.59622720  0.59844428  1
  Zr  Zr60  1  0.69645028  0.89795425  0.10573377  1
  Zr  Zr61  1  0.00167450  0.59968593  0.59429243  1
  Zr  Zr62  1  0.49652134  0.29251467  0.69829899  1
  Zr  Zr63  1  0.19261026  -0.01043461  0.19924181  1
  Zr  Zr64  1  0.40652236  0.40204619  0.19971050  1
  Zr  Zr65  1  0.40721980  0.60229138  0.19478020  1
  Zr  Zr66  1  0.10666646  0.10335830  0.89936860  1
  Zr  Zr67  1  0.39769818  -0.00495985  0.19898599  1
  Zr  Zr68  1  0.50349831  0.50321166  0.89990649  1
  Zr  Zr69  1  0.31568721  0.30352096  0.68697460  1
  Zr  Zr70  1  0.19701033  0.79094014  0.80579273  1
  Zr  Zr71  1  0.09867116  0.69808011  0.30501743  1
  Zr  Zr72  1  0.68954750  0.70192040  0.88937391  1
  Zr  Zr73  1  0.49544761  0.89291650  0.70734856  1
  Zr  Zr74  1  0.50484915  0.10153093  0.10093120  1
  Zr  Zr75  1  0.18995302  0.61282097  -0.00175702  1
  Zr  Zr76  1  0.10490597  0.09783334  0.49867704  1
  Zr  Zr77  1  0.69499649  0.50202564  0.50022716  1
  Zr  Zr78  1  0.29492539  0.70093493  0.30594375  1
  Zr  Zr79  1  0.90647814  0.29920639  0.49889150  1
  Zr  Zr80  1  0.30302026  0.29314392  0.09529138  1
  Zr  Zr81  1  0.89255489  0.90773390  0.50397100  1
  Zr  Zr82  1  0.19203611  0.40400718  0.20191318  1
  Zr  Zr83  1  0.70020188  0.10476330  0.50125769  1
  Zr  Zr84  1  0.29836620  0.89520258  0.09109826  1
  Zr  Zr85  1  0.18931051  0.79257929  0.00503610  1
  Zr  Zr86  1  0.00226246  -0.00839668  0.20765498  1
  Zr  Zr87  1  0.29881458  0.90113759  0.70471436  1
  Zr  Zr88  1  0.69712876  0.30063148  0.29602368  1
  Zr  Zr89  1  0.79933175  0.79316971  0.40214435  1
  Zr  Zr90  1  0.60084033  0.00198964  0.40393591  1
  Zr  Zr91  1  0.29462524  0.30921751  0.30622122  1
  Zr  Zr92  1  0.90513478  0.69008438  0.30674894  1
  Zr  Zr93  1  0.80002510  0.39981009  0.79265519  1
  Zr  Zr94  1  0.41222884  -0.00689720  -0.00851017  1
  Zr  Zr95  1  0.79711102  0.40474255  0.39130292  1
  Zr  Zr96  1  0.70020105  0.89635406  0.50781619  1
  Zr  Zr97  1  0.09291312  0.49851688  0.89754076  1
  Zr  Zr98  1  0.00046088  0.79615320  0.58983173  1
  Zr  Zr99  1  0.49707445  0.09723697  0.30352612  1
  Ta  Ta100  1  0.80447453  0.19708951  0.38772448  1
  Ta  Ta101  1  0.40776281  0.79371801  -0.00555975  1
  Ta  Ta102  1  0.11464267  0.09940231  0.70015781  1
  Ta  Ta103  1  0.59142047  0.40004061  0.39778949  1
  Ta  Ta104  1  0.69796951  0.50198218  0.90168190  1
  Ta  Ta105  1  0.40381282  0.60590864  0.80068341  1
  Ta  Ta106  1  -0.00045518  0.59767912  0.19863177  1
  Ta  Ta107  1  0.10803662  0.91192724  0.49833841  1
  Ta  Ta108  1  0.19891647  0.20312540  0.39848766  1
  Ta  Ta109  1  0.79901481  0.40054604  0.00309986  1
  Ta  Ta110  1  0.30907914  0.69699051  0.90334423  1
  Ta  Ta111  1  0.20003673  0.60307612  0.79770333  1
  Ta  Ta112  1  0.50956552  0.69817309  0.70411321  1
  Ta  Ta113  1  0.91510506  0.29491252  0.69700861  1
  Ta  Ta114  1  0.80386421  0.00205409  0.20637257  1
  Ta  Ta115  1  0.60301381  -0.00276427  -0.00581684  1
  Ta  Ta116  1  0.69205929  0.51074537  0.70242809  1
  Ta  Ta117  1  0.80400284  0.19693214  0.20141675  1
  Ta  Ta118  1  0.09616265  0.50265737  0.10223230  1
  Ta  Ta119  1  0.60197061  0.40197261  0.59976421  1
  Ta  Ta120  1  0.29507025  0.50486088  0.30797664  1
  Ta  Ta121  1  0.49550395  0.49793209  0.30636123  1
  Ta  Ta122  1  0.40737411  0.20911429  0.20283044  1
  Ta  Ta123  1  0.00146010  0.39832043  0.20157959  1
  Ta  Ta124  1  0.39933904  0.80116645  0.40950746  1
  Ta  Ta125  1  0.89577582  0.49701765  0.89863588  1
  Ta  Ta126  1  0.10358721  0.09889741  0.30238804  1
  Ta  Ta127  1  0.40839519  0.61003243  0.59743374  1
  Ta  Ta128  1  0.30461656  0.89836706  0.89558709  1
  Ta  Ta129  1  0.49379620  0.10519061  0.50835046  1
  Ta  Ta130  1  0.70036443  0.09856853  0.90297932  1
  Ta  Ta131  1  0.69867836  0.70025202  0.51160940  1
  Ta  Ta132  1  0.80439873  0.79409076  0.20865759  1
  Ta  Ta133  1  0.69361262  0.29970427  0.50130355  1
  Ta  Ta134  1  0.10609960  0.10419789  0.09875523  1
  Ta  Ta135  1  0.80067768  0.59717486  0.79900070  1
  Ta  Ta136  1  0.59410997  0.59857386  0.00108200  1
  Ta  Ta137  1  0.59608496  0.19074478  0.79763994  1
  Ta  Ta138  1  0.18593315  0.80433633  0.19831880  1
  Ta  Ta139  1  0.69455296  0.70009389  0.69914381  1
  Ta  Ta140  1  0.69855817  0.10044771  0.10194749  1
  Ta  Ta141  1  0.00633451  -0.00096952  0.80038021  1
  Ta  Ta142  1  0.09744267  0.89519835  0.89397029  1
  Ta  Ta143  1  0.00192818  0.20037581  0.38788898  1
  Ta  Ta144  1  0.19813539  0.80717090  0.40133097  1
  Ta  Ta145  1  0.30282286  0.50971289  0.09478111  1
  Ta  Ta146  1  0.40258077  0.79662076  0.58963361  1
  Ta  Ta147  1  0.59171760  0.40350577  0.19959989  1
  Ta  Ta148  1  0.10218585  0.90360991  0.70105954  1
  Ta  Ta149  1  0.69688377  0.09598798  0.70714164  1
  Ti  Ti150  1  0.49597751  0.90272707  0.49771092  1
  Ti  Ti151  1  0.69670108  0.09992115  0.29028022  1
  Ti  Ti152  1  0.79122919  0.60025219  0.39548733  1
  Ti  Ti153  1  0.20105779  -0.00063720  0.80228005  1
  Ti  Ti154  1  0.69810838  0.89234039  0.89627727  1
  Ti  Ti155  1  0.59708585  0.77865710  0.21948942  1
  Ti  Ti156  1  0.40154300  0.40172655  0.40406290  1
  Ti  Ti157  1  0.49357755  0.10428425  0.89493728  1
  Ti  Ti158  1  0.39447889  0.39936152  0.80270266  1
  Ti  Ti159  1  0.30624590  0.50659343  0.69501333  1
  Ti  Ti160  1  0.59124554  0.20673072  0.20249405  1
  Ti  Ti161  1  0.00816693  0.19396627  0.79036483  1
  Ti  Ti162  1  0.20267688  0.20653309  -0.00625069  1
  Ti  Ti163  1  0.68990634  0.29365176  0.69061065  1
  Ti  Ti164  1  0.79674321  0.40102080  0.19794972  1
  Ti  Ti165  1  0.29474712  0.90900951  0.49568968  1
  Ti  Ti166  1  0.80346461  0.20327006  0.00656624  1
  Ti  Ti167  1  0.90686589  0.50882732  0.48033372  1
  Ti  Ti168  1  0.00054083  0.20251556  0.00827197  1
  Ti  Ti169  1  0.29354375  0.69761386  0.49947037  1
  Ti  Ti170  1  0.90160687  0.89518660  0.88770771  1
  Ti  Ti171  1  0.19504787  -0.00702024  -0.00235076  1
  Ti  Ti172  1  0.09697098  0.70449265  0.70137017  1
  Ti  Ti173  1  0.50324662  0.70062855  0.08862461  1
  Ti  Ti174  1  0.40870234  0.79518010  0.80981837  1
  Ti  Ti175  1  0.21426807  0.20936166  0.79678830  1
  Ti  Ti176  1  0.20387477  0.40173574  0.59893811  1
  Ti  Ti177  1  0.10068608  0.68942087  0.48783671  1
  Ti  Ti178  1  0.10725917  0.50904097  0.30393998  1
  Ti  Ti179  1  0.79495887  0.00384712  0.60633112  1
  Ti  Ti180  1  0.00232462  0.79441361  -0.00181755  1
  Ti  Ti181  1  0.10789058  0.50334133  0.69650227  1
  Ti  Ti182  1  0.90161478  0.71023383  0.88368068  1
  Ti  Ti183  1  0.10184420  0.29059076  0.69030300  1
  Ti  Ti184  1  0.59257695  0.79647361  0.59759949  1
  Ti  Ti185  1  0.31048963  0.09812224  0.71162594  1
  Ti  Ti186  1  -0.00006947  0.40366121  0.78875088  1
  Ti  Ti187  1  0.19691737  0.20105938  0.20625090  1
  Ti  Ti188  1  0.11189895  0.50361825  0.48915988  1
  Ti  Ti189  1  0.90257768  0.50085344  0.29778033  1
  Ti  Ti190  1  0.59305923  0.79104473  0.40466834  1
  Ti  Ti191  1  0.59492870  0.19410354  -0.00073044  1
  Ti  Ti192  1  0.19845238  0.60311194  0.60258694  1
  Ti  Ti193  1  0.89735664  0.30308433  0.29375529  1
  Ti  Ti194  1  0.69270876  0.49383176  0.09354368  1
  Ti  Ti195  1  0.50158778  0.50220502  0.50627327  1
  Ti  Ti196  1  0.10357630  0.29638657  0.10248382  1
  Ti  Ti197  1  -0.00089200  -0.00030519  0.39085164  1
  Ti  Ti198  1  0.80896291  0.00652860  0.38551708  1
  Ti  Ti199  1  0.29659466  0.90118041  0.30960428  1
  Mo  Mo200  1  0.30011086  0.08069096  0.48969695  1
  Mo  Mo201  1  0.50482323  0.50153437  0.09856349  1
  Mo  Mo202  1  0.00956774  0.19870235  0.60877321  1
  Mo  Mo203  1  0.89881326  0.49392474  0.71000163  1
  Mo  Mo204  1  0.90134459  0.10102057  0.30100987  1
  Mo  Mo205  1  0.40354775  0.42203402  0.59837399  1
  Mo  Mo206  1  0.40106816  0.19367485  0.79934387  1
  Mo  Mo207  1  0.60233897  0.40595037  0.00594383  1
  Mo  Mo208  1  0.49611170  0.30601106  0.30315706  1
  Mo  Mo209  1  0.29885849  0.32026356  0.49960954  1
  Mo  Mo210  1  0.19974009  -0.00238792  0.39802425  1
  Mo  Mo211  1  0.08895734  0.70377297  0.88420024  1
  Mo  Mo212  1  0.39707799  -0.00743113  0.40793471  1
  Mo  Mo213  1  0.89524215  0.70094989  0.11080500  1
  Mo  Mo214  1  0.30347350  0.29668967  0.89209376  1
  Mo  Mo215  1  0.60940262  0.00914901  0.19721830  1
  Mo  Mo216  1  0.50387759  0.89110388  0.90116770  1
  Mo  Mo217  1  0.19933695  0.40454963  0.40096619  1
  Mo  Mo218  1  0.59949252  0.19991107  0.60408752  1
  Mo  Mo219  1  0.49861570  0.70347141  0.31166827  1
  Mo  Mo220  1  0.00178291  0.80412977  0.79844402  1
  Mo  Mo221  1  0.50758983  0.29579557  0.10113402  1
  Mo  Mo222  1  0.40382648  0.20072629  0.00128886  1
  Mo  Mo223  1  0.40348559  0.60568426  0.00028911  1
  Mo  Mo224  1  0.69865082  0.70188030  0.30540615  1
  Mo  Mo225  1  0.60079285  0.59934667  0.79893897  1
  Mo  Mo226  1  0.59409804  0.80036298  -0.01051312  1
  Mo  Mo227  1  0.20174225  0.60126811  0.40549544  1
  Mo  Mo228  1  0.10130147  0.89959940  0.30822557  1
  Mo  Mo229  1  0.79594480  -0.00056741  0.80840397  1
  Mo  Mo230  1  0.40056244  0.18325091  0.60181253  1
  Mo  Mo231  1  0.59870823  0.60249336  0.60165237  1
  Mo  Mo232  1  0.39919186  -0.00049555  0.80386585  1
  Mo  Mo233  1  0.79844066  0.79852027  0.80457156  1
  Mo  Mo234  1  0.10132061  0.29374477  0.29932911  1
  Mo  Mo235  1  0.89090897  0.30025985  0.10735556  1
  Mo  Mo236  1  0.49721227  0.10087854  0.70430637  1
  Mo  Mo237  1  0.89622932  0.68919664  0.49610626  1
  Mo  Mo238  1  0.89495572  0.90340972  0.30028707  1
  Mo  Mo239  1  0.59675815  0.79737569  0.79977465  1
  Mo  Mo240  1  0.79308086  0.79363738  0.59877326  1
  Mo  Mo241  1  0.20238691  -0.00164318  0.60636793  1
  Mo  Mo242  1  0.00554508  0.58969325  0.39731369  1
  Mo  Mo243  1  0.49998511  0.69859100  0.89809488  1
  Mo  Mo244  1  0.07891914  0.70710497  0.11366900  1
  Mo  Mo245  1  -0.00199873  0.79780079  0.20300443  1
  Mo  Mo246  1  0.09534362  0.89522679  0.09134189  1
  Mo  Mo247  1  0.31111958  0.69901718  0.09127833  1
  Mo  Mo248  1  0.69213944  0.49500168  0.29664280  1
  Mo  Mo249  1  0.50351447  0.70790493  0.50687434  1
