# generated using pymatgen
data_HfZrTaTiMo
_symmetry_space_group_name_H-M   'P 1'
_cell_length_a   16.87673749
_cell_length_b   16.89330292
_cell_length_c   16.89516033
_cell_angle_alpha   89.99810337
_cell_angle_beta   90.03694324
_cell_angle_gamma   90.00233117
_symmetry_Int_Tables_number   1
_chemical_formula_structural   HfZrTaTiMo
_chemical_formula_sum   'Hf50 Zr50 Ta50 Ti50 Mo50'
_cell_volume   4816.87405628
_cell_formula_units_Z   50
loop_
 _symmetry_equiv_pos_site_id
 _symmetry_equiv_pos_as_xyz
  1  'x, y, z'
loop_
 _atom_site_type_symbol
 _atom_site_label
 _atom_site_symmetry_multiplicity
 _atom_site_fract_x
 _atom_site_fract_y
 _atom_site_fract_z
 _atom_site_occupancy
  Hf  Hf0  1  0.00509222  0.00448638  0.78826924  1
  Hf  Hf1  1  0.59916551  0.79905516  -0.00398350  1
  Hf  Hf2  1  0.19781084  0.19387160  0.79056051  1
  Hf  Hf3  1  0.60573050  0.00364694  0.61111791  1
  Hf  Hf4  1  0.39326909  0.81323298  0.60152517  1
  Hf  Hf5  1  0.78444271  0.00249603  0.20773447  1
  Hf  Hf6  1  0.50831101  0.90101489  0.50393247  1
  Hf  Hf7  1  0.39834386  0.60801187  0.40199868  1
  Hf  Hf8  1  0.68817312  0.68578621  0.10159672  1
  Hf  Hf9  1  0.09736172  0.70694501  0.10565694  1
  Hf  Hf10  1  0.09034363  0.69614039  0.50695229  1
  Hf  Hf11  1  0.20277219  -0.01201421  0.40337790  1
  Hf  Hf12  1  0.29259411  0.29611349  0.10941534  1
  Hf  Hf13  1  0.20041830  0.80211625  0.39710096  1
  Hf  Hf14  1  0.19445159  -0.00121660  0.60198281  1
  Hf  Hf15  1  0.00386479  0.00202929  0.40100099  1
  Hf  Hf16  1  0.20552895  0.80126915  0.00069645  1
  Hf  Hf17  1  0.62176918  0.42035481  0.19508962  1
  Hf  Hf18  1  0.30074379  0.30063574  0.89568248  1
  Hf  Hf19  1  0.60841740  0.39915721  0.40650931  1
  Hf  Hf20  1  0.89894481  0.90604107  0.10202309  1
  Hf  Hf21  1  0.49688678  0.89831484  0.10066272  1
  Hf  Hf22  1  0.89626639  0.90341164  0.89509581  1
  Hf  Hf23  1  0.51490659  0.29098618  0.09823217  1
  Hf  Hf24  1  0.20516244  -0.00122787  0.00982987  1
  Hf  Hf25  1  0.40207065  0.39749536  0.00517124  1
  Hf  Hf26  1  0.70238345  0.90722829  0.50061608  1
  Hf  Hf27  1  0.10226731  0.49833856  0.08736962  1
  Hf  Hf28  1  0.29402608  0.29038119  0.30647514  1
  Hf  Hf29  1  0.49973181  0.90207749  0.89385971  1
  Hf  Hf30  1  0.20204041  -0.00204310  0.79386366  1
  Hf  Hf31  1  0.29603060  0.69915305  0.50479703  1
  Hf  Hf32  1  0.50800050  0.29610343  0.89898567  1
  Hf  Hf33  1  0.00575679  -0.00031033  0.60257755  1
  Hf  Hf34  1  0.70598438  0.30322486  0.30282074  1
  Hf  Hf35  1  0.40344998  0.40415069  0.20174985  1
  Hf  Hf36  1  0.29534270  0.29497376  0.50270046  1
  Hf  Hf37  1  0.20261334  0.80356376  0.79801050  1
  Hf  Hf38  1  0.60371934  0.80393070  0.20826574  1
  Hf  Hf39  1  0.17360229  0.19745421  0.42046553  1
  Hf  Hf40  1  0.79805144  0.19111558  0.19675004  1
  Hf  Hf41  1  0.19358699  0.59338229  0.60364858  1
  Hf  Hf42  1  0.61864273  0.19554865  0.79920787  1
  Hf  Hf43  1  0.41489661  0.18362197  0.20465301  1
  Hf  Hf44  1  0.79781718  0.79735413  -0.00530993  1
  Hf  Hf45  1  0.39521225  0.80696629  0.39819977  1
  Hf  Hf46  1  0.70339133  0.49794396  0.89375388  1
  Hf  Hf47  1  0.79600426  0.19482213  0.40660186  1
  Hf  Hf48  1  0.89366287  0.68824570  0.30527272  1
  Hf  Hf49  1  0.39218210  0.00726581  0.01007650  1
  Zr  Zr50  1  0.51362101  0.51553778  0.09765207  1
  Zr  Zr51  1  0.09936629  0.09775361  0.28797054  1
  Zr  Zr52  1  0.19506619  0.60910674  0.80694094  1
  Zr  Zr53  1  0.51216169  0.09524167  0.90499511  1
  Zr  Zr54  1  0.50569863  0.51085799  0.50758538  1
  Zr  Zr55  1  0.50674492  0.71458458  0.69329646  1
  Zr  Zr56  1  0.50951257  0.51019849  0.30107401  1
  Zr  Zr57  1  0.20246036  0.18580740  0.00169129  1
  Zr  Zr58  1  0.71096398  0.50677254  0.50543665  1
  Zr  Zr59  1  0.39715967  0.61224862  -0.00778070  1
  Zr  Zr60  1  0.08811666  0.30322123  0.30176822  1
  Zr  Zr61  1  0.09487689  0.90226600  0.90653011  1
  Zr  Zr62  1  0.90219337  0.50156275  0.08826020  1
  Zr  Zr63  1  0.59498719  0.00049159  0.20975634  1
  Zr  Zr64  1  0.00901110  0.19889934  0.59156604  1
  Zr  Zr65  1  0.90747322  0.70019232  0.69703941  1
  Zr  Zr66  1  0.39645462  0.39951487  0.60942411  1
  Zr  Zr67  1  -0.00500636  0.79683748  0.39690732  1
  Zr  Zr68  1  0.00827523  0.61002493  -0.01932048  1
  Zr  Zr69  1  0.20585996  0.61800512  -0.01420159  1
  Zr  Zr70  1  0.39612038  0.40398088  0.40140072  1
  Zr  Zr71  1  0.69474089  0.70667733  0.88141394  1
  Zr  Zr72  1  0.60151999  0.40454693  0.61336463  1
  Zr  Zr73  1  0.60684084  0.19435238  0.60373105  1
  Zr  Zr74  1  0.39465066  0.60622474  0.79918317  1
  Zr  Zr75  1  0.29740389  0.10451866  0.30779415  1
  Zr  Zr76  1  0.30512560  0.10249367  0.50285892  1
  Zr  Zr77  1  0.80275343  0.60393654  0.78982937  1
  Zr  Zr78  1  0.39778690  0.18865961  0.00589284  1
  Zr  Zr79  1  0.29702854  0.49332358  0.70759613  1
  Zr  Zr80  1  0.90744292  0.49599280  0.88590620  1
  Zr  Zr81  1  0.90016311  0.69710848  0.10184892  1
  Zr  Zr82  1  0.70084148  0.29479706  0.09152172  1
  Zr  Zr83  1  0.49471109  0.48889445  0.88881808  1
  Zr  Zr84  1  0.09757095  0.29437997  0.10180248  1
  Zr  Zr85  1  0.19807321  0.60556812  0.20744197  1
  Zr  Zr86  1  0.19344435  0.40816461  0.21088901  1
  Zr  Zr87  1  0.59490123  0.58769758  0.77754631  1
  Zr  Zr88  1  0.79649060  0.79719776  0.59970383  1
  Zr  Zr89  1  0.89540353  0.90160076  0.50110522  1
  Zr  Zr90  1  0.09773723  0.30259143  0.89903781  1
  Zr  Zr91  1  0.29674645  0.50399378  0.09693334  1
  Zr  Zr92  1  0.60750599  0.18089896  0.21266573  1
  Zr  Zr93  1  0.09190467  0.10175324  0.90339433  1
  Zr  Zr94  1  0.79267281  0.80401614  0.20583814  1
  Zr  Zr95  1  0.90029296  0.30396088  0.29760150  1
  Zr  Zr96  1  0.50464346  0.29684787  0.30458748  1
  Zr  Zr97  1  0.79603564  0.19518982  -0.01580706  1
  Zr  Zr98  1  0.79209001  0.58358542  0.19912927  1
  Zr  Zr99  1  0.49807837  0.29259408  0.50207862  1
  Ta  Ta100  1  -0.00728613  0.18855823  0.19233000  1
  Ta  Ta101  1  0.89231255  0.90096871  0.70289793  1
  Ta  Ta102  1  0.20188788  0.80670180  0.20821141  1
  Ta  Ta103  1  0.49976637  0.71473837  0.88698251  1
  Ta  Ta104  1  0.90304856  0.29781631  0.89438260  1
  Ta  Ta105  1  0.00152877  0.58977857  0.40474115  1
  Ta  Ta106  1  0.68418029  0.09250806  0.07849490  1
  Ta  Ta107  1  0.19017415  0.59588292  0.40035138  1
  Ta  Ta108  1  0.80128192  0.39614495  -0.00741063  1
  Ta  Ta109  1  0.89871553  0.09493085  0.30205436  1
  Ta  Ta110  1  0.40450855  -0.00271665  0.40273084  1
  Ta  Ta111  1  0.49384163  0.29896679  0.71265035  1
  Ta  Ta112  1  0.19895424  0.80995043  0.60490950  1
  Ta  Ta113  1  0.00410736  0.59022054  0.21152245  1
  Ta  Ta114  1  0.79323271  0.00587900  0.79438603  1
  Ta  Ta115  1  0.29948331  0.10103205  0.69375000  1
  Ta  Ta116  1  0.69645010  0.90650249  0.08901913  1
  Ta  Ta117  1  0.89691449  0.09991327  0.69434398  1
  Ta  Ta118  1  0.29171458  0.48385145  0.89964559  1
  Ta  Ta119  1  0.40255886  0.19706279  0.60814169  1
  Ta  Ta120  1  0.39662046  0.00194488  0.79255290  1
  Ta  Ta121  1  0.51098112  0.70544592  0.50511030  1
  Ta  Ta122  1  0.89298702  0.09398093  0.50124329  1
  Ta  Ta123  1  0.09586795  0.70073421  0.69685963  1
  Ta  Ta124  1  0.40480578  0.60078461  0.60619729  1
  Ta  Ta125  1  0.80366015  0.19989909  0.79397803  1
  Ta  Ta126  1  0.09319706  0.90212443  0.10952231  1
  Ta  Ta127  1  0.80535809  0.39001606  0.79161187  1
  Ta  Ta128  1  0.29403501  0.50340329  0.50134891  1
  Ta  Ta129  1  0.79499012  0.79633770  0.40043631  1
  Ta  Ta130  1  0.19188068  0.39568967  0.59687748  1
  Ta  Ta131  1  0.90388782  0.49886164  0.50626524  1
  Ta  Ta132  1  0.80303752  0.40422123  0.19078869  1
  Ta  Ta133  1  -0.00933491  0.19962525  0.40764783  1
  Ta  Ta134  1  0.40040640  -0.00266442  0.21046069  1
  Ta  Ta135  1  -0.00612042  0.20207549  0.78838960  1
  Ta  Ta136  1  0.60555343  0.18573169  0.41043703  1
  Ta  Ta137  1  0.90609110  0.49175480  0.69063889  1
  Ta  Ta138  1  0.69816769  0.69236381  0.30895754  1
  Ta  Ta139  1  -0.00129161  0.80217842  -0.00117312  1
  Ta  Ta140  1  0.08864460  0.49350729  0.70002388  1
  Ta  Ta141  1  0.80484453  0.20261697  0.59953923  1
  Ta  Ta142  1  0.39407685  0.19304174  0.79838935  1
  Ta  Ta143  1  0.18694558  0.40803251  0.40921831  1
  Ta  Ta144  1  -0.00185534  0.39474546  -0.00574930  1
  Ta  Ta145  1  0.09685925  0.30378310  0.69606430  1
  Ta  Ta146  1  0.40069647  0.60740071  0.20592174  1
  Ta  Ta147  1  0.29676009  0.50529148  0.30751501  1
  Ta  Ta148  1  0.90118292  0.29978040  0.09556470  1
  Ta  Ta149  1  0.49838619  0.70268814  0.10728021  1
  Ti  Ti150  1  -0.00216580  0.39344796  0.59262977  1
  Ti  Ti151  1  0.49875116  0.89961107  0.30516649  1
  Ti  Ti152  1  0.69970628  0.90617592  0.89450438  1
  Ti  Ti153  1  0.89633590  0.09341290  0.10025758  1
  Ti  Ti154  1  0.29757595  0.70336751  0.69672939  1
  Ti  Ti155  1  0.90041234  0.70986469  0.88745917  1
  Ti  Ti156  1  0.30062127  0.70302691  0.29702518  1
  Ti  Ti157  1  -0.00010460  0.80357174  0.60353341  1
  Ti  Ti158  1  -0.00503327  0.80039550  0.20400128  1
  Ti  Ti159  1  0.71111807  0.30107522  0.69580217  1
  Ti  Ti160  1  -0.00750357  0.19467151  0.00410131  1
  Ti  Ti161  1  0.50425826  0.70241028  0.29932419  1
  Ti  Ti162  1  0.89418987  0.90569553  0.30228429  1
  Ti  Ti163  1  0.09467175  0.69877846  0.30055224  1
  Ti  Ti164  1  0.80909495  0.60660544  0.59482989  1
  Ti  Ti165  1  0.19986258  -0.00938520  0.20121332  1
  Ti  Ti166  1  0.70744011  0.30279018  0.50882936  1
  Ti  Ti167  1  0.60808504  0.00307139  0.79217678  1
  Ti  Ti168  1  0.79874621  0.60171396  -0.00860279  1
  Ti  Ti169  1  0.39484556  0.81481664  0.78767025  1
  Ti  Ti170  1  0.71385486  0.50555158  0.31896927  1
  Ti  Ti171  1  0.60615459  0.82160414  0.78115841  1
  Ti  Ti172  1  0.69486076  0.70582155  0.69036737  1
  Ti  Ti173  1  0.61088672  0.40058739  -0.00425906  1
  Ti  Ti174  1  0.60619296  0.80116443  0.39846364  1
  Ti  Ti175  1  0.30910283  0.71038930  0.11227710  1
  Ti  Ti176  1  0.60404676  0.00965173  0.40073626  1
  Ti  Ti177  1  0.49669308  0.10121867  0.70318396  1
  Ti  Ti178  1  -0.00546230  0.40849088  0.19746267  1
  Ti  Ti179  1  0.00413621  0.80440472  0.79620409  1
  Ti  Ti180  1  0.19804224  0.39223623  0.79134472  1
  Ti  Ti181  1  0.10416522  0.48797811  0.89301325  1
  Ti  Ti182  1  0.39792457  0.79891716  -0.00113943  1
  Ti  Ti183  1  0.09802751  0.89298830  0.50248720  1
  Ti  Ti184  1  0.30601213  0.89257459  0.11523995  1
  Ti  Ti185  1  0.09271213  0.90020490  0.29070624  1
  Ti  Ti186  1  0.28478908  0.10383315  0.12536896  1
  Ti  Ti187  1  0.90078175  0.09837679  0.89350314  1
  Ti  Ti188  1  0.30746866  0.90368951  0.89940216  1
  Ti  Ti189  1  0.79506150  0.00390363  -0.00854093  1
  Ti  Ti190  1  0.40166764  -0.00135316  0.60389223  1
  Ti  Ti191  1  0.81187345  0.39586111  0.41348310  1
  Ti  Ti192  1  0.60380807  0.60606928  0.40380049  1
  Ti  Ti193  1  0.71524146  0.49939056  0.68923486  1
  Ti  Ti194  1  0.00727400  0.60141151  0.79558011  1
  Ti  Ti195  1  0.60915441  0.39583558  0.79300430  1
  Ti  Ti196  1  0.59473989  0.60505780  -0.01728846  1
  Ti  Ti197  1  0.69662954  0.69793773  0.50182939  1
  Ti  Ti198  1  0.90028237  0.49444253  0.31160600  1
  Ti  Ti199  1  0.00014845  0.00634836  0.00964554  1
  Mo  Mo200  1  0.80056324  -0.00096521  0.39893213  1
  Mo  Mo201  1  0.18808123  0.19859498  0.20282288  1
  Mo  Mo202  1  0.08625002  0.71354943  0.89139722  1
  Mo  Mo203  1  0.89872066  0.69134825  0.49776456  1
  Mo  Mo204  1  0.50005710  0.09516398  0.50530439  1
  Mo  Mo205  1  0.09189524  0.09083885  0.10343704  1
  Mo  Mo206  1  0.79661421  0.80995793  0.79582608  1
  Mo  Mo207  1  0.49575605  0.49192303  0.70065706  1
  Mo  Mo208  1  0.70540282  0.30751073  0.89055638  1
  Mo  Mo209  1  0.59936821  -0.00930706  -0.00558468  1
  Mo  Mo210  1  0.09181770  0.50075621  0.30738681  1
  Mo  Mo211  1  0.60305736  0.19484215  -0.00862566  1
  Mo  Mo212  1  0.70272745  0.50336432  0.07595098  1
  Mo  Mo213  1  0.70465910  0.09312845  0.31690681  1
  Mo  Mo214  1  -0.01094195  -0.00308986  0.20064492  1
  Mo  Mo215  1  0.30300742  0.90173418  0.29657603  1
  Mo  Mo216  1  0.60416883  0.80383154  0.59636441  1
  Mo  Mo217  1  0.09318845  0.31038685  0.50268550  1
  Mo  Mo218  1  0.31742070  0.72643870  0.89131278  1
  Mo  Mo219  1  0.29562597  0.29309957  0.69718804  1
  Mo  Mo220  1  0.19633279  0.39896188  -0.00721471  1
  Mo  Mo221  1  0.00003166  0.59209739  0.60111716  1
  Mo  Mo222  1  0.49924914  0.09136973  0.31765871  1
  Mo  Mo223  1  0.30144867  0.90717480  0.69713790  1
  Mo  Mo224  1  0.80085400  0.00680673  0.60390885  1
  Mo  Mo225  1  0.41514985  0.18878441  0.40960340  1
  Mo  Mo226  1  0.00045109  0.39518393  0.79460938  1
  Mo  Mo227  1  0.50147822  0.90990263  0.70180350  1
  Mo  Mo228  1  0.69718937  0.89622612  0.31527169  1
  Mo  Mo229  1  0.09288705  0.08990722  0.49872410  1
  Mo  Mo230  1  0.70499219  0.90446697  0.70109104  1
  Mo  Mo231  1  0.19999269  0.20323256  0.60545142  1
  Mo  Mo232  1  0.39664071  0.38763326  0.80197063  1
  Mo  Mo233  1  0.30186340  0.90235499  0.50093064  1
  Mo  Mo234  1  0.70525960  0.09685318  0.50521362  1
  Mo  Mo235  1  0.80668077  0.60255391  0.40812909  1
  Mo  Mo236  1  0.90309883  0.29895464  0.69673041  1
  Mo  Mo237  1  0.09542532  0.49806815  0.50458540  1
  Mo  Mo238  1  -0.00486130  0.40159229  0.41074872  1
  Mo  Mo239  1  0.89919658  0.30073060  0.50166549  1
  Mo  Mo240  1  0.80787156  0.39425848  0.60299911  1
  Mo  Mo241  1  0.09410215  0.88819972  0.69678651  1
  Mo  Mo242  1  0.59991430  0.60715189  0.21158412  1
  Mo  Mo243  1  0.10065216  0.10952945  0.69469188  1
  Mo  Mo244  1  0.50622140  0.09218928  0.09852873  1
  Mo  Mo245  1  0.60563572  0.60668290  0.59869243  1
  Mo  Mo246  1  0.70541298  0.08965926  0.89522215  1
  Mo  Mo247  1  0.40104232  0.79886831  0.20650477  1
  Mo  Mo248  1  0.71207966  0.10218747  0.69938831  1
  Mo  Mo249  1  0.30343400  0.09419822  0.88834184  1
