# generated using pymatgen
data_HfZrTaTiMo
_symmetry_space_group_name_H-M   'P 1'
_cell_length_a   16.88856992
_cell_length_b   16.88923163
_cell_length_c   16.88702771
_cell_angle_alpha   89.92099017
_cell_angle_beta   90.02789128
_cell_angle_gamma   90.02271835
_symmetry_Int_Tables_number   1
_chemical_formula_structural   HfZrTaTiMo
_chemical_formula_sum   'Hf50 Zr50 Ta50 Ti50 Mo50'
_cell_volume   4816.76530225
_cell_formula_units_Z   50
loop_
 _symmetry_equiv_pos_site_id
 _symmetry_equiv_pos_as_xyz
  1  'x, y, z'
loop_
 _atom_site_type_symbol
 _atom_site_label
 _atom_site_symmetry_multiplicity
 _atom_site_fract_x
 _atom_site_fract_y
 _atom_site_fract_z
 _atom_site_occupancy
  Hf  Hf0  1  0.31373856  0.89515841  0.89121147  1
  Hf  Hf1  1  0.10268568  0.29499159  0.50445182  1
  Hf  Hf2  1  0.20520993  0.60040537  0.19752071  1
  Hf  Hf3  1  0.30484680  0.89157786  0.49630703  1
  Hf  Hf4  1  0.79410846  -0.00715385  0.19572654  1
  Hf  Hf5  1  0.89574291  0.70786209  0.89907915  1
  Hf  Hf6  1  0.79977922  0.59442732  0.21085736  1
  Hf  Hf7  1  0.90076700  0.30110038  0.30548950  1
  Hf  Hf8  1  0.10176585  0.90163389  0.50263528  1
  Hf  Hf9  1  0.50613179  0.09394411  0.70049643  1
  Hf  Hf10  1  0.19746441  0.38835997  0.79445776  1
  Hf  Hf11  1  -0.00353239  0.80830851  0.60217379  1
  Hf  Hf12  1  0.10202276  0.30480426  0.09610576  1
  Hf  Hf13  1  0.20230842  0.40253926  0.60026239  1
  Hf  Hf14  1  0.88758491  0.09684780  0.69417603  1
  Hf  Hf15  1  0.20325653  0.79796724  0.20373901  1
  Hf  Hf16  1  0.69116750  0.88653681  0.89479725  1
  Hf  Hf17  1  0.69415855  0.09421373  0.30134144  1
  Hf  Hf18  1  0.40770217  0.19497631  0.40479252  1
  Hf  Hf19  1  0.20739556  0.40344720  0.40668468  1
  Hf  Hf20  1  0.69683194  0.09323230  0.51002659  1
  Hf  Hf21  1  0.59694531  0.40537878  0.40275108  1
  Hf  Hf22  1  0.10198176  0.50577830  0.89704600  1
  Hf  Hf23  1  -0.00410165  0.60500620  -0.00347511  1
  Hf  Hf24  1  0.78823056  0.61043318  0.80523748  1
  Hf  Hf25  1  0.88879146  0.30577631  0.69679203  1
  Hf  Hf26  1  0.69751092  0.69285307  0.09578445  1
  Hf  Hf27  1  0.10668414  0.49363407  0.08216643  1
  Hf  Hf28  1  0.10288213  0.69803004  0.89421399  1
  Hf  Hf29  1  0.10208001  0.70177269  0.70175194  1
  Hf  Hf30  1  -0.00583950  0.19383600  0.19810416  1
  Hf  Hf31  1  0.00090957  0.60613292  0.40392395  1
  Hf  Hf32  1  0.21010155  0.00382001  0.39851894  1
  Hf  Hf33  1  0.09488155  0.70677823  0.09767193  1
  Hf  Hf34  1  0.79207634  -0.00290645  -0.00249891  1
  Hf  Hf35  1  0.40224481  0.59480558  0.00157904  1
  Hf  Hf36  1  0.19553905  0.78652469  0.40183411  1
  Hf  Hf37  1  0.89263554  0.30701098  0.50373672  1
  Hf  Hf38  1  0.79674713  0.19692319  0.40433630  1
  Hf  Hf39  1  0.30916197  0.29787814  0.69266472  1
  Hf  Hf40  1  0.40148649  0.40377780  0.00033118  1
  Hf  Hf41  1  0.10253599  0.51477832  0.70848857  1
  Hf  Hf42  1  0.69049275  0.29742775  0.09864184  1
  Hf  Hf43  1  0.30870930  0.68996734  0.30637867  1
  Hf  Hf44  1  0.89826173  0.49895994  0.89539705  1
  Hf  Hf45  1  0.70018167  0.30074733  0.30503649  1
  Hf  Hf46  1  0.00665683  0.20354327  0.79391622  1
  Hf  Hf47  1  0.89290299  0.30606917  0.89761077  1
  Hf  Hf48  1  0.89478781  0.50148586  0.08897864  1
  Hf  Hf49  1  0.20761390  0.00397583  0.60266405  1
  Zr  Zr50  1  0.40310577  -0.01168259  0.01236616  1
  Zr  Zr51  1  0.10713063  0.50280207  0.30614145  1
  Zr  Zr52  1  0.89918686  0.89730301  0.29669770  1
  Zr  Zr53  1  0.08975857  0.89640561  0.29408952  1
  Zr  Zr54  1  0.69714147  0.50705221  0.49892729  1
  Zr  Zr55  1  0.78647389  0.19632721  0.79885539  1
  Zr  Zr56  1  0.21477448  0.40760827  0.19586365  1
  Zr  Zr57  1  0.59151898  0.20509391  0.41784399  1
  Zr  Zr58  1  0.40567726  0.20416862  0.80315554  1
  Zr  Zr59  1  0.80645175  0.59921132  0.60155444  1
  Zr  Zr60  1  0.89742499  0.70579514  0.30248796  1
  Zr  Zr61  1  0.09422138  0.09571533  0.30213692  1
  Zr  Zr62  1  0.40050768  0.00278688  0.59519488  1
  Zr  Zr63  1  0.09854321  0.10316841  0.50659005  1
  Zr  Zr64  1  0.31178565  0.30519496  0.30241767  1
  Zr  Zr65  1  0.42199934  0.20059071  0.58996037  1
  Zr  Zr66  1  0.79848408  0.40469969  0.20703067  1
  Zr  Zr67  1  0.59789376  0.79864657  0.19995027  1
  Zr  Zr68  1  0.50783614  0.09886051  0.10375976  1
  Zr  Zr69  1  0.11327271  0.09698511  0.90202573  1
  Zr  Zr70  1  0.00064202  0.59911358  0.20477752  1
  Zr  Zr71  1  -0.00718320  0.19048301  -0.00311291  1
  Zr  Zr72  1  0.59871854  0.20407119  0.79536844  1
  Zr  Zr73  1  0.89281809  0.89608398  0.89088794  1
  Zr  Zr74  1  0.20223966  0.81078833  -0.00085534  1
  Zr  Zr75  1  -0.00083389  -0.00423727  -0.00972222  1
  Zr  Zr76  1  0.30578156  0.50593832  0.70115231  1
  Zr  Zr77  1  0.10147381  0.30914124  0.91302592  1
  Zr  Zr78  1  0.69081002  0.10084698  0.10202705  1
  Zr  Zr79  1  0.68793872  0.50108385  0.69272292  1
  Zr  Zr80  1  0.50221085  0.49984067  0.11815797  1
  Zr  Zr81  1  0.58945435  0.40319738  -0.00303783  1
  Zr  Zr82  1  0.89505389  0.09745922  0.51298615  1
  Zr  Zr83  1  0.21120399  -0.01036168  0.19568076  1
  Zr  Zr84  1  -0.00249964  0.60649791  0.59675051  1
  Zr  Zr85  1  0.00851306  -0.00336745  0.78685842  1
  Zr  Zr86  1  0.50211983  0.89293717  0.49912210  1
  Zr  Zr87  1  -0.00050675  0.40653848  0.60405113  1
  Zr  Zr88  1  0.20456964  0.19713839  0.20353921  1
  Zr  Zr89  1  0.90018571  0.30493599  0.09302871  1
  Zr  Zr90  1  0.30180891  0.70037512  0.89346745  1
  Zr  Zr91  1  0.30817888  0.09485588  0.89651697  1
  Zr  Zr92  1  0.09942650  0.29823202  0.30586672  1
  Zr  Zr93  1  0.30153047  0.10215394  0.09674927  1
  Zr  Zr94  1  0.49425481  0.71130681  0.89475898  1
  Zr  Zr95  1  0.59491817  0.60295472  -0.01213908  1
  Zr  Zr96  1  0.49864163  0.89628590  0.89377943  1
  Zr  Zr97  1  0.69689837  0.50044084  0.89803991  1
  Zr  Zr98  1  0.69606809  0.70277584  0.69213619  1
  Zr  Zr99  1  0.29050272  0.50614999  0.89769466  1
  Ta  Ta100  1  -0.01180781  -0.00598872  0.40908515  1
  Ta  Ta101  1  0.20113631  0.20061074  0.79218038  1
  Ta  Ta102  1  0.79300921  0.79946939  0.19606690  1
  Ta  Ta103  1  0.58679350  0.40235019  0.79281022  1
  Ta  Ta104  1  0.50231831  0.89902225  0.30302418  1
  Ta  Ta105  1  0.21405102  0.19445468  0.40913309  1
  Ta  Ta106  1  0.40831085  0.20053331  0.20187860  1
  Ta  Ta107  1  0.20362481  -0.00450295  0.79092926  1
  Ta  Ta108  1  0.78919668  0.79712314  0.00131900  1
  Ta  Ta109  1  0.00804739  0.81162601  0.79713964  1
  Ta  Ta110  1  0.60011645  -0.01845815  0.01101983  1
  Ta  Ta111  1  0.89644476  0.70579214  0.09686281  1
  Ta  Ta112  1  -0.00229695  0.40907961  0.40292403  1
  Ta  Ta113  1  0.30737766  0.30056401  0.50493375  1
  Ta  Ta114  1  0.59438102  0.20523214  0.21001112  1
  Ta  Ta115  1  0.79928346  -0.00881736  0.40808836  1
  Ta  Ta116  1  0.59941859  0.79473154  0.40030747  1
  Ta  Ta117  1  0.10260242  0.09215347  0.09667840  1
  Ta  Ta118  1  0.60220511  -0.00786702  0.40484040  1
  Ta  Ta119  1  0.60090574  -0.00985618  0.60160730  1
  Ta  Ta120  1  0.40287630  0.78823388  0.59802205  1
  Ta  Ta121  1  0.69759307  0.69847415  0.49690782  1
  Ta  Ta122  1  0.40207627  0.79897713  0.20147059  1
  Ta  Ta123  1  0.41048136  0.20667725  0.00080050  1
  Ta  Ta124  1  0.40598081  0.60722230  0.59325836  1
  Ta  Ta125  1  0.69745155  0.89546791  0.30438698  1
  Ta  Ta126  1  0.00252799  0.79566212  0.40804297  1
  Ta  Ta127  1  0.30395638  0.69886129  0.09552773  1
  Ta  Ta128  1  0.20722117  0.60973269  0.59075660  1
  Ta  Ta129  1  0.10430389  0.50612431  0.50199383  1
  Ta  Ta130  1  0.78278009  0.00028296  0.79588346  1
  Ta  Ta131  1  0.19898763  0.81118675  0.79134453  1
  Ta  Ta132  1  0.40486054  -0.00890783  0.20433975  1
  Ta  Ta133  1  0.79965046  0.19514333  0.19885295  1
  Ta  Ta134  1  0.50526892  0.09098248  0.29999011  1
  Ta  Ta135  1  0.70466621  0.88992838  0.50758564  1
  Ta  Ta136  1  0.00231394  0.39878561  0.79483344  1
  Ta  Ta137  1  0.90243129  0.88765616  0.09620683  1
  Ta  Ta138  1  0.30291962  0.70019650  0.70096116  1
  Ta  Ta139  1  0.79160823  0.19512329  -0.00380597  1
  Ta  Ta140  1  -0.00321086  0.40838828  0.20532119  1
  Ta  Ta141  1  0.69954527  0.50349887  0.10012963  1
  Ta  Ta142  1  0.31030501  0.30304805  0.09894887  1
  Ta  Ta143  1  0.88899419  0.71002959  0.50145983  1
  Ta  Ta144  1  0.40838334  0.78587738  0.40173941  1
  Ta  Ta145  1  0.70085323  0.69550528  0.31146765  1
  Ta  Ta146  1  0.89825329  0.71152513  0.70924575  1
  Ta  Ta147  1  0.69289716  0.30032577  0.90205869  1
  Ta  Ta148  1  0.50026704  0.89313132  0.70333347  1
  Ta  Ta149  1  0.08713956  0.89708254  0.09727029  1
  Ti  Ti150  1  0.60538011  0.59622509  0.21283216  1
  Ti  Ti151  1  0.40538571  0.00394609  0.40164229  1
  Ti  Ti152  1  0.40746122  0.40400155  0.40951537  1
  Ti  Ti153  1  0.31203264  0.09908641  0.29853486  1
  Ti  Ti154  1  0.89472865  0.09521900  0.09684100  1
  Ti  Ti155  1  0.49641071  0.30745126  0.29844118  1
  Ti  Ti156  1  0.79791434  0.80369709  0.40325247  1
  Ti  Ti157  1  -0.00324852  -0.00795826  0.60402103  1
  Ti  Ti158  1  0.20227403  -0.01160009  0.00008849  1
  Ti  Ti159  1  0.50363494  0.29977502  0.90023837  1
  Ti  Ti160  1  0.59816933  0.78754573  0.79217608  1
  Ti  Ti161  1  0.00173138  0.20497785  0.60878238  1
  Ti  Ti162  1  0.78074827  0.21210468  0.59789121  1
  Ti  Ti163  1  0.89704376  0.50202200  0.70882943  1
  Ti  Ti164  1  0.50438260  0.51122754  0.50168775  1
  Ti  Ti165  1  0.78711381  0.39944414  0.79385468  1
  Ti  Ti166  1  0.49861059  0.70345950  0.09946615  1
  Ti  Ti167  1  0.39917375  0.59949501  0.19844425  1
  Ti  Ti168  1  0.30183072  0.30052794  0.90283239  1
  Ti  Ti169  1  0.69845672  0.89304684  0.69666229  1
  Ti  Ti170  1  0.59270152  0.79140526  0.59631143  1
  Ti  Ti171  1  0.41390191  0.40814703  0.60016449  1
  Ti  Ti172  1  0.31298856  0.89384586  0.30542085  1
  Ti  Ti173  1  0.88034034  0.89781739  0.69682229  1
  Ti  Ti174  1  -0.00486547  0.19472780  0.40413661  1
  Ti  Ti175  1  0.30971442  0.89682012  0.69911274  1
  Ti  Ti176  1  0.50367734  0.09237708  0.90334286  1
  Ti  Ti177  1  0.60268966  -0.00244171  0.79832308  1
  Ti  Ti178  1  0.31621097  0.50216188  0.30496327  1
  Ti  Ti179  1  0.41002577  0.40284851  0.79884461  1
  Ti  Ti180  1  0.68713738  0.31063214  0.68600631  1
  Ti  Ti181  1  0.20441896  0.79570943  0.59895395  1
  Ti  Ti182  1  0.79054419  0.39918590  -0.00119125  1
  Ti  Ti183  1  0.79766592  0.41141352  0.39864124  1
  Ti  Ti184  1  0.69559700  0.09560910  0.69110522  1
  Ti  Ti185  1  0.49487051  0.50652416  0.30596046  1
  Ti  Ti186  1  0.20813402  0.20389457  -0.00022930  1
  Ti  Ti187  1  0.68214559  0.10054341  0.90824582  1
  Ti  Ti188  1  0.30563115  0.10492507  0.70015421  1
  Ti  Ti189  1  -0.00605059  0.00135784  0.19431424  1
  Ti  Ti190  1  0.50163083  0.68952761  0.30576871  1
  Ti  Ti191  1  0.20080324  0.60552843  0.40876783  1
  Ti  Ti192  1  0.41493130  0.60073820  0.78992486  1
  Ti  Ti193  1  0.89524047  0.09414732  0.30264513  1
  Ti  Ti194  1  0.60297016  0.40483896  0.21035794  1
  Ti  Ti195  1  0.89135921  0.09671229  0.89019162  1
  Ti  Ti196  1  0.89449356  0.50156440  0.49605958  1
  Ti  Ti197  1  0.30921968  0.50772243  0.49734907  1
  Ti  Ti198  1  0.50076803  0.30111276  0.10837697  1
  Ti  Ti199  1  0.10856888  0.10633802  0.69300150  1
  Mo  Mo200  1  -0.00395926  0.79894455  0.19634147  1
  Mo  Mo201  1  0.40491735  0.59335743  0.40237365  1
  Mo  Mo202  1  0.59768115  -0.00721501  0.20817024  1
  Mo  Mo203  1  0.58835751  0.59962325  0.79288449  1
  Mo  Mo204  1  0.79640107  0.40281782  0.59949251  1
  Mo  Mo205  1  0.59036430  0.40177443  0.59742084  1
  Mo  Mo206  1  0.30612710  0.89244563  0.10651474  1
  Mo  Mo207  1  0.39869519  0.79974836  0.77940252  1
  Mo  Mo208  1  -0.00355726  0.80169892  -0.00364060  1
  Mo  Mo209  1  0.40312505  0.79739439  0.02125063  1
  Mo  Mo210  1  0.10703909  0.89883550  0.89440927  1
  Mo  Mo211  1  -0.01204600  0.40606569  -0.00557293  1
  Mo  Mo212  1  0.20469264  0.60331924  0.00243355  1
  Mo  Mo213  1  0.49899913  0.32005735  0.50258746  1
  Mo  Mo214  1  0.59354829  0.20297991  -0.00454286  1
  Mo  Mo215  1  0.59661093  0.79974240  0.00643345  1
  Mo  Mo216  1  0.10173791  0.29304836  0.69727489  1
  Mo  Mo217  1  -0.01042067  0.60495599  0.79661306  1
  Mo  Mo218  1  0.50297863  0.89330538  0.10898513  1
  Mo  Mo219  1  0.10086630  0.70144475  0.50446261  1
  Mo  Mo220  1  0.30584450  0.10366529  0.49615276  1
  Mo  Mo221  1  0.50293199  0.31098374  0.69481844  1
  Mo  Mo222  1  0.58918028  0.60410214  0.59405431  1
  Mo  Mo223  1  0.20299566  0.61189740  0.79237853  1
  Mo  Mo224  1  0.30422971  0.50219635  0.10162583  1
  Mo  Mo225  1  0.89882483  0.49721872  0.31419556  1
  Mo  Mo226  1  0.79944754  0.79990470  0.59954877  1
  Mo  Mo227  1  0.79550678  0.60582765  0.00108083  1
  Mo  Mo228  1  0.30455943  0.69748102  0.50252381  1
  Mo  Mo229  1  0.50517617  0.69534754  0.49759425  1
  Mo  Mo230  1  0.69417995  0.70469182  0.89859597  1
  Mo  Mo231  1  0.59609766  0.60353219  0.39690336  1
  Mo  Mo232  1  0.21852508  0.39511307  -0.00087430  1
  Mo  Mo233  1  0.79343722  0.80338589  0.79572203  1
  Mo  Mo234  1  0.40730652  0.39913794  0.20549921  1
  Mo  Mo235  1  0.60513145  0.20737194  0.60126600  1
  Mo  Mo236  1  0.50808373  0.08387143  0.49692193  1
  Mo  Mo237  1  0.49866406  0.50541509  0.69422752  1
  Mo  Mo238  1  0.11162643  0.90100787  0.69429551  1
  Mo  Mo239  1  0.70050433  0.31225260  0.50793973  1
  Mo  Mo240  1  0.89699283  0.89787741  0.50046713  1
  Mo  Mo241  1  0.40053433  -0.00205584  0.79104620  1
  Mo  Mo242  1  0.79076849  -0.01197512  0.60598951  1
  Mo  Mo243  1  0.21073900  0.19854887  0.60143547  1
  Mo  Mo244  1  0.50040502  0.69919702  0.69470270  1
  Mo  Mo245  1  0.10162981  0.69979484  0.30420959  1
  Mo  Mo246  1  0.79902275  0.60353075  0.40364228  1
  Mo  Mo247  1  0.49420595  0.50202571  0.88253884  1
  Mo  Mo248  1  0.69431966  0.50482672  0.30187080  1
  Mo  Mo249  1  0.69941359  0.89280420  0.10003534  1
