# generated using pymatgen
data_HfZrTaTiMo
_symmetry_space_group_name_H-M   'P 1'
_cell_length_a   16.88173984
_cell_length_b   16.88421565
_cell_length_c   16.87504697
_cell_angle_alpha   90.03355395
_cell_angle_beta   89.98069697
_cell_angle_gamma   90.00158301
_symmetry_Int_Tables_number   1
_chemical_formula_structural   HfZrTaTiMo
_chemical_formula_sum   'Hf50 Zr50 Ta50 Ti50 Mo50'
_cell_volume   4809.97683345
_cell_formula_units_Z   50
loop_
 _symmetry_equiv_pos_site_id
 _symmetry_equiv_pos_as_xyz
  1  'x, y, z'
loop_
 _atom_site_type_symbol
 _atom_site_label
 _atom_site_symmetry_multiplicity
 _atom_site_fract_x
 _atom_site_fract_y
 _atom_site_fract_z
 _atom_site_occupancy
  Hf  Hf0  1  0.30205013  0.09506418  0.10367372  1
  Hf  Hf1  1  0.70882394  0.49822498  0.10898500  1
  Hf  Hf2  1  0.40777817  0.39408582  0.20244591  1
  Hf  Hf3  1  0.69814943  0.29326379  0.49981139  1
  Hf  Hf4  1  0.80058823  0.80455053  0.79015757  1
  Hf  Hf5  1  0.09750127  0.89158075  0.30910812  1
  Hf  Hf6  1  0.09121140  0.49312552  0.68489255  1
  Hf  Hf7  1  -0.00257485  0.60858450  0.58464032  1
  Hf  Hf8  1  0.80094948  0.38866944  0.38144209  1
  Hf  Hf9  1  0.59758629  0.39452719  0.00101806  1
  Hf  Hf10  1  0.19569260  0.19811271  0.40705313  1
  Hf  Hf11  1  0.80150025  0.00408216  0.79394836  1
  Hf  Hf12  1  0.30692131  0.69536906  0.50012563  1
  Hf  Hf13  1  0.10308154  0.09100727  0.70882318  1
  Hf  Hf14  1  0.69949003  0.29658596  0.89013986  1
  Hf  Hf15  1  0.40199974  0.59813551  0.00785700  1
  Hf  Hf16  1  -0.00056084  0.40606755  0.80848201  1
  Hf  Hf17  1  0.70304148  0.69596458  0.89485639  1
  Hf  Hf18  1  0.40211156  0.59471517  0.80239541  1
  Hf  Hf19  1  0.00357697  0.79380778  -0.00051730  1
  Hf  Hf20  1  0.90168598  0.48418253  0.49823210  1
  Hf  Hf21  1  -0.01194988  -0.00192004  0.39747585  1
  Hf  Hf22  1  0.29466532  0.10145216  0.70246130  1
  Hf  Hf23  1  0.69681238  0.90156738  0.89783447  1
  Hf  Hf24  1  0.20102932  0.79792358  0.19169571  1
  Hf  Hf25  1  0.40275647  0.00169128  -0.00801760  1
  Hf  Hf26  1  0.70688992  0.11189567  0.89884743  1
  Hf  Hf27  1  0.40807683  0.00673323  0.59684686  1
  Hf  Hf28  1  0.60235438  0.59755886  -0.00061599  1
  Hf  Hf29  1  0.40256457  0.79841247  0.39933236  1
  Hf  Hf30  1  0.69917962  0.49567854  0.69952579  1
  Hf  Hf31  1  0.09551142  0.71660689  0.69886929  1
  Hf  Hf32  1  0.19200159  0.38045991  0.18996487  1
  Hf  Hf33  1  0.90692373  0.90507525  0.89062370  1
  Hf  Hf34  1  0.80289534  -0.00270861  0.20600306  1
  Hf  Hf35  1  0.88997761  0.28985440  0.90456544  1
  Hf  Hf36  1  0.39117991  0.80025235  0.00562814  1
  Hf  Hf37  1  0.09328840  0.72369616  0.49017686  1
  Hf  Hf38  1  0.89647645  0.30160467  0.50294536  1
  Hf  Hf39  1  0.19458866  0.60268421  0.59299974  1
  Hf  Hf40  1  0.09128808  0.48751944  0.09219234  1
  Hf  Hf41  1  0.70343420  0.30216552  0.11017064  1
  Hf  Hf42  1  0.60529478  0.00164185  0.00347628  1
  Hf  Hf43  1  0.80447334  0.80190327  0.00493719  1
  Hf  Hf44  1  0.49666697  0.09539911  0.30706795  1
  Hf  Hf45  1  0.90432241  0.71188994  0.69323887  1
  Hf  Hf46  1  0.89753919  0.49874606  0.10428330  1
  Hf  Hf47  1  0.89392055  0.49493358  0.68772678  1
  Hf  Hf48  1  0.09908778  0.10000014  0.09725302  1
  Hf  Hf49  1  0.20155386  -0.01336858  -0.00383083  1
  Zr  Zr50  1  0.29014922  0.09960557  0.89337802  1
  Zr  Zr51  1  0.01007584  0.19752126  0.59523310  1
  Zr  Zr52  1  0.09516273  0.30700077  0.91149665  1
  Zr  Zr53  1  0.30190974  0.90742982  0.70862733  1
  Zr  Zr54  1  0.50049037  0.90513367  0.49397865  1
  Zr  Zr55  1  0.89751685  0.10916432  0.09774863  1
  Zr  Zr56  1  0.58961314  0.20154054  0.00402731  1
  Zr  Zr57  1  0.49864576  0.89556083  0.89012686  1
  Zr  Zr58  1  0.89177463  0.09811536  0.50644544  1
  Zr  Zr59  1  0.70986559  0.69192517  0.10942266  1
  Zr  Zr60  1  0.00171397  0.20219176  0.39488233  1
  Zr  Zr61  1  0.30706645  0.70098599  0.69959474  1
  Zr  Zr62  1  0.20948250  0.39788347  0.80560399  1
  Zr  Zr63  1  0.60604959  0.00666549  0.40524735  1
  Zr  Zr64  1  0.49836927  0.90548550  0.29730889  1
  Zr  Zr65  1  0.00318178  0.60441591  0.80677977  1
  Zr  Zr66  1  0.29750566  0.30183749  0.31194230  1
  Zr  Zr67  1  0.50287386  0.90066328  0.10844220  1
  Zr  Zr68  1  0.20904897  0.39004729  0.59694143  1
  Zr  Zr69  1  0.70095341  0.48933328  0.49981219  1
  Zr  Zr70  1  0.09436936  0.70821549  0.30027961  1
  Zr  Zr71  1  0.39490425  0.79283293  0.19907239  1
  Zr  Zr72  1  0.40029149  0.20738785  0.60122828  1
  Zr  Zr73  1  0.19489283  0.19877927  0.20444017  1
  Zr  Zr74  1  0.40142361  0.38584532  -0.00054602  1
  Zr  Zr75  1  0.49978791  0.09303107  0.11316980  1
  Zr  Zr76  1  0.50031111  0.70065690  0.89848190  1
  Zr  Zr77  1  0.21006607  0.22209150  0.00957618  1
  Zr  Zr78  1  0.20260744  0.80521702  0.80937261  1
  Zr  Zr79  1  0.40012653  0.20599914  0.19905844  1
  Zr  Zr80  1  0.79532764  0.60230599  0.38607615  1
  Zr  Zr81  1  0.89276615  0.29979518  0.69840939  1
  Zr  Zr82  1  0.51229896  0.49761960  0.11167421  1
  Zr  Zr83  1  0.19013287  0.59343642  0.80865898  1
  Zr  Zr84  1  -0.01008945  0.60043722  0.39291394  1
  Zr  Zr85  1  0.09801762  0.29739818  0.70084580  1
  Zr  Zr86  1  0.19199475  0.59690961  0.39958776  1
  Zr  Zr87  1  0.29367524  0.49560119  0.30614721  1
  Zr  Zr88  1  0.29096810  0.69809875  0.91234392  1
  Zr  Zr89  1  0.59353531  0.59986553  0.59591454  1
  Zr  Zr90  1  0.40197607  0.60454792  0.20857227  1
  Zr  Zr91  1  0.79796860  0.61357355  0.58456184  1
  Zr  Zr92  1  0.09697499  0.90447700  0.50328033  1
  Zr  Zr93  1  0.69014289  0.90679007  0.69631673  1
  Zr  Zr94  1  0.59648894  0.79979234  0.59608258  1
  Zr  Zr95  1  0.80417340  0.80136470  0.20148708  1
  Zr  Zr96  1  0.30968728  0.50329130  0.69054852  1
  Zr  Zr97  1  0.29082757  0.49760601  0.09773079  1
  Zr  Zr98  1  0.89376437  0.50009160  0.90491158  1
  Zr  Zr99  1  0.09649686  0.90377294  0.89103040  1
  Ta  Ta100  1  0.40621703  0.20312387  -0.00743927  1
  Ta  Ta101  1  0.19522577  -0.00495615  0.20335601  1
  Ta  Ta102  1  0.40965523  0.39693283  0.40626046  1
  Ta  Ta103  1  0.09585189  0.48518965  0.49020550  1
  Ta  Ta104  1  0.09616629  0.10303888  0.89782599  1
  Ta  Ta105  1  0.09969254  0.09316132  0.30142135  1
  Ta  Ta106  1  0.40183960  0.80219767  0.60013740  1
  Ta  Ta107  1  0.60937412  0.60440419  0.21644998  1
  Ta  Ta108  1  0.90029402  0.10440490  0.89961765  1
  Ta  Ta109  1  0.00006017  -0.00150449  0.20181757  1
  Ta  Ta110  1  0.69927718  0.89205707  0.30867562  1
  Ta  Ta111  1  0.29742173  0.90352281  0.30506913  1
  Ta  Ta112  1  0.08714477  0.90494380  0.69956311  1
  Ta  Ta113  1  0.40908022  0.39662078  0.59675182  1
  Ta  Ta114  1  0.62023665  0.00026338  0.20343635  1
  Ta  Ta115  1  0.59788566  0.79359049  0.79340730  1
  Ta  Ta116  1  0.20576580  0.80890603  0.59758035  1
  Ta  Ta117  1  0.00335224  0.60488691  -0.00144069  1
  Ta  Ta118  1  0.70767297  0.10674419  0.10331065  1
  Ta  Ta119  1  0.50540768  0.49002987  0.88976974  1
  Ta  Ta120  1  0.51031085  0.29726018  0.30872703  1
  Ta  Ta121  1  0.80115479  -0.00051170  0.00399664  1
  Ta  Ta122  1  0.79944269  0.80547260  0.59321389  1
  Ta  Ta123  1  0.09235330  0.48468460  0.29603378  1
  Ta  Ta124  1  0.80316298  0.20771315  0.21137940  1
  Ta  Ta125  1  0.20394577  0.19916136  0.59371192  1
  Ta  Ta126  1  0.50712071  0.29968345  0.87947813  1
  Ta  Ta127  1  0.59071931  0.39127271  0.60269829  1
  Ta  Ta128  1  0.30852408  0.49832670  0.49645224  1
  Ta  Ta129  1  0.79599956  0.39665551  0.00041803  1
  Ta  Ta130  1  0.40422925  0.19666039  0.40816722  1
  Ta  Ta131  1  0.29120528  0.70116511  0.30519475  1
  Ta  Ta132  1  0.69996745  0.49811267  0.89490538  1
  Ta  Ta133  1  0.60174427  0.60095504  0.39506963  1
  Ta  Ta134  1  0.59717254  0.01308562  0.60176401  1
  Ta  Ta135  1  0.00200804  0.20631317  0.20481818  1
  Ta  Ta136  1  0.90652162  0.90343294  0.09916474  1
  Ta  Ta137  1  0.60647069  0.19994348  0.21021771  1
  Ta  Ta138  1  0.80020877  -0.00554736  0.39852270  1
  Ta  Ta139  1  0.40070599  0.20553279  0.80002912  1
  Ta  Ta140  1  0.59400213  0.19703226  0.60121226  1
  Ta  Ta141  1  0.69302949  0.29685349  0.70200830  1
  Ta  Ta142  1  0.70097286  0.10307429  0.50351150  1
  Ta  Ta143  1  -0.00199884  0.00387200  -0.00019532  1
  Ta  Ta144  1  0.69941241  0.69864924  0.69841897  1
  Ta  Ta145  1  0.51242058  0.70118825  0.10705781  1
  Ta  Ta146  1  0.90397158  0.09677354  0.70180282  1
  Ta  Ta147  1  0.19114394  0.60031102  0.19750103  1
  Ta  Ta148  1  -0.00042507  0.60431787  0.19440427  1
  Ta  Ta149  1  0.60777279  0.80155191  0.00766959  1
  Ti  Ti150  1  0.09603985  0.89934694  0.09944717  1
  Ti  Ti151  1  0.30213247  0.09446194  0.49607737  1
  Ti  Ti152  1  0.50149856  0.10829597  0.70793588  1
  Ti  Ti153  1  0.70053566  0.90189467  0.49757049  1
  Ti  Ti154  1  0.79368251  0.19571268  0.60789111  1
  Ti  Ti155  1  0.30027760  0.90279461  0.49536555  1
  Ti  Ti156  1  -0.00527244  0.79915963  0.19353992  1
  Ti  Ti157  1  0.89845187  0.70298975  0.29424354  1
  Ti  Ti158  1  0.80559867  0.80425946  0.39975858  1
  Ti  Ti159  1  0.59759788  0.59832271  0.79570523  1
  Ti  Ti160  1  0.79639693  0.39970564  0.79961160  1
  Ti  Ti161  1  0.80229104  0.60113432  0.79559694  1
  Ti  Ti162  1  0.61161147  0.80154480  0.20075697  1
  Ti  Ti163  1  0.70047042  0.49073800  0.28974858  1
  Ti  Ti164  1  0.20101421  0.00055540  0.39980974  1
  Ti  Ti165  1  0.20200493  -0.00135954  0.60013119  1
  Ti  Ti166  1  0.90275187  0.70452444  0.89403196  1
  Ti  Ti167  1  0.90224079  0.89766305  0.50772504  1
  Ti  Ti168  1  0.49687395  0.89999760  0.70430916  1
  Ti  Ti169  1  0.69554623  0.71179558  0.48640040  1
  Ti  Ti170  1  0.80823207  0.60559940  0.00083047  1
  Ti  Ti171  1  -0.00271984  0.19737743  0.80272092  1
  Ti  Ti172  1  0.29656278  0.49543622  0.90972116  1
  Ti  Ti173  1  0.59299414  0.01173030  0.80056588  1
  Ti  Ti174  1  0.51349215  0.70646392  0.30372026  1
  Ti  Ti175  1  0.10008459  0.08901576  0.50332981  1
  Ti  Ti176  1  0.90452111  0.48797674  0.28562466  1
  Ti  Ti177  1  0.39854657  0.39133844  0.79256437  1
  Ti  Ti178  1  0.50114575  0.49366837  0.70074158  1
  Ti  Ti179  1  0.60095229  0.39880179  0.39761356  1
  Ti  Ti180  1  0.30246440  0.09060960  0.30456518  1
  Ti  Ti181  1  0.50741372  0.29485916  0.49437878  1
  Ti  Ti182  1  0.69817441  0.10775130  0.70208538  1
  Ti  Ti183  1  0.49454846  0.70027001  0.69799174  1
  Ti  Ti184  1  0.50887844  0.49517772  0.30446431  1
  Ti  Ti185  1  0.40283565  0.00559700  0.80463521  1
  Ti  Ti186  1  0.79856566  0.19777446  0.39328215  1
  Ti  Ti187  1  0.30334425  0.30380765  0.49532372  1
  Ti  Ti188  1  0.09708184  0.31244468  0.49286354  1
  Ti  Ti189  1  0.79807785  -0.00347770  0.60083671  1
  Ti  Ti190  1  0.89979559  0.10230070  0.29806237  1
  Ti  Ti191  1  0.30093802  0.90468764  0.10596305  1
  Ti  Ti192  1  0.49831848  0.50123493  0.49868877  1
  Ti  Ti193  1  0.49881991  0.69658312  0.49659497  1
  Ti  Ti194  1  0.89996839  0.30758902  0.10464484  1
  Ti  Ti195  1  0.10819430  0.69645092  0.09055527  1
  Ti  Ti196  1  0.70254297  0.10443308  0.30581195  1
  Ti  Ti197  1  0.40815133  0.59735944  0.39557220  1
  Ti  Ti198  1  0.20611090  0.21260984  0.80032238  1
  Ti  Ti199  1  -0.00109586  0.20406023  0.00535903  1
  Mo  Mo200  1  -0.00352454  0.00877266  0.80185295  1
  Mo  Mo201  1  0.80224376  0.39576672  0.20080452  1
  Mo  Mo202  1  0.90342314  0.90679165  0.69041416  1
  Mo  Mo203  1  0.60283861  0.79559184  0.39855534  1
  Mo  Mo204  1  -0.00187582  0.39773019  0.59251912  1
  Mo  Mo205  1  0.07725299  0.29977607  0.09970187  1
  Mo  Mo206  1  0.10414916  0.50086069  0.91473221  1
  Mo  Mo207  1  0.19635109  0.00145319  0.80195691  1
  Mo  Mo208  1  0.59982041  0.40350421  0.79503879  1
  Mo  Mo209  1  0.19167239  0.59804441  0.00298163  1
  Mo  Mo210  1  0.50034348  0.10475394  0.88852756  1
  Mo  Mo211  1  0.70557783  0.90465722  0.10247495  1
  Mo  Mo212  1  0.90803138  0.69524410  0.10352685  1
  Mo  Mo213  1  0.30394310  0.89975069  0.89943298  1
  Mo  Mo214  1  0.60303084  0.39651840  0.21348465  1
  Mo  Mo215  1  0.09409070  0.29946885  0.30404274  1
  Mo  Mo216  1  0.89985752  0.29590727  0.29640556  1
  Mo  Mo217  1  -0.01181138  0.39829625  0.00235672  1
  Mo  Mo218  1  -0.00302147  0.80469408  0.79725884  1
  Mo  Mo219  1  0.31007260  0.30080783  0.89553245  1
  Mo  Mo220  1  0.50012559  0.30408170  0.69831282  1
  Mo  Mo221  1  0.19841736  0.39754663  0.40269334  1
  Mo  Mo222  1  0.21610875  0.80632867  0.40444595  1
  Mo  Mo223  1  -0.00427602  -0.00008702  0.60331427  1
  Mo  Mo224  1  0.31472885  0.29791171  0.09833433  1
  Mo  Mo225  1  0.38866674  0.00539299  0.40325982  1
  Mo  Mo226  1  0.89941342  0.89929103  0.29636242  1
  Mo  Mo227  1  0.79889119  0.19442905  0.78891439  1
  Mo  Mo228  1  -0.00024853  0.39552894  0.39037345  1
  Mo  Mo229  1  0.50286023  0.10700380  0.50225569  1
  Mo  Mo230  1  -0.00650360  0.80941293  0.59861319  1
  Mo  Mo231  1  0.41079123  0.59577283  0.59377207  1
  Mo  Mo232  1  0.38300296  0.00000907  0.20655465  1
  Mo  Mo233  1  0.50746385  0.29582957  0.11456472  1
  Mo  Mo234  1  0.60011122  0.19803761  0.40348230  1
  Mo  Mo235  1  0.19854098  0.80031945  0.00881151  1
  Mo  Mo236  1  0.69682748  0.29365173  0.30430054  1
  Mo  Mo237  1  0.20333754  0.40242287  -0.00085087  1
  Mo  Mo238  1  0.80709252  0.59698040  0.20926081  1
  Mo  Mo239  1  0.40601521  0.79876418  0.79346721  1
  Mo  Mo240  1  0.30429615  0.29545587  0.69721856  1
  Mo  Mo241  1  -0.00399309  0.39296600  0.20006098  1
  Mo  Mo242  1  0.89516989  0.71652704  0.49339968  1
  Mo  Mo243  1  -0.02547886  0.80668666  0.39790097  1
  Mo  Mo244  1  0.28913231  0.69335216  0.10543353  1
  Mo  Mo245  1  0.69998965  0.70618267  0.30585193  1
  Mo  Mo246  1  0.59750898  0.19775927  0.79067140  1
  Mo  Mo247  1  0.80203045  0.20169298  0.00996469  1
  Mo  Mo248  1  0.09747941  0.70101963  0.90712731  1
  Mo  Mo249  1  0.78969086  0.38932220  0.60279089  1
