# generated using pymatgen
data_HfZrTaTiMo
_symmetry_space_group_name_H-M   'P 1'
_cell_length_a   16.88673148
_cell_length_b   16.88093971
_cell_length_c   16.88490458
_cell_angle_alpha   89.95522177
_cell_angle_beta   90.04082240
_cell_angle_gamma   89.98040539
_symmetry_Int_Tables_number   1
_chemical_formula_structural   HfZrTaTiMo
_chemical_formula_sum   'Hf50 Zr50 Ta50 Ti50 Mo50'
_cell_volume   4813.27371278
_cell_formula_units_Z   50
loop_
 _symmetry_equiv_pos_site_id
 _symmetry_equiv_pos_as_xyz
  1  'x, y, z'
loop_
 _atom_site_type_symbol
 _atom_site_label
 _atom_site_symmetry_multiplicity
 _atom_site_fract_x
 _atom_site_fract_y
 _atom_site_fract_z
 _atom_site_occupancy
  Hf  Hf0  1  0.00122849  0.59881921  0.39683041  1
  Hf  Hf1  1  0.90087178  0.49843079  0.89890744  1
  Hf  Hf2  1  0.19808927  0.19566615  0.59740639  1
  Hf  Hf3  1  0.69881739  0.29364743  0.29429889  1
  Hf  Hf4  1  0.69555181  0.70193414  0.09553842  1
  Hf  Hf5  1  0.20625171  0.40037718  0.00565743  1
  Hf  Hf6  1  0.70462961  0.09971140  0.29826369  1
  Hf  Hf7  1  0.70268903  0.30250625  0.10347869  1
  Hf  Hf8  1  0.00258714  0.39895356  0.40137143  1
  Hf  Hf9  1  0.30950998  0.09506629  0.90432750  1
  Hf  Hf10  1  0.09919210  0.69621668  0.11088404  1
  Hf  Hf11  1  0.60569944  0.40499955  -0.00913179  1
  Hf  Hf12  1  0.29446134  0.90354808  0.31003629  1
  Hf  Hf13  1  0.49354144  0.28790917  0.09652515  1
  Hf  Hf14  1  0.60677970  0.20483479  -0.01072944  1
  Hf  Hf15  1  0.81147880  0.39272961  0.40345565  1
  Hf  Hf16  1  0.89354796  0.09440180  0.70105916  1
  Hf  Hf17  1  0.00939716  0.59366522  0.60004393  1
  Hf  Hf18  1  0.90036313  0.09343618  0.29870554  1
  Hf  Hf19  1  -0.00674566  0.18943824  0.01001968  1
  Hf  Hf20  1  0.20268820  0.19400578  0.79547373  1
  Hf  Hf21  1  0.79964342  0.79668435  0.40038208  1
  Hf  Hf22  1  0.90188571  0.29693860  0.71172550  1
  Hf  Hf23  1  0.20157396  0.20035628  0.00179223  1
  Hf  Hf24  1  0.60102499  0.79841432  0.20629224  1
  Hf  Hf25  1  0.58805484  0.40050382  0.39004987  1
  Hf  Hf26  1  0.00041266  0.80245287  0.40277536  1
  Hf  Hf27  1  0.00095789  0.39825134  0.59320604  1
  Hf  Hf28  1  0.50218500  0.49348369  0.70239511  1
  Hf  Hf29  1  0.39300106  0.18858252  0.38657934  1
  Hf  Hf30  1  0.10726572  0.70400217  0.49751339  1
  Hf  Hf31  1  0.39786305  0.38275140  0.60690993  1
  Hf  Hf32  1  0.69966710  0.28902873  0.70965167  1
  Hf  Hf33  1  0.50083048  0.90390618  0.09536803  1
  Hf  Hf34  1  0.19129181  0.80784590  0.00223448  1
  Hf  Hf35  1  0.39604263  0.61124113  0.60101125  1
  Hf  Hf36  1  0.70789333  0.09074958  0.09484497  1
  Hf  Hf37  1  0.79421889  0.80322702  0.19998209  1
  Hf  Hf38  1  0.78805228  0.40066491  0.81185836  1
  Hf  Hf39  1  0.49602682  0.10191402  0.90340585  1
  Hf  Hf40  1  0.19525039  0.59934825  -0.00220286  1
  Hf  Hf41  1  0.10888723  0.70559502  0.69643304  1
  Hf  Hf42  1  0.19127790  -0.00456342  0.00375467  1
  Hf  Hf43  1  0.89901316  0.90757007  0.29982221  1
  Hf  Hf44  1  0.09476739  0.30173356  0.90064660  1
  Hf  Hf45  1  0.59913440  0.60385314  0.20659222  1
  Hf  Hf46  1  0.59736667  0.60624221  0.59980132  1
  Hf  Hf47  1  0.81029062  0.20321659  0.40274028  1
  Hf  Hf48  1  0.59436965  0.41143248  0.19737548  1
  Hf  Hf49  1  0.79191858  0.59754463  -0.00415494  1
  Zr  Zr50  1  -0.00214289  0.80377288  0.80084396  1
  Zr  Zr51  1  0.30771498  0.50569141  0.90220945  1
  Zr  Zr52  1  0.59567418  0.00156852  0.80256778  1
  Zr  Zr53  1  0.71099490  0.50015487  0.29851729  1
  Zr  Zr54  1  0.88528770  0.08775391  0.90560914  1
  Zr  Zr55  1  0.10693440  0.89803481  0.69136155  1
  Zr  Zr56  1  0.58444352  0.19148059  0.61212305  1
  Zr  Zr57  1  0.40113885  0.01190157  0.21273793  1
  Zr  Zr58  1  -0.00494928  0.79928105  0.19560268  1
  Zr  Zr59  1  0.40709729  0.61172206  0.79248238  1
  Zr  Zr60  1  0.49556935  0.70773819  0.49856754  1
  Zr  Zr61  1  0.61480619  0.79731915  0.39854338  1
  Zr  Zr62  1  0.49357496  0.90080193  0.30837035  1
  Zr  Zr63  1  0.69924579  0.09983671  0.50313492  1
  Zr  Zr64  1  0.69779257  0.49881836  0.49788419  1
  Zr  Zr65  1  0.00405275  0.40630082  0.00897306  1
  Zr  Zr66  1  0.30075247  0.90280365  0.69713371  1
  Zr  Zr67  1  0.30022582  0.70774462  0.89698841  1
  Zr  Zr68  1  0.68795174  0.29282924  0.49745057  1
  Zr  Zr69  1  0.10023737  0.09583435  0.30198512  1
  Zr  Zr70  1  0.49399693  0.49570436  0.49878590  1
  Zr  Zr71  1  0.30139110  0.49614404  0.49021076  1
  Zr  Zr72  1  0.30955097  0.89846613  0.10154682  1
  Zr  Zr73  1  0.19708025  0.39350771  0.59688326  1
  Zr  Zr74  1  0.00482363  -0.00632309  0.80402368  1
  Zr  Zr75  1  0.29826359  0.50280979  0.70165702  1
  Zr  Zr76  1  0.60875882  0.59670980  0.81025672  1
  Zr  Zr77  1  0.49739169  0.09579821  0.49182861  1
  Zr  Zr78  1  0.01002614  0.18023506  0.80721486  1
  Zr  Zr79  1  0.89788732  0.49882873  0.70462106  1
  Zr  Zr80  1  0.19785011  0.19361203  0.40778485  1
  Zr  Zr81  1  0.10691429  0.30337466  0.29893743  1
  Zr  Zr82  1  0.31516428  0.10730333  0.09803008  1
  Zr  Zr83  1  0.70934633  0.09740783  0.70645651  1
  Zr  Zr84  1  0.10122037  0.29724228  0.11140709  1
  Zr  Zr85  1  0.40225153  0.40041805  0.20030590  1
  Zr  Zr86  1  0.09454160  0.30391727  0.70665589  1
  Zr  Zr87  1  0.18997630  0.00434888  0.80859386  1
  Zr  Zr88  1  0.00470706  -0.00388097  0.18667371  1
  Zr  Zr89  1  0.49306219  0.51275577  0.08430618  1
  Zr  Zr90  1  0.79683853  0.80077624  0.80510474  1
  Zr  Zr91  1  -0.00221888  0.60695494  0.00537653  1
  Zr  Zr92  1  0.79641976  0.60291074  0.59590894  1
  Zr  Zr93  1  0.40637194  0.60730958  0.20730854  1
  Zr  Zr94  1  0.80176265  0.80176742  0.59145685  1
  Zr  Zr95  1  0.50241614  0.71211424  0.89736460  1
  Zr  Zr96  1  0.69561136  0.70524131  0.70753235  1
  Zr  Zr97  1  -0.00105689  0.20716568  0.41210708  1
  Zr  Zr98  1  0.00856035  0.60172235  0.80038651  1
  Zr  Zr99  1  0.49108038  0.90080298  0.50193390  1
  Ta  Ta100  1  0.89951307  0.30088181  0.90054277  1
  Ta  Ta101  1  0.29240767  0.71261244  0.70143028  1
  Ta  Ta102  1  0.89341081  0.90059531  0.90966712  1
  Ta  Ta103  1  0.80204458  0.60723844  0.19337703  1
  Ta  Ta104  1  0.89994863  0.69779981  0.70196117  1
  Ta  Ta105  1  0.89927856  0.50613009  0.10677138  1
  Ta  Ta106  1  -0.00188487  0.40839922  0.20368925  1
  Ta  Ta107  1  0.30729737  0.29186488  0.90146249  1
  Ta  Ta108  1  0.88487779  0.90989028  0.09061175  1
  Ta  Ta109  1  0.59768533  0.39275620  0.80935875  1
  Ta  Ta110  1  0.29201464  0.70415798  0.29828470  1
  Ta  Ta111  1  0.69852099  0.49418586  0.70193187  1
  Ta  Ta112  1  0.31760256  0.90315846  0.90040399  1
  Ta  Ta113  1  0.39829116  0.39245760  -0.00236215  1
  Ta  Ta114  1  0.30029042  0.30063998  0.29599061  1
  Ta  Ta115  1  0.59780720  0.39171361  0.60571459  1
  Ta  Ta116  1  0.89688747  0.50193612  0.49726757  1
  Ta  Ta117  1  0.30110370  0.69948464  0.10152609  1
  Ta  Ta118  1  0.89759474  0.08959075  0.50358064  1
  Ta  Ta119  1  0.20216568  0.60196525  0.39611815  1
  Ta  Ta120  1  0.20653062  0.40463903  0.19686281  1
  Ta  Ta121  1  0.59801401  0.60844435  0.39043672  1
  Ta  Ta122  1  -0.00033755  -0.00505249  0.59558039  1
  Ta  Ta123  1  0.50444065  0.09829086  0.09707433  1
  Ta  Ta124  1  0.60872908  -0.00749078  0.20108318  1
  Ta  Ta125  1  0.59509963  -0.00424467  0.60550554  1
  Ta  Ta126  1  0.40197559  0.19802806  0.79223386  1
  Ta  Ta127  1  0.81156808  0.19619232  0.18902876  1
  Ta  Ta128  1  -0.00645652  0.80635624  0.59411983  1
  Ta  Ta129  1  0.79735044  -0.00990737  0.40622009  1
  Ta  Ta130  1  0.79856280  0.39385459  0.59914008  1
  Ta  Ta131  1  0.69846235  0.90368841  0.69987398  1
  Ta  Ta132  1  0.20753592  0.39542846  0.80052874  1
  Ta  Ta133  1  0.19865995  -0.00237083  0.19970146  1
  Ta  Ta134  1  0.81231597  0.20489362  0.59563837  1
  Ta  Ta135  1  0.29613939  0.50153057  0.29971129  1
  Ta  Ta136  1  0.10701122  0.50488784  0.29499518  1
  Ta  Ta137  1  0.60808782  -0.00488515  0.39678136  1
  Ta  Ta138  1  0.89295818  0.70194311  0.90140715  1
  Ta  Ta139  1  0.00519605  0.19273439  0.59551272  1
  Ta  Ta140  1  0.30101994  0.50925518  0.10104962  1
  Ta  Ta141  1  0.80199870  0.20537627  -0.00021681  1
  Ta  Ta142  1  0.29696675  0.90420894  0.49441432  1
  Ta  Ta143  1  0.39025032  0.19646570  0.60329504  1
  Ta  Ta144  1  0.60740749  0.80820429  -0.00818277  1
  Ta  Ta145  1  0.30239001  0.30011696  0.48866818  1
  Ta  Ta146  1  0.19700549  0.80512645  0.20062178  1
  Ta  Ta147  1  0.50134836  0.89114520  0.70438429  1
  Ta  Ta148  1  0.40226812  0.38806647  0.80394657  1
  Ta  Ta149  1  0.49441012  0.29107019  0.49272617  1
  Ti  Ti150  1  0.10121231  0.50887765  0.11672509  1
  Ti  Ti151  1  0.50026478  0.28488161  0.29472998  1
  Ti  Ti152  1  0.20163743  0.80780792  0.58676193  1
  Ti  Ti153  1  0.80376324  0.40628150  0.19426033  1
  Ti  Ti154  1  0.19722591  0.81269379  0.81217513  1
  Ti  Ti155  1  0.89909174  0.30799273  0.09951362  1
  Ti  Ti156  1  0.10014480  0.49111409  0.88844299  1
  Ti  Ti157  1  -0.00391882  0.80515047  0.00466110  1
  Ti  Ti158  1  0.40188305  0.39544595  0.38938369  1
  Ti  Ti159  1  0.40663562  -0.00195581  0.79521507  1
  Ti  Ti160  1  0.40256331  0.79443144  0.20415935  1
  Ti  Ti161  1  0.19605772  0.59813718  0.79796998  1
  Ti  Ti162  1  0.40423573  0.80283353  -0.00287777  1
  Ti  Ti163  1  0.69917406  0.90549321  0.51005478  1
  Ti  Ti164  1  -0.00899261  0.19748748  0.19476399  1
  Ti  Ti165  1  0.90172777  0.69328251  0.29273190  1
  Ti  Ti166  1  0.40333199  0.00384650  0.60391487  1
  Ti  Ti167  1  0.79392526  0.40422596  0.00234422  1
  Ti  Ti168  1  0.60628847  0.60030070  -0.00568819  1
  Ti  Ti169  1  0.49340992  0.50229314  0.90078964  1
  Ti  Ti170  1  0.39269092  0.79384590  0.39734145  1
  Ti  Ti171  1  0.00760417  -0.00618547  0.41412303  1
  Ti  Ti172  1  0.29981603  0.09290770  0.69587226  1
  Ti  Ti173  1  0.79547696  0.61026508  0.39780456  1
  Ti  Ti174  1  0.60089083  0.19148016  0.19515831  1
  Ti  Ti175  1  0.51062412  0.10026704  0.29947501  1
  Ti  Ti176  1  0.18729863  0.00640071  0.58544669  1
  Ti  Ti177  1  0.60390520  -0.00507263  -0.00367597  1
  Ti  Ti178  1  0.70584729  0.10400335  0.89250209  1
  Ti  Ti179  1  0.00605701  -0.00247049  0.00281488  1
  Ti  Ti180  1  0.09667015  0.70740438  0.90038975  1
  Ti  Ti181  1  0.88823719  0.90655600  0.69685276  1
  Ti  Ti182  1  0.10483523  0.10280295  0.10668380  1
  Ti  Ti183  1  0.79469593  0.80096860  0.00068967  1
  Ti  Ti184  1  0.10949685  0.49731066  0.48947073  1
  Ti  Ti185  1  0.70324606  0.90485643  0.89795699  1
  Ti  Ti186  1  0.50186119  0.29290689  0.70909163  1
  Ti  Ti187  1  0.10639989  0.89897777  0.30701824  1
  Ti  Ti188  1  0.49791225  0.70378853  0.08985446  1
  Ti  Ti189  1  0.39473778  0.79838969  0.60460492  1
  Ti  Ti190  1  0.30119540  0.08604018  0.49313544  1
  Ti  Ti191  1  0.29337903  0.70598705  0.49432584  1
  Ti  Ti192  1  0.90140601  0.30205058  0.28672999  1
  Ti  Ti193  1  0.10566222  0.69565047  0.29618337  1
  Ti  Ti194  1  0.40149634  0.60577332  0.39315732  1
  Ti  Ti195  1  0.20140627  0.59753260  0.59828203  1
  Ti  Ti196  1  0.90152252  0.50654785  0.29544023  1
  Ti  Ti197  1  0.21644274  0.19717155  0.20220716  1
  Ti  Ti198  1  0.60071616  0.79979269  0.60221019  1
  Ti  Ti199  1  0.90309161  0.69451669  0.50168680  1
  Mo  Mo200  1  -0.00655276  0.59879795  0.20638166  1
  Mo  Mo201  1  0.59251209  0.19732615  0.38781646  1
  Mo  Mo202  1  0.39565111  0.00321416  0.40348489  1
  Mo  Mo203  1  0.11007212  0.50207364  0.70832918  1
  Mo  Mo204  1  0.09282248  0.09308154  0.50095950  1
  Mo  Mo205  1  0.80039086  0.20341294  0.81007962  1
  Mo  Mo206  1  0.09705881  0.89609536  0.10407029  1
  Mo  Mo207  1  0.39990001  0.80789916  0.79456028  1
  Mo  Mo208  1  0.69632035  0.89983898  0.09526800  1
  Mo  Mo209  1  0.70892415  0.69457789  0.29880339  1
  Mo  Mo210  1  0.70463660  0.29645357  0.90321877  1
  Mo  Mo211  1  0.90208532  0.90277454  0.49865245  1
  Mo  Mo212  1  0.10152751  0.09745986  0.91881716  1
  Mo  Mo213  1  0.10407805  0.30208154  0.50115791  1
  Mo  Mo214  1  0.78692640  -0.00636972  -0.00340833  1
  Mo  Mo215  1  0.79628978  -0.00860669  0.80207000  1
  Mo  Mo216  1  0.40486473  0.19974888  0.20328583  1
  Mo  Mo217  1  0.89461443  0.70463893  0.09379316  1
  Mo  Mo218  1  0.90354923  0.30232181  0.51167556  1
  Mo  Mo219  1  0.19700329  -0.00415076  0.40227647  1
  Mo  Mo220  1  0.41141170  -0.00250416  -0.00103442  1
  Mo  Mo221  1  0.49775617  0.29711960  0.89577086  1
  Mo  Mo222  1  0.10115582  0.09463769  0.68393436  1
  Mo  Mo223  1  0.20446214  0.60196239  0.20222373  1
  Mo  Mo224  1  0.89444221  0.09430345  0.09832425  1
  Mo  Mo225  1  0.79880044  -0.00083415  0.19659765  1
  Mo  Mo226  1  0.30317427  0.30394587  0.10216659  1
  Mo  Mo227  1  0.49202608  0.50883103  0.30842228  1
  Mo  Mo228  1  0.20414697  0.40269751  0.39263085  1
  Mo  Mo229  1  0.49800531  0.71735626  0.69875658  1
  Mo  Mo230  1  0.00378348  0.40278926  0.80376768  1
  Mo  Mo231  1  0.70422969  0.90736631  0.29747613  1
  Mo  Mo232  1  0.69615235  0.70031913  0.49575842  1
  Mo  Mo233  1  0.40369553  0.20226100  -0.00228598  1
  Mo  Mo234  1  0.10228364  0.89886178  0.49692711  1
  Mo  Mo235  1  0.48972179  0.70467147  0.30444853  1
  Mo  Mo236  1  0.59570756  0.20146912  0.80523549  1
  Mo  Mo237  1  0.80039390  -0.00260096  0.59855819  1
  Mo  Mo238  1  0.70013196  0.70589949  0.90503218  1
  Mo  Mo239  1  0.49944134  0.90317122  0.90031189  1
  Mo  Mo240  1  0.08575695  0.89745762  0.91082031  1
  Mo  Mo241  1  0.48785967  0.09283670  0.70074394  1
  Mo  Mo242  1  0.19948233  0.79636568  0.39633703  1
  Mo  Mo243  1  0.30285972  0.29342807  0.70557444  1
  Mo  Mo244  1  0.70647810  0.50086538  0.09838128  1
  Mo  Mo245  1  0.60018553  0.80985651  0.80370909  1
  Mo  Mo246  1  0.39772519  0.61064766  0.00262273  1
  Mo  Mo247  1  0.69901225  0.49873444  0.89948275  1
  Mo  Mo248  1  0.29116520  0.09901482  0.29734257  1
  Mo  Mo249  1  0.80063796  0.60205455  0.80338094  1
