# generated using pymatgen
data_HfZrTaTiMo
_symmetry_space_group_name_H-M   'P 1'
_cell_length_a   16.88786677
_cell_length_b   16.87431492
_cell_length_c   16.88686830
_cell_angle_alpha   90.01493095
_cell_angle_beta   90.09503923
_cell_angle_gamma   90.07412627
_symmetry_Int_Tables_number   1
_chemical_formula_structural   HfZrTaTiMo
_chemical_formula_sum   'Hf50 Zr50 Ta50 Ti50 Mo50'
_cell_volume   4812.26000866
_cell_formula_units_Z   50
loop_
 _symmetry_equiv_pos_site_id
 _symmetry_equiv_pos_as_xyz
  1  'x, y, z'
loop_
 _atom_site_type_symbol
 _atom_site_label
 _atom_site_symmetry_multiplicity
 _atom_site_fract_x
 _atom_site_fract_y
 _atom_site_fract_z
 _atom_site_occupancy
  Hf  Hf0  1  0.47627771  0.90329437  0.68079084  1
  Hf  Hf1  1  0.29629667  0.69324939  0.49860091  1
  Hf  Hf2  1  0.10379660  0.29917391  0.29531144  1
  Hf  Hf3  1  0.39559767  0.79502618  0.80183976  1
  Hf  Hf4  1  0.59412876  0.39228206  0.59134644  1
  Hf  Hf5  1  0.71259455  0.90717962  0.50691092  1
  Hf  Hf6  1  0.69993110  0.50158266  0.70507634  1
  Hf  Hf7  1  -0.00185161  0.40377340  0.40126505  1
  Hf  Hf8  1  0.58607603  -0.00549652  -0.00581161  1
  Hf  Hf9  1  0.20491244  0.59931352  0.20095091  1
  Hf  Hf10  1  0.69352360  0.10510160  0.09657616  1
  Hf  Hf11  1  0.69248669  0.49590690  0.28600054  1
  Hf  Hf12  1  -0.00287071  0.20448973  0.01287017  1
  Hf  Hf13  1  0.01058559  0.60942388  0.19222817  1
  Hf  Hf14  1  0.50126783  0.30015784  0.91231888  1
  Hf  Hf15  1  0.58779399  0.00270948  0.19932198  1
  Hf  Hf16  1  0.49182659  0.70171060  0.50089445  1
  Hf  Hf17  1  0.59974578  0.20551730  0.80291738  1
  Hf  Hf18  1  0.80590825  0.80555199  0.19263892  1
  Hf  Hf19  1  -0.00204838  0.40392958  0.79840502  1
  Hf  Hf20  1  0.00643519  0.79582411  0.59963869  1
  Hf  Hf21  1  0.59271282  0.20254615  0.59404043  1
  Hf  Hf22  1  0.90656608  0.89645170  0.88738128  1
  Hf  Hf23  1  0.11424742  0.50815981  0.90392676  1
  Hf  Hf24  1  -0.00333221  0.20260689  0.19570327  1
  Hf  Hf25  1  0.90035834  0.90636536  0.69358862  1
  Hf  Hf26  1  0.80508808  0.60184287  0.40178130  1
  Hf  Hf27  1  0.69892335  0.10277571  0.29625474  1
  Hf  Hf28  1  -0.00321222  0.40103791  0.00339242  1
  Hf  Hf29  1  0.30163657  0.09798316  0.70101217  1
  Hf  Hf30  1  0.58907971  0.20580379  0.39940992  1
  Hf  Hf31  1  0.19126124  0.79284089  0.20626918  1
  Hf  Hf32  1  0.49670080  0.49341186  0.70187557  1
  Hf  Hf33  1  0.70527389  0.30164465  0.70457160  1
  Hf  Hf34  1  0.49622812  0.10472255  0.90325725  1
  Hf  Hf35  1  0.70194266  0.90489616  0.30032094  1
  Hf  Hf36  1  0.80721418  0.80074824  0.40343420  1
  Hf  Hf37  1  0.10661919  0.30529384  0.50239432  1
  Hf  Hf38  1  0.69461299  0.49781330  0.09867444  1
  Hf  Hf39  1  0.29991187  0.49668155  0.91180489  1
  Hf  Hf40  1  0.59656842  0.80028312  0.20008178  1
  Hf  Hf41  1  0.59112833  0.81466616  0.79795056  1
  Hf  Hf42  1  0.28994325  0.69029584  0.90539052  1
  Hf  Hf43  1  0.59871696  0.80383848  0.60001143  1
  Hf  Hf44  1  0.39545999  0.80538701  0.40158882  1
  Hf  Hf45  1  0.81273468  0.00003313  0.00957434  1
  Hf  Hf46  1  0.00549825  0.60360924  0.00335909  1
  Hf  Hf47  1  0.31143221  0.70200845  0.10036764  1
  Hf  Hf48  1  0.78626182  -0.00441056  0.79542067  1
  Hf  Hf49  1  0.00292083  0.60616752  0.60329616  1
  Zr  Zr50  1  0.39937694  0.21579695  0.20721367  1
  Zr  Zr51  1  0.90115710  0.50154916  0.28915545  1
  Zr  Zr52  1  -0.00723932  0.19526901  0.39221940  1
  Zr  Zr53  1  0.11145557  0.10139342  0.10432596  1
  Zr  Zr54  1  0.70207067  0.49659900  0.49773384  1
  Zr  Zr55  1  0.11841484  0.50449388  0.69758810  1
  Zr  Zr56  1  0.18915314  0.79759629  0.00723582  1
  Zr  Zr57  1  0.90974358  0.70546246  0.29568618  1
  Zr  Zr58  1  0.00390459  0.80164044  0.01214570  1
  Zr  Zr59  1  0.89197710  0.29537265  0.89118559  1
  Zr  Zr60  1  0.19558295  0.00315400  0.59573404  1
  Zr  Zr61  1  0.80083478  0.40038514  0.39661592  1
  Zr  Zr62  1  0.59208423  0.59214148  0.39873481  1
  Zr  Zr63  1  -0.00361212  0.40207813  0.60788305  1
  Zr  Zr64  1  0.49243589  0.69500121  0.29811658  1
  Zr  Zr65  1  0.80722980  0.20152626  0.19399351  1
  Zr  Zr66  1  0.69531452  0.50712169  0.90600102  1
  Zr  Zr67  1  0.00536552  0.20418994  0.59880112  1
  Zr  Zr68  1  0.10257027  0.50014152  0.29821237  1
  Zr  Zr69  1  0.90010808  0.09702461  0.50594889  1
  Zr  Zr70  1  0.10320434  0.29171508  0.89591119  1
  Zr  Zr71  1  0.10085464  0.10555761  0.71388278  1
  Zr  Zr72  1  0.09906355  0.90179928  0.30514572  1
  Zr  Zr73  1  0.81430399  0.00785853  0.39274427  1
  Zr  Zr74  1  0.59724393  0.59652748  0.59769695  1
  Zr  Zr75  1  0.59036908  -0.00026761  0.40659106  1
  Zr  Zr76  1  0.40043567  0.59169007  0.80313011  1
  Zr  Zr77  1  0.90617863  0.10577936  0.88981233  1
  Zr  Zr78  1  0.00712231  0.61207596  0.79990283  1
  Zr  Zr79  1  0.49961516  0.69548579  0.09978347  1
  Zr  Zr80  1  0.21389357  0.39401846  0.80330434  1
  Zr  Zr81  1  -0.01172200  0.00367292  0.19382425  1
  Zr  Zr82  1  0.47880092  0.89103466  0.10233392  1
  Zr  Zr83  1  0.31212258  0.90096392  0.51693810  1
  Zr  Zr84  1  0.50904924  0.49828150  0.09877568  1
  Zr  Zr85  1  0.69923734  0.10902638  0.90266947  1
  Zr  Zr86  1  0.70277401  0.10071913  0.69449225  1
  Zr  Zr87  1  0.89367444  0.70376843  0.89928771  1
  Zr  Zr88  1  0.20061273  -0.00749556  0.00247303  1
  Zr  Zr89  1  0.78112539  0.79924065  0.79270178  1
  Zr  Zr90  1  0.31316203  0.30767592  0.49998679  1
  Zr  Zr91  1  0.69920042  0.90244409  0.09866468  1
  Zr  Zr92  1  0.09564250  0.90180874  0.70968818  1
  Zr  Zr93  1  0.47737149  0.48342842  0.48466895  1
  Zr  Zr94  1  0.69535029  0.69852916  0.29837836  1
  Zr  Zr95  1  0.00488454  -0.00423589  0.00432313  1
  Zr  Zr96  1  0.20883601  0.40096705  0.39541693  1
  Zr  Zr97  1  0.90330831  0.10111135  0.70301118  1
  Zr  Zr98  1  0.39955720  -0.00391106  0.80986959  1
  Zr  Zr99  1  0.59573492  0.00044262  0.59998506  1
  Ta  Ta100  1  0.70758463  0.10675813  0.49930948  1
  Ta  Ta101  1  0.49086944  0.10435076  0.09991966  1
  Ta  Ta102  1  0.79999025  0.60380069  0.18994970  1
  Ta  Ta103  1  0.29195016  0.89182764  0.70418257  1
  Ta  Ta104  1  0.30579285  0.09701418  0.10606340  1
  Ta  Ta105  1  0.21107694  0.39647529  0.19654801  1
  Ta  Ta106  1  0.80377123  0.60625961  0.60414066  1
  Ta  Ta107  1  0.80374256  0.40164525  0.60254175  1
  Ta  Ta108  1  0.11018811  0.69802381  0.49607463  1
  Ta  Ta109  1  0.39734797  0.00142332  0.40079390  1
  Ta  Ta110  1  0.29307427  0.69065595  0.69665897  1
  Ta  Ta111  1  0.20676151  -0.00003945  0.40005356  1
  Ta  Ta112  1  0.48805180  0.10189689  0.29765921  1
  Ta  Ta113  1  0.49829332  0.69918482  0.90452470  1
  Ta  Ta114  1  0.20672170  0.20429266  0.19966208  1
  Ta  Ta115  1  0.19733878  0.79433371  0.60317183  1
  Ta  Ta116  1  0.49530191  0.10205379  0.70468265  1
  Ta  Ta117  1  0.39707861  0.59431858  0.59787257  1
  Ta  Ta118  1  0.39095137  -0.00306439  0.00017686  1
  Ta  Ta119  1  0.69462204  0.30659347  0.29103125  1
  Ta  Ta120  1  0.30172583  0.49431016  0.69054303  1
  Ta  Ta121  1  0.10918221  0.50476240  0.50475516  1
  Ta  Ta122  1  0.20760599  0.19815959  0.39567108  1
  Ta  Ta123  1  0.00509100  0.60347712  0.40580031  1
  Ta  Ta124  1  0.90331019  0.50434265  0.50710433  1
  Ta  Ta125  1  0.59703395  0.39963407  0.81049824  1
  Ta  Ta126  1  0.10548313  0.09604990  0.30274464  1
  Ta  Ta127  1  0.40265129  0.20349171  0.60044641  1
  Ta  Ta128  1  0.89391250  0.30319688  0.50062342  1
  Ta  Ta129  1  0.39446087  0.20668781  0.80127766  1
  Ta  Ta130  1  0.49278048  0.30185216  0.70234384  1
  Ta  Ta131  1  0.20647321  0.20187950  0.59679243  1
  Ta  Ta132  1  0.29556229  0.88962505  0.90076978  1
  Ta  Ta133  1  0.11323422  0.29661463  0.70260774  1
  Ta  Ta134  1  0.69493730  0.69397899  0.09261459  1
  Ta  Ta135  1  0.48731829  0.90244708  0.29809819  1
  Ta  Ta136  1  0.70214040  0.29935765  0.49359229  1
  Ta  Ta137  1  0.90894246  0.90168536  0.29898749  1
  Ta  Ta138  1  0.79583468  0.39369483  0.00353886  1
  Ta  Ta139  1  0.00367746  0.39428687  0.18409461  1
  Ta  Ta140  1  0.70184781  0.70308942  0.50225240  1
  Ta  Ta141  1  0.49320584  0.69757898  0.69936069  1
  Ta  Ta142  1  0.00693036  0.79671833  0.40336737  1
  Ta  Ta143  1  0.31661954  0.49589569  0.30285633  1
  Ta  Ta144  1  0.80147009  0.20486574  0.39316120  1
  Ta  Ta145  1  0.30043653  0.09777952  0.29885598  1
  Ta  Ta146  1  0.30422386  0.10557450  0.49633314  1
  Ta  Ta147  1  0.20874814  0.20304399  0.00588956  1
  Ta  Ta148  1  0.59490979  0.80113319  -0.00723102  1
  Ta  Ta149  1  0.10446767  0.10462592  0.89578325  1
  Ti  Ti150  1  0.20058308  0.39153449  0.01011495  1
  Ti  Ti151  1  0.79583943  0.40046707  0.80543229  1
  Ti  Ti152  1  0.69277451  0.90433490  0.90065357  1
  Ti  Ti153  1  0.80010256  0.20686152  0.59583804  1
  Ti  Ti154  1  0.30458469  0.29623610  0.90778745  1
  Ti  Ti155  1  0.89614345  0.30996149  0.29142674  1
  Ti  Ti156  1  0.90052897  0.70910752  0.70563565  1
  Ti  Ti157  1  0.89163371  0.50478582  0.70420069  1
  Ti  Ti158  1  0.79616801  0.80383955  0.00032949  1
  Ti  Ti159  1  0.18808808  0.78426027  0.79935230  1
  Ti  Ti160  1  0.30572048  0.30508528  0.09999247  1
  Ti  Ti161  1  0.69155599  0.69835551  0.90638910  1
  Ti  Ti162  1  0.30185519  0.69676686  0.30658792  1
  Ti  Ti163  1  0.40986252  0.37116499  0.37336902  1
  Ti  Ti164  1  0.50864512  0.30507151  0.10050998  1
  Ti  Ti165  1  0.80132076  0.60223385  0.00299104  1
  Ti  Ti166  1  0.40608161  0.40143439  0.00433228  1
  Ti  Ti167  1  0.89819224  0.70363357  0.09925001  1
  Ti  Ti168  1  0.20289257  -0.00190607  0.80865648  1
  Ti  Ti169  1  0.20174858  0.59892552  0.39465369  1
  Ti  Ti170  1  0.89692140  0.29326171  0.70564455  1
  Ti  Ti171  1  0.79728532  0.60635803  0.79824424  1
  Ti  Ti172  1  0.79622226  0.20964885  0.00430544  1
  Ti  Ti173  1  0.20285654  -0.00349136  0.20043685  1
  Ti  Ti174  1  0.10422324  0.09912494  0.48911285  1
  Ti  Ti175  1  0.29889303  0.49849201  0.50208524  1
  Ti  Ti176  1  0.40257984  0.39623911  0.80581823  1
  Ti  Ti177  1  0.30186193  0.89572251  0.10621226  1
  Ti  Ti178  1  0.40745540  0.59453349  -0.00246958  1
  Ti  Ti179  1  0.90081942  0.70082166  0.50375638  1
  Ti  Ti180  1  0.59188030  0.60133304  0.80709233  1
  Ti  Ti181  1  0.00855527  -0.00068793  0.59133938  1
  Ti  Ti182  1  0.30005400  0.90124475  0.29763500  1
  Ti  Ti183  1  0.30191821  0.30127605  0.69548966  1
  Ti  Ti184  1  0.69127750  0.69567397  0.69798536  1
  Ti  Ti185  1  0.59518188  0.80789491  0.40618276  1
  Ti  Ti186  1  0.79769858  0.79753957  0.60421307  1
  Ti  Ti187  1  0.50330932  0.48601066  0.28869722  1
  Ti  Ti188  1  0.90839007  0.90389670  0.49959398  1
  Ti  Ti189  1  0.09755402  0.89605692  0.89009716  1
  Ti  Ti190  1  0.11193045  0.49903056  0.09666482  1
  Ti  Ti191  1  0.39589477  0.19904672  0.00626193  1
  Ti  Ti192  1  0.40107393  0.59279820  0.20478189  1
  Ti  Ti193  1  0.89171207  0.49695087  0.10193026  1
  Ti  Ti194  1  0.30694398  0.49681114  0.10175039  1
  Ti  Ti195  1  0.48620709  0.10048989  0.50073782  1
  Ti  Ti196  1  0.10677416  0.89533540  0.49302190  1
  Ti  Ti197  1  0.89256016  0.50342807  0.90022143  1
  Ti  Ti198  1  0.29475377  0.10544244  0.90318149  1
  Ti  Ti199  1  0.59637965  0.20505800  0.19588468  1
  Mo  Mo200  1  0.40007975  0.19488707  0.39874075  1
  Mo  Mo201  1  0.59538214  0.20035623  0.00974489  1
  Mo  Mo202  1  0.69837818  0.30443388  0.90504326  1
  Mo  Mo203  1  0.29791256  0.29911051  0.29666711  1
  Mo  Mo204  1  0.39670323  0.01681238  0.59787440  1
  Mo  Mo205  1  0.10339577  0.69798584  0.89810482  1
  Mo  Mo206  1  0.10504313  0.70009005  0.31237665  1
  Mo  Mo207  1  0.20668167  0.39723870  0.59976002  1
  Mo  Mo208  1  0.79742739  0.20535784  0.79605656  1
  Mo  Mo209  1  0.20061063  0.80191662  0.40351673  1
  Mo  Mo210  1  0.00777897  -0.00000340  0.80812809  1
  Mo  Mo211  1  0.00242171  0.80126256  0.19989424  1
  Mo  Mo212  1  0.20551481  0.60106521  0.79673126  1
  Mo  Mo213  1  0.49112427  0.89589298  0.90495209  1
  Mo  Mo214  1  0.40128831  0.40134211  0.19498388  1
  Mo  Mo215  1  0.59428933  -0.00235809  0.79829058  1
  Mo  Mo216  1  0.59680493  0.38982964  0.39167630  1
  Mo  Mo217  1  0.59926834  0.60757788  -0.00656596  1
  Mo  Mo218  1  0.80220361  0.39916165  0.19123188  1
  Mo  Mo219  1  0.00936048  -0.00420526  0.40366478  1
  Mo  Mo220  1  0.60161715  0.59769430  0.19615702  1
  Mo  Mo221  1  0.80290250  -0.00165312  0.59717812  1
  Mo  Mo222  1  0.00864177  0.79789725  0.79843384  1
  Mo  Mo223  1  0.39231101  0.59462444  0.39676384  1
  Mo  Mo224  1  0.49972541  0.49594981  0.90278464  1
  Mo  Mo225  1  0.89216612  0.10570995  0.09586222  1
  Mo  Mo226  1  0.59905145  0.39132235  0.19490388  1
  Mo  Mo227  1  0.89944974  0.89409554  0.10346477  1
  Mo  Mo228  1  0.69770253  0.90104372  0.69604742  1
  Mo  Mo229  1  0.39856703  0.39736624  0.60917296  1
  Mo  Mo230  1  0.20233283  0.59581245  0.01314766  1
  Mo  Mo231  1  0.10763332  0.70131565  0.69624120  1
  Mo  Mo232  1  0.20376262  0.59757342  0.59455302  1
  Mo  Mo233  1  0.49677622  0.89947756  0.49358936  1
  Mo  Mo234  1  0.49730626  0.29598185  0.49678191  1
  Mo  Mo235  1  0.39564688  0.80197280  -0.00819862  1
  Mo  Mo236  1  0.51080322  0.29879444  0.29261929  1
  Mo  Mo237  1  0.10535409  0.69408315  0.10041606  1
  Mo  Mo238  1  0.09863320  0.89610753  0.11575135  1
  Mo  Mo239  1  0.11247879  0.30431899  0.10036821  1
  Mo  Mo240  1  0.00655659  0.20537753  0.79699741  1
  Mo  Mo241  1  0.21442538  0.19994923  0.80553244  1
  Mo  Mo242  1  0.80752637  0.00268267  0.20034400  1
  Mo  Mo243  1  0.39275373  0.78365676  0.60650635  1
  Mo  Mo244  1  0.39081980  0.00163930  0.20212830  1
  Mo  Mo245  1  0.69353443  0.30156003  0.09732913  1
  Mo  Mo246  1  0.38698244  0.80216390  0.21241539  1
  Mo  Mo247  1  0.90340229  0.09950560  0.29717237  1
  Mo  Mo248  1  0.89197240  0.30794946  0.09731407  1
  Mo  Mo249  1  0.60543210  0.39027735  -0.00076337  1
