# generated using pymatgen
data_HfZrTaTiMo
_symmetry_space_group_name_H-M   'P 1'
_cell_length_a   16.87960279
_cell_length_b   16.87820778
_cell_length_c   16.89147175
_cell_angle_alpha   89.96866707
_cell_angle_beta   89.96913169
_cell_angle_gamma   89.98554015
_symmetry_Int_Tables_number   1
_chemical_formula_structural   HfZrTaTiMo
_chemical_formula_sum   'Hf50 Zr50 Ta50 Ti50 Mo50'
_cell_volume   4812.33554224
_cell_formula_units_Z   50
loop_
 _symmetry_equiv_pos_site_id
 _symmetry_equiv_pos_as_xyz
  1  'x, y, z'
loop_
 _atom_site_type_symbol
 _atom_site_label
 _atom_site_symmetry_multiplicity
 _atom_site_fract_x
 _atom_site_fract_y
 _atom_site_fract_z
 _atom_site_occupancy
  Hf  Hf0  1  0.80544442  0.61490039  0.40074568  1
  Hf  Hf1  1  0.60594151  0.21853310  0.78850816  1
  Hf  Hf2  1  0.80745224  0.60463224  0.00372418  1
  Hf  Hf3  1  0.68954217  0.50296635  0.90655610  1
  Hf  Hf4  1  0.58171941  0.60778818  0.00841426  1
  Hf  Hf5  1  0.59708763  0.80017546  0.79337060  1
  Hf  Hf6  1  0.89286873  0.29531369  0.89106227  1
  Hf  Hf7  1  0.00514884  0.79986016  0.79819694  1
  Hf  Hf8  1  0.39983595  0.59748374  0.79756550  1
  Hf  Hf9  1  0.79505837  0.60535774  0.79986895  1
  Hf  Hf10  1  0.69679331  0.10264354  0.50241600  1
  Hf  Hf11  1  0.30150009  0.50207494  0.09389924  1
  Hf  Hf12  1  0.89690810  0.50317711  0.70142735  1
  Hf  Hf13  1  0.90431530  0.09124104  0.11013138  1
  Hf  Hf14  1  0.90653476  0.89455051  0.09954061  1
  Hf  Hf15  1  0.51320868  0.69107123  0.50620096  1
  Hf  Hf16  1  0.59039463  -0.01054521  0.59851381  1
  Hf  Hf17  1  0.40335165  0.79739327  0.59607600  1
  Hf  Hf18  1  -0.00146400  0.18850005  -0.01353408  1
  Hf  Hf19  1  0.70174104  0.31033008  0.10038567  1
  Hf  Hf20  1  -0.00295340  -0.00173304  0.79081782  1
  Hf  Hf21  1  0.09657983  0.89872211  0.09903505  1
  Hf  Hf22  1  0.58857345  0.20600301  0.20130548  1
  Hf  Hf23  1  0.10129387  0.50485684  0.10279111  1
  Hf  Hf24  1  0.38933286  0.40087370  0.41526091  1
  Hf  Hf25  1  0.09383206  0.70291658  0.10197048  1
  Hf  Hf26  1  0.70954033  0.09365514  0.88447340  1
  Hf  Hf27  1  0.20431247  0.39122169  0.40029466  1
  Hf  Hf28  1  0.29461705  0.89901754  0.10779005  1
  Hf  Hf29  1  0.10596666  0.50371708  0.69797142  1
  Hf  Hf30  1  0.70712278  0.89689362  0.89570801  1
  Hf  Hf31  1  0.11272064  0.28809892  0.69708864  1
  Hf  Hf32  1  0.91751825  0.51380460  0.30533858  1
  Hf  Hf33  1  0.70228645  0.09149878  0.10822917  1
  Hf  Hf34  1  0.40105867  -0.00105285  0.40950141  1
  Hf  Hf35  1  0.00695461  0.39772098  0.20188577  1
  Hf  Hf36  1  0.49569493  0.31213188  0.90574607  1
  Hf  Hf37  1  0.40948338  0.59346547  0.40158361  1
  Hf  Hf38  1  0.70836829  0.89550080  0.09867265  1
  Hf  Hf39  1  0.80691953  0.41054251  0.20162396  1
  Hf  Hf40  1  0.10155708  0.70476518  0.50407025  1
  Hf  Hf41  1  0.69573139  0.29563237  0.50388462  1
  Hf  Hf42  1  0.10408093  0.29258336  0.09579556  1
  Hf  Hf43  1  0.20206011  0.79761016  0.79294617  1
  Hf  Hf44  1  -0.00292432  0.60678363  0.60289581  1
  Hf  Hf45  1  0.39798533  0.40909873  0.80021285  1
  Hf  Hf46  1  0.59858471  -0.00815536  -0.00156719  1
  Hf  Hf47  1  0.81255638  -0.01073188  0.59751479  1
  Hf  Hf48  1  0.20386991  0.19673560  0.40331041  1
  Hf  Hf49  1  0.59729408  0.40825920  0.61093914  1
  Zr  Zr50  1  0.89134614  0.89734337  0.89611611  1
  Zr  Zr51  1  0.77942466  0.40065483  0.78499165  1
  Zr  Zr52  1  0.10152563  0.09252330  0.50133755  1
  Zr  Zr53  1  0.89965340  0.49799031  0.49784110  1
  Zr  Zr54  1  0.70732084  0.10680471  0.69249244  1
  Zr  Zr55  1  0.30178963  0.70217735  0.10209509  1
  Zr  Zr56  1  0.10128792  0.51141274  0.48906151  1
  Zr  Zr57  1  0.80364717  0.80265405  0.40173151  1
  Zr  Zr58  1  0.39617933  0.20473869  0.00368656  1
  Zr  Zr59  1  0.19170956  0.79403661  -0.01209022  1
  Zr  Zr60  1  0.70055091  0.31279143  0.90990363  1
  Zr  Zr61  1  0.40174559  0.39185616  0.20232270  1
  Zr  Zr62  1  0.59829776  0.20152592  0.00366543  1
  Zr  Zr63  1  0.89780494  0.29806739  0.30557036  1
  Zr  Zr64  1  0.70084383  0.71001035  0.90332248  1
  Zr  Zr65  1  0.59220165  0.79878558  0.20288174  1
  Zr  Zr66  1  0.20537672  0.39967573  -0.00885986  1
  Zr  Zr67  1  0.49636515  0.11562641  0.50001152  1
  Zr  Zr68  1  0.69809737  0.50857167  0.30098012  1
  Zr  Zr69  1  0.88557877  0.28583869  0.69327379  1
  Zr  Zr70  1  0.29767320  0.89893523  0.30226264  1
  Zr  Zr71  1  0.69384621  0.10342988  0.30523423  1
  Zr  Zr72  1  0.57894043  0.41877059  0.40134126  1
  Zr  Zr73  1  0.49727832  0.09528145  0.10795797  1
  Zr  Zr74  1  0.80288433  0.18987011  -0.00210133  1
  Zr  Zr75  1  0.70055808  0.50147461  0.09938282  1
  Zr  Zr76  1  0.10228750  0.09246721  0.09660952  1
  Zr  Zr77  1  0.30183070  0.90249328  0.89446302  1
  Zr  Zr78  1  0.20683401  -0.00121196  0.59723613  1
  Zr  Zr79  1  0.90135345  0.29697097  0.09947020  1
  Zr  Zr80  1  0.80428714  0.79990308  0.59366518  1
  Zr  Zr81  1  0.69634641  0.30276145  0.30824669  1
  Zr  Zr82  1  0.29158293  0.09569535  0.10474464  1
  Zr  Zr83  1  0.50421946  0.09755937  0.89052652  1
  Zr  Zr84  1  0.40832312  0.79055271  -0.00260569  1
  Zr  Zr85  1  0.00115468  0.60749743  -0.01158416  1
  Zr  Zr86  1  0.70284013  0.70560398  0.10523135  1
  Zr  Zr87  1  0.10731959  0.28847772  0.88627547  1
  Zr  Zr88  1  -0.00042122  0.39351344  0.79465052  1
  Zr  Zr89  1  0.29765605  0.50262792  0.29865771  1
  Zr  Zr90  1  0.69136558  0.51399953  0.50048032  1
  Zr  Zr91  1  0.21421021  0.40382363  0.58724758  1
  Zr  Zr92  1  0.20526795  0.79813917  0.40778374  1
  Zr  Zr93  1  0.90035413  0.09784125  0.30759798  1
  Zr  Zr94  1  0.49157925  0.28258416  0.32053989  1
  Zr  Zr95  1  0.40159126  0.19898883  0.79529229  1
  Zr  Zr96  1  0.39844220  -0.00106391  -0.00325697  1
  Zr  Zr97  1  0.09953580  0.50054804  0.89041638  1
  Zr  Zr98  1  0.59138527  -0.00634774  0.39456459  1
  Zr  Zr99  1  0.00267640  0.39430902  0.59523282  1
  Ta  Ta100  1  0.40064938  0.79545347  0.79215667  1
  Ta  Ta101  1  0.00761277  0.39012738  0.40119424  1
  Ta  Ta102  1  0.00666208  -0.00302870  0.21407891  1
  Ta  Ta103  1  0.29347365  0.09950390  0.88798315  1
  Ta  Ta104  1  0.69361285  0.70049027  0.69591596  1
  Ta  Ta105  1  0.89375785  0.49351208  0.89964528  1
  Ta  Ta106  1  0.68908990  0.89281287  0.50128959  1
  Ta  Ta107  1  0.30614055  0.90124556  0.69464527  1
  Ta  Ta108  1  0.29747629  0.29800456  0.10136521  1
  Ta  Ta109  1  0.09415389  0.69117147  0.30623487  1
  Ta  Ta110  1  0.30029566  0.29586645  0.69573363  1
  Ta  Ta111  1  0.19584459  0.79296284  0.21278813  1
  Ta  Ta112  1  0.20868055  0.60544617  0.79495678  1
  Ta  Ta113  1  0.79698143  0.60675178  0.60193202  1
  Ta  Ta114  1  0.90327107  0.09863849  0.50231267  1
  Ta  Ta115  1  0.20131937  0.20040579  0.21071824  1
  Ta  Ta116  1  0.01305783  0.19147449  0.21198579  1
  Ta  Ta117  1  0.50454746  0.69155810  0.69615145  1
  Ta  Ta118  1  0.80147309  -0.00947299  0.21172604  1
  Ta  Ta119  1  0.58582130  0.59878124  0.20302158  1
  Ta  Ta120  1  0.20072579  0.39388078  0.20419489  1
  Ta  Ta121  1  0.90469393  0.89997686  0.30339826  1
  Ta  Ta122  1  0.10189508  0.70185232  0.69580387  1
  Ta  Ta123  1  0.21190980  0.60680582  0.60400893  1
  Ta  Ta124  1  0.30092774  0.09880174  0.30970657  1
  Ta  Ta125  1  0.40250016  -0.00072282  0.78583630  1
  Ta  Ta126  1  0.58933153  0.41532863  0.79390509  1
  Ta  Ta127  1  -0.00119368  0.19259248  0.59860054  1
  Ta  Ta128  1  0.81177629  0.61163004  0.20407903  1
  Ta  Ta129  1  0.40211313  0.79369064  0.40234884  1
  Ta  Ta130  1  -0.00297584  0.39924726  -0.00319915  1
  Ta  Ta131  1  0.20290107  0.60336214  -0.01209996  1
  Ta  Ta132  1  0.89571151  0.29276408  0.50026021  1
  Ta  Ta133  1  0.50000144  0.89762883  0.88954757  1
  Ta  Ta134  1  0.69250019  0.69933875  0.30334258  1
  Ta  Ta135  1  0.20099044  0.60525860  0.20469707  1
  Ta  Ta136  1  0.10123833  0.50634072  0.30132935  1
  Ta  Ta137  1  0.40258919  0.00078284  0.21196864  1
  Ta  Ta138  1  0.49649983  0.29822082  0.51108237  1
  Ta  Ta139  1  0.49050866  0.89500823  0.10874459  1
  Ta  Ta140  1  0.10132345  0.10319792  0.69880569  1
  Ta  Ta141  1  0.19998528  -0.00152223  0.79097117  1
  Ta  Ta142  1  0.90847166  0.70970962  0.10353086  1
  Ta  Ta143  1  0.89731177  0.70729548  0.70309597  1
  Ta  Ta144  1  0.80155561  -0.00924503  0.40614546  1
  Ta  Ta145  1  0.59811411  -0.00671733  0.78760963  1
  Ta  Ta146  1  0.00014046  0.80223447  0.40162877  1
  Ta  Ta147  1  0.00503317  0.20010911  0.40369691  1
  Ta  Ta148  1  0.40240820  0.60982009  0.20108497  1
  Ta  Ta149  1  0.58463305  0.40408670  0.19890861  1
  Ti  Ti150  1  0.30170799  0.10411555  0.68950271  1
  Ti  Ti151  1  0.00382131  0.80061784  0.21510076  1
  Ti  Ti152  1  0.21344552  0.40830862  0.79643215  1
  Ti  Ti153  1  0.30861127  0.69067527  0.50434835  1
  Ti  Ti154  1  0.21058270  0.60550324  0.39973158  1
  Ti  Ti155  1  0.31254278  0.27833527  0.51437204  1
  Ti  Ti156  1  0.79971923  0.19860839  0.20317560  1
  Ti  Ti157  1  0.68895931  0.70261386  0.50232195  1
  Ti  Ti158  1  0.91003287  0.70369149  0.49921139  1
  Ti  Ti159  1  0.09594454  0.90115910  0.90031635  1
  Ti  Ti160  1  0.80671785  0.79746240  0.21052651  1
  Ti  Ti161  1  0.10463192  0.10022743  0.88353435  1
  Ti  Ti162  1  0.59302972  0.80156288  0.40125941  1
  Ti  Ti163  1  0.50106467  0.10435340  0.68962567  1
  Ti  Ti164  1  0.20418709  0.19426455  -0.00680603  1
  Ti  Ti165  1  0.00123602  -0.00376019  0.40238595  1
  Ti  Ti166  1  -0.00605862  0.81228353  0.60008807  1
  Ti  Ti167  1  -0.00013903  0.60839102  0.80107804  1
  Ti  Ti168  1  0.80790520  0.00284571  -0.00228515  1
  Ti  Ti169  1  0.30462803  0.69503066  0.89722913  1
  Ti  Ti170  1  0.80162309  0.19632574  0.40561890  1
  Ti  Ti171  1  0.19557331  0.00091190  -0.01220613  1
  Ti  Ti172  1  0.59362167  -0.00566790  0.20793311  1
  Ti  Ti173  1  0.50095782  0.69480561  0.89217161  1
  Ti  Ti174  1  -0.00318349  0.00378813  -0.01261311  1
  Ti  Ti175  1  0.09837799  0.90244733  0.50252895  1
  Ti  Ti176  1  0.49774886  0.70064314  0.30163358  1
  Ti  Ti177  1  0.80196974  0.40349930  0.40240888  1
  Ti  Ti178  1  0.19190413  0.00481862  0.21706406  1
  Ti  Ti179  1  0.70066224  0.89515687  0.30252928  1
  Ti  Ti180  1  0.30525355  0.90382662  0.50375944  1
  Ti  Ti181  1  0.10060802  0.90156951  0.68859909  1
  Ti  Ti182  1  0.31032019  0.50244425  0.68706175  1
  Ti  Ti183  1  0.48971032  0.30408932  0.69052388  1
  Ti  Ti184  1  0.10170354  0.29030428  0.50590799  1
  Ti  Ti185  1  0.90993663  0.50758755  0.09959325  1
  Ti  Ti186  1  0.10223385  0.90122342  0.31104043  1
  Ti  Ti187  1  0.70791259  0.89510750  0.70052007  1
  Ti  Ti188  1  0.89785985  0.10044205  0.70094330  1
  Ti  Ti189  1  0.57810672  0.40684502  0.01132340  1
  Ti  Ti190  1  0.10254980  0.29691021  0.30248955  1
  Ti  Ti191  1  0.29838793  0.29711014  0.89455713  1
  Ti  Ti192  1  0.79062444  0.40500299  0.59992786  1
  Ti  Ti193  1  0.39264451  0.19717864  0.20779421  1
  Ti  Ti194  1  0.49054086  0.89189894  0.29976933  1
  Ti  Ti195  1  0.89713315  0.71376275  0.90140958  1
  Ti  Ti196  1  0.49530297  0.89571569  0.69474794  1
  Ti  Ti197  1  0.59025785  0.80082146  0.00229931  1
  Ti  Ti198  1  0.20970317  0.79708213  0.60276719  1
  Ti  Ti199  1  0.48275420  0.50329278  0.09735973  1
  Mo  Mo200  1  0.40163232  -0.00180347  0.60398827  1
  Mo  Mo201  1  0.80081182  -0.00616351  0.78665037  1
  Mo  Mo202  1  0.49465296  0.70188558  0.10486817  1
  Mo  Mo203  1  0.69555222  0.51279771  0.69945010  1
  Mo  Mo204  1  0.38975829  0.19594029  0.40706257  1
  Mo  Mo205  1  -0.00246063  0.18756607  0.79210413  1
  Mo  Mo206  1  0.40276370  0.59645581  0.60124395  1
  Mo  Mo207  1  0.00249310  0.60926722  0.40297188  1
  Mo  Mo208  1  0.49866154  0.88725063  0.49812599  1
  Mo  Mo209  1  0.30247066  0.70357922  0.69600777  1
  Mo  Mo210  1  0.30055442  0.50658680  0.89936056  1
  Mo  Mo211  1  0.00459552  0.60434836  0.20052105  1
  Mo  Mo212  1  0.29639024  0.29231535  0.29660796  1
  Mo  Mo213  1  0.10308932  0.09470994  0.30748212  1
  Mo  Mo214  1  0.60237641  0.59964424  0.60742962  1
  Mo  Mo215  1  0.59589049  0.60123884  0.80053553  1
  Mo  Mo216  1  0.89696284  0.09628825  0.88218521  1
  Mo  Mo217  1  0.60201560  0.80069080  0.60360741  1
  Mo  Mo218  1  0.00184632  -0.00140735  0.60226164  1
  Mo  Mo219  1  0.90352678  0.89575267  0.69674690  1
  Mo  Mo220  1  0.90564782  0.70791560  0.29538867  1
  Mo  Mo221  1  0.29941661  0.69913493  0.30269920  1
  Mo  Mo222  1  0.40174830  0.39998802  0.60316824  1
  Mo  Mo223  1  0.20753106  0.19027597  0.79449324  1
  Mo  Mo224  1  0.49122207  0.09679607  0.30043804  1
  Mo  Mo225  1  0.49559875  0.50346837  0.90556163  1
  Mo  Mo226  1  0.81729909  0.41107658  0.00614159  1
  Mo  Mo227  1  0.80441810  0.19281562  0.59255444  1
  Mo  Mo228  1  0.20209586  -0.00384256  0.40386951  1
  Mo  Mo229  1  0.69456068  0.30143295  0.68932109  1
  Mo  Mo230  1  0.20488516  0.19596644  0.59992360  1
  Mo  Mo231  1  0.79878804  0.19537975  0.79487660  1
  Mo  Mo232  1  0.40016711  0.19799415  0.60684313  1
  Mo  Mo233  1  0.49485738  0.50582444  0.29046179  1
  Mo  Mo234  1  0.30330409  0.09916421  0.50409115  1
  Mo  Mo235  1  0.49178787  0.30548744  0.10075892  1
  Mo  Mo236  1  0.39577783  0.40131547  -0.00156381  1
  Mo  Mo237  1  0.49208093  0.50103812  0.51761055  1
  Mo  Mo238  1  0.10268470  0.69636247  0.88843187  1
  Mo  Mo239  1  0.39672655  0.80026764  0.20951683  1
  Mo  Mo240  1  0.80854415  0.79953494  0.01097584  1
  Mo  Mo241  1  0.59619812  0.20975785  0.60442680  1
  Mo  Mo242  1  0.59714023  0.60926562  0.39460450  1
  Mo  Mo243  1  0.30091741  0.51246406  0.50362456  1
  Mo  Mo244  1  0.00033795  0.80139642  -0.00882910  1
  Mo  Mo245  1  0.39881306  0.59750385  -0.00704410  1
  Mo  Mo246  1  0.91466564  0.90492135  0.49574408  1
  Mo  Mo247  1  0.59979547  0.20141890  0.40501093  1
  Mo  Mo248  1  0.49928105  0.50710622  0.70340360  1
  Mo  Mo249  1  0.79986162  0.79766381  0.78874515  1
