# generated using pymatgen
data_HfZrTaTiMo
_symmetry_space_group_name_H-M   'P 1'
_cell_length_a   16.89128927
_cell_length_b   16.89357715
_cell_length_c   16.88529894
_cell_angle_alpha   89.97439852
_cell_angle_beta   89.97910505
_cell_angle_gamma   90.01514522
_symmetry_Int_Tables_number   1
_chemical_formula_structural   HfZrTaTiMo
_chemical_formula_sum   'Hf50 Zr50 Ta50 Ti50 Mo50'
_cell_volume   4818.29166338
_cell_formula_units_Z   50
loop_
 _symmetry_equiv_pos_site_id
 _symmetry_equiv_pos_as_xyz
  1  'x, y, z'
loop_
 _atom_site_type_symbol
 _atom_site_label
 _atom_site_symmetry_multiplicity
 _atom_site_fract_x
 _atom_site_fract_y
 _atom_site_fract_z
 _atom_site_occupancy
  Hf  Hf0  1  0.59115664  0.19842707  0.00682237  1
  Hf  Hf1  1  0.89989172  0.49858403  0.89496496  1
  Hf  Hf2  1  -0.00329953  0.79810558  0.60166629  1
  Hf  Hf3  1  0.70471404  0.10399499  0.50743792  1
  Hf  Hf4  1  0.69572110  0.50239423  0.90058106  1
  Hf  Hf5  1  0.11007227  0.89116229  0.69248715  1
  Hf  Hf6  1  0.40828373  0.59021404  0.59179836  1
  Hf  Hf7  1  0.69974925  0.69666483  0.68371128  1
  Hf  Hf8  1  0.69503577  0.10622059  0.89809088  1
  Hf  Hf9  1  0.89826750  0.31200400  0.49099350  1
  Hf  Hf10  1  0.00041449  0.00906847  0.00085077  1
  Hf  Hf11  1  0.79082532  0.40122974  0.61360911  1
  Hf  Hf12  1  -0.00246272  0.20366620  0.59294148  1
  Hf  Hf13  1  0.10297479  0.70377749  0.90649831  1
  Hf  Hf14  1  0.50442871  0.70176132  0.69147723  1
  Hf  Hf15  1  0.69419019  0.89179306  0.68734200  1
  Hf  Hf16  1  0.48195431  0.30327084  0.11340411  1
  Hf  Hf17  1  0.69871099  0.90807346  0.90302255  1
  Hf  Hf18  1  0.89331182  0.50012250  0.50228863  1
  Hf  Hf19  1  0.30154158  0.89403907  0.30117962  1
  Hf  Hf20  1  0.11270558  0.10496505  0.49970311  1
  Hf  Hf21  1  0.50129935  0.89456062  0.29773974  1
  Hf  Hf22  1  0.50049490  0.69309948  0.10906001  1
  Hf  Hf23  1  0.59307257  -0.00158062  0.40992516  1
  Hf  Hf24  1  0.59987757  0.20649965  0.39981673  1
  Hf  Hf25  1  0.40673849  -0.00455177  0.40750933  1
  Hf  Hf26  1  0.59170689  0.39728211  -0.00120781  1
  Hf  Hf27  1  0.59268960  0.00826284  0.00828977  1
  Hf  Hf28  1  0.19867799  0.40313834  0.19630107  1
  Hf  Hf29  1  0.50406401  0.69637476  0.90530075  1
  Hf  Hf30  1  0.68257825  0.11316040  0.68673074  1
  Hf  Hf31  1  0.19970825  0.39562039  0.00587565  1
  Hf  Hf32  1  0.09640015  0.49264314  0.89402949  1
  Hf  Hf33  1  0.00292011  0.60661634  0.79149652  1
  Hf  Hf34  1  0.90699684  0.90709219  0.10669847  1
  Hf  Hf35  1  0.30904130  0.30590784  0.29131857  1
  Hf  Hf36  1  -0.00467898  0.20844204  0.00213937  1
  Hf  Hf37  1  0.58543208  0.00068053  0.78907313  1
  Hf  Hf38  1  0.70182050  0.68759097  0.89446854  1
  Hf  Hf39  1  -0.00407997  0.59665013  0.20526750  1
  Hf  Hf40  1  0.58644964  0.19325144  0.20803379  1
  Hf  Hf41  1  0.70200018  0.29596045  0.10675528  1
  Hf  Hf42  1  0.30125431  0.10377335  0.50623104  1
  Hf  Hf43  1  0.80500554  0.00776557  0.19980048  1
  Hf  Hf44  1  0.51266906  0.11323790  0.53499031  1
  Hf  Hf45  1  0.89401271  0.09701310  0.49102960  1
  Hf  Hf46  1  0.39963070  0.60437095  0.79995396  1
  Hf  Hf47  1  0.59256774  0.40569678  0.60503690  1
  Hf  Hf48  1  0.29867460  0.10495855  0.29981448  1
  Hf  Hf49  1  0.30509353  0.89400011  0.91442595  1
  Zr  Zr50  1  0.39270369  0.60034291  -0.00016653  1
  Zr  Zr51  1  0.88218202  0.69874848  0.50489400  1
  Zr  Zr52  1  0.00066911  -0.00427020  0.59832910  1
  Zr  Zr53  1  0.79632573  0.21029999  0.79429634  1
  Zr  Zr54  1  0.59772289  0.40628915  0.40162530  1
  Zr  Zr55  1  0.30511068  0.30232828  0.49190297  1
  Zr  Zr56  1  0.19246780  0.00183969  0.21104456  1
  Zr  Zr57  1  0.89333367  0.89684012  0.49220168  1
  Zr  Zr58  1  -0.00456069  0.60299477  0.39776932  1
  Zr  Zr59  1  0.02001319  0.00769626  0.38480859  1
  Zr  Zr60  1  0.49848636  0.50507572  0.10848128  1
  Zr  Zr61  1  0.29943080  0.69491809  0.49099078  1
  Zr  Zr62  1  0.59522913  0.80319701  0.79926344  1
  Zr  Zr63  1  0.88806695  0.69812556  0.69509985  1
  Zr  Zr64  1  0.11271908  0.11188857  0.89686382  1
  Zr  Zr65  1  0.79780749  0.79433076  0.20626710  1
  Zr  Zr66  1  0.69465209  0.68712199  0.09826739  1
  Zr  Zr67  1  0.00536861  0.40691234  0.59949372  1
  Zr  Zr68  1  0.00130093  0.19465423  0.20372447  1
  Zr  Zr69  1  0.60144778  0.40727070  0.21221223  1
  Zr  Zr70  1  0.29945790  0.89488489  0.10058539  1
  Zr  Zr71  1  0.79898935  0.80064884  0.00203082  1
  Zr  Zr72  1  0.41045485  -0.01194774  0.60582703  1
  Zr  Zr73  1  0.59665749  0.00426070  0.19957797  1
  Zr  Zr74  1  0.80343868  0.39325558  0.00081826  1
  Zr  Zr75  1  0.00151378  0.40324875  0.19564141  1
  Zr  Zr76  1  0.10332046  0.30236931  0.70393051  1
  Zr  Zr77  1  0.11535301  0.69588344  0.30641337  1
  Zr  Zr78  1  0.70818926  0.10059258  0.30705437  1
  Zr  Zr79  1  -0.00270746  -0.00320744  0.79256646  1
  Zr  Zr80  1  0.41373534  0.19079514  0.39708298  1
  Zr  Zr81  1  0.20760243  0.60485328  0.80124639  1
  Zr  Zr82  1  0.20792754  0.79523557  0.80472221  1
  Zr  Zr83  1  0.89727439  0.90420347  0.30857954  1
  Zr  Zr84  1  0.29888047  0.10125790  0.90207398  1
  Zr  Zr85  1  0.30314509  0.49833376  0.69842564  1
  Zr  Zr86  1  0.89633744  0.90230271  0.89827492  1
  Zr  Zr87  1  -0.00357856  0.78840811  0.20876537  1
  Zr  Zr88  1  0.11435633  0.10387558  0.69587473  1
  Zr  Zr89  1  0.80571238  0.59603658  0.21118126  1
  Zr  Zr90  1  0.10314324  0.10004941  0.10479048  1
  Zr  Zr91  1  0.29975033  0.29228378  0.88733962  1
  Zr  Zr92  1  0.79860584  0.00220842  0.78894256  1
  Zr  Zr93  1  -0.00638945  0.19968966  0.80060719  1
  Zr  Zr94  1  0.00081785  0.80012317  -0.00217467  1
  Zr  Zr95  1  0.80012264  0.40801141  0.20411697  1
  Zr  Zr96  1  0.60001980  0.80386212  0.00419627  1
  Zr  Zr97  1  0.21049770  -0.00648100  0.79505578  1
  Zr  Zr98  1  0.20734231  0.59965933  0.00363776  1
  Zr  Zr99  1  0.49667184  0.27874506  0.70110641  1
  Ta  Ta100  1  0.10512152  0.30597051  0.49295149  1
  Ta  Ta101  1  0.21256057  -0.00982947  0.59597658  1
  Ta  Ta102  1  0.20488099  0.40395567  0.59465206  1
  Ta  Ta103  1  0.59959848  0.79609180  0.40185205  1
  Ta  Ta104  1  0.68770872  0.69393192  0.30315753  1
  Ta  Ta105  1  0.20254237  0.39802064  0.79414355  1
  Ta  Ta106  1  0.30121618  0.50124960  0.49082613  1
  Ta  Ta107  1  0.48817888  0.30809863  0.29857121  1
  Ta  Ta108  1  0.00150696  0.39340537  0.00453372  1
  Ta  Ta109  1  0.10725639  0.70113647  0.50007273  1
  Ta  Ta110  1  0.80446236  0.20545302  0.39873652  1
  Ta  Ta111  1  0.19728608  0.59592274  0.59413486  1
  Ta  Ta112  1  0.69145103  0.29832754  0.89609368  1
  Ta  Ta113  1  0.88732284  0.10532376  0.68405278  1
  Ta  Ta114  1  0.10411865  0.69843369  0.10143023  1
  Ta  Ta115  1  0.20160853  0.40551860  0.39575561  1
  Ta  Ta116  1  0.10154035  0.89473587  0.10479060  1
  Ta  Ta117  1  0.40422107  0.00693439  0.20006681  1
  Ta  Ta118  1  0.79717938  -0.00809194  0.59777168  1
  Ta  Ta119  1  0.40372713  0.40056051  0.59818958  1
  Ta  Ta120  1  0.00817270  0.60040539  0.59884348  1
  Ta  Ta121  1  0.48845249  0.90330184  0.90798886  1
  Ta  Ta122  1  0.10300220  0.50012145  0.69942247  1
  Ta  Ta123  1  0.59568477  0.39723459  0.79625062  1
  Ta  Ta124  1  0.31115410  0.11319699  0.69901489  1
  Ta  Ta125  1  0.49210512  0.89516167  0.10142805  1
  Ta  Ta126  1  0.30412967  0.70608910  0.68357923  1
  Ta  Ta127  1  0.89451093  0.69279554  0.89824908  1
  Ta  Ta128  1  0.49508656  0.29487074  0.89559653  1
  Ta  Ta129  1  0.78894817  0.59816455  0.39774650  1
  Ta  Ta130  1  0.50349996  0.69701432  0.49647259  1
  Ta  Ta131  1  0.30400350  0.48913744  0.89634982  1
  Ta  Ta132  1  0.00395325  0.20460426  0.39598541  1
  Ta  Ta133  1  0.69437651  0.50983483  0.09539353  1
  Ta  Ta134  1  0.70002200  0.50359779  0.50055129  1
  Ta  Ta135  1  0.39612895  0.20180203  0.00630917  1
  Ta  Ta136  1  0.80643112  0.19986478  0.00082271  1
  Ta  Ta137  1  0.89943494  0.30289582  0.30526195  1
  Ta  Ta138  1  0.39926376  0.78922221  0.20261295  1
  Ta  Ta139  1  -0.00355921  0.80083125  0.79538375  1
  Ta  Ta140  1  0.20772603  0.59606589  0.19778304  1
  Ta  Ta141  1  0.40868675  0.79280840  0.39824002  1
  Ta  Ta142  1  0.39516676  0.39613510  -0.00066831  1
  Ta  Ta143  1  0.49090383  0.10557167  0.89494073  1
  Ta  Ta144  1  0.70569200  0.30159858  0.50358825  1
  Ta  Ta145  1  0.11125534  0.89043214  0.49545098  1
  Ta  Ta146  1  0.69844488  0.90615946  0.10602569  1
  Ta  Ta147  1  0.40216033  -0.00484284  0.79428516  1
  Ta  Ta148  1  0.40058528  0.80146674  0.79893069  1
  Ta  Ta149  1  0.90056582  0.68913795  0.09068516  1
  Ti  Ti150  1  0.40201834  0.00884620  0.00869790  1
  Ti  Ti151  1  0.90379484  0.49925616  0.70139010  1
  Ti  Ti152  1  0.71087325  0.30133172  0.30285075  1
  Ti  Ti153  1  0.30653938  0.88613576  0.69048238  1
  Ti  Ti154  1  0.60048200  0.79744837  0.20498404  1
  Ti  Ti155  1  0.90099366  0.30452927  0.70021507  1
  Ti  Ti156  1  0.90079788  0.10192593  0.30061072  1
  Ti  Ti157  1  0.19732624  0.21131639  0.19711550  1
  Ti  Ti158  1  0.19552303  0.20693794  0.39169146  1
  Ti  Ti159  1  0.59110026  0.59672421  0.39749136  1
  Ti  Ti160  1  0.89853326  0.48313854  0.32108425  1
  Ti  Ti161  1  0.68937819  0.50892040  0.70501760  1
  Ti  Ti162  1  0.09667020  0.50514247  0.09722030  1
  Ti  Ti163  1  0.30119069  0.10852800  0.10621888  1
  Ti  Ti164  1  0.30303176  0.88681699  0.50320989  1
  Ti  Ti165  1  0.30756899  0.68908879  0.30072900  1
  Ti  Ti166  1  0.79158960  0.39891069  0.79459205  1
  Ti  Ti167  1  0.20347375  -0.00449177  0.40199628  1
  Ti  Ti168  1  0.19769165  -0.00233899  0.00590521  1
  Ti  Ti169  1  0.20590928  0.79919251  0.39872913  1
  Ti  Ti170  1  0.49960394  0.49804648  0.89382168  1
  Ti  Ti171  1  0.20660005  0.78890297  0.19627254  1
  Ti  Ti172  1  0.21041722  0.21504432  0.60367792  1
  Ti  Ti173  1  0.49801906  0.30200496  0.50274276  1
  Ti  Ti174  1  0.10494179  0.89750224  0.90473216  1
  Ti  Ti175  1  0.11036844  0.70181086  0.69149266  1
  Ti  Ti176  1  0.30864643  0.50660612  0.30180607  1
  Ti  Ti177  1  0.40977127  0.41555530  0.40118855  1
  Ti  Ti178  1  0.89334887  0.10173736  0.89773723  1
  Ti  Ti179  1  0.71054096  0.11001711  0.10447455  1
  Ti  Ti180  1  0.79935654  0.59365169  0.79208030  1
  Ti  Ti181  1  0.30992037  0.49599095  0.10767269  1
  Ti  Ti182  1  0.10483614  0.50238536  0.49199563  1
  Ti  Ti183  1  0.78531361  0.79037689  0.39960093  1
  Ti  Ti184  1  0.90127007  0.30947856  0.89173483  1
  Ti  Ti185  1  0.69755520  0.89358391  0.50058769  1
  Ti  Ti186  1  -0.00020165  0.59808203  -0.00142406  1
  Ti  Ti187  1  0.40500398  0.39876308  0.79347255  1
  Ti  Ti188  1  0.00084469  0.79309278  0.39957514  1
  Ti  Ti189  1  0.09653847  0.30699065  0.30314546  1
  Ti  Ti190  1  0.89582073  0.50593985  0.08822511  1
  Ti  Ti191  1  0.10231965  0.89028524  0.29748852  1
  Ti  Ti192  1  0.89464761  0.29308793  0.11200993  1
  Ti  Ti193  1  0.20101369  0.21363669  0.01375799  1
  Ti  Ti194  1  0.59690180  0.59341720  0.59164550  1
  Ti  Ti195  1  0.10103343  0.30175544  0.89408055  1
  Ti  Ti196  1  0.80441117  0.80382881  0.79323997  1
  Ti  Ti197  1  0.80147997  0.01050011  0.00799348  1
  Ti  Ti198  1  0.10471549  0.50219688  0.30671366  1
  Ti  Ti199  1  0.69987661  0.90083909  0.30473057  1
  Mo  Mo200  1  0.39973015  0.19239441  0.80083606  1
  Mo  Mo201  1  0.78885554  -0.00006811  0.40112043  1
  Mo  Mo202  1  0.20383704  0.79640603  0.59244426  1
  Mo  Mo203  1  0.49253236  0.50755664  0.30333438  1
  Mo  Mo204  1  0.69615376  0.30654536  0.70465322  1
  Mo  Mo205  1  0.79151202  0.58768362  0.60033197  1
  Mo  Mo206  1  0.20543442  0.20635867  0.79077567  1
  Mo  Mo207  1  0.48497751  0.10144845  0.09927448  1
  Mo  Mo208  1  0.01366860  0.40031583  0.39624945  1
  Mo  Mo209  1  0.40007488  0.79607272  0.00447591  1
  Mo  Mo210  1  0.40511545  0.59958080  0.39535217  1
  Mo  Mo211  1  0.49591325  0.89121227  0.69844760  1
  Mo  Mo212  1  0.59859782  0.59766758  0.21556278  1
  Mo  Mo213  1  0.89292639  0.89853356  0.69552472  1
  Mo  Mo214  1  0.78948966  0.40217246  0.39853621  1
  Mo  Mo215  1  0.40270630  0.79567093  0.59397948  1
  Mo  Mo216  1  0.80679252  0.20215077  0.20460436  1
  Mo  Mo217  1  0.39480056  0.19428577  0.19865154  1
  Mo  Mo218  1  0.39419749  0.20790711  0.60031541  1
  Mo  Mo219  1  0.50286228  0.50026742  0.70414148  1
  Mo  Mo220  1  0.00235397  -0.00160401  0.20299041  1
  Mo  Mo221  1  0.80478212  0.59543907  -0.00297370  1
  Mo  Mo222  1  0.29745937  0.29922324  0.10086411  1
  Mo  Mo223  1  0.20396577  0.59127126  0.39720310  1
  Mo  Mo224  1  0.59601181  0.20086584  0.80695149  1
  Mo  Mo225  1  0.10874800  0.11469772  0.30539496  1
  Mo  Mo226  1  0.59779487  0.59003020  -0.00744178  1
  Mo  Mo227  1  0.79301582  0.80118965  0.59093067  1
  Mo  Mo228  1  0.30809772  0.70972252  0.91002175  1
  Mo  Mo229  1  0.29884311  0.69897421  0.10917364  1
  Mo  Mo230  1  0.60070303  -0.01765007  0.59820455  1
  Mo  Mo231  1  0.60888607  0.22256360  0.59939169  1
  Mo  Mo232  1  0.50093515  0.69841368  0.30192121  1
  Mo  Mo233  1  0.69424478  0.50661965  0.30613379  1
  Mo  Mo234  1  0.89731380  0.10294163  0.09826032  1
  Mo  Mo235  1  0.80323240  0.20995905  0.59689103  1
  Mo  Mo236  1  0.39406021  0.41001788  0.20520431  1
  Mo  Mo237  1  0.59748594  0.79513969  0.58583030  1
  Mo  Mo238  1  0.49790756  0.09673343  0.29772006  1
  Mo  Mo239  1  0.39455247  0.60149118  0.20693895  1
  Mo  Mo240  1  0.49692743  0.09919791  0.70537160  1
  Mo  Mo241  1  0.50407351  0.88459147  0.50254815  1
  Mo  Mo242  1  0.59446351  0.59093332  0.79445560  1
  Mo  Mo243  1  0.00115345  0.40209996  0.80103995  1
  Mo  Mo244  1  0.49939578  0.50143268  0.49875642  1
  Mo  Mo245  1  0.09895063  0.30247628  0.10031595  1
  Mo  Mo246  1  0.19782894  0.79933251  0.01007670  1
  Mo  Mo247  1  0.30392733  0.30394788  0.69479747  1
  Mo  Mo248  1  0.69019046  0.69283828  0.49496029  1
  Mo  Mo249  1  0.88621306  0.70354534  0.31023170  1
