# generated using pymatgen
data_HfZrTaTiMo
_symmetry_space_group_name_H-M   'P 1'
_cell_length_a   16.89828043
_cell_length_b   16.88466634
_cell_length_c   16.89608189
_cell_angle_alpha   90.02989841
_cell_angle_beta   89.97956578
_cell_angle_gamma   90.07481262
_symmetry_Int_Tables_number   1
_chemical_formula_structural   HfZrTaTiMo
_chemical_formula_sum   'Hf50 Zr50 Ta50 Ti50 Mo50'
_cell_volume   4820.81587826
_cell_formula_units_Z   50
loop_
 _symmetry_equiv_pos_site_id
 _symmetry_equiv_pos_as_xyz
  1  'x, y, z'
loop_
 _atom_site_type_symbol
 _atom_site_label
 _atom_site_symmetry_multiplicity
 _atom_site_fract_x
 _atom_site_fract_y
 _atom_site_fract_z
 _atom_site_occupancy
  Hf  Hf0  1  0.49178778  0.49656233  0.50222793  1
  Hf  Hf1  1  0.79647208  0.01881466  0.80096852  1
  Hf  Hf2  1  0.70319980  0.49127517  0.70193671  1
  Hf  Hf3  1  0.28956775  0.69816371  0.70427726  1
  Hf  Hf4  1  0.59718710  0.19184573  0.79271536  1
  Hf  Hf5  1  0.69704190  0.29146477  0.29299824  1
  Hf  Hf6  1  0.30036962  0.10367205  0.90991502  1
  Hf  Hf7  1  0.59969078  0.40306019  -0.00441236  1
  Hf  Hf8  1  0.39350654  0.58840176  0.80287339  1
  Hf  Hf9  1  0.79575376  -0.00257940  0.40402062  1
  Hf  Hf10  1  0.20328469  0.40235264  0.60416052  1
  Hf  Hf11  1  0.50640667  0.10053694  0.30622913  1
  Hf  Hf12  1  0.89980749  0.29776869  0.70298857  1
  Hf  Hf13  1  0.60214597  0.59823887  0.80340956  1
  Hf  Hf14  1  0.79730511  0.39339299  0.40298066  1
  Hf  Hf15  1  0.40015174  0.60099617  0.19801918  1
  Hf  Hf16  1  -0.00127226  0.79301350  0.61316624  1
  Hf  Hf17  1  0.70094918  0.29976946  0.09728236  1
  Hf  Hf18  1  0.19671862  0.60519799  0.38675960  1
  Hf  Hf19  1  0.50587666  0.90608530  0.70088106  1
  Hf  Hf20  1  0.19768882  0.20585356  0.39539161  1
  Hf  Hf21  1  0.40486369  0.00191607  0.19308370  1
  Hf  Hf22  1  0.40259889  0.01375045  0.79269727  1
  Hf  Hf23  1  0.60889589  0.59404724  0.40563250  1
  Hf  Hf24  1  0.29889579  0.70383440  0.10069760  1
  Hf  Hf25  1  0.59365254  0.39955252  0.19709482  1
  Hf  Hf26  1  0.60565769  0.79795366  0.80260806  1
  Hf  Hf27  1  0.09616956  0.49854202  0.49348758  1
  Hf  Hf28  1  0.29221442  0.89759987  0.70788413  1
  Hf  Hf29  1  0.80463954  0.59411086  0.00416805  1
  Hf  Hf30  1  0.29684045  0.49972959  0.09613828  1
  Hf  Hf31  1  0.40014169  0.39671339  0.20419920  1
  Hf  Hf32  1  0.61149409  0.80871169  0.40255110  1
  Hf  Hf33  1  -0.00115932  0.00875985  0.80353152  1
  Hf  Hf34  1  0.69249807  0.70060218  0.28144240  1
  Hf  Hf35  1  0.09383659  0.48900753  0.29956585  1
  Hf  Hf36  1  0.00799370  0.79370178  0.80298118  1
  Hf  Hf37  1  0.49483714  0.48988225  0.69849525  1
  Hf  Hf38  1  0.68584881  0.08855767  0.10036150  1
  Hf  Hf39  1  0.61308858  0.00009304  0.40918532  1
  Hf  Hf40  1  0.09838526  0.69641296  0.09493775  1
  Hf  Hf41  1  0.19593497  0.80738012  -0.00236810  1
  Hf  Hf42  1  0.60777688  0.39489002  0.41170961  1
  Hf  Hf43  1  0.81140551  0.19754253  -0.00994376  1
  Hf  Hf44  1  0.81059283  0.19502188  0.19215818  1
  Hf  Hf45  1  0.39994564  0.20434297  0.20175409  1
  Hf  Hf46  1  0.49994889  0.50220136  0.30508281  1
  Hf  Hf47  1  0.81045394  0.40229760  0.81156915  1
  Hf  Hf48  1  0.39375959  0.01226055  0.60360460  1
  Hf  Hf49  1  0.49086182  0.90086087  0.49249755  1
  Zr  Zr50  1  0.80408386  0.00759498  -0.00443998  1
  Zr  Zr51  1  0.59913702  0.19657699  -0.00523786  1
  Zr  Zr52  1  0.00631382  0.59055047  0.80604192  1
  Zr  Zr53  1  0.41182920  0.79682179  0.80742129  1
  Zr  Zr54  1  0.30000648  0.69907383  0.49544553  1
  Zr  Zr55  1  0.79996798  0.19755535  0.40028717  1
  Zr  Zr56  1  0.51063820  0.91180284  0.09176040  1
  Zr  Zr57  1  0.39533301  0.80083312  0.60161006  1
  Zr  Zr58  1  0.10126775  0.69583827  0.50312178  1
  Zr  Zr59  1  0.80875192  0.60164525  0.61229848  1
  Zr  Zr60  1  0.50013268  0.68937426  0.69320674  1
  Zr  Zr61  1  0.90439750  0.69346433  0.90723824  1
  Zr  Zr62  1  0.91026294  0.49435597  0.50035448  1
  Zr  Zr63  1  0.19880911  0.19684385  0.79620918  1
  Zr  Zr64  1  0.29929258  0.09737977  0.09674898  1
  Zr  Zr65  1  0.09879932  0.30533237  0.89948137  1
  Zr  Zr66  1  0.19099213  0.20823513  0.00232582  1
  Zr  Zr67  1  0.79971918  0.79259870  0.00696204  1
  Zr  Zr68  1  0.29283435  0.10436996  0.29447835  1
  Zr  Zr69  1  0.91140147  0.09210254  0.28939343  1
  Zr  Zr70  1  0.50045174  0.28897074  0.31950295  1
  Zr  Zr71  1  0.90214234  0.70245493  0.50380215  1
  Zr  Zr72  1  0.70497760  0.29715778  0.89245933  1
  Zr  Zr73  1  0.80411264  0.40153485  0.19103646  1
  Zr  Zr74  1  0.29826309  0.69807620  0.90313487  1
  Zr  Zr75  1  0.89744177  0.90152029  0.89657519  1
  Zr  Zr76  1  0.00236312  0.80387506  0.38901652  1
  Zr  Zr77  1  0.10466594  0.90114801  0.70978719  1
  Zr  Zr78  1  0.00614137  0.81290303  0.00452783  1
  Zr  Zr79  1  0.19113421  0.39580597  0.18795144  1
  Zr  Zr80  1  0.69461117  0.89763512  0.09847639  1
  Zr  Zr81  1  0.90345922  0.49506054  0.29403770  1
  Zr  Zr82  1  0.29247061  0.90084762  0.49621760  1
  Zr  Zr83  1  0.09326452  0.30801455  0.49662004  1
  Zr  Zr84  1  0.49024213  0.09424850  0.91777415  1
  Zr  Zr85  1  0.80086011  0.59925689  0.39161095  1
  Zr  Zr86  1  0.61074910  0.80611618  0.60092486  1
  Zr  Zr87  1  0.18609017  -0.00221142  0.39169053  1
  Zr  Zr88  1  0.80230678  0.80550283  0.39273605  1
  Zr  Zr89  1  0.30045919  0.90406468  0.89804845  1
  Zr  Zr90  1  0.60122320  0.20508090  0.60074448  1
  Zr  Zr91  1  0.70841719  0.70339032  0.50867570  1
  Zr  Zr92  1  -0.00049676  0.19647158  0.39715819  1
  Zr  Zr93  1  0.29656299  0.29930330  0.09350329  1
  Zr  Zr94  1  0.90234732  0.09553064  0.50798799  1
  Zr  Zr95  1  0.29981407  0.89532019  0.29115136  1
  Zr  Zr96  1  0.49380947  0.69652690  0.49512037  1
  Zr  Zr97  1  0.61491188  0.01513260  0.60412676  1
  Zr  Zr98  1  0.48978607  0.11395899  0.49403821  1
  Zr  Zr99  1  0.49642337  0.70876580  0.30023500  1
  Ta  Ta100  1  0.19490214  0.58730479  0.80018543  1
  Ta  Ta101  1  0.09918043  0.09738508  0.50508153  1
  Ta  Ta102  1  0.00201276  0.60421161  0.19743320  1
  Ta  Ta103  1  0.69655281  0.50803892  0.10183730  1
  Ta  Ta104  1  0.00359908  0.40727897  0.00031628  1
  Ta  Ta105  1  0.00635203  0.59902532  0.61911489  1
  Ta  Ta106  1  -0.00023851  0.61143072  0.38243550  1
  Ta  Ta107  1  0.19637687  0.01066073  0.60811877  1
  Ta  Ta108  1  0.90339313  0.49507920  0.70505833  1
  Ta  Ta109  1  0.00708231  0.19669194  0.60905015  1
  Ta  Ta110  1  0.29294759  0.10537024  0.49912294  1
  Ta  Ta111  1  0.38505450  0.39369708  0.40152137  1
  Ta  Ta112  1  0.49711118  0.49517170  0.89884639  1
  Ta  Ta113  1  0.09699671  0.30355720  0.29447099  1
  Ta  Ta114  1  0.09762845  0.30185902  0.70472019  1
  Ta  Ta115  1  0.38994398  0.39665405  0.59845943  1
  Ta  Ta116  1  0.91889001  0.09409835  0.09595957  1
  Ta  Ta117  1  0.50423227  0.90010573  0.29832894  1
  Ta  Ta118  1  0.80975771  0.79572871  0.19352971  1
  Ta  Ta119  1  0.39373244  0.00385852  0.39562515  1
  Ta  Ta120  1  0.30160033  0.30356335  0.70537460  1
  Ta  Ta121  1  0.60568269  0.59147695  0.59970985  1
  Ta  Ta122  1  0.69765205  0.90183498  0.89652749  1
  Ta  Ta123  1  0.60581808  0.00997362  0.79875005  1
  Ta  Ta124  1  0.89959790  0.90320002  0.28992845  1
  Ta  Ta125  1  0.19449801  0.60032852  0.19945113  1
  Ta  Ta126  1  0.00274940  0.00316832  0.60911788  1
  Ta  Ta127  1  0.19059457  0.79983872  0.39161910  1
  Ta  Ta128  1  0.90046543  0.90200202  0.51212181  1
  Ta  Ta129  1  0.89516355  0.90092060  0.70084016  1
  Ta  Ta130  1  0.20210204  0.40497848  0.79823304  1
  Ta  Ta131  1  0.19108407  0.79891574  0.60222519  1
  Ta  Ta132  1  0.70746424  0.30267631  0.69861684  1
  Ta  Ta133  1  0.81249579  0.40444146  -0.00152880  1
  Ta  Ta134  1  0.59559717  0.39475288  0.79941779  1
  Ta  Ta135  1  0.49452508  0.29656044  0.08828729  1
  Ta  Ta136  1  0.19324290  0.58698252  -0.00274456  1
  Ta  Ta137  1  0.09891991  0.09885710  0.10342074  1
  Ta  Ta138  1  -0.00348572  0.79621558  0.19860596  1
  Ta  Ta139  1  0.48783851  0.30139710  0.89372295  1
  Ta  Ta140  1  0.40309478  0.59551874  -0.00012618  1
  Ta  Ta141  1  0.09481924  0.09667028  0.91020489  1
  Ta  Ta142  1  0.19126752  -0.00823571  0.00646986  1
  Ta  Ta143  1  0.09499708  0.90329556  0.50602098  1
  Ta  Ta144  1  0.69748676  0.90252076  0.28027045  1
  Ta  Ta145  1  0.19743561  0.19978149  0.60445215  1
  Ta  Ta146  1  0.39761653  0.40042002  -0.00586139  1
  Ta  Ta147  1  0.90140082  0.30258566  0.51115052  1
  Ta  Ta148  1  0.49100874  0.30248338  0.70072126  1
  Ta  Ta149  1  0.29360039  0.49526638  0.30001232  1
  Ti  Ti150  1  0.38993136  0.59705923  0.39399839  1
  Ti  Ti151  1  0.38433229  0.58722226  0.60237557  1
  Ti  Ti152  1  0.69640452  0.09734430  0.29077570  1
  Ti  Ti153  1  0.70015852  0.50093241  0.90300916  1
  Ti  Ti154  1  0.71248509  0.90369928  0.70130910  1
  Ti  Ti155  1  0.68810394  0.69501013  0.10409819  1
  Ti  Ti156  1  -0.00247759  0.20297608  -0.00296288  1
  Ti  Ti157  1  0.19368932  0.59130840  0.61055421  1
  Ti  Ti158  1  0.60058703  0.79677855  -0.00626972  1
  Ti  Ti159  1  0.80292698  0.00065394  0.19578015  1
  Ti  Ti160  1  0.29972896  0.70792299  0.29353647  1
  Ti  Ti161  1  0.91297231  0.50439922  0.09857519  1
  Ti  Ti162  1  0.40566269  0.80524871  0.19094823  1
  Ti  Ti163  1  0.50826284  0.70159055  0.10034712  1
  Ti  Ti164  1  0.00804401  0.20885862  0.19164082  1
  Ti  Ti165  1  0.62249074  0.19851828  0.41993162  1
  Ti  Ti166  1  0.29212349  0.49758130  0.49157807  1
  Ti  Ti167  1  -0.00591131  0.19685355  0.80541708  1
  Ti  Ti168  1  0.50004957  0.69419484  0.90952504  1
  Ti  Ti169  1  0.10057898  0.10074220  0.28605227  1
  Ti  Ti170  1  0.70580533  0.69772618  0.70159947  1
  Ti  Ti171  1  0.60062142  0.39242112  0.59818421  1
  Ti  Ti172  1  0.19580958  0.01265016  0.80146038  1
  Ti  Ti173  1  0.29894800  0.29530441  0.49887240  1
  Ti  Ti174  1  0.10465359  0.69225570  0.90336830  1
  Ti  Ti175  1  0.18647771  0.80808859  0.19839715  1
  Ti  Ti176  1  0.50543277  0.90717148  0.90416012  1
  Ti  Ti177  1  0.79359359  0.19676772  0.60045632  1
  Ti  Ti178  1  0.40299484  0.80495031  0.00494057  1
  Ti  Ti179  1  0.80590794  0.59730965  0.80532515  1
  Ti  Ti180  1  0.80149325  0.79177841  0.79528958  1
  Ti  Ti181  1  0.70953012  0.49197980  0.51429953  1
  Ti  Ti182  1  0.48678333  0.29910051  0.50323549  1
  Ti  Ti183  1  0.29775637  0.48913650  0.90220083  1
  Ti  Ti184  1  0.39608076  0.20090583  0.79748660  1
  Ti  Ti185  1  0.00141168  -0.00607562  0.39947586  1
  Ti  Ti186  1  0.58919461  0.19471966  0.19098909  1
  Ti  Ti187  1  0.91127060  0.30388835  0.09650040  1
  Ti  Ti188  1  0.01401465  -0.01361365  0.19684017  1
  Ti  Ti189  1  0.90497827  0.90774077  0.10173307  1
  Ti  Ti190  1  0.81029327  0.60836001  0.19161367  1
  Ti  Ti191  1  0.50074997  0.50146013  0.09548295  1
  Ti  Ti192  1  0.91180173  0.30611341  0.29806705  1
  Ti  Ti193  1  0.59754089  0.59816881  -0.00064601  1
  Ti  Ti194  1  0.70246968  0.69781717  0.90286425  1
  Ti  Ti195  1  0.89696509  0.10578091  0.69900654  1
  Ti  Ti196  1  0.39001830  0.20044654  0.60889062  1
  Ti  Ti197  1  0.69793687  0.50518307  0.28454538  1
  Ti  Ti198  1  0.00420753  0.40293614  0.61183938  1
  Ti  Ti199  1  0.00137196  0.40448509  0.80661152  1
  Mo  Mo200  1  0.89859714  0.70227613  0.28981214  1
  Mo  Mo201  1  0.18637760  0.20014461  0.20030558  1
  Mo  Mo202  1  0.90983737  0.10910040  0.90145935  1
  Mo  Mo203  1  0.59680756  0.80017413  0.19524845  1
  Mo  Mo204  1  0.10092974  0.90141971  0.10505583  1
  Mo  Mo205  1  0.70921700  0.10298420  0.50732433  1
  Mo  Mo206  1  0.00424731  0.00349329  0.00251694  1
  Mo  Mo207  1  0.80587191  0.39640432  0.60453366  1
  Mo  Mo208  1  0.80515118  0.80540348  0.61641595  1
  Mo  Mo209  1  0.20444811  0.39893276  0.39838610  1
  Mo  Mo210  1  0.39007778  -0.01539702  0.00347372  1
  Mo  Mo211  1  0.80667760  0.00120159  0.60776436  1
  Mo  Mo212  1  0.10719112  0.69340755  0.70543646  1
  Mo  Mo213  1  0.08862453  0.30089171  0.09854267  1
  Mo  Mo214  1  0.19139501  -0.00296663  0.19267932  1
  Mo  Mo215  1  0.29683876  0.49830663  0.69723877  1
  Mo  Mo216  1  0.29591693  0.10854725  0.69769805  1
  Mo  Mo217  1  0.00541987  0.59146955  0.00431283  1
  Mo  Mo218  1  0.59743279  0.00405779  0.21269157  1
  Mo  Mo219  1  0.39221286  0.80654727  0.38783240  1
  Mo  Mo220  1  0.89786635  0.69704919  0.71184636  1
  Mo  Mo221  1  0.09660610  0.50158885  0.09765321  1
  Mo  Mo222  1  0.70960999  0.11162330  0.70260216  1
  Mo  Mo223  1  0.90992093  0.30187329  0.90245646  1
  Mo  Mo224  1  -0.00141037  0.39544868  0.19089553  1
  Mo  Mo225  1  0.09414078  0.89829151  0.29597743  1
  Mo  Mo226  1  0.38466004  0.20268259  0.40567604  1
  Mo  Mo227  1  0.09681828  0.10571459  0.70234225  1
  Mo  Mo228  1  0.10116072  0.70178573  0.28870215  1
  Mo  Mo229  1  0.19916016  0.40533049  -0.00838306  1
  Mo  Mo230  1  0.60530396  -0.00103318  -0.01834786  1
  Mo  Mo231  1  0.90585528  0.69361634  0.10282623  1
  Mo  Mo232  1  0.10437128  0.49482252  0.90193374  1
  Mo  Mo233  1  0.69902877  0.09948023  0.89732476  1
  Mo  Mo234  1  -0.00500001  0.39194140  0.39693987  1
  Mo  Mo235  1  0.49822308  0.10352337  0.10134375  1
  Mo  Mo236  1  0.71167796  0.30247911  0.51058198  1
  Mo  Mo237  1  0.90586777  0.49698301  0.90489743  1
  Mo  Mo238  1  0.19064052  0.78612352  0.80316349  1
  Mo  Mo239  1  0.29955211  0.89631889  0.09999603  1
  Mo  Mo240  1  0.29066919  0.30434722  0.30284172  1
  Mo  Mo241  1  0.30399736  0.30589316  0.89383838  1
  Mo  Mo242  1  0.39552214  0.39694301  0.80032509  1
  Mo  Mo243  1  0.09914678  0.49266081  0.70168276  1
  Mo  Mo244  1  0.49428153  0.10885860  0.70173781  1
  Mo  Mo245  1  0.39770002  0.21118816  -0.00209357  1
  Mo  Mo246  1  0.10468181  0.91134215  0.90022515  1
  Mo  Mo247  1  0.72110048  0.90517016  0.51919531  1
  Mo  Mo248  1  0.80478029  0.20190265  0.79664400  1
  Mo  Mo249  1  0.59400662  0.59822357  0.18993344  1
