# generated using pymatgen
data_HfZrTaTiMo
_symmetry_space_group_name_H-M   'P 1'
_cell_length_a   16.87555129
_cell_length_b   16.89859795
_cell_length_c   16.88299436
_cell_angle_alpha   89.93783166
_cell_angle_beta   90.00139114
_cell_angle_gamma   90.01927751
_symmetry_Int_Tables_number   1
_chemical_formula_structural   HfZrTaTiMo
_chemical_formula_sum   'Hf50 Zr50 Ta50 Ti50 Mo50'
_cell_volume   4814.57368357
_cell_formula_units_Z   50
loop_
 _symmetry_equiv_pos_site_id
 _symmetry_equiv_pos_as_xyz
  1  'x, y, z'
loop_
 _atom_site_type_symbol
 _atom_site_label
 _atom_site_symmetry_multiplicity
 _atom_site_fract_x
 _atom_site_fract_y
 _atom_site_fract_z
 _atom_site_occupancy
  Hf  Hf0  1  0.70716574  0.69617709  0.89561768  1
  Hf  Hf1  1  0.60479453  0.00102346  0.60052884  1
  Hf  Hf2  1  0.09612544  0.10421585  0.89621396  1
  Hf  Hf3  1  0.79379363  0.81067158  0.60215971  1
  Hf  Hf4  1  0.00241172  0.59914024  0.00349928  1
  Hf  Hf5  1  0.09083414  0.90946474  0.09379397  1
  Hf  Hf6  1  0.40401824  0.80014058  0.79840709  1
  Hf  Hf7  1  0.59974346  0.39674198  0.00631003  1
  Hf  Hf8  1  0.19623518  0.80087068  0.80321989  1
  Hf  Hf9  1  0.50707183  0.30059827  0.50321860  1
  Hf  Hf10  1  0.31577230  0.30693218  0.90421996  1
  Hf  Hf11  1  0.29747246  0.90743742  0.89826549  1
  Hf  Hf12  1  0.29585804  0.50998224  0.30145209  1
  Hf  Hf13  1  0.80400747  0.00224349  0.20280605  1
  Hf  Hf14  1  0.70914183  0.30062107  0.69423348  1
  Hf  Hf15  1  0.59567078  0.39830551  0.78752694  1
  Hf  Hf16  1  0.69880352  0.10453758  0.89317728  1
  Hf  Hf17  1  0.69677306  0.91083443  0.30476493  1
  Hf  Hf18  1  0.70709105  0.49323787  0.11476157  1
  Hf  Hf19  1  0.50474903  0.49641695  0.49275133  1
  Hf  Hf20  1  0.89939566  0.49209793  0.29507117  1
  Hf  Hf21  1  0.39635905  0.00093692  0.39708131  1
  Hf  Hf22  1  0.39855890  0.19636264  0.40105710  1
  Hf  Hf23  1  0.59670870  0.19460374  0.40034951  1
  Hf  Hf24  1  0.19397120  0.01466082  0.20378766  1
  Hf  Hf25  1  0.19724739  0.40382651  0.79980643  1
  Hf  Hf26  1  0.70517179  0.30130404  0.30247028  1
  Hf  Hf27  1  0.10328002  0.90636435  0.69735688  1
  Hf  Hf28  1  0.29913342  0.49911157  0.09570129  1
  Hf  Hf29  1  0.79392933  0.59980286  0.40352513  1
  Hf  Hf30  1  0.59672254  0.59487915  0.01625636  1
  Hf  Hf31  1  0.19523559  0.59367042  0.79984150  1
  Hf  Hf32  1  0.18884241  0.60025331  0.59497050  1
  Hf  Hf33  1  0.09338818  0.90523353  0.30468501  1
  Hf  Hf34  1  0.89558820  0.29608127  0.30153945  1
  Hf  Hf35  1  0.71103336  0.09819142  0.49161208  1
  Hf  Hf36  1  0.10589652  0.29667986  0.10176048  1
  Hf  Hf37  1  0.60433430  0.80065321  0.39775387  1
  Hf  Hf38  1  0.29620601  0.70403231  0.69869629  1
  Hf  Hf39  1  0.59420827  0.20292591  0.20300153  1
  Hf  Hf40  1  0.00983943  0.19133084  0.20551411  1
  Hf  Hf41  1  0.41186485  0.60087189  0.19630760  1
  Hf  Hf42  1  0.00018177  0.59990564  0.59674098  1
  Hf  Hf43  1  0.21292939  0.19818507  0.59838968  1
  Hf  Hf44  1  0.19392791  0.79894846  0.20300527  1
  Hf  Hf45  1  0.69603572  0.10442049  0.10114496  1
  Hf  Hf46  1  0.40424338  0.80725644  0.60176692  1
  Hf  Hf47  1  0.81153079  0.39461985  0.01303341  1
  Hf  Hf48  1  0.50227637  0.70053801  0.49661678  1
  Hf  Hf49  1  0.90115495  0.29974670  0.88575732  1
  Zr  Zr50  1  0.40620294  0.00518492  0.59703089  1
  Zr  Zr51  1  0.41114436  0.59622942  0.79119828  1
  Zr  Zr52  1  0.20841123  0.38906531  0.20167252  1
  Zr  Zr53  1  0.20393653  0.00356280  0.39475683  1
  Zr  Zr54  1  0.90115379  0.70853123  0.09765727  1
  Zr  Zr55  1  0.31782555  0.29299169  0.70755719  1
  Zr  Zr56  1  0.59122017  0.80690906  0.00103706  1
  Zr  Zr57  1  0.09575023  0.29340921  0.50113271  1
  Zr  Zr58  1  0.30965495  0.70144336  0.48947663  1
  Zr  Zr59  1  0.29821562  0.49850426  0.48974593  1
  Zr  Zr60  1  0.90118258  0.89669847  0.09711043  1
  Zr  Zr61  1  0.29981621  0.11194536  0.09946458  1
  Zr  Zr62  1  0.60371207  0.81212545  0.79252721  1
  Zr  Zr63  1  0.89544499  0.89546257  0.90419750  1
  Zr  Zr64  1  0.69742711  0.70094029  0.50655977  1
  Zr  Zr65  1  0.39882149  0.80069225  0.19384961  1
  Zr  Zr66  1  0.89634114  0.70121141  0.70465687  1
  Zr  Zr67  1  0.39086589  -0.00054226  0.20446420  1
  Zr  Zr68  1  0.40332873  0.59730295  0.00271325  1
  Zr  Zr69  1  0.30818587  0.49276956  0.70132459  1
  Zr  Zr70  1  0.10149225  0.09874729  0.69905183  1
  Zr  Zr71  1  0.69928770  0.90029714  0.09799388  1
  Zr  Zr72  1  0.70224037  0.49927918  0.89343871  1
  Zr  Zr73  1  0.00446467  0.79808982  0.80421438  1
  Zr  Zr74  1  -0.00660589  0.00101160  0.80006864  1
  Zr  Zr75  1  0.59142205  0.79305256  0.19977234  1
  Zr  Zr76  1  0.79714265  0.60603416  0.20873232  1
  Zr  Zr77  1  0.20277352  0.20433910  0.00092381  1
  Zr  Zr78  1  0.09191949  0.30143003  0.89521239  1
  Zr  Zr79  1  0.09764206  0.49088674  0.29933124  1
  Zr  Zr80  1  0.89463770  0.29214371  0.50250105  1
  Zr  Zr81  1  0.40362672  0.79783729  0.00706346  1
  Zr  Zr82  1  0.80019460  0.58410843  0.60056739  1
  Zr  Zr83  1  0.90332622  0.49522569  0.88990270  1
  Zr  Zr84  1  -0.00402813  0.41036035  0.60870062  1
  Zr  Zr85  1  0.79649894  0.00490412  -0.00442749  1
  Zr  Zr86  1  0.41107368  0.59968768  0.60308773  1
  Zr  Zr87  1  0.70557270  0.29910294  0.89413357  1
  Zr  Zr88  1  0.20248407  0.39351014  0.59965145  1
  Zr  Zr89  1  0.08524499  0.28625622  0.70644659  1
  Zr  Zr90  1  0.49578754  0.10851582  0.09460049  1
  Zr  Zr91  1  -0.00315069  0.60544231  0.40808551  1
  Zr  Zr92  1  0.90296156  0.70873644  0.30507953  1
  Zr  Zr93  1  0.10716321  0.50677239  0.10439166  1
  Zr  Zr94  1  0.49181846  0.48641686  0.89797643  1
  Zr  Zr95  1  0.17960925  0.61860224  0.39695435  1
  Zr  Zr96  1  0.39484308  0.39245009  0.39541052  1
  Zr  Zr97  1  0.70706473  0.70458755  0.09684015  1
  Zr  Zr98  1  0.19023845  0.79523521  -0.00113385  1
  Zr  Zr99  1  0.51227985  0.69223400  0.89025426  1
  Ta  Ta100  1  0.09668439  0.09740231  0.50525275  1
  Ta  Ta101  1  0.60358813  0.59936308  0.39256778  1
  Ta  Ta102  1  0.19779248  0.80585839  0.40114662  1
  Ta  Ta103  1  0.59274441  0.39895737  0.20124700  1
  Ta  Ta104  1  0.39215081  0.21438717  0.20381924  1
  Ta  Ta105  1  -0.00205025  0.39709258  0.00817720  1
  Ta  Ta106  1  0.80694294  0.59489019  0.00154500  1
  Ta  Ta107  1  0.30050694  0.10054265  0.50012746  1
  Ta  Ta108  1  0.80085292  0.19112237  0.60083726  1
  Ta  Ta109  1  0.89898241  0.10494067  0.90018043  1
  Ta  Ta110  1  0.00094903  0.80671860  0.41159310  1
  Ta  Ta111  1  0.70250615  0.29773074  0.10766843  1
  Ta  Ta112  1  -0.00059576  0.18872399  0.40261728  1
  Ta  Ta113  1  0.40269652  0.39829772  0.19823335  1
  Ta  Ta114  1  0.90448082  0.09978206  0.09924033  1
  Ta  Ta115  1  0.29636279  0.68945410  0.90326889  1
  Ta  Ta116  1  0.59823219  0.59039393  0.61129641  1
  Ta  Ta117  1  0.40318276  0.00221489  -0.00351315  1
  Ta  Ta118  1  0.19948052  0.00871847  -0.00043665  1
  Ta  Ta119  1  0.49187395  0.30037340  0.09322786  1
  Ta  Ta120  1  0.28327708  0.68808966  0.10059971  1
  Ta  Ta121  1  -0.00681780  0.20291017  0.00560274  1
  Ta  Ta122  1  0.69526874  0.69425442  0.70400309  1
  Ta  Ta123  1  -0.00129567  0.00852987  0.20640418  1
  Ta  Ta124  1  0.19804615  0.80375934  0.59365949  1
  Ta  Ta125  1  0.09771000  0.70365338  0.69545229  1
  Ta  Ta126  1  0.89660733  0.30002206  0.70028887  1
  Ta  Ta127  1  0.79602124  0.80364385  0.21618633  1
  Ta  Ta128  1  0.19923654  0.19671515  0.40054259  1
  Ta  Ta129  1  0.60253701  0.19307469  0.60225477  1
  Ta  Ta130  1  0.49628778  0.90008760  0.30256418  1
  Ta  Ta131  1  0.09868204  0.90729218  0.50442748  1
  Ta  Ta132  1  0.10154011  0.48588029  0.49120280  1
  Ta  Ta133  1  0.59103474  0.00200554  -0.00776370  1
  Ta  Ta134  1  0.29609064  0.90847033  0.70282347  1
  Ta  Ta135  1  -0.01189684  -0.00050116  0.59440668  1
  Ta  Ta136  1  0.70259493  0.30019307  0.50000951  1
  Ta  Ta137  1  -0.00849483  0.00187457  0.40718346  1
  Ta  Ta138  1  0.59017256  0.00569471  0.40061415  1
  Ta  Ta139  1  0.89366415  0.90512166  0.70037678  1
  Ta  Ta140  1  0.30820022  0.10229172  0.89745139  1
  Ta  Ta141  1  0.69570209  0.49078158  0.30370737  1
  Ta  Ta142  1  0.30266160  0.70058648  0.30139876  1
  Ta  Ta143  1  0.89488954  0.69466976  0.89682384  1
  Ta  Ta144  1  0.60190923  0.00559508  0.79552256  1
  Ta  Ta145  1  0.40798533  0.00517439  0.80060863  1
  Ta  Ta146  1  0.80489082  0.20350436  0.00571088  1
  Ta  Ta147  1  0.29410140  0.90586751  0.09588308  1
  Ta  Ta148  1  0.89180088  0.10044830  0.30970582  1
  Ta  Ta149  1  0.49802167  0.29339429  0.90013241  1
  Ti  Ti150  1  -0.00035856  0.39240578  0.40019173  1
  Ti  Ti151  1  0.59680949  0.19855936  0.78989695  1
  Ti  Ti152  1  0.09988390  0.91368472  0.90329977  1
  Ti  Ti153  1  0.09493917  0.49564022  0.90131299  1
  Ti  Ti154  1  0.59005260  -0.00130113  0.19756761  1
  Ti  Ti155  1  0.80118161  0.18986851  0.79124784  1
  Ti  Ti156  1  0.69323585  0.48771684  0.49812135  1
  Ti  Ti157  1  0.49439922  0.09972373  0.29536933  1
  Ti  Ti158  1  0.50398551  0.10155075  0.69982116  1
  Ti  Ti159  1  0.79511715  0.80767631  0.79492035  1
  Ti  Ti160  1  0.00487098  0.79183275  -0.00513119  1
  Ti  Ti161  1  0.01879512  0.61814540  0.20467282  1
  Ti  Ti162  1  0.89874702  0.10115434  0.69944009  1
  Ti  Ti163  1  0.70459452  0.90943834  0.49448964  1
  Ti  Ti164  1  -0.00246533  0.80766136  0.59693284  1
  Ti  Ti165  1  0.40695541  0.39187636  0.60289081  1
  Ti  Ti166  1  0.90473137  0.50097865  0.11209660  1
  Ti  Ti167  1  0.70496149  0.09970199  0.30286097  1
  Ti  Ti168  1  0.60305639  0.80818383  0.60556687  1
  Ti  Ti169  1  0.59855191  0.60106738  0.20805560  1
  Ti  Ti170  1  0.89830775  0.48914492  0.49683111  1
  Ti  Ti171  1  0.80018237  0.80590787  0.40248879  1
  Ti  Ti172  1  0.20398008  0.40475945  -0.00554234  1
  Ti  Ti173  1  0.50166427  0.89821444  0.49260473  1
  Ti  Ti174  1  0.80121555  0.00119805  0.60345012  1
  Ti  Ti175  1  0.80544301  0.19950827  0.19540861  1
  Ti  Ti176  1  0.09856673  0.68801432  0.89986553  1
  Ti  Ti177  1  0.29995345  0.89910415  0.49742079  1
  Ti  Ti178  1  0.00442676  0.59035599  0.78922993  1
  Ti  Ti179  1  0.29135043  0.29585029  0.30559241  1
  Ti  Ti180  1  0.89673383  0.71024510  0.50392339  1
  Ti  Ti181  1  0.60162909  0.39915807  0.60400195  1
  Ti  Ti182  1  0.89918053  0.90432864  0.30840264  1
  Ti  Ti183  1  0.50239302  0.30511733  0.30160096  1
  Ti  Ti184  1  0.49822544  0.90816086  0.89816525  1
  Ti  Ti185  1  0.79799869  0.58914450  0.79008658  1
  Ti  Ti186  1  0.59895467  0.20228459  -0.00413236  1
  Ti  Ti187  1  0.41444897  0.19252857  0.80212893  1
  Ti  Ti188  1  0.10354062  0.29620796  0.30635199  1
  Ti  Ti189  1  -0.00493779  0.38726211  0.19302505  1
  Ti  Ti190  1  0.49276979  0.70122803  0.30955190  1
  Ti  Ti191  1  0.50420107  0.49707460  0.30435054  1
  Ti  Ti192  1  0.00232941  0.80222831  0.20432141  1
  Ti  Ti193  1  0.50080831  0.90661412  0.70138311  1
  Ti  Ti194  1  0.70320081  0.90464386  0.89502114  1
  Ti  Ti195  1  0.79713992  0.40017618  0.40436328  1
  Ti  Ti196  1  0.20617559  0.00027070  0.59666863  1
  Ti  Ti197  1  0.40786197  0.19506074  0.59707721  1
  Ti  Ti198  1  0.30259287  0.09245585  0.70700376  1
  Ti  Ti199  1  0.20961917  0.19742570  0.80182690  1
  Mo  Mo200  1  0.39801100  0.80695158  0.39559709  1
  Mo  Mo201  1  0.60497624  0.59229296  0.78293399  1
  Mo  Mo202  1  0.79904455  0.19671904  0.40082100  1
  Mo  Mo203  1  0.00348811  0.01308649  0.00296575  1
  Mo  Mo204  1  0.80267725  0.40435839  0.78359356  1
  Mo  Mo205  1  0.51446956  0.71315174  0.69196093  1
  Mo  Mo206  1  0.09576563  0.50510468  0.70006671  1
  Mo  Mo207  1  0.30529864  0.29077013  0.50279707  1
  Mo  Mo208  1  0.80163894  -0.00306090  0.39939424  1
  Mo  Mo209  1  0.50318389  0.49211915  0.11089855  1
  Mo  Mo210  1  0.50411321  0.10296984  0.89423553  1
  Mo  Mo211  1  0.90356891  0.29391486  0.10699652  1
  Mo  Mo212  1  0.50151269  0.10039582  0.50315484  1
  Mo  Mo213  1  0.79938126  0.79318089  -0.01718117  1
  Mo  Mo214  1  0.70047113  0.49610320  0.69503690  1
  Mo  Mo215  1  0.09545212  0.71498898  0.30234331  1
  Mo  Mo216  1  0.09508379  0.10059627  0.09582061  1
  Mo  Mo217  1  0.09276054  0.71991310  0.50749297  1
  Mo  Mo218  1  0.30597341  0.30494906  0.09848152  1
  Mo  Mo219  1  0.19757994  0.59585685  -0.01112638  1
  Mo  Mo220  1  0.41213617  0.60125047  0.38938747  1
  Mo  Mo221  1  0.40109733  0.39708882  0.00543673  1
  Mo  Mo222  1  0.69800306  0.70059220  0.30605433  1
  Mo  Mo223  1  0.89873035  0.09681018  0.50264788  1
  Mo  Mo224  1  0.89729596  0.49508364  0.70211864  1
  Mo  Mo225  1  0.29972310  0.88795983  0.30235961  1
  Mo  Mo226  1  -0.01245471  0.18498035  0.59964902  1
  Mo  Mo227  1  0.09776259  0.70291894  0.10212025  1
  Mo  Mo228  1  0.89707183  0.90236702  0.50216198  1
  Mo  Mo229  1  -0.01551237  0.19539133  0.79704019  1
  Mo  Mo230  1  0.70445137  0.90946319  0.70125039  1
  Mo  Mo231  1  0.70375406  0.10238146  0.69872151  1
  Mo  Mo232  1  0.79560092  0.00216304  0.79304120  1
  Mo  Mo233  1  0.49496333  0.91521429  0.09939424  1
  Mo  Mo234  1  0.50548406  0.69038454  0.10768921  1
  Mo  Mo235  1  0.29634181  0.11654725  0.30014477  1
  Mo  Mo236  1  0.29658295  0.49743045  0.90367025  1
  Mo  Mo237  1  0.19689340  0.38468056  0.39988695  1
  Mo  Mo238  1  0.50188571  0.48075009  0.69069561  1
  Mo  Mo239  1  0.79733924  0.39488603  0.59320336  1
  Mo  Mo240  1  0.60303965  0.40048184  0.39770563  1
  Mo  Mo241  1  0.40760565  0.39252657  0.79819295  1
  Mo  Mo242  1  -0.00050636  0.40645214  0.79716363  1
  Mo  Mo243  1  0.19948967  0.61002103  0.20471773  1
  Mo  Mo244  1  0.40500716  0.20029044  -0.00285880  1
  Mo  Mo245  1  0.09325831  0.10090466  0.31102924  1
  Mo  Mo246  1  0.80028397  0.39717721  0.20309150  1
  Mo  Mo247  1  0.20087631  0.20069114  0.21111419  1
  Mo  Mo248  1  0.20924794  0.00449435  0.80368019  1
  Mo  Mo249  1  0.50590663  0.28814342  0.69674230  1
