# generated using pymatgen
data_HfZrTaTiMo
_symmetry_space_group_name_H-M   'P 1'
_cell_length_a   16.88724391
_cell_length_b   16.89289719
_cell_length_c   16.89093443
_cell_angle_alpha   89.99142826
_cell_angle_beta   89.92200487
_cell_angle_gamma   90.00852316
_symmetry_Int_Tables_number   1
_chemical_formula_structural   HfZrTaTiMo
_chemical_formula_sum   'Hf50 Zr50 Ta50 Ti50 Mo50'
_cell_volume   4818.54788462
_cell_formula_units_Z   50
loop_
 _symmetry_equiv_pos_site_id
 _symmetry_equiv_pos_as_xyz
  1  'x, y, z'
loop_
 _atom_site_type_symbol
 _atom_site_label
 _atom_site_symmetry_multiplicity
 _atom_site_fract_x
 _atom_site_fract_y
 _atom_site_fract_z
 _atom_site_occupancy
  Hf  Hf0  1  0.19208803  0.00301257  0.40366592  1
  Hf  Hf1  1  0.79509518  0.19425408  0.19257710  1
  Hf  Hf2  1  0.39239204  0.20521329  0.18959692  1
  Hf  Hf3  1  0.09931216  0.89380923  0.29744245  1
  Hf  Hf4  1  0.09909137  0.69931124  0.29381166  1
  Hf  Hf5  1  0.90214490  0.69512775  0.90095456  1
  Hf  Hf6  1  0.29781551  0.89904125  0.30069282  1
  Hf  Hf7  1  0.09855433  0.10356842  0.89102343  1
  Hf  Hf8  1  0.40709346  -0.00435352  0.59886892  1
  Hf  Hf9  1  0.60429724  0.19791790  0.59731306  1
  Hf  Hf10  1  -0.00804492  -0.00728920  0.61011316  1
  Hf  Hf11  1  0.29740019  0.89610005  0.70383555  1
  Hf  Hf12  1  0.30708098  0.69702225  0.69830053  1
  Hf  Hf13  1  -0.01180628  0.79107363  0.39582718  1
  Hf  Hf14  1  0.30208049  0.49656831  0.49946762  1
  Hf  Hf15  1  0.19799974  0.00059178  -0.00725780  1
  Hf  Hf16  1  0.81185872  0.41947461  0.40160694  1
  Hf  Hf17  1  0.21542800  0.19505270  0.00369571  1
  Hf  Hf18  1  0.61088766  0.39686290  0.79305548  1
  Hf  Hf19  1  -0.00683748  0.19872305  0.19397124  1
  Hf  Hf20  1  -0.00409198  0.80125268  0.60925952  1
  Hf  Hf21  1  0.40469437  0.79425198  0.40923265  1
  Hf  Hf22  1  0.09367636  0.10703777  0.29869286  1
  Hf  Hf23  1  0.39763217  0.79440349  0.20587338  1
  Hf  Hf24  1  0.79790071  0.79999792  0.79658189  1
  Hf  Hf25  1  0.20376601  0.00991155  0.19449539  1
  Hf  Hf26  1  0.49438503  0.70170268  0.09199374  1
  Hf  Hf27  1  0.61929765  0.19470668  0.79925136  1
  Hf  Hf28  1  0.89910546  0.30779977  0.29659926  1
  Hf  Hf29  1  0.19191464  0.21233759  0.40844864  1
  Hf  Hf30  1  0.18821358  0.79338893  -0.00358855  1
  Hf  Hf31  1  0.60307386  0.40050551  0.00711995  1
  Hf  Hf32  1  0.69669321  0.90232258  0.30584838  1
  Hf  Hf33  1  0.79488412  0.20214953  0.61696526  1
  Hf  Hf34  1  0.59730592  0.20500077  0.19484958  1
  Hf  Hf35  1  0.10188566  0.49084717  0.69989462  1
  Hf  Hf36  1  0.79953141  0.80281551  0.61070550  1
  Hf  Hf37  1  0.90182602  0.10549923  0.50387241  1
  Hf  Hf38  1  0.60473619  0.80350092  0.80250543  1
  Hf  Hf39  1  0.09519683  0.89030799  0.49742882  1
  Hf  Hf40  1  0.39426820  0.39617767  0.00069244  1
  Hf  Hf41  1  0.40103472  0.39986820  0.19834306  1
  Hf  Hf42  1  0.40055653  -0.00153978  0.80386575  1
  Hf  Hf43  1  0.80410716  0.00760276  0.18432371  1
  Hf  Hf44  1  -0.01036400  0.58711947  0.39728396  1
  Hf  Hf45  1  0.79958346  0.00376967  0.80341342  1
  Hf  Hf46  1  0.20322661  0.59327250  0.80371350  1
  Hf  Hf47  1  0.30013811  0.89558238  0.09778480  1
  Hf  Hf48  1  0.18350734  -0.00257114  0.61797831  1
  Hf  Hf49  1  0.00379019  0.59778511  0.60002466  1
  Zr  Zr50  1  0.88987660  0.90039545  0.30539640  1
  Zr  Zr51  1  0.49881877  0.91241428  0.31309990  1
  Zr  Zr52  1  0.69815535  0.90339640  0.49753713  1
  Zr  Zr53  1  0.61604482  0.60304650  0.78798668  1
  Zr  Zr54  1  0.90934647  0.29409604  0.90326155  1
  Zr  Zr55  1  0.39612725  0.39893775  0.79982509  1
  Zr  Zr56  1  0.70066193  0.31499098  0.29880381  1
  Zr  Zr57  1  0.40469808  0.20948761  0.41377792  1
  Zr  Zr58  1  0.20636222  0.60853253  0.19686149  1
  Zr  Zr59  1  0.88934775  0.69231462  0.50301497  1
  Zr  Zr60  1  0.79992016  0.39073683  0.78756210  1
  Zr  Zr61  1  0.89355953  0.31195897  0.08969197  1
  Zr  Zr62  1  0.60065941  0.79936697  0.19810942  1
  Zr  Zr63  1  0.09631022  0.48753780  0.89741608  1
  Zr  Zr64  1  0.79325641  0.79624405  0.19866231  1
  Zr  Zr65  1  0.49797167  0.69763083  0.89465162  1
  Zr  Zr66  1  0.40189448  0.39655345  0.59671160  1
  Zr  Zr67  1  0.59582592  0.40634500  0.19710646  1
  Zr  Zr68  1  0.60805554  0.59794934  0.00207322  1
  Zr  Zr69  1  0.60277876  0.60437867  0.19811901  1
  Zr  Zr70  1  0.90768584  0.49484656  0.90511729  1
  Zr  Zr71  1  0.18474147  0.80712048  0.80109736  1
  Zr  Zr72  1  -0.00289059  -0.00149967  0.00235351  1
  Zr  Zr73  1  0.20735014  0.39612492  0.19620282  1
  Zr  Zr74  1  0.50278223  0.49857520  0.89789432  1
  Zr  Zr75  1  0.71293834  0.51800649  0.29976613  1
  Zr  Zr76  1  0.50464475  0.09776132  0.90426994  1
  Zr  Zr77  1  0.59851283  0.20192012  0.40610138  1
  Zr  Zr78  1  0.29922820  0.10194600  0.50928476  1
  Zr  Zr79  1  0.09980893  0.88948122  0.10795016  1
  Zr  Zr80  1  0.59906042  0.00601339  0.18883185  1
  Zr  Zr81  1  0.09698642  0.30476132  0.09147759  1
  Zr  Zr82  1  0.30404294  0.10558159  0.30759550  1
  Zr  Zr83  1  0.69389324  0.09353598  0.30836304  1
  Zr  Zr84  1  0.09921057  0.49945076  0.29423042  1
  Zr  Zr85  1  0.30755866  0.70715330  0.89363591  1
  Zr  Zr86  1  0.71350917  0.29890955  0.91362651  1
  Zr  Zr87  1  0.89563697  0.70079010  0.09045239  1
  Zr  Zr88  1  0.19755691  0.60281131  -0.00130926  1
  Zr  Zr89  1  0.39377704  0.19860773  0.79858144  1
  Zr  Zr90  1  0.09024937  0.11006946  0.50947917  1
  Zr  Zr91  1  0.79603963  0.20251216  0.40827821  1
  Zr  Zr92  1  0.49790382  0.90889553  0.08502012  1
  Zr  Zr93  1  0.59650444  0.79192790  0.60124764  1
  Zr  Zr94  1  0.90729049  0.30751500  0.51410827  1
  Zr  Zr95  1  0.69961489  0.32106988  0.50773570  1
  Zr  Zr96  1  0.29988712  0.90116622  0.50037929  1
  Zr  Zr97  1  0.50816302  0.09598830  0.70045939  1
  Zr  Zr98  1  0.79684778  0.59283520  0.79584898  1
  Zr  Zr99  1  0.50485867  0.50340497  0.68735868  1
  Ta  Ta100  1  0.80104234  0.17275339  0.00357176  1
  Ta  Ta101  1  -0.00650900  0.00003099  0.19935630  1
  Ta  Ta102  1  0.10252361  0.69378773  0.49788976  1
  Ta  Ta103  1  0.39778265  0.00957440  0.19488989  1
  Ta  Ta104  1  0.09828728  0.69353920  0.70082145  1
  Ta  Ta105  1  0.70419821  0.90458721  0.08612164  1
  Ta  Ta106  1  0.00475706  0.40071663  0.40404627  1
  Ta  Ta107  1  0.38972429  0.59399683  -0.00127020  1
  Ta  Ta108  1  0.49979803  0.69466315  0.30382795  1
  Ta  Ta109  1  0.29832094  0.90359337  0.89732367  1
  Ta  Ta110  1  -0.00466419  0.80401438  0.79668317  1
  Ta  Ta111  1  0.69507006  0.91022913  0.70230274  1
  Ta  Ta112  1  0.49582896  0.10394353  0.09057855  1
  Ta  Ta113  1  0.19753505  0.79124504  0.59972811  1
  Ta  Ta114  1  0.09595612  0.49807489  0.09639284  1
  Ta  Ta115  1  0.10327692  0.30296577  0.70054136  1
  Ta  Ta116  1  0.10285894  0.29762233  0.89469206  1
  Ta  Ta117  1  0.29525863  0.29867147  0.89772907  1
  Ta  Ta118  1  0.20473151  0.78678333  0.39830291  1
  Ta  Ta119  1  0.40278354  0.20464310  0.60322925  1
  Ta  Ta120  1  0.19653282  0.39926210  0.40276606  1
  Ta  Ta121  1  0.87665965  0.67762650  0.29736548  1
  Ta  Ta122  1  0.20129135  0.59879512  0.59812182  1
  Ta  Ta123  1  0.20435860  0.59846466  0.40132120  1
  Ta  Ta124  1  0.09929373  0.10264985  0.10114014  1
  Ta  Ta125  1  0.10287068  0.49399096  0.50473861  1
  Ta  Ta126  1  0.80468065  0.19354754  0.79990896  1
  Ta  Ta127  1  0.61065442  0.19542384  0.00466781  1
  Ta  Ta128  1  0.40808654  0.79860826  0.60005322  1
  Ta  Ta129  1  0.90171449  0.90001674  0.89984723  1
  Ta  Ta130  1  -0.00940822  0.79163964  0.19839954  1
  Ta  Ta131  1  0.59496726  0.60428442  0.40873397  1
  Ta  Ta132  1  0.29419875  0.49603786  0.69526070  1
  Ta  Ta133  1  0.90636570  0.49229689  0.69497138  1
  Ta  Ta134  1  -0.00603849  0.00016588  0.39992584  1
  Ta  Ta135  1  0.90093767  0.10097997  0.30435948  1
  Ta  Ta136  1  0.39614719  0.59989183  0.20272065  1
  Ta  Ta137  1  0.50282733  0.29203883  0.90125606  1
  Ta  Ta138  1  0.39978371  0.59975890  0.39922974  1
  Ta  Ta139  1  0.30027593  0.30616715  0.30800956  1
  Ta  Ta140  1  0.29839660  0.50107243  0.09795962  1
  Ta  Ta141  1  0.49537369  0.09967226  0.30287322  1
  Ta  Ta142  1  0.80095919  0.00555434  0.60908006  1
  Ta  Ta143  1  0.59579639  0.79121111  0.40646216  1
  Ta  Ta144  1  0.30033143  0.69587142  0.50301533  1
  Ta  Ta145  1  0.01125555  -0.00961926  0.79370017  1
  Ta  Ta146  1  0.50838503  0.29845099  0.69785511  1
  Ta  Ta147  1  0.20023876  0.19815734  0.79483589  1
  Ta  Ta148  1  0.09703559  0.30405964  0.29874475  1
  Ta  Ta149  1  0.60444561  0.80805167  -0.01049854  1
  Ti  Ti150  1  0.90315889  0.68785112  0.70619095  1
  Ti  Ti151  1  0.38547473  0.01418997  -0.00347404  1
  Ti  Ti152  1  0.71101908  0.30890891  0.09953730  1
  Ti  Ti153  1  0.70358748  0.70390867  0.09095684  1
  Ti  Ti154  1  0.39467789  0.58897691  0.80179599  1
  Ti  Ti155  1  0.49658189  0.29253803  0.08700985  1
  Ti  Ti156  1  0.60734374  0.00436470  0.59562339  1
  Ti  Ti157  1  -0.00030991  0.19370451  0.00182230  1
  Ti  Ti158  1  0.29390468  0.09891569  0.70196899  1
  Ti  Ti159  1  0.59276054  0.41620120  0.40315182  1
  Ti  Ti160  1  0.00518827  0.80041759  -0.00488879  1
  Ti  Ti161  1  0.49853621  0.69316394  0.69780347  1
  Ti  Ti162  1  0.49505365  0.30720728  0.30885847  1
  Ti  Ti163  1  0.50567165  0.31556939  0.50260962  1
  Ti  Ti164  1  0.78983181  0.59522378  0.61035175  1
  Ti  Ti165  1  0.30426827  0.49704069  0.30461677  1
  Ti  Ti166  1  0.78887332  0.78617603  0.39986558  1
  Ti  Ti167  1  0.29464558  0.30743024  0.50450180  1
  Ti  Ti168  1  0.30161421  0.70543256  0.09807272  1
  Ti  Ti169  1  0.79915536  0.58819988  0.00954767  1
  Ti  Ti170  1  0.69259094  0.50463289  0.51046539  1
  Ti  Ti171  1  0.49470949  0.50329105  0.30584772  1
  Ti  Ti172  1  0.70739820  0.69831462  0.90543383  1
  Ti  Ti173  1  0.08369678  0.69158322  0.88993533  1
  Ti  Ti174  1  0.89711084  0.89617187  0.09307396  1
  Ti  Ti175  1  0.20589946  0.40066077  -0.00435646  1
  Ti  Ti176  1  0.79441737  0.81122923  -0.01080538  1
  Ti  Ti177  1  0.00542640  0.59815868  0.00805264  1
  Ti  Ti178  1  0.89858986  0.49813511  0.51559132  1
  Ti  Ti179  1  0.69825745  0.69038203  0.50487287  1
  Ti  Ti180  1  0.79912793  0.00850200  0.41059833  1
  Ti  Ti181  1  0.89283412  0.89944288  0.49793077  1
  Ti  Ti182  1  -0.00165266  0.38697724  0.79232550  1
  Ti  Ti183  1  0.70859575  0.49353236  0.90766780  1
  Ti  Ti184  1  0.00267500  0.20928007  0.61641450  1
  Ti  Ti185  1  0.19744907  0.20582858  0.60530001  1
  Ti  Ti186  1  -0.00919728  0.59957125  0.19252456  1
  Ti  Ti187  1  0.50179963  0.08637340  0.49110352  1
  Ti  Ti188  1  0.49265867  0.50710043  0.09884480  1
  Ti  Ti189  1  0.41244907  0.80984019  0.79838262  1
  Ti  Ti190  1  0.90696037  0.09701644  0.89763542  1
  Ti  Ti191  1  0.00046250  0.21021188  0.40114004  1
  Ti  Ti192  1  0.91148647  0.10518179  0.71057202  1
  Ti  Ti193  1  0.20507935  0.20508556  0.19520326  1
  Ti  Ti194  1  0.40407036  0.80824560  -0.01204072  1
  Ti  Ti195  1  -0.00781871  0.41039359  0.19748530  1
  Ti  Ti196  1  0.29229292  0.30487084  0.69810491  1
  Ti  Ti197  1  0.51013682  0.90524523  0.70102194  1
  Ti  Ti198  1  0.40667478  0.60276045  0.58926774  1
  Ti  Ti199  1  0.61544126  0.00094766  -0.01487166  1
  Mo  Mo200  1  0.60039733  0.60108828  0.59345688  1
  Mo  Mo201  1  0.09764167  0.89014272  0.69871974  1
  Mo  Mo202  1  0.90686194  0.29781958  0.70395021  1
  Mo  Mo203  1  0.20089735  0.39602027  0.59814468  1
  Mo  Mo204  1  0.89697785  0.90546233  0.70702313  1
  Mo  Mo205  1  0.70289441  0.90120086  0.89918079  1
  Mo  Mo206  1  0.09905440  0.30629137  0.50584663  1
  Mo  Mo207  1  0.09768320  0.11117104  0.70396429  1
  Mo  Mo208  1  0.20193366  0.00438251  0.80102453  1
  Mo  Mo209  1  0.79452178  0.59724391  0.41875780  1
  Mo  Mo210  1  0.09435119  0.90040836  0.89653562  1
  Mo  Mo211  1  0.29793557  0.49308137  0.90016902  1
  Mo  Mo212  1  0.69509922  0.70051881  0.31353252  1
  Mo  Mo213  1  0.50364059  0.89983905  0.50607671  1
  Mo  Mo214  1  0.59711953  -0.00072755  0.40959490  1
  Mo  Mo215  1  0.79759285  0.60236722  0.18431248  1
  Mo  Mo216  1  0.70185395  0.69939511  0.69315971  1
  Mo  Mo217  1  0.60550862  -0.00574938  0.80321622  1
  Mo  Mo218  1  0.00327277  0.40010491  0.60134105  1
  Mo  Mo219  1  0.70226069  0.09290571  0.50736945  1
  Mo  Mo220  1  0.49968988  0.90396393  0.89961260  1
  Mo  Mo221  1  0.70345563  0.49338340  0.68168898  1
  Mo  Mo222  1  0.49526706  0.69482034  0.50098154  1
  Mo  Mo223  1  0.90651092  0.09798194  0.09987606  1
  Mo  Mo224  1  0.80221870  0.41341701  0.00395856  1
  Mo  Mo225  1  0.70650086  0.09626603  0.90190556  1
  Mo  Mo226  1  0.08891617  0.69683841  0.10189609  1
  Mo  Mo227  1  0.70127945  0.29838007  0.69954021  1
  Mo  Mo228  1  0.80094447  0.40725485  0.60386164  1
  Mo  Mo229  1  0.90176110  0.50310003  0.29189783  1
  Mo  Mo230  1  0.80659860  0.41276349  0.19612826  1
  Mo  Mo231  1  0.20279429  0.39008878  0.79766249  1
  Mo  Mo232  1  0.50141218  0.50235441  0.49252916  1
  Mo  Mo233  1  0.30073308  0.30398517  0.09651373  1
  Mo  Mo234  1  0.30271796  0.10100735  0.09708452  1
  Mo  Mo235  1  0.29693662  0.09919752  0.89410940  1
  Mo  Mo236  1  0.40382504  0.20385345  -0.00385150  1
  Mo  Mo237  1  0.80433038  -0.00357598  -0.00512250  1
  Mo  Mo238  1  0.90530507  0.50345253  0.10130309  1
  Mo  Mo239  1  -0.00015221  0.60095451  0.79360785  1
  Mo  Mo240  1  0.39931559  0.40150845  0.39668011  1
  Mo  Mo241  1  0.00261684  0.19897634  0.79643151  1
  Mo  Mo242  1  0.70244326  0.09461884  0.70162440  1
  Mo  Mo243  1  0.69272307  0.09576286  0.09358730  1
  Mo  Mo244  1  0.20159969  0.79420942  0.20028426  1
  Mo  Mo245  1  0.00697878  0.40115750  -0.00005783  1
  Mo  Mo246  1  0.40375867  0.00248092  0.40202307  1
  Mo  Mo247  1  0.71281257  0.49586304  0.10276157  1
  Mo  Mo248  1  0.59982280  0.40183705  0.60044595  1
  Mo  Mo249  1  0.30327498  0.69569331  0.30630822  1
