# generated using pymatgen
data_HfZrTaTiMo
_symmetry_space_group_name_H-M   'P 1'
_cell_length_a   16.89016969
_cell_length_b   16.89908083
_cell_length_c   16.88812530
_cell_angle_alpha   90.00946979
_cell_angle_beta   90.03471678
_cell_angle_gamma   90.05047643
_symmetry_Int_Tables_number   1
_chemical_formula_structural   HfZrTaTiMo
_chemical_formula_sum   'Hf50 Zr50 Ta50 Ti50 Mo50'
_cell_volume   4820.34679706
_cell_formula_units_Z   50
loop_
 _symmetry_equiv_pos_site_id
 _symmetry_equiv_pos_as_xyz
  1  'x, y, z'
loop_
 _atom_site_type_symbol
 _atom_site_label
 _atom_site_symmetry_multiplicity
 _atom_site_fract_x
 _atom_site_fract_y
 _atom_site_fract_z
 _atom_site_occupancy
  Hf  Hf0  1  0.79650923  0.18625440  0.19423213  1
  Hf  Hf1  1  0.10286533  0.70066963  0.50284358  1
  Hf  Hf2  1  0.69200909  0.10272047  0.90430025  1
  Hf  Hf3  1  0.09746967  0.09608231  0.29373827  1
  Hf  Hf4  1  0.49810751  0.91237061  0.49429961  1
  Hf  Hf5  1  -0.00421240  -0.00511046  0.40601758  1
  Hf  Hf6  1  0.09297080  0.90161776  0.29252406  1
  Hf  Hf7  1  0.60308315  0.80202557  -0.00091142  1
  Hf  Hf8  1  0.20250906  -0.01254550  -0.00282963  1
  Hf  Hf9  1  0.28769532  0.70457370  0.51100602  1
  Hf  Hf10  1  0.40539257  0.20243867  0.00337686  1
  Hf  Hf11  1  0.89842060  0.69983687  0.70359307  1
  Hf  Hf12  1  0.50215583  0.50828464  0.90325286  1
  Hf  Hf13  1  0.90201045  0.49983310  0.09065874  1
  Hf  Hf14  1  0.89804298  0.70572884  0.29741156  1
  Hf  Hf15  1  0.40085773  0.19020983  0.40234685  1
  Hf  Hf16  1  0.79187016  0.60424330  0.39755273  1
  Hf  Hf17  1  0.70240774  0.89884488  0.10492308  1
  Hf  Hf18  1  0.49884571  0.50524291  0.70269701  1
  Hf  Hf19  1  0.19602310  0.20263884  0.79550608  1
  Hf  Hf20  1  0.90403699  0.09636139  0.89708813  1
  Hf  Hf21  1  0.50368278  0.29881322  0.50033560  1
  Hf  Hf22  1  0.30023791  0.69603523  0.09197389  1
  Hf  Hf23  1  0.40089978  0.18970280  0.20315858  1
  Hf  Hf24  1  0.08024145  0.48643891  0.90415262  1
  Hf  Hf25  1  0.40395203  0.18772380  0.60069965  1
  Hf  Hf26  1  0.59911232  0.00815560  0.59966571  1
  Hf  Hf27  1  0.09528970  0.09055583  0.89275390  1
  Hf  Hf28  1  0.20518732  0.00814191  0.40512470  1
  Hf  Hf29  1  0.69829918  0.50211425  0.09739438  1
  Hf  Hf30  1  0.10279836  0.50078047  0.29153222  1
  Hf  Hf31  1  0.19945401  0.20445143  -0.00333859  1
  Hf  Hf32  1  0.09262438  0.30840017  0.10146600  1
  Hf  Hf33  1  0.20569022  0.18861543  0.59485184  1
  Hf  Hf34  1  0.69262137  0.29086034  0.70223914  1
  Hf  Hf35  1  0.40415321  0.61422743  0.60511424  1
  Hf  Hf36  1  0.70468550  0.70517969  0.70389342  1
  Hf  Hf37  1  0.09731508  0.69507957  0.09865156  1
  Hf  Hf38  1  0.60579639  0.40212322  0.80806553  1
  Hf  Hf39  1  0.80050375  0.40166427  0.39904369  1
  Hf  Hf40  1  -0.01028565  -0.01785730  -0.00150051  1
  Hf  Hf41  1  0.20397694  0.39656545  0.00018253  1
  Hf  Hf42  1  0.00344654  0.19922981  0.59697362  1
  Hf  Hf43  1  0.69920633  0.90479435  0.69604887  1
  Hf  Hf44  1  0.21030167  0.19270044  0.40119858  1
  Hf  Hf45  1  0.00010601  0.40091215  0.59489251  1
  Hf  Hf46  1  0.09137779  0.08699392  0.70320080  1
  Hf  Hf47  1  0.49455980  0.70107197  0.90192700  1
  Hf  Hf48  1  0.79748359  0.40502774  0.80693645  1
  Hf  Hf49  1  0.50758953  0.30198560  0.30140523  1
  Zr  Zr50  1  0.78634563  0.18418465  0.60065197  1
  Zr  Zr51  1  0.79411050  0.60731136  0.19723819  1
  Zr  Zr52  1  -0.00244861  0.19915535  0.00228863  1
  Zr  Zr53  1  0.40189333  0.80346032  0.19668642  1
  Zr  Zr54  1  0.89783132  0.50051321  0.70341931  1
  Zr  Zr55  1  0.89799082  0.69346124  0.49702925  1
  Zr  Zr56  1  0.30429051  0.30723228  0.29670943  1
  Zr  Zr57  1  0.21666081  -0.00138463  0.19839797  1
  Zr  Zr58  1  0.40625732  0.79416441  0.40408911  1
  Zr  Zr59  1  0.09888253  0.69605810  0.90688939  1
  Zr  Zr60  1  -0.00379538  0.80938459  0.59384444  1
  Zr  Zr61  1  0.90128236  0.91445624  0.69304118  1
  Zr  Zr62  1  0.40512722  0.80309789  0.79261797  1
  Zr  Zr63  1  0.20545498  0.00273380  0.60138074  1
  Zr  Zr64  1  0.50224369  0.70302220  0.09789640  1
  Zr  Zr65  1  0.60240486  0.18571484  0.19980178  1
  Zr  Zr66  1  0.11218155  0.30462787  0.50405954  1
  Zr  Zr67  1  0.91324687  0.31510885  0.90359337  1
  Zr  Zr68  1  0.40131683  0.40714527  0.39779185  1
  Zr  Zr69  1  -0.00410189  0.81207166  0.81529649  1
  Zr  Zr70  1  0.30307537  0.09892491  0.09479619  1
  Zr  Zr71  1  0.29608646  0.31476204  0.69356984  1
  Zr  Zr72  1  0.09389849  0.09158336  0.10318026  1
  Zr  Zr73  1  -0.00684570  0.80765135  0.40229631  1
  Zr  Zr74  1  0.30360953  0.30687081  0.89385201  1
  Zr  Zr75  1  0.09730894  0.69715796  0.29701060  1
  Zr  Zr76  1  -0.00833345  0.20051889  0.20195626  1
  Zr  Zr77  1  0.30987423  0.90331412  0.31333602  1
  Zr  Zr78  1  0.49721493  0.30234201  0.70079065  1
  Zr  Zr79  1  0.40439814  0.19774124  0.80445845  1
  Zr  Zr80  1  0.50369620  0.50512986  0.49728591  1
  Zr  Zr81  1  0.60720195  0.40297687  0.59929529  1
  Zr  Zr82  1  0.69777733  0.29760383  0.09641561  1
  Zr  Zr83  1  0.10058167  0.70569731  0.69879862  1
  Zr  Zr84  1  -0.00308384  0.40063823  0.40128598  1
  Zr  Zr85  1  0.20259178  0.80717766  0.19051709  1
  Zr  Zr86  1  0.39928557  0.60325593  0.40084650  1
  Zr  Zr87  1  0.09851639  0.50358672  0.10121007  1
  Zr  Zr88  1  0.30066960  0.50245950  0.89409203  1
  Zr  Zr89  1  0.60693878  0.61313640  0.59792258  1
  Zr  Zr90  1  0.40739958  -0.00111590  -0.00188873  1
  Zr  Zr91  1  0.49887909  0.30981913  0.10792329  1
  Zr  Zr92  1  0.79828381  0.20333733  0.80341232  1
  Zr  Zr93  1  0.19521607  0.59729477  0.79756843  1
  Zr  Zr94  1  0.79513919  0.80202359  0.58772431  1
  Zr  Zr95  1  0.79438396  -0.00141238  0.80562038  1
  Zr  Zr96  1  0.90540508  0.09534440  0.70017512  1
  Zr  Zr97  1  0.00004423  0.19753932  0.40019516  1
  Zr  Zr98  1  0.29134240  0.69176505  0.29470636  1
  Zr  Zr99  1  0.79954386  0.40120107  0.59481659  1
  Ta  Ta100  1  0.20555301  -0.01258489  0.80479480  1
  Ta  Ta101  1  0.79755902  0.39996574  0.20413870  1
  Ta  Ta102  1  0.60126605  0.80481838  0.80111632  1
  Ta  Ta103  1  0.39678029  0.60949335  0.79313518  1
  Ta  Ta104  1  0.69870331  0.50695059  0.49362413  1
  Ta  Ta105  1  0.89664638  0.69888474  0.90761472  1
  Ta  Ta106  1  -0.01161031  0.80114567  0.00611729  1
  Ta  Ta107  1  0.60752615  0.40335003  0.39590839  1
  Ta  Ta108  1  0.30285227  0.70333093  0.90399765  1
  Ta  Ta109  1  0.29552817  0.49848793  0.51117214  1
  Ta  Ta110  1  0.30569461  0.89411557  0.50961055  1
  Ta  Ta111  1  0.51692601  0.89665795  0.29866378  1
  Ta  Ta112  1  0.29831362  0.50203377  0.29239769  1
  Ta  Ta113  1  0.89337419  0.30674453  0.09960262  1
  Ta  Ta114  1  0.29934040  0.49786285  0.69720922  1
  Ta  Ta115  1  0.60322747  0.60522372  0.19722565  1
  Ta  Ta116  1  -0.00822514  0.59434685  0.80386573  1
  Ta  Ta117  1  0.69935674  0.51082306  0.90626123  1
  Ta  Ta118  1  0.20161839  0.40752340  0.40236588  1
  Ta  Ta119  1  0.88705609  0.90230487  0.28969016  1
  Ta  Ta120  1  0.69585870  0.29076491  0.49061523  1
  Ta  Ta121  1  0.10164826  0.90275663  0.70244984  1
  Ta  Ta122  1  -0.00931554  0.60378799  0.19660104  1
  Ta  Ta123  1  0.41181436  0.00086135  0.20214704  1
  Ta  Ta124  1  0.51188893  0.69941446  0.29862685  1
  Ta  Ta125  1  0.00229002  0.58859455  0.59723716  1
  Ta  Ta126  1  0.20665637  0.20460200  0.19928136  1
  Ta  Ta127  1  0.50602658  0.50401518  0.29311066  1
  Ta  Ta128  1  0.69830741  0.29602990  0.30163586  1
  Ta  Ta129  1  0.79523314  0.40276751  -0.00424256  1
  Ta  Ta130  1  0.50899828  0.08782089  0.31316961  1
  Ta  Ta131  1  0.11395527  0.89847233  0.50655807  1
  Ta  Ta132  1  0.59909017  0.40445324  -0.00136042  1
  Ta  Ta133  1  0.20193356  0.80620965  -0.00213896  1
  Ta  Ta134  1  0.79674527  0.19076311  0.39264775  1
  Ta  Ta135  1  0.89911685  0.50334916  0.29680859  1
  Ta  Ta136  1  0.79264740  -0.00172207  0.39535640  1
  Ta  Ta137  1  0.88894426  0.28929693  0.49841682  1
  Ta  Ta138  1  0.41188417  0.79969886  0.60595570  1
  Ta  Ta139  1  0.19729322  0.59033831  0.40487949  1
  Ta  Ta140  1  0.69128541  0.90047116  0.49191013  1
  Ta  Ta141  1  0.30870283  0.08636865  0.70904425  1
  Ta  Ta142  1  0.59610259  0.18796498  0.59922525  1
  Ta  Ta143  1  0.89190543  0.09054369  0.50139660  1
  Ta  Ta144  1  0.50749385  0.90136704  0.10489665  1
  Ta  Ta145  1  0.30537379  0.31251591  0.50737300  1
  Ta  Ta146  1  0.40671666  0.59381683  0.19570156  1
  Ta  Ta147  1  0.79922403  0.60231374  0.81030007  1
  Ta  Ta148  1  0.89498987  0.08710257  0.29514448  1
  Ta  Ta149  1  0.40343656  0.40460555  0.00920098  1
  Ti  Ti150  1  0.70156885  0.90298290  0.90784195  1
  Ti  Ti151  1  0.80275943  0.00211870  0.01204402  1
  Ti  Ti152  1  0.51975113  0.70607416  0.48831928  1
  Ti  Ti153  1  0.59219246  0.19241574  0.00750839  1
  Ti  Ti154  1  0.79358275  0.80559471  0.39985679  1
  Ti  Ti155  1  0.79827234  0.79428744  0.18780517  1
  Ti  Ti156  1  0.89090682  0.29779340  0.29882657  1
  Ti  Ti157  1  0.69788790  0.90022942  0.29674068  1
  Ti  Ti158  1  0.80239186  0.19492869  0.00572084  1
  Ti  Ti159  1  0.50731721  0.29995569  0.90317627  1
  Ti  Ti160  1  0.59655586  -0.00500915  0.80064943  1
  Ti  Ti161  1  0.79852977  0.80360760  0.81182071  1
  Ti  Ti162  1  0.30988798  0.89349411  0.90053613  1
  Ti  Ti163  1  0.29064516  0.70616836  0.69877645  1
  Ti  Ti164  1  0.60179409  0.61046604  0.80078912  1
  Ti  Ti165  1  0.69266081  0.29272253  0.90738015  1
  Ti  Ti166  1  0.09232485  0.89868473  0.10213369  1
  Ti  Ti167  1  0.10068189  0.48709217  0.70384187  1
  Ti  Ti168  1  0.59440774  0.80205951  0.60197834  1
  Ti  Ti169  1  0.59867840  0.00438522  0.00807920  1
  Ti  Ti170  1  0.49835694  0.08987634  0.71036657  1
  Ti  Ti171  1  0.19866239  0.80220471  0.39988788  1
  Ti  Ti172  1  0.30399827  0.49842601  0.10720691  1
  Ti  Ti173  1  0.60219820  0.40799986  0.20064918  1
  Ti  Ti174  1  0.39962749  0.59300598  0.00387511  1
  Ti  Ti175  1  0.19064033  0.58896578  0.60187071  1
  Ti  Ti176  1  0.60766354  0.00550793  0.19949164  1
  Ti  Ti177  1  0.30252481  0.09368086  0.89320101  1
  Ti  Ti178  1  -0.01286558  0.80209556  0.18820721  1
  Ti  Ti179  1  0.33267775  0.07110459  0.50386842  1
  Ti  Ti180  1  0.50184692  0.90234947  0.89915155  1
  Ti  Ti181  1  0.00026424  0.58923697  0.40485885  1
  Ti  Ti182  1  0.60372340  0.60433148  0.00506454  1
  Ti  Ti183  1  0.79943948  0.59756026  0.59332845  1
  Ti  Ti184  1  -0.01058691  0.40003621  0.20473214  1
  Ti  Ti185  1  0.68928556  0.09722830  0.48192233  1
  Ti  Ti186  1  0.40547318  0.40580779  0.80307484  1
  Ti  Ti187  1  0.89986525  0.30084724  0.69768415  1
  Ti  Ti188  1  0.80015083  0.60875389  0.00156492  1
  Ti  Ti189  1  0.30658964  0.90217646  0.69694184  1
  Ti  Ti190  1  0.50482400  0.09712744  0.89568460  1
  Ti  Ti191  1  0.68966572  0.71404146  0.30092500  1
  Ti  Ti192  1  0.20988486  0.39647274  0.19557938  1
  Ti  Ti193  1  0.00981133  0.21919557  0.79557640  1
  Ti  Ti194  1  0.10608753  0.30282896  0.29772988  1
  Ti  Ti195  1  0.70154169  0.50913476  0.70298000  1
  Ti  Ti196  1  0.20281270  0.59485270  -0.00141459  1
  Ti  Ti197  1  0.70266617  0.70193774  0.90441374  1
  Ti  Ti198  1  0.69539191  0.50192651  0.29967050  1
  Ti  Ti199  1  0.20232068  0.80564229  0.80450277  1
  Mo  Mo200  1  0.69881153  0.09180441  0.09160986  1
  Mo  Mo201  1  0.89368040  0.50797955  0.90331505  1
  Mo  Mo202  1  0.88038883  0.91095854  0.49408687  1
  Mo  Mo203  1  0.89888606  0.70146550  0.09661223  1
  Mo  Mo204  1  0.50616617  0.90040931  0.69968488  1
  Mo  Mo205  1  0.79590345  0.79688992  -0.00086988  1
  Mo  Mo206  1  0.20461180  0.59492826  0.19747179  1
  Mo  Mo207  1  0.39783609  0.40995936  0.60103980  1
  Mo  Mo208  1  0.89213544  0.89439174  0.10485860  1
  Mo  Mo209  1  0.30792267  0.09864531  0.29822608  1
  Mo  Mo210  1  0.89248100  0.09239033  0.10033312  1
  Mo  Mo211  1  0.60344800  0.19882027  0.40086291  1
  Mo  Mo212  1  0.40195849  -0.00420223  0.80385373  1
  Mo  Mo213  1  0.40721091  -0.00823528  0.61310997  1
  Mo  Mo214  1  0.19823736  0.40813932  0.60054571  1
  Mo  Mo215  1  0.60575375  0.60156805  0.38919901  1
  Mo  Mo216  1  0.87880963  0.89310143  0.91146226  1
  Mo  Mo217  1  0.39949531  0.80717914  -0.00415541  1
  Mo  Mo218  1  0.79476367  -0.00189536  0.20164050  1
  Mo  Mo219  1  0.40816929  -0.00393167  0.39374174  1
  Mo  Mo220  1  0.50486027  0.09943303  0.49748955  1
  Mo  Mo221  1  0.89772484  0.50250855  0.49431583  1
  Mo  Mo222  1  -0.00513302  0.40013415  0.00935918  1
  Mo  Mo223  1  0.20818325  0.80789983  0.61095631  1
  Mo  Mo224  1  0.50638867  0.09072422  0.10294192  1
  Mo  Mo225  1  0.40188043  0.41257697  0.19682111  1
  Mo  Mo226  1  0.50412120  0.50437496  0.09980847  1
  Mo  Mo227  1  0.00584602  -0.01413926  0.81159760  1
  Mo  Mo228  1  -0.01598038  -0.00767756  0.19504344  1
  Mo  Mo229  1  0.30072872  0.30453801  0.10209080  1
  Mo  Mo230  1  0.59560753  0.19442151  0.80401657  1
  Mo  Mo231  1  0.09045756  0.09406179  0.50130151  1
  Mo  Mo232  1  0.70051579  0.09436885  0.30052851  1
  Mo  Mo233  1  0.00658834  -0.00022933  0.58604278  1
  Mo  Mo234  1  0.10192120  0.50397804  0.50002669  1
  Mo  Mo235  1  0.69529005  0.70581322  0.49448248  1
  Mo  Mo236  1  0.50920593  0.70606646  0.70581114  1
  Mo  Mo237  1  0.70059619  0.70088829  0.09568857  1
  Mo  Mo238  1  0.09953782  0.30528593  0.70060319  1
  Mo  Mo239  1  0.60575690  -0.00189503  0.39417303  1
  Mo  Mo240  1  0.10100212  0.30534083  0.89361995  1
  Mo  Mo241  1  0.78679004  0.00269041  0.58626982  1
  Mo  Mo242  1  0.60584896  0.80213595  0.39769493  1
  Mo  Mo243  1  -0.00187267  0.39875936  0.78894169  1
  Mo  Mo244  1  0.18624209  0.39686515  0.79606679  1
  Mo  Mo245  1  0.60611859  0.80069631  0.20156726  1
  Mo  Mo246  1  0.68221681  0.09970114  0.71261011  1
  Mo  Mo247  1  0.31480657  0.89421068  0.08987167  1
  Mo  Mo248  1  -0.00964095  0.60490494  -0.00118824  1
  Mo  Mo249  1  0.10999442  0.89331043  0.90037367  1
