# generated using pymatgen
data_HfZrTaTiMo
_symmetry_space_group_name_H-M   'P 1'
_cell_length_a   16.88556209
_cell_length_b   16.88839894
_cell_length_c   16.88692872
_cell_angle_alpha   89.99138702
_cell_angle_beta   90.07961253
_cell_angle_gamma   90.02067049
_symmetry_Int_Tables_number   1
_chemical_formula_structural   HfZrTaTiMo
_chemical_formula_sum   'Hf50 Zr50 Ta50 Ti50 Mo50'
_cell_volume   4815.64228536
_cell_formula_units_Z   50
loop_
 _symmetry_equiv_pos_site_id
 _symmetry_equiv_pos_as_xyz
  1  'x, y, z'
loop_
 _atom_site_type_symbol
 _atom_site_label
 _atom_site_symmetry_multiplicity
 _atom_site_fract_x
 _atom_site_fract_y
 _atom_site_fract_z
 _atom_site_occupancy
  Hf  Hf0  1  0.01016902  0.60004851  0.40694498  1
  Hf  Hf1  1  0.29751612  0.10010344  0.29018340  1
  Hf  Hf2  1  0.79353768  0.59905870  0.00439037  1
  Hf  Hf3  1  0.30501240  0.69622669  0.69799298  1
  Hf  Hf4  1  0.40007483  0.60693371  -0.00938569  1
  Hf  Hf5  1  0.90091007  0.10698277  0.70094152  1
  Hf  Hf6  1  0.30264477  0.30081485  0.50093006  1
  Hf  Hf7  1  0.59984294  0.00187114  -0.00374318  1
  Hf  Hf8  1  0.90591255  0.50323675  0.70320802  1
  Hf  Hf9  1  0.59584374  0.40189055  0.79406875  1
  Hf  Hf10  1  0.89447110  0.09922294  0.09990033  1
  Hf  Hf11  1  0.09891569  0.88800966  0.28935452  1
  Hf  Hf12  1  0.88699975  0.10451842  0.30253058  1
  Hf  Hf13  1  0.20260885  0.60518293  -0.00462051  1
  Hf  Hf14  1  0.80019130  0.40042176  -0.00438142  1
  Hf  Hf15  1  0.58840252  0.20191394  0.00156794  1
  Hf  Hf16  1  -0.00126557  -0.00430943  0.60087494  1
  Hf  Hf17  1  0.79375002  0.20502374  0.20513895  1
  Hf  Hf18  1  0.30400105  0.90121869  0.70241507  1
  Hf  Hf19  1  0.40162097  0.39932388  0.39501541  1
  Hf  Hf20  1  0.69163706  0.29675730  0.10184407  1
  Hf  Hf21  1  0.29222260  0.90410718  0.09341972  1
  Hf  Hf22  1  0.79934697  0.79938329  -0.00455518  1
  Hf  Hf23  1  0.09652456  0.10104558  0.70425262  1
  Hf  Hf24  1  0.79664856  0.60722257  0.61065319  1
  Hf  Hf25  1  0.29570539  0.09762306  0.70035504  1
  Hf  Hf26  1  0.00586021  -0.00065552  0.00181394  1
  Hf  Hf27  1  0.70383492  0.91377036  0.10439517  1
  Hf  Hf28  1  0.39301242  -0.00064916  0.81274951  1
  Hf  Hf29  1  0.00064120  0.60446156  0.00317989  1
  Hf  Hf30  1  0.10599394  0.29707106  0.10826201  1
  Hf  Hf31  1  0.69841837  0.29087026  0.69708278  1
  Hf  Hf32  1  0.79340585  0.79369494  0.20335217  1
  Hf  Hf33  1  0.69975495  0.90865071  0.49955416  1
  Hf  Hf34  1  0.29030602  0.70455343  0.30074924  1
  Hf  Hf35  1  0.90659718  0.70265518  0.50345405  1
  Hf  Hf36  1  0.19390106  0.38687615  -0.00838272  1
  Hf  Hf37  1  0.89438104  0.89700540  0.69299144  1
  Hf  Hf38  1  0.29407065  0.30782433  0.28475385  1
  Hf  Hf39  1  -0.00156419  0.80407623  0.80091870  1
  Hf  Hf40  1  0.90699187  0.29630079  0.70229133  1
  Hf  Hf41  1  0.50766435  0.50103756  0.49807461  1
  Hf  Hf42  1  0.29685091  0.70947914  0.10306441  1
  Hf  Hf43  1  0.19940098  0.79971733  0.59379816  1
  Hf  Hf44  1  0.29981243  0.09993646  0.50007397  1
  Hf  Hf45  1  0.89857163  0.69367213  0.89610402  1
  Hf  Hf46  1  0.90039108  0.50143325  0.10533092  1
  Hf  Hf47  1  0.70403292  0.09644301  0.89530212  1
  Hf  Hf48  1  0.78228985  0.41348461  0.20942911  1
  Hf  Hf49  1  0.59704981  0.39421498  0.20339999  1
  Zr  Zr50  1  0.11709236  0.90014347  0.90865642  1
  Zr  Zr51  1  0.30062606  0.50273418  0.69751265  1
  Zr  Zr52  1  0.09695855  0.49271941  0.10086517  1
  Zr  Zr53  1  0.40557602  0.80264098  0.58544371  1
  Zr  Zr54  1  0.30691958  0.28934075  0.89580915  1
  Zr  Zr55  1  0.89837312  0.89731026  0.30604026  1
  Zr  Zr56  1  0.10160055  0.72261807  0.10457368  1
  Zr  Zr57  1  0.10086633  0.10309390  0.50154803  1
  Zr  Zr58  1  0.90666778  0.30692863  0.10161404  1
  Zr  Zr59  1  0.80399150  0.20106399  -0.00381751  1
  Zr  Zr60  1  0.50463780  0.69541158  0.09895865  1
  Zr  Zr61  1  0.00089751  0.39514921  0.41300001  1
  Zr  Zr62  1  0.80172347  0.39805437  0.79859465  1
  Zr  Zr63  1  0.90017455  0.69974590  0.30370229  1
  Zr  Zr64  1  0.40294118  -0.00534288  0.39759323  1
  Zr  Zr65  1  0.40288059  0.80948433  0.40254860  1
  Zr  Zr66  1  0.29468685  0.48305417  0.11119117  1
  Zr  Zr67  1  0.30217419  0.50568563  0.50466827  1
  Zr  Zr68  1  0.19144721  0.38846353  0.79219445  1
  Zr  Zr69  1  0.59890331  0.79304099  0.59841116  1
  Zr  Zr70  1  0.00192399  0.00805183  0.39548390  1
  Zr  Zr71  1  0.21005396  0.79711535  0.80381896  1
  Zr  Zr72  1  0.40904762  0.38557197  0.00213628  1
  Zr  Zr73  1  0.40652926  0.81220104  0.20705760  1
  Zr  Zr74  1  0.50513440  0.89617250  0.89407883  1
  Zr  Zr75  1  0.62425609  0.58045270  0.20048235  1
  Zr  Zr76  1  0.10715714  0.09466598  0.89570567  1
  Zr  Zr77  1  0.39374545  0.58999293  0.20941431  1
  Zr  Zr78  1  0.50085283  0.09593988  0.11003218  1
  Zr  Zr79  1  0.60116095  0.80501726  0.20158052  1
  Zr  Zr80  1  0.30208769  0.49694410  0.89370361  1
  Zr  Zr81  1  0.18957423  0.39481881  0.59935820  1
  Zr  Zr82  1  0.08832216  0.88873404  0.49040694  1
  Zr  Zr83  1  0.90287597  0.89561529  0.10730712  1
  Zr  Zr84  1  0.50992412  0.68803927  0.30436447  1
  Zr  Zr85  1  0.50111011  0.49752337  0.09873105  1
  Zr  Zr86  1  0.00610929  0.00694258  0.19692829  1
  Zr  Zr87  1  0.69401840  0.29649469  0.89421368  1
  Zr  Zr88  1  0.00405754  0.39458869  0.22383770  1
  Zr  Zr89  1  0.59594524  0.80890098  0.40222155  1
  Zr  Zr90  1  0.69653031  0.90035641  0.70052630  1
  Zr  Zr91  1  0.79652072  0.78481543  0.79089263  1
  Zr  Zr92  1  0.60141054  0.79355971  -0.00314402  1
  Zr  Zr93  1  0.19434000  0.20771505  0.39804112  1
  Zr  Zr94  1  0.89498081  0.11125370  0.49828398  1
  Zr  Zr95  1  0.19102763  0.40722274  0.39729121  1
  Zr  Zr96  1  0.50714733  0.09686506  0.49583186  1
  Zr  Zr97  1  0.49312326  0.09505508  0.69251414  1
  Zr  Zr98  1  0.89151377  0.50700412  0.30706346  1
  Zr  Zr99  1  0.08838289  0.49758325  0.89123410  1
  Ta  Ta100  1  0.10022826  0.70644886  0.30186855  1
  Ta  Ta101  1  0.41133151  0.39612767  0.60292867  1
  Ta  Ta102  1  0.79143083  0.59275917  0.41320461  1
  Ta  Ta103  1  0.20073424  0.19349124  0.00028015  1
  Ta  Ta104  1  0.19677733  0.20722903  0.60667203  1
  Ta  Ta105  1  0.50399945  0.49429144  0.30694628  1
  Ta  Ta106  1  0.19105704  0.60734844  0.59638916  1
  Ta  Ta107  1  0.90602222  0.10251925  0.89404108  1
  Ta  Ta108  1  0.69615566  0.50804401  0.89581578  1
  Ta  Ta109  1  0.79512160  0.01137365  0.60000791  1
  Ta  Ta110  1  0.50136242  0.90058869  0.70123420  1
  Ta  Ta111  1  0.50651183  0.50491408  0.89754031  1
  Ta  Ta112  1  0.60088399  0.00501713  0.79527801  1
  Ta  Ta113  1  0.00443155  0.60538573  0.20329665  1
  Ta  Ta114  1  0.50140007  0.29370237  0.69646673  1
  Ta  Ta115  1  0.79246741  0.79660324  0.40565586  1
  Ta  Ta116  1  0.00031558  0.21280527  0.39540949  1
  Ta  Ta117  1  0.40181402  0.20354419  0.59483794  1
  Ta  Ta118  1  0.40810711  0.60470166  0.80115110  1
  Ta  Ta119  1  0.40647130  0.20222078  0.39271444  1
  Ta  Ta120  1  -0.00586680  -0.00765944  0.80382838  1
  Ta  Ta121  1  0.28508979  0.90418715  0.29451635  1
  Ta  Ta122  1  0.60377834  0.59758053  0.60475013  1
  Ta  Ta123  1  0.10205044  0.70382661  0.90010706  1
  Ta  Ta124  1  0.39429333  0.80064468  -0.01177770  1
  Ta  Ta125  1  0.60527202  0.39976016  0.59982218  1
  Ta  Ta126  1  0.89929731  0.50110063  0.51131157  1
  Ta  Ta127  1  0.70166769  0.90016770  0.89069101  1
  Ta  Ta128  1  0.09716005  0.69636634  0.69978654  1
  Ta  Ta129  1  0.90223928  0.49846892  0.89498490  1
  Ta  Ta130  1  0.59914130  0.40183567  -0.00238603  1
  Ta  Ta131  1  0.39633178  0.59650743  0.39889715  1
  Ta  Ta132  1  0.19819092  0.20100628  0.79986868  1
  Ta  Ta133  1  0.30897975  0.29513352  0.69955660  1
  Ta  Ta134  1  0.30147054  0.09786078  0.09639045  1
  Ta  Ta135  1  0.70388502  0.68945103  0.30813697  1
  Ta  Ta136  1  0.40918021  0.39996338  0.79308745  1
  Ta  Ta137  1  0.59831070  0.60543525  0.79436252  1
  Ta  Ta138  1  0.00669061  0.20214462  -0.00257657  1
  Ta  Ta139  1  0.59462703  0.18853244  0.79474563  1
  Ta  Ta140  1  0.70424670  0.91443130  0.30060101  1
  Ta  Ta141  1  0.09141214  0.50573210  0.69956749  1
  Ta  Ta142  1  0.89337879  0.89433002  0.50062361  1
  Ta  Ta143  1  0.68820574  0.09785871  0.29954615  1
  Ta  Ta144  1  0.79653232  0.39865031  0.59669672  1
  Ta  Ta145  1  0.59775845  0.20365455  0.39761772  1
  Ta  Ta146  1  0.00450576  0.19910922  0.20670550  1
  Ta  Ta147  1  0.79377318  0.39587355  0.41614565  1
  Ta  Ta148  1  0.19970616  -0.00709209  0.59674359  1
  Ta  Ta149  1  0.40454317  0.20425990  0.19814164  1
  Ti  Ti150  1  0.80814784  -0.00576482  -0.01166602  1
  Ti  Ti151  1  0.39781217  -0.01188247  0.58761121  1
  Ti  Ti152  1  0.10595696  0.90386543  0.70559857  1
  Ti  Ti153  1  0.19997703  0.79870523  0.40551553  1
  Ti  Ti154  1  0.80229041  0.00080127  0.79679948  1
  Ti  Ti155  1  0.19804639  0.60129875  0.40508992  1
  Ti  Ti156  1  0.49954658  0.29613444  0.89062615  1
  Ti  Ti157  1  0.69788696  0.29505896  0.31049998  1
  Ti  Ti158  1  0.40838402  0.60286227  0.59980467  1
  Ti  Ti159  1  0.50163225  0.29685572  0.29607953  1
  Ti  Ti160  1  0.40214258  0.79306991  0.80834950  1
  Ti  Ti161  1  0.10844902  0.10791436  0.29262708  1
  Ti  Ti162  1  0.60894137  0.39711827  0.40685366  1
  Ti  Ti163  1  0.79436271  0.79214823  0.59925843  1
  Ti  Ti164  1  0.50092127  0.50252822  0.69751060  1
  Ti  Ti165  1  0.49547622  0.90690589  0.09522857  1
  Ti  Ti166  1  0.00362721  0.79279847  0.60495929  1
  Ti  Ti167  1  0.18905525  0.00428279  0.18382075  1
  Ti  Ti168  1  0.69863835  0.09764857  0.10924888  1
  Ti  Ti169  1  0.60837205  0.00842549  0.60384218  1
  Ti  Ti170  1  0.90089215  0.69963968  0.10793119  1
  Ti  Ti171  1  0.69190252  0.69465648  0.89144286  1
  Ti  Ti172  1  -0.00436892  0.80747600  -0.00398819  1
  Ti  Ti173  1  0.69907216  0.69139114  0.10190047  1
  Ti  Ti174  1  0.80324881  0.19877707  0.80223769  1
  Ti  Ti175  1  0.50568094  0.29878280  0.50133445  1
  Ti  Ti176  1  0.19755133  0.59944673  0.20181752  1
  Ti  Ti177  1  0.19871171  -0.00372684  0.40144084  1
  Ti  Ti178  1  0.79452363  0.20600292  0.59056488  1
  Ti  Ti179  1  0.69401894  0.69393807  0.49720993  1
  Ti  Ti180  1  0.70153015  0.50429172  0.70459746  1
  Ti  Ti181  1  0.88883750  0.29849019  0.31094472  1
  Ti  Ti182  1  0.50335940  0.70533691  0.70536832  1
  Ti  Ti183  1  0.50526803  0.68723809  0.49259400  1
  Ti  Ti184  1  0.79622229  0.00423685  0.40484598  1
  Ti  Ti185  1  0.29921651  0.29450724  0.10557039  1
  Ti  Ti186  1  0.40079127  0.00015526  0.20183690  1
  Ti  Ti187  1  0.70024689  0.10852844  0.49210693  1
  Ti  Ti188  1  0.00037688  0.39397796  0.60169989  1
  Ti  Ti189  1  0.20023842  0.60361297  0.79969218  1
  Ti  Ti190  1  0.39869795  0.19458788  0.00379662  1
  Ti  Ti191  1  0.30129878  0.69662565  0.49695735  1
  Ti  Ti192  1  0.00731613  0.21316854  0.59180054  1
  Ti  Ti193  1  0.49327575  0.09895775  0.90255202  1
  Ti  Ti194  1  0.60321075  0.19803336  0.59803803  1
  Ti  Ti195  1  0.51932562  0.92801610  0.29707569  1
  Ti  Ti196  1  -0.00208093  0.60907514  0.79473780  1
  Ti  Ti197  1  0.40169819  0.19475384  0.79801003  1
  Ti  Ti198  1  0.09255815  0.50657733  0.51459154  1
  Ti  Ti199  1  0.10866939  0.50686279  0.29506349  1
  Mo  Mo200  1  0.30086112  0.09932138  0.90517327  1
  Mo  Mo201  1  0.89645882  0.30346510  0.50536732  1
  Mo  Mo202  1  0.40560373  0.39232996  0.20480818  1
  Mo  Mo203  1  0.50061693  0.69866635  0.89183255  1
  Mo  Mo204  1  0.79494251  0.59575656  0.80196860  1
  Mo  Mo205  1  0.51284919  0.91473864  0.51056222  1
  Mo  Mo206  1  0.20687384  0.80077721  -0.00321112  1
  Mo  Mo207  1  0.79034851  0.20783041  0.40104102  1
  Mo  Mo208  1  0.80069859  0.60187164  0.20273335  1
  Mo  Mo209  1  0.29591422  0.50490759  0.30389931  1
  Mo  Mo210  1  0.10368836  0.90401388  0.09656695  1
  Mo  Mo211  1  0.20292237  0.00088455  0.79436731  1
  Mo  Mo212  1  0.60132153  0.00492627  0.19748051  1
  Mo  Mo213  1  0.59663078  0.79721783  0.79672585  1
  Mo  Mo214  1  0.91275841  0.29874516  0.89662375  1
  Mo  Mo215  1  0.20211717  0.19368095  0.19164736  1
  Mo  Mo216  1  0.49783417  0.10731853  0.29817976  1
  Mo  Mo217  1  0.59789907  0.20062035  0.20925876  1
  Mo  Mo218  1  0.00157939  0.60143812  0.60323234  1
  Mo  Mo219  1  0.60515812  0.00901816  0.39966289  1
  Mo  Mo220  1  0.79480821  0.00730296  0.20658162  1
  Mo  Mo221  1  0.10193268  0.69824045  0.49973596  1
  Mo  Mo222  1  0.30082073  0.70060415  0.89638665  1
  Mo  Mo223  1  0.69454145  0.29680370  0.50230997  1
  Mo  Mo224  1  -0.00415763  0.39180008  -0.01448896  1
  Mo  Mo225  1  0.20920553  0.00643915  -0.00196527  1
  Mo  Mo226  1  0.49643368  0.29579742  0.10546251  1
  Mo  Mo227  1  0.69294126  0.69485164  0.69927363  1
  Mo  Mo228  1  0.28711183  0.90387469  0.49173402  1
  Mo  Mo229  1  -0.00520596  0.79460900  0.40018132  1
  Mo  Mo230  1  0.39981775  -0.00005010  -0.00015096  1
  Mo  Mo231  1  0.20098394  0.80611910  0.20207925  1
  Mo  Mo232  1  0.09559839  0.30110231  0.50440936  1
  Mo  Mo233  1  0.09456130  0.29574609  0.70158765  1
  Mo  Mo234  1  -0.00203671  0.79573271  0.20069659  1
  Mo  Mo235  1  0.90779623  0.70032781  0.69727827  1
  Mo  Mo236  1  0.19896942  0.40100833  0.20154430  1
  Mo  Mo237  1  0.10476225  0.10534894  0.09812246  1
  Mo  Mo238  1  0.89414676  0.90465321  0.89676100  1
  Mo  Mo239  1  0.60330345  0.59757844  -0.00919061  1
  Mo  Mo240  1  0.70092775  0.49594527  0.51190355  1
  Mo  Mo241  1  0.70026557  0.49446390  0.08325710  1
  Mo  Mo242  1  -0.00014649  0.39555029  0.79725240  1
  Mo  Mo243  1  0.30594401  0.90093355  0.90434023  1
  Mo  Mo244  1  0.69545089  0.49582449  0.32496710  1
  Mo  Mo245  1  0.09499204  0.29054185  0.89819462  1
  Mo  Mo246  1  0.00227884  0.20080716  0.80604689  1
  Mo  Mo247  1  0.10196159  0.29371890  0.29850900  1
  Mo  Mo248  1  0.60339310  0.59434482  0.40718003  1
  Mo  Mo249  1  0.70517242  0.10370977  0.69887406  1
