# generated using pymatgen
data_HfZrTaTiMo
_symmetry_space_group_name_H-M   'P 1'
_cell_length_a   16.88037106
_cell_length_b   16.89301684
_cell_length_c   16.89246784
_cell_angle_alpha   90.02589405
_cell_angle_beta   89.93185399
_cell_angle_gamma   89.95112282
_symmetry_Int_Tables_number   1
_chemical_formula_structural   HfZrTaTiMo
_chemical_formula_sum   'Hf50 Zr50 Ta50 Ti50 Mo50'
_cell_volume   4817.05710583
_cell_formula_units_Z   50
loop_
 _symmetry_equiv_pos_site_id
 _symmetry_equiv_pos_as_xyz
  1  'x, y, z'
loop_
 _atom_site_type_symbol
 _atom_site_label
 _atom_site_symmetry_multiplicity
 _atom_site_fract_x
 _atom_site_fract_y
 _atom_site_fract_z
 _atom_site_occupancy
  Hf  Hf0  1  0.19026354  0.60065953  0.39814248  1
  Hf  Hf1  1  0.69704959  0.90397103  0.49676631  1
  Hf  Hf2  1  0.80875636  0.60556827  0.59916171  1
  Hf  Hf3  1  0.30082923  0.29100068  0.49385210  1
  Hf  Hf4  1  0.88939722  0.30866682  0.90419200  1
  Hf  Hf5  1  0.09161587  0.89960731  0.70124985  1
  Hf  Hf6  1  0.11011979  0.10814494  0.29952286  1
  Hf  Hf7  1  0.88828688  0.09483661  0.10362041  1
  Hf  Hf8  1  0.60075296  0.19349171  0.20612191  1
  Hf  Hf9  1  0.19922956  0.00255347  0.59952214  1
  Hf  Hf10  1  0.30022395  0.48800551  0.30622508  1
  Hf  Hf11  1  0.71000175  0.48814902  0.88863774  1
  Hf  Hf12  1  0.30559710  0.89405950  0.89540439  1
  Hf  Hf13  1  0.20281588  0.00039719  0.79644360  1
  Hf  Hf14  1  0.40264866  0.39021297  0.60027294  1
  Hf  Hf15  1  0.30556463  0.90325222  0.29683371  1
  Hf  Hf16  1  0.60273661  0.61199810  0.39372241  1
  Hf  Hf17  1  0.59861491  0.81126147  -0.01168386  1
  Hf  Hf18  1  0.80799712  0.79851433  -0.00131789  1
  Hf  Hf19  1  0.29824698  0.50305403  0.09534196  1
  Hf  Hf20  1  0.50734915  0.49561908  0.69765708  1
  Hf  Hf21  1  0.40276880  0.00194050  0.60547118  1
  Hf  Hf22  1  0.39061054  0.61666810  0.20356761  1
  Hf  Hf23  1  0.19610350  0.79350461  0.79559494  1
  Hf  Hf24  1  0.79898170  0.60079272  0.20610521  1
  Hf  Hf25  1  0.29760518  0.29897693  0.31043966  1
  Hf  Hf26  1  0.09388168  0.50035006  0.90111451  1
  Hf  Hf27  1  -0.00343706  0.20260090  0.59890034  1
  Hf  Hf28  1  0.09496740  0.49702498  0.09771805  1
  Hf  Hf29  1  0.89375534  0.10148784  0.30893569  1
  Hf  Hf30  1  0.80371836  0.80330104  0.80331634  1
  Hf  Hf31  1  0.80188501  0.39616657  0.40090040  1
  Hf  Hf32  1  0.70258677  0.91003912  0.70275288  1
  Hf  Hf33  1  0.89739532  0.10143380  0.49960187  1
  Hf  Hf34  1  0.69877762  0.70560289  0.10348970  1
  Hf  Hf35  1  0.19819157  -0.01126080  0.00195507  1
  Hf  Hf36  1  0.40822682  0.60575480  0.60088825  1
  Hf  Hf37  1  0.69693535  0.71065893  0.49568042  1
  Hf  Hf38  1  0.39624394  0.38984482  0.79244889  1
  Hf  Hf39  1  0.19287888  0.79208810  0.60181249  1
  Hf  Hf40  1  0.70338588  0.09882800  0.88603437  1
  Hf  Hf41  1  0.00340878  0.00626379  0.80709904  1
  Hf  Hf42  1  0.00308390  0.59245970  0.39660196  1
  Hf  Hf43  1  0.59772723  0.80601945  0.79772619  1
  Hf  Hf44  1  0.49645771  0.11555827  0.50602078  1
  Hf  Hf45  1  0.49471655  0.49052550  0.30162332  1
  Hf  Hf46  1  0.40803623  -0.00231972  -0.00331817  1
  Hf  Hf47  1  0.60154618  0.59512435  0.00297456  1
  Hf  Hf48  1  0.09357434  0.68966942  0.90255202  1
  Hf  Hf49  1  -0.00101713  0.00022370  0.20079074  1
  Zr  Zr50  1  0.70388034  0.49997679  0.49808022  1
  Zr  Zr51  1  -0.00640301  0.60022780  0.20205502  1
  Zr  Zr52  1  0.49609442  0.49422382  0.89486008  1
  Zr  Zr53  1  0.10425284  0.09923522  0.10561275  1
  Zr  Zr54  1  0.19538859  0.60146608  0.20882397  1
  Zr  Zr55  1  0.20601740  0.39409949  0.79516660  1
  Zr  Zr56  1  -0.01350343  0.19298619  0.00276784  1
  Zr  Zr57  1  0.80480576  0.58958694  0.01100734  1
  Zr  Zr58  1  0.50670769  0.89778359  0.50282673  1
  Zr  Zr59  1  0.21723721  0.78598352  0.20035850  1
  Zr  Zr60  1  0.29561927  0.09568995  0.10364937  1
  Zr  Zr61  1  0.09882600  0.29891078  0.30565277  1
  Zr  Zr62  1  0.10350141  0.89704898  0.29469457  1
  Zr  Zr63  1  0.20452470  0.79360961  0.00574699  1
  Zr  Zr64  1  0.30308493  0.89834552  0.50201350  1
  Zr  Zr65  1  0.49852061  0.89850775  0.10799595  1
  Zr  Zr66  1  0.60160139  0.59983042  0.20333045  1
  Zr  Zr67  1  0.90459625  0.48998608  0.89422734  1
  Zr  Zr68  1  0.40317780  0.60400951  0.00300353  1
  Zr  Zr69  1  0.80349661  0.79755191  0.60448941  1
  Zr  Zr70  1  0.00422687  0.00137669  0.39947639  1
  Zr  Zr71  1  0.79983705  0.21031971  0.40696719  1
  Zr  Zr72  1  0.79772164  -0.00820139  -0.01124950  1
  Zr  Zr73  1  0.20957879  0.39195225  0.00181571  1
  Zr  Zr74  1  0.49575024  0.30484965  0.31428840  1
  Zr  Zr75  1  0.19364396  0.40044864  0.59710314  1
  Zr  Zr76  1  0.30322738  0.11283887  0.89765361  1
  Zr  Zr77  1  0.08767491  0.31008535  0.90206346  1
  Zr  Zr78  1  -0.00856179  0.20521058  0.79554417  1
  Zr  Zr79  1  0.10968675  0.11107839  0.90705166  1
  Zr  Zr80  1  -0.00383826  0.59962323  0.59410895  1
  Zr  Zr81  1  0.49848110  0.30194807  0.09559685  1
  Zr  Zr82  1  0.51218044  0.48417998  0.49502949  1
  Zr  Zr83  1  0.49940710  0.29478904  0.90060350  1
  Zr  Zr84  1  0.89858640  0.90222890  0.49540448  1
  Zr  Zr85  1  0.70188488  0.90647117  0.10583751  1
  Zr  Zr86  1  0.30133407  0.69080577  0.90026397  1
  Zr  Zr87  1  0.70460878  0.69265156  0.89715130  1
  Zr  Zr88  1  0.40885427  -0.00191925  0.79507880  1
  Zr  Zr89  1  0.08568031  0.49487577  0.70601938  1
  Zr  Zr90  1  0.40479009  0.60983772  0.40128899  1
  Zr  Zr91  1  0.18982241  0.60417632  0.59846448  1
  Zr  Zr92  1  0.30048556  0.49495175  0.49494848  1
  Zr  Zr93  1  0.70086213  0.48825482  0.68880758  1
  Zr  Zr94  1  0.09397881  0.29811407  0.10045236  1
  Zr  Zr95  1  0.60675163  0.40487649  0.00233688  1
  Zr  Zr96  1  -0.00720858  0.79185557  0.60216129  1
  Zr  Zr97  1  0.41360214  0.79571192  0.79105300  1
  Zr  Zr98  1  0.70404474  0.29729680  0.09503472  1
  Zr  Zr99  1  0.40448211  0.19234884  0.20593302  1
  Ta  Ta100  1  0.69835866  0.10104874  0.50159365  1
  Ta  Ta101  1  0.49997018  0.70903125  0.10503214  1
  Ta  Ta102  1  0.20177247  0.79726035  0.40019786  1
  Ta  Ta103  1  0.60663002  0.40436614  0.20181162  1
  Ta  Ta104  1  -0.01481326  0.20576644  0.20853299  1
  Ta  Ta105  1  0.79755297  0.40400962  0.20154383  1
  Ta  Ta106  1  0.89570522  0.09802399  0.69986610  1
  Ta  Ta107  1  0.59890752  0.00183941  -0.01013527  1
  Ta  Ta108  1  0.60561032  0.80285128  0.21130800  1
  Ta  Ta109  1  0.10265476  0.10770195  0.69509372  1
  Ta  Ta110  1  0.89440517  0.30608128  0.10151975  1
  Ta  Ta111  1  0.09602014  0.89184560  0.10577030  1
  Ta  Ta112  1  0.79803328  0.79897841  0.38923882  1
  Ta  Ta113  1  0.20212542  0.59809038  0.79547614  1
  Ta  Ta114  1  0.90375917  0.89639892  0.10655425  1
  Ta  Ta115  1  0.60179600  0.20348758  0.40492897  1
  Ta  Ta116  1  0.09910099  0.89877847  0.49573004  1
  Ta  Ta117  1  0.50338411  0.10738621  0.89513122  1
  Ta  Ta118  1  0.79731895  0.00867105  0.60308622  1
  Ta  Ta119  1  -0.01126742  0.60145739  0.00943771  1
  Ta  Ta120  1  0.50393049  0.90330013  0.30555234  1
  Ta  Ta121  1  0.40255508  0.00886990  0.39728063  1
  Ta  Ta122  1  0.29997689  0.50118920  0.89846483  1
  Ta  Ta123  1  0.80296811  0.80016501  0.20617670  1
  Ta  Ta124  1  0.30310280  0.70612652  0.50213033  1
  Ta  Ta125  1  0.30502116  0.89035532  0.69410507  1
  Ta  Ta126  1  0.20432258  0.00098546  0.40186863  1
  Ta  Ta127  1  0.49393450  0.49591079  0.10590978  1
  Ta  Ta128  1  0.40874661  0.00669019  0.20858182  1
  Ta  Ta129  1  0.29861837  0.10913428  0.49899447  1
  Ta  Ta130  1  0.09526144  0.69900209  0.09889286  1
  Ta  Ta131  1  0.10569003  0.10876273  0.49699781  1
  Ta  Ta132  1  0.69728990  0.30243639  0.30190544  1
  Ta  Ta133  1  0.60167998  0.00711529  0.60731777  1
  Ta  Ta134  1  0.70567442  0.29740695  0.89359918  1
  Ta  Ta135  1  0.80638655  0.59966161  0.78556830  1
  Ta  Ta136  1  0.40116744  0.80139162  0.39783114  1
  Ta  Ta137  1  0.89601539  0.49764769  0.30592308  1
  Ta  Ta138  1  0.60193158  0.60390008  0.79202163  1
  Ta  Ta139  1  0.79403963  0.20636052  0.60502994  1
  Ta  Ta140  1  0.60736741  0.20162753  0.79027611  1
  Ta  Ta141  1  0.70155564  0.09822439  0.30912373  1
  Ta  Ta142  1  0.79907466  0.20463426  0.20621984  1
  Ta  Ta143  1  0.59798794  0.00674844  0.20761856  1
  Ta  Ta144  1  0.69750177  0.90560368  0.30781018  1
  Ta  Ta145  1  0.09982765  0.29565297  0.49353627  1
  Ta  Ta146  1  0.59935685  0.61043334  0.60134574  1
  Ta  Ta147  1  -0.00549299  0.79604332  0.00462510  1
  Ta  Ta148  1  0.50585065  0.10846969  0.69918043  1
  Ta  Ta149  1  0.90251097  0.90838311  0.70532305  1
  Ti  Ti150  1  0.07799823  0.69367397  0.71726054  1
  Ti  Ti151  1  0.70142387  0.49817955  0.30842384  1
  Ti  Ti152  1  0.89739162  0.70099838  0.47989209  1
  Ti  Ti153  1  0.20852222  0.20927141  0.19352004  1
  Ti  Ti154  1  0.09261531  0.30165658  0.69426044  1
  Ti  Ti155  1  0.29636946  0.10143208  0.30531926  1
  Ti  Ti156  1  0.49975940  0.71591337  0.29789265  1
  Ti  Ti157  1  0.39234018  0.39209173  0.19017812  1
  Ti  Ti158  1  0.30682690  0.89941450  0.10892051  1
  Ti  Ti159  1  0.50255775  0.69672811  0.89858800  1
  Ti  Ti160  1  0.08714303  0.71451681  0.29954933  1
  Ti  Ti161  1  0.79600702  -0.00237422  0.21047844  1
  Ti  Ti162  1  0.30658127  0.70003300  0.69496861  1
  Ti  Ti163  1  0.89908497  0.89657092  0.30130533  1
  Ti  Ti164  1  0.00046802  -0.00546977  0.00193224  1
  Ti  Ti165  1  0.70031178  0.09654225  0.10216953  1
  Ti  Ti166  1  0.29862132  0.11193760  0.69289824  1
  Ti  Ti167  1  0.50562185  0.09961737  0.09360275  1
  Ti  Ti168  1  0.80223886  0.38573840  0.77782881  1
  Ti  Ti169  1  0.79729002  0.20152681  0.78657503  1
  Ti  Ti170  1  0.08994948  0.71234460  0.48684252  1
  Ti  Ti171  1  0.39463761  0.20299552  0.00875446  1
  Ti  Ti172  1  0.69728953  0.70261577  0.69730161  1
  Ti  Ti173  1  0.59561589  -0.00052778  0.80051556  1
  Ti  Ti174  1  0.79583539  0.19644671  -0.00039686  1
  Ti  Ti175  1  0.50544466  0.71721490  0.50748653  1
  Ti  Ti176  1  0.90276871  0.48559614  0.69263558  1
  Ti  Ti177  1  0.51345113  0.29024046  0.68008438  1
  Ti  Ti178  1  0.60570364  0.19253142  -0.00635879  1
  Ti  Ti179  1  0.90079073  0.70400635  0.30266433  1
  Ti  Ti180  1  -0.01040470  0.40040628  0.20657957  1
  Ti  Ti181  1  0.60348134  0.38523317  0.79056737  1
  Ti  Ti182  1  0.90860073  0.69360621  0.89006684  1
  Ti  Ti183  1  0.90040361  0.49325392  0.50007939  1
  Ti  Ti184  1  0.30146272  0.50576621  0.70002641  1
  Ti  Ti185  1  0.59566380  0.01005315  0.40086783  1
  Ti  Ti186  1  0.30579197  0.29624633  0.90648670  1
  Ti  Ti187  1  0.09260185  0.88906924  0.90208734  1
  Ti  Ti188  1  0.00143805  0.00471087  0.59955725  1
  Ti  Ti189  1  0.40342289  0.79852511  0.00280844  1
  Ti  Ti190  1  0.68557858  0.30682081  0.50960680  1
  Ti  Ti191  1  0.19754296  0.39845482  0.20162685  1
  Ti  Ti192  1  0.89120764  0.09874802  0.89377545  1
  Ti  Ti193  1  0.19804910  0.20737295  0.79772351  1
  Ti  Ti194  1  0.00085038  0.40068922  0.39870463  1
  Ti  Ti195  1  0.90786755  0.90009822  0.89644425  1
  Ti  Ti196  1  0.40443939  0.60087423  0.79339480  1
  Ti  Ti197  1  0.90696164  0.30675211  0.50358194  1
  Ti  Ti198  1  0.40516908  0.20457010  0.78813834  1
  Ti  Ti199  1  0.29447748  0.28391259  0.68677653  1
  Mo  Mo200  1  0.60854157  0.19943643  0.59946836  1
  Mo  Mo201  1  0.39782893  0.19862865  0.60692046  1
  Mo  Mo202  1  0.40173100  0.79652315  0.59882670  1
  Mo  Mo203  1  0.20010329  0.19464578  0.40131340  1
  Mo  Mo204  1  0.79789940  0.39759421  0.00947501  1
  Mo  Mo205  1  0.00003563  0.20580691  0.40294217  1
  Mo  Mo206  1  0.39929129  0.19345837  0.40244727  1
  Mo  Mo207  1  -0.01143282  0.40659431  0.01655502  1
  Mo  Mo208  1  -0.00737735  0.79910447  0.19785558  1
  Mo  Mo209  1  0.50764464  0.69748758  0.69687610  1
  Mo  Mo210  1  -0.00328010  0.79903858  0.39489208  1
  Mo  Mo211  1  -0.00960948  0.39390872  0.78446444  1
  Mo  Mo212  1  0.69892930  0.49812489  0.11018678  1
  Mo  Mo213  1  -0.00284064  0.39609403  0.58996868  1
  Mo  Mo214  1  0.09220571  0.48616853  0.49260509  1
  Mo  Mo215  1  0.90107344  0.70040815  0.71309529  1
  Mo  Mo216  1  0.50395101  0.29593089  0.50172114  1
  Mo  Mo217  1  0.60057476  0.39286927  0.59846743  1
  Mo  Mo218  1  0.79311137  -0.00274486  0.40250886  1
  Mo  Mo219  1  0.30471563  0.70488728  0.31496795  1
  Mo  Mo220  1  0.21350848  0.20831984  0.00317299  1
  Mo  Mo221  1  0.89820053  0.30528677  0.29774054  1
  Mo  Mo222  1  -0.01063768  0.59549776  0.79993542  1
  Mo  Mo223  1  0.19396069  0.59734611  -0.00298598  1
  Mo  Mo224  1  0.50570094  0.09783121  0.31078237  1
  Mo  Mo225  1  0.70081792  0.10159310  0.69854718  1
  Mo  Mo226  1  0.70387510  0.70797511  0.30159031  1
  Mo  Mo227  1  0.30053379  0.29955306  0.10430901  1
  Mo  Mo228  1  0.70127880  0.29646846  0.69689905  1
  Mo  Mo229  1  0.69916242  0.90860480  0.89311422  1
  Mo  Mo230  1  0.81036118  0.00117084  0.79658386  1
  Mo  Mo231  1  0.89556730  0.29938734  0.69148744  1
  Mo  Mo232  1  0.30438282  0.70107776  0.09600293  1
  Mo  Mo233  1  0.40086625  0.39405161  0.40534142  1
  Mo  Mo234  1  0.80685230  0.60247121  0.39777684  1
  Mo  Mo235  1  0.60705417  0.39482120  0.39776953  1
  Mo  Mo236  1  0.40869395  0.80277765  0.20411042  1
  Mo  Mo237  1  0.39753405  0.40151911  -0.00071509  1
  Mo  Mo238  1  0.59728615  0.80383775  0.60947210  1
  Mo  Mo239  1  0.20800887  -0.00545312  0.20188874  1
  Mo  Mo240  1  0.50603111  0.90524114  0.69510990  1
  Mo  Mo241  1  0.80495202  0.39173805  0.59232192  1
  Mo  Mo242  1  -0.00372192  0.80220632  0.81013802  1
  Mo  Mo243  1  0.59833870  0.80361506  0.39323973  1
  Mo  Mo244  1  0.90103614  0.70618924  0.10507989  1
  Mo  Mo245  1  0.09456404  0.48620374  0.29939776  1
  Mo  Mo246  1  0.18890771  0.40145833  0.40010863  1
  Mo  Mo247  1  0.19471628  0.20014535  0.60193625  1
  Mo  Mo248  1  0.50101071  0.90610799  0.90002686  1
  Mo  Mo249  1  0.89781988  0.49260895  0.10819832  1
