# generated using pymatgen
data_HfZrTaTiMo
_symmetry_space_group_name_H-M   'P 1'
_cell_length_a   16.89503278
_cell_length_b   16.87725498
_cell_length_c   16.89153610
_cell_angle_alpha   89.97612196
_cell_angle_beta   90.00201753
_cell_angle_gamma   90.00846294
_symmetry_Int_Tables_number   1
_chemical_formula_structural   HfZrTaTiMo
_chemical_formula_sum   'Hf50 Zr50 Ta50 Ti50 Mo50'
_cell_volume   4816.48212973
_cell_formula_units_Z   50
loop_
 _symmetry_equiv_pos_site_id
 _symmetry_equiv_pos_as_xyz
  1  'x, y, z'
loop_
 _atom_site_type_symbol
 _atom_site_label
 _atom_site_symmetry_multiplicity
 _atom_site_fract_x
 _atom_site_fract_y
 _atom_site_fract_z
 _atom_site_occupancy
  Hf  Hf0  1  0.40020473  0.80250100  0.79441005  1
  Hf  Hf1  1  0.50439292  0.09684895  0.10609192  1
  Hf  Hf2  1  0.79221236  0.80123675  0.39673303  1
  Hf  Hf3  1  0.09566823  0.10444878  0.10145483  1
  Hf  Hf4  1  0.20000765  0.79428149  -0.00602214  1
  Hf  Hf5  1  0.59790855  0.60065256  0.59398556  1
  Hf  Hf6  1  0.09465146  0.49829349  0.48766032  1
  Hf  Hf7  1  0.89550661  0.50509943  0.70574378  1
  Hf  Hf8  1  0.70400368  0.10401937  0.50676171  1
  Hf  Hf9  1  0.78927995  0.38241967  0.19861529  1
  Hf  Hf10  1  0.49791886  0.50909025  0.89901172  1
  Hf  Hf11  1  0.10229074  0.50117261  0.30029559  1
  Hf  Hf12  1  0.59493565  0.60175123  0.20501019  1
  Hf  Hf13  1  0.20257717  0.80587935  0.60891912  1
  Hf  Hf14  1  0.32028019  0.68932303  0.90036637  1
  Hf  Hf15  1  0.00508089  0.38893216  0.60269505  1
  Hf  Hf16  1  0.40464608  -0.00665905  0.00342447  1
  Hf  Hf17  1  0.40199296  0.40374297  0.20558821  1
  Hf  Hf18  1  0.20245681  -0.00822559  0.20413838  1
  Hf  Hf19  1  0.89297143  0.90761079  0.50687422  1
  Hf  Hf20  1  0.29481203  0.28904306  0.30390523  1
  Hf  Hf21  1  0.20534966  0.40444700  0.20119800  1
  Hf  Hf22  1  0.00147093  0.20149391  0.60844824  1
  Hf  Hf23  1  0.59490173  0.40482986  0.39795823  1
  Hf  Hf24  1  0.30325706  0.51289275  0.10003772  1
  Hf  Hf25  1  0.78940257  0.40236651  -0.00859353  1
  Hf  Hf26  1  0.50102567  0.69375018  0.70496877  1
  Hf  Hf27  1  0.90275769  0.09722920  0.09845857  1
  Hf  Hf28  1  0.59728768  0.20205016  0.40093931  1
  Hf  Hf29  1  0.60139761  0.40427324  0.20625199  1
  Hf  Hf30  1  0.59603781  0.79623355  0.40084810  1
  Hf  Hf31  1  0.69758992  0.68406650  0.31562737  1
  Hf  Hf32  1  0.40201961  0.39725178  -0.00466128  1
  Hf  Hf33  1  0.79929019  -0.01380748  0.19941348  1
  Hf  Hf34  1  0.79312353  0.20747965  0.00652321  1
  Hf  Hf35  1  0.19385337  0.40051181  -0.01124934  1
  Hf  Hf36  1  0.09337162  0.90152875  0.09691017  1
  Hf  Hf37  1  0.09453924  0.90473440  0.89718557  1
  Hf  Hf38  1  0.18763435  0.60017682  -0.01170821  1
  Hf  Hf39  1  0.70680746  0.89421784  0.70224566  1
  Hf  Hf40  1  0.61385481  0.21467986  0.20275597  1
  Hf  Hf41  1  0.39676135  0.20515867  0.79445796  1
  Hf  Hf42  1  0.91498561  0.48237403  0.30131250  1
  Hf  Hf43  1  0.70836192  0.91043075  0.50363189  1
  Hf  Hf44  1  0.40275679  0.19604162  0.40499582  1
  Hf  Hf45  1  0.60511484  -0.00473851  0.80160946  1
  Hf  Hf46  1  0.39858067  0.20202447  -0.00559813  1
  Hf  Hf47  1  0.70303458  0.52205187  0.48435662  1
  Hf  Hf48  1  0.09688114  0.29574618  0.10354167  1
  Hf  Hf49  1  0.50241212  0.09242686  0.29553831  1
  Zr  Zr50  1  0.20355936  0.00063218  -0.00314176  1
  Zr  Zr51  1  0.49412360  0.90680811  0.50570057  1
  Zr  Zr52  1  0.19637512  0.80335850  0.39356903  1
  Zr  Zr53  1  0.30139146  0.09584784  0.50667109  1
  Zr  Zr54  1  0.70480613  0.09010819  0.30407463  1
  Zr  Zr55  1  0.30535710  0.69871085  0.10282317  1
  Zr  Zr56  1  0.09180039  0.49441520  0.10047899  1
  Zr  Zr57  1  0.09651027  0.50093939  0.70821207  1
  Zr  Zr58  1  0.29708205  0.29509872  0.10224923  1
  Zr  Zr59  1  0.90027281  0.50133418  0.49426806  1
  Zr  Zr60  1  -0.00111362  0.00115443  0.39474969  1
  Zr  Zr61  1  0.49547985  0.30263415  0.51667580  1
  Zr  Zr62  1  0.30739390  0.49960169  0.89136760  1
  Zr  Zr63  1  0.90335416  0.30432124  0.89629137  1
  Zr  Zr64  1  0.69992584  0.09436411  0.10264979  1
  Zr  Zr65  1  0.50012358  0.10217169  0.68956603  1
  Zr  Zr66  1  0.91384953  0.30104370  0.09977609  1
  Zr  Zr67  1  0.89420933  0.30179777  0.49674661  1
  Zr  Zr68  1  -0.00071994  0.20028988  0.40089561  1
  Zr  Zr69  1  0.88718975  0.10202253  0.49962587  1
  Zr  Zr70  1  0.09888322  0.70474378  0.49998625  1
  Zr  Zr71  1  0.39670132  -0.00017824  0.79748479  1
  Zr  Zr72  1  -0.00548757  0.79173249  -0.00206054  1
  Zr  Zr73  1  0.89703486  0.90186638  0.90725597  1
  Zr  Zr74  1  0.90417739  0.09337945  0.90782490  1
  Zr  Zr75  1  0.10036750  0.30078738  0.30436318  1
  Zr  Zr76  1  0.88621016  0.70451511  0.50228703  1
  Zr  Zr77  1  0.20579423  0.80471046  0.79595520  1
  Zr  Zr78  1  0.79486872  0.58766814  0.20699435  1
  Zr  Zr79  1  0.20095078  0.39477178  0.59633218  1
  Zr  Zr80  1  0.50476768  0.09868910  0.89951867  1
  Zr  Zr81  1  -0.00663062  0.80128237  0.20565266  1
  Zr  Zr82  1  -0.00229114  0.60974769  0.20146785  1
  Zr  Zr83  1  0.79739863  0.59961966  -0.01300606  1
  Zr  Zr84  1  0.30969941  0.70585908  0.49230871  1
  Zr  Zr85  1  0.59749049  0.40386686  0.79530815  1
  Zr  Zr86  1  0.19945273  0.60791297  0.79816517  1
  Zr  Zr87  1  -0.00319806  0.60564290  0.60384998  1
  Zr  Zr88  1  0.88400468  0.70682388  0.09772601  1
  Zr  Zr89  1  0.29747120  0.10402315  0.10716848  1
  Zr  Zr90  1  0.20523699  0.60382306  0.60102397  1
  Zr  Zr91  1  0.11016854  0.10202050  0.50016532  1
  Zr  Zr92  1  0.70136664  0.29353065  0.50703880  1
  Zr  Zr93  1  0.90608043  0.49035214  0.09309576  1
  Zr  Zr94  1  0.78811063  0.39984049  0.38723785  1
  Zr  Zr95  1  0.50532353  0.69931375  0.90457635  1
  Zr  Zr96  1  0.79981093  0.19059438  0.79300117  1
  Zr  Zr97  1  0.00152165  0.81132672  0.60690671  1
  Zr  Zr98  1  0.60642591  0.79083734  0.59328616  1
  Zr  Zr99  1  0.60181147  0.20676782  -0.00015743  1
  Ta  Ta100  1  0.89082651  0.89952755  0.30202357  1
  Ta  Ta101  1  0.40092334  -0.00113868  0.39714045  1
  Ta  Ta102  1  0.29850359  0.09815923  0.30173182  1
  Ta  Ta103  1  0.79186524  0.40525104  0.60531939  1
  Ta  Ta104  1  0.30987638  0.49836442  0.69720541  1
  Ta  Ta105  1  0.30790557  0.89543345  0.30293777  1
  Ta  Ta106  1  0.50320820  0.30815029  0.09921130  1
  Ta  Ta107  1  0.68975678  0.49849639  0.09308783  1
  Ta  Ta108  1  0.69357611  0.30178953  0.89264974  1
  Ta  Ta109  1  0.30511644  0.90270401  0.49874924  1
  Ta  Ta110  1  0.30545789  0.89022639  0.10607258  1
  Ta  Ta111  1  0.10485430  0.69577739  0.10372870  1
  Ta  Ta112  1  0.60304298  -0.01655824  0.00651164  1
  Ta  Ta113  1  0.80268177  0.01425587  0.62328257  1
  Ta  Ta114  1  0.00287433  0.00326736  0.79375329  1
  Ta  Ta115  1  0.80225313  0.79484972  0.80772730  1
  Ta  Ta116  1  0.69526733  0.70653619  0.09788726  1
  Ta  Ta117  1  0.10555514  0.10003703  0.70060063  1
  Ta  Ta118  1  0.00596462  0.19863561  0.79340854  1
  Ta  Ta119  1  0.20019617  0.79546111  0.20476876  1
  Ta  Ta120  1  0.00190076  0.60230008  -0.01521808  1
  Ta  Ta121  1  0.50348563  0.89904406  0.69537979  1
  Ta  Ta122  1  0.20207499  -0.00036615  0.79143435  1
  Ta  Ta123  1  0.50400336  0.70295389  0.10096818  1
  Ta  Ta124  1  0.79146177  0.40461140  0.79848878  1
  Ta  Ta125  1  0.09241780  0.70578108  0.70911527  1
  Ta  Ta126  1  0.70226457  0.09022507  0.90469774  1
  Ta  Ta127  1  -0.00375461  0.80188209  0.39380303  1
  Ta  Ta128  1  0.11069398  0.10387655  0.29702771  1
  Ta  Ta129  1  0.70108842  0.50707641  0.70053975  1
  Ta  Ta130  1  0.30221174  0.50994778  0.30479341  1
  Ta  Ta131  1  0.49194835  0.51064691  0.30964930  1
  Ta  Ta132  1  0.49893156  0.89616708  0.30059145  1
  Ta  Ta133  1  0.40141311  -0.00958976  0.20157299  1
  Ta  Ta134  1  0.60436951  0.60028070  0.00043738  1
  Ta  Ta135  1  0.40386677  0.39439358  0.79084332  1
  Ta  Ta136  1  0.19633063  0.20176356  -0.01320781  1
  Ta  Ta137  1  0.49895879  0.50513329  0.09752709  1
  Ta  Ta138  1  0.39437956  0.40304811  0.40382034  1
  Ta  Ta139  1  0.89749089  0.90038223  0.70742476  1
  Ta  Ta140  1  0.70248911  0.89308903  0.90728391  1
  Ta  Ta141  1  0.90535225  0.50227862  0.88738835  1
  Ta  Ta142  1  -0.00246275  0.61918028  0.38775465  1
  Ta  Ta143  1  0.69571854  0.29680865  0.69490584  1
  Ta  Ta144  1  0.20225166  0.60775952  0.39102990  1
  Ta  Ta145  1  0.60556008  0.79902558  0.80288555  1
  Ta  Ta146  1  0.70730258  0.69811517  0.70386899  1
  Ta  Ta147  1  0.19985494  -0.00563430  0.60935365  1
  Ta  Ta148  1  -0.00574720  -0.00147414  0.20331976  1
  Ta  Ta149  1  0.29397266  0.10234605  0.89279705  1
  Ti  Ti150  1  0.89373537  0.70225353  0.70735609  1
  Ti  Ti151  1  0.09780840  0.90189674  0.30015922  1
  Ti  Ti152  1  0.50651642  0.30326210  0.89733124  1
  Ti  Ti153  1  0.39134910  0.19968718  0.60598624  1
  Ti  Ti154  1  0.60396876  -0.01957409  0.19981914  1
  Ti  Ti155  1  0.50420460  0.88731371  0.10541657  1
  Ti  Ti156  1  0.61106152  0.59921918  0.80334730  1
  Ti  Ti157  1  -0.01175018  0.19464091  0.21439857  1
  Ti  Ti158  1  0.30068335  0.30557125  0.69688796  1
  Ti  Ti159  1  0.50270492  0.09597750  0.50760067  1
  Ti  Ti160  1  0.80073326  0.00203750  0.80103593  1
  Ti  Ti161  1  0.19861692  0.39803335  0.79550870  1
  Ti  Ti162  1  0.31313353  0.90774821  0.68849711  1
  Ti  Ti163  1  0.88938972  0.30041952  0.69897153  1
  Ti  Ti164  1  0.50714551  0.89287294  0.90122369  1
  Ti  Ti165  1  0.60741396  0.00527877  0.60819378  1
  Ti  Ti166  1  0.10015823  0.30005755  0.88983474  1
  Ti  Ti167  1  0.60416285  0.19706398  0.79516731  1
  Ti  Ti168  1  0.30581856  0.50321505  0.49774847  1
  Ti  Ti169  1  0.60058664  -0.00582954  0.39868654  1
  Ti  Ti170  1  0.30316560  0.90100372  0.90278040  1
  Ti  Ti171  1  0.39711871  0.60188574  0.60175548  1
  Ti  Ti172  1  0.49450761  0.49938826  0.69419198  1
  Ti  Ti173  1  0.10117784  0.90671492  0.50141665  1
  Ti  Ti174  1  0.40197241  0.79684925  0.60185708  1
  Ti  Ti175  1  0.49227721  0.69294982  0.48774668  1
  Ti  Ti176  1  0.60364734  0.41021479  0.59815538  1
  Ti  Ti177  1  0.10243517  0.09808638  0.89571541  1
  Ti  Ti178  1  0.19934762  0.20425060  0.60646806  1
  Ti  Ti179  1  0.29601549  0.29969111  0.89118710  1
  Ti  Ti180  1  0.79609309  -0.01498663  0.01190328  1
  Ti  Ti181  1  0.40580727  0.80304066  0.00330548  1
  Ti  Ti182  1  0.29840959  0.29705069  0.50091952  1
  Ti  Ti183  1  0.00813376  0.20129441  -0.01234738  1
  Ti  Ti184  1  0.00215513  0.00324681  0.61074409  1
  Ti  Ti185  1  0.19966205  0.19984595  0.79305593  1
  Ti  Ti186  1  0.00235277  0.39134494  0.79470360  1
  Ti  Ti187  1  -0.00386377  0.79850837  0.80256245  1
  Ti  Ti188  1  0.40249288  0.60928995  0.20982164  1
  Ti  Ti189  1  0.60601954  0.79796660  0.20808514  1
  Ti  Ti190  1  0.80356996  0.20456924  0.37392113  1
  Ti  Ti191  1  0.49484772  0.30175757  0.30164780  1
  Ti  Ti192  1  0.70145266  0.70474839  0.90181224  1
  Ti  Ti193  1  0.79460719  0.60586727  0.60230232  1
  Ti  Ti194  1  0.40466619  0.20020588  0.20127717  1
  Ti  Ti195  1  0.50481495  0.30049275  0.69031705  1
  Ti  Ti196  1  0.20448452  -0.00275076  0.39904860  1
  Ti  Ti197  1  0.40394628  0.79547388  0.21006357  1
  Ti  Ti198  1  0.20605372  0.39948797  0.40502260  1
  Ti  Ti199  1  0.48776288  0.50258058  0.50013290  1
  Mo  Mo200  1  0.89618755  0.69826245  0.89194862  1
  Mo  Mo201  1  0.81841195  0.60225656  0.39281773  1
  Mo  Mo202  1  0.30253980  0.70078948  0.29614179  1
  Mo  Mo203  1  0.40459447  0.59430632  0.78236927  1
  Mo  Mo204  1  0.00122538  0.00512839  0.00042330  1
  Mo  Mo205  1  0.29219146  0.10352792  0.69992200  1
  Mo  Mo206  1  0.79827776  -0.00299080  0.39409538  1
  Mo  Mo207  1  0.80617894  0.19959306  0.20337622  1
  Mo  Mo208  1  0.79247890  0.80010890  0.00035016  1
  Mo  Mo209  1  0.20558968  0.19685591  0.40304846  1
  Mo  Mo210  1  0.79680738  0.60335173  0.80008094  1
  Mo  Mo211  1  0.00615341  0.40274845  -0.02399276  1
  Mo  Mo212  1  0.41127102  0.60202093  0.01408936  1
  Mo  Mo213  1  0.40281939  0.80293276  0.39469436  1
  Mo  Mo214  1  0.19857641  0.19316115  0.20247100  1
  Mo  Mo215  1  0.00289375  0.38937479  0.21061318  1
  Mo  Mo216  1  0.78865480  0.80037567  0.20290047  1
  Mo  Mo217  1  0.59658932  0.40407535  -0.00172118  1
  Mo  Mo218  1  0.09338549  0.90430633  0.70370711  1
  Mo  Mo219  1  0.39521909  0.59950615  0.40176012  1
  Mo  Mo220  1  0.90063948  0.29425783  0.29580467  1
  Mo  Mo221  1  0.69744966  0.88523571  0.10141779  1
  Mo  Mo222  1  0.58071818  0.60171223  0.40270520  1
  Mo  Mo223  1  0.09117681  0.70344596  0.89484534  1
  Mo  Mo224  1  0.10846251  0.29363825  0.70716837  1
  Mo  Mo225  1  0.59999205  0.79778481  0.00125493  1
  Mo  Mo226  1  0.39720711  0.40223362  0.59945328  1
  Mo  Mo227  1  0.10406095  0.70247447  0.29666839  1
  Mo  Mo228  1  0.49471424  0.70349293  0.29902504  1
  Mo  Mo229  1  0.20236461  0.60648283  0.20778473  1
  Mo  Mo230  1  0.11171396  0.29975301  0.50008940  1
  Mo  Mo231  1  0.68860461  0.50197010  0.29813206  1
  Mo  Mo232  1  0.30933373  0.69873492  0.69430363  1
  Mo  Mo233  1  0.80008184  0.20322014  0.61448320  1
  Mo  Mo234  1  0.90962360  0.09585823  0.70363378  1
  Mo  Mo235  1  0.89928909  0.09574753  0.29420249  1
  Mo  Mo236  1  0.80231508  0.80239048  0.61195830  1
  Mo  Mo237  1  -0.00593149  0.61343290  0.80421510  1
  Mo  Mo238  1  0.60162177  0.19710862  0.60458005  1
  Mo  Mo239  1  0.89155267  0.70784063  0.30065933  1
  Mo  Mo240  1  0.01084029  0.39143648  0.40744170  1
  Mo  Mo241  1  0.89579459  0.90171364  0.10320519  1
  Mo  Mo242  1  0.39749590  -0.00134539  0.59730384  1
  Mo  Mo243  1  0.69624385  0.10100419  0.70643132  1
  Mo  Mo244  1  0.69772007  0.29695049  0.30315048  1
  Mo  Mo245  1  0.08954292  0.49454055  0.89080751  1
  Mo  Mo246  1  0.69332809  0.30771336  0.09300689  1
  Mo  Mo247  1  0.69241523  0.89453855  0.29949953  1
  Mo  Mo248  1  0.70133751  0.69778836  0.50559945  1
  Mo  Mo249  1  0.69598163  0.50175031  0.89418108  1
