# generated using pymatgen
data_HfZrTaTiMo
_symmetry_space_group_name_H-M   'P 1'
_cell_length_a   16.87366429
_cell_length_b   16.88234070
_cell_length_c   16.88714749
_cell_angle_alpha   90.03549917
_cell_angle_beta   90.00228292
_cell_angle_gamma   89.95064215
_symmetry_Int_Tables_number   1
_chemical_formula_structural   HfZrTaTiMo
_chemical_formula_sum   'Hf50 Zr50 Ta50 Ti50 Mo50'
_cell_volume   4810.58747934
_cell_formula_units_Z   50
loop_
 _symmetry_equiv_pos_site_id
 _symmetry_equiv_pos_as_xyz
  1  'x, y, z'
loop_
 _atom_site_type_symbol
 _atom_site_label
 _atom_site_symmetry_multiplicity
 _atom_site_fract_x
 _atom_site_fract_y
 _atom_site_fract_z
 _atom_site_occupancy
  Hf  Hf0  1  0.89779265  0.90124908  0.90094370  1
  Hf  Hf1  1  0.79946371  0.19504203  0.40234986  1
  Hf  Hf2  1  0.60677747  0.80226160  0.19949466  1
  Hf  Hf3  1  0.00544924  0.39546659  -0.01234868  1
  Hf  Hf4  1  0.79867958  0.39842795  0.00366201  1
  Hf  Hf5  1  0.80090576  0.41077912  0.39731311  1
  Hf  Hf6  1  0.69689635  0.50502432  0.90279879  1
  Hf  Hf7  1  0.38871577  0.79386996  0.00768775  1
  Hf  Hf8  1  0.90123905  0.09752951  0.69587397  1
  Hf  Hf9  1  0.29823785  0.49323779  0.49677693  1
  Hf  Hf10  1  0.80096840  -0.00817513  0.78991624  1
  Hf  Hf11  1  0.70043947  0.10245238  0.09511515  1
  Hf  Hf12  1  0.88997308  0.91039076  0.09266952  1
  Hf  Hf13  1  0.49162812  0.30328716  0.70196163  1
  Hf  Hf14  1  0.69914444  0.29486650  0.89650476  1
  Hf  Hf15  1  0.09768667  0.48824170  0.49606993  1
  Hf  Hf16  1  0.79647363  0.20113503  0.59856810  1
  Hf  Hf17  1  0.00461931  0.79606984  0.00002803  1
  Hf  Hf18  1  0.49657574  0.10043137  0.30083627  1
  Hf  Hf19  1  0.79131297  0.79594500  0.79858973  1
  Hf  Hf20  1  0.70504472  0.10209708  0.89229308  1
  Hf  Hf21  1  0.51049448  0.90124871  0.50132399  1
  Hf  Hf22  1  0.80470812  0.59549428  0.39970368  1
  Hf  Hf23  1  0.00637666  0.80499108  0.41068189  1
  Hf  Hf24  1  0.39499178  0.60224702  0.59529266  1
  Hf  Hf25  1  0.19643326  0.79517032  0.80729903  1
  Hf  Hf26  1  0.49562565  0.49417384  0.89931621  1
  Hf  Hf27  1  0.90909264  0.30442707  0.49519909  1
  Hf  Hf28  1  0.49024061  0.09932029  0.10302257  1
  Hf  Hf29  1  0.89931922  0.90502172  0.31086904  1
  Hf  Hf30  1  0.10380616  0.09271807  0.69177767  1
  Hf  Hf31  1  0.01084030  0.00940882  0.01547178  1
  Hf  Hf32  1  0.29818215  0.89627488  0.70108023  1
  Hf  Hf33  1  0.60019766  0.19347522  0.60881232  1
  Hf  Hf34  1  0.21394195  0.81097889  0.18591085  1
  Hf  Hf35  1  0.89584632  0.50267547  0.88942743  1
  Hf  Hf36  1  0.20476601  0.00253259  0.40041667  1
  Hf  Hf37  1  0.60082870  -0.00203270  0.20401675  1
  Hf  Hf38  1  0.39586695  0.20389077  -0.00290329  1
  Hf  Hf39  1  0.49879743  0.70588662  0.49922343  1
  Hf  Hf40  1  0.70166410  0.50881875  0.70128051  1
  Hf  Hf41  1  0.70444780  0.69844027  0.50723569  1
  Hf  Hf42  1  0.58799653  0.00519523  -0.01050702  1
  Hf  Hf43  1  0.68895862  0.30898211  0.30009809  1
  Hf  Hf44  1  0.50652393  0.09658465  0.49692877  1
  Hf  Hf45  1  0.69057663  0.30908638  0.49798974  1
  Hf  Hf46  1  0.00795030  0.20002762  0.00351004  1
  Hf  Hf47  1  0.49235623  0.71098228  0.70236647  1
  Hf  Hf48  1  0.80562520  0.40408855  0.60056338  1
  Hf  Hf49  1  0.89621737  0.68951782  0.89292010  1
  Zr  Zr50  1  0.79448794  0.80473055  0.20199436  1
  Zr  Zr51  1  0.00857016  0.00923704  0.20258735  1
  Zr  Zr52  1  0.20783705  0.59574427  0.20196596  1
  Zr  Zr53  1  0.20397040  0.20219149  0.81093416  1
  Zr  Zr54  1  0.20295677  0.79659189  0.00103736  1
  Zr  Zr55  1  0.58547164  0.20785733  -0.00730142  1
  Zr  Zr56  1  0.81209843  0.19892353  0.00636471  1
  Zr  Zr57  1  0.89850935  0.70082412  0.50259031  1
  Zr  Zr58  1  0.09672130  0.70376083  0.30044242  1
  Zr  Zr59  1  0.50384213  0.70133940  0.29523174  1
  Zr  Zr60  1  0.90694918  0.30231891  0.29766287  1
  Zr  Zr61  1  0.90160834  0.09282347  0.89685885  1
  Zr  Zr62  1  0.51115805  0.48781026  0.29541045  1
  Zr  Zr63  1  0.59763608  0.78699075  -0.00234183  1
  Zr  Zr64  1  0.89721863  0.50305160  0.10031364  1
  Zr  Zr65  1  0.00356879  0.80677502  0.60628164  1
  Zr  Zr66  1  0.00244955  0.59563005  0.59463159  1
  Zr  Zr67  1  0.10767795  0.29502197  0.69206703  1
  Zr  Zr68  1  0.09851755  0.30370127  0.10766313  1
  Zr  Zr69  1  0.40746766  0.39416345  0.00367700  1
  Zr  Zr70  1  0.29680257  0.49564598  0.08944272  1
  Zr  Zr71  1  0.20737928  0.39426333  0.20163419  1
  Zr  Zr72  1  0.50654825  0.49048965  0.50217510  1
  Zr  Zr73  1  0.29165610  0.29562673  0.50502661  1
  Zr  Zr74  1  0.10089814  0.90676609  0.90254404  1
  Zr  Zr75  1  0.49094381  0.89557030  0.70181968  1
  Zr  Zr76  1  0.29465823  0.10546691  0.69534465  1
  Zr  Zr77  1  0.68907879  0.90550721  0.69185330  1
  Zr  Zr78  1  0.40010415  0.00852731  0.60088104  1
  Zr  Zr79  1  0.79689983  0.39283698  0.79291697  1
  Zr  Zr80  1  0.20330048  0.60894202  0.40797191  1
  Zr  Zr81  1  0.49124247  0.89971849  0.10076935  1
  Zr  Zr82  1  0.58205351  0.01812878  0.79063834  1
  Zr  Zr83  1  0.10657112  0.69191535  0.70056167  1
  Zr  Zr84  1  0.20371340  0.80524733  0.40826073  1
  Zr  Zr85  1  0.79048944  0.79066021  -0.00163591  1
  Zr  Zr86  1  0.09504666  0.49253309  0.30488490  1
  Zr  Zr87  1  0.10741682  0.68871474  0.09976480  1
  Zr  Zr88  1  0.38834373  0.60178840  0.80989557  1
  Zr  Zr89  1  0.60633279  0.59741174  0.39744699  1
  Zr  Zr90  1  0.01083756  0.59617520  -0.00720388  1
  Zr  Zr91  1  0.49961337  0.29977332  0.49562883  1
  Zr  Zr92  1  0.39097877  -0.00112471  0.40065173  1
  Zr  Zr93  1  0.59882611  0.61263450  0.80785502  1
  Zr  Zr94  1  0.00811215  0.20184970  0.80650603  1
  Zr  Zr95  1  0.29064917  0.50296123  0.70465639  1
  Zr  Zr96  1  0.00570280  0.81008648  0.19320069  1
  Zr  Zr97  1  0.31403122  0.70642934  0.29518593  1
  Zr  Zr98  1  0.20331303  0.19275975  0.19611699  1
  Zr  Zr99  1  0.80070503  0.01060075  0.20215250  1
  Ta  Ta100  1  0.19450142  0.40676923  0.80654053  1
  Ta  Ta101  1  0.49734301  0.89544105  0.30382217  1
  Ta  Ta102  1  0.80165540  0.80602842  0.60488348  1
  Ta  Ta103  1  0.79817060  0.20210153  0.20351327  1
  Ta  Ta104  1  0.48786575  0.89859538  0.89128102  1
  Ta  Ta105  1  0.69914990  0.91063919  0.08515893  1
  Ta  Ta106  1  0.49716859  0.49801689  0.70325501  1
  Ta  Ta107  1  0.40193628  0.39522014  0.19814062  1
  Ta  Ta108  1  0.40477638  0.59011556  0.19272986  1
  Ta  Ta109  1  0.20525339  0.20387009  -0.00004546  1
  Ta  Ta110  1  0.09889063  0.29737021  0.49546431  1
  Ta  Ta111  1  0.59677144  0.39431540  0.79984502  1
  Ta  Ta112  1  0.89352134  0.69168516  0.70263458  1
  Ta  Ta113  1  0.69730503  0.30292958  0.10609909  1
  Ta  Ta114  1  0.30538954  0.90717222  0.90076365  1
  Ta  Ta115  1  0.60080688  0.19957373  0.20246599  1
  Ta  Ta116  1  0.00056068  0.19838456  0.59279048  1
  Ta  Ta117  1  0.70715230  0.69507366  0.29700258  1
  Ta  Ta118  1  0.39942129  0.39563595  0.39509672  1
  Ta  Ta119  1  0.39896280  0.59588678  0.39811711  1
  Ta  Ta120  1  0.79002698  0.41091969  0.19982835  1
  Ta  Ta121  1  0.59787163  0.60275815  0.60515818  1
  Ta  Ta122  1  0.10686260  0.10076980  0.50577228  1
  Ta  Ta123  1  0.61142562  0.80345569  0.39838948  1
  Ta  Ta124  1  0.79650428  0.80311307  0.40269636  1
  Ta  Ta125  1  0.30483180  0.31179875  0.89507294  1
  Ta  Ta126  1  0.90108901  0.50836713  0.70187003  1
  Ta  Ta127  1  0.69910125  0.50167653  0.50715676  1
  Ta  Ta128  1  0.09623347  0.29441192  0.30884332  1
  Ta  Ta129  1  0.20002820  -0.00290491  0.79929668  1
  Ta  Ta130  1  0.90380937  0.29534460  0.70031729  1
  Ta  Ta131  1  0.00321733  0.18978089  0.40301814  1
  Ta  Ta132  1  0.89883892  0.69987780  0.29734489  1
  Ta  Ta133  1  0.60469131  0.79769253  0.60026883  1
  Ta  Ta134  1  0.39914758  0.60363848  0.00147378  1
  Ta  Ta135  1  0.40401254  0.19878324  0.80618374  1
  Ta  Ta136  1  0.00005357  0.79779463  0.79646009  1
  Ta  Ta137  1  -0.00136261  0.40192953  0.60505719  1
  Ta  Ta138  1  0.68664193  0.89889588  0.89429975  1
  Ta  Ta139  1  0.30018183  0.70661474  0.69933987  1
  Ta  Ta140  1  0.30499676  0.29542746  0.30157402  1
  Ta  Ta141  1  0.89591071  0.69308194  0.10668669  1
  Ta  Ta142  1  0.89926559  0.30273424  0.11019070  1
  Ta  Ta143  1  0.39550988  0.40020823  0.60458016  1
  Ta  Ta144  1  0.89044752  0.91025142  0.50431780  1
  Ta  Ta145  1  0.00897757  0.40280495  0.79643036  1
  Ta  Ta146  1  0.69602933  0.09900886  0.30926251  1
  Ta  Ta147  1  0.20058254  0.00025660  0.19337849  1
  Ta  Ta148  1  0.00553348  0.00333294  0.40815608  1
  Ta  Ta149  1  -0.00348150  0.59712149  0.20220973  1
  Ti  Ti150  1  0.00520620  -0.01486057  0.78745565  1
  Ti  Ti151  1  0.30219533  0.89736382  0.51327418  1
  Ti  Ti152  1  0.11069711  0.09422186  0.90354136  1
  Ti  Ti153  1  0.19829076  0.39615860  -0.00837891  1
  Ti  Ti154  1  -0.00161348  0.40527041  0.20025695  1
  Ti  Ti155  1  0.39360951  0.19849528  0.40244438  1
  Ti  Ti156  1  0.30436489  0.09010666  0.90137642  1
  Ti  Ti157  1  0.39404653  0.20922055  0.19385185  1
  Ti  Ti158  1  -0.00123836  -0.00584599  0.60129410  1
  Ti  Ti159  1  0.30403229  0.10309405  0.29714574  1
  Ti  Ti160  1  0.89933590  0.09082900  0.50194849  1
  Ti  Ti161  1  0.10435745  0.49891967  0.09588958  1
  Ti  Ti162  1  0.19838044  0.79438652  0.59538994  1
  Ti  Ti163  1  0.19648744  0.40177577  0.60593821  1
  Ti  Ti164  1  0.49556361  0.69546339  0.10946220  1
  Ti  Ti165  1  0.10717260  0.91080162  0.51210933  1
  Ti  Ti166  1  0.60255881  0.39949719  0.61335896  1
  Ti  Ti167  1  0.50050651  0.29863535  0.30040551  1
  Ti  Ti168  1  0.70361933  0.68788679  0.10721944  1
  Ti  Ti169  1  0.20285151  0.39105388  0.39363004  1
  Ti  Ti170  1  0.19921078  0.60393640  0.59325981  1
  Ti  Ti171  1  0.60940070  0.58565882  0.19166433  1
  Ti  Ti172  1  0.70231143  0.90922155  0.50114469  1
  Ti  Ti173  1  0.10490264  0.90436886  0.29990086  1
  Ti  Ti174  1  0.60132187  0.19760197  0.39869193  1
  Ti  Ti175  1  0.01538695  0.59319229  0.79911447  1
  Ti  Ti176  1  0.89811684  0.29565914  0.89026634  1
  Ti  Ti177  1  0.10225133  0.10312372  0.30416106  1
  Ti  Ti178  1  0.69742683  0.08147491  0.49811617  1
  Ti  Ti179  1  0.59262977  0.20236909  0.79596237  1
  Ti  Ti180  1  0.59881617  0.40371662  0.00899123  1
  Ti  Ti181  1  0.70127671  0.91040207  0.31385436  1
  Ti  Ti182  1  0.39709238  0.80124681  0.40680659  1
  Ti  Ti183  1  0.30701326  0.49476883  0.30211663  1
  Ti  Ti184  1  -0.00379501  0.18961993  0.19776864  1
  Ti  Ti185  1  0.59268197  0.60005400  0.00762293  1
  Ti  Ti186  1  0.49109548  0.71099282  0.89500673  1
  Ti  Ti187  1  0.79012736  0.60074545  0.00393854  1
  Ti  Ti188  1  0.39025599  -0.00557928  0.19870371  1
  Ti  Ti189  1  0.30004104  0.09209545  0.09148945  1
  Ti  Ti190  1  0.20261370  0.19430972  0.40184195  1
  Ti  Ti191  1  -0.00270641  0.59870027  0.40276929  1
  Ti  Ti192  1  0.90343477  0.50283009  0.29799979  1
  Ti  Ti193  1  0.89906060  0.09901835  0.30727938  1
  Ti  Ti194  1  0.50722115  0.30379842  0.11266501  1
  Ti  Ti195  1  0.70438136  0.09971504  0.69731816  1
  Ti  Ti196  1  0.39651151  0.19950035  0.59969094  1
  Ti  Ti197  1  0.30941899  0.89675645  0.29367429  1
  Ti  Ti198  1  0.30043088  0.30303171  0.70371684  1
  Ti  Ti199  1  0.70068310  0.69861651  0.69953769  1
  Mo  Mo200  1  0.60258949  -0.00407607  0.39693017  1
  Mo  Mo201  1  0.90293185  0.89471079  0.69765126  1
  Mo  Mo202  1  0.10941384  0.90938443  0.10061366  1
  Mo  Mo203  1  0.20511590  0.00767020  -0.00025991  1
  Mo  Mo204  1  0.10243423  0.90068074  0.69940378  1
  Mo  Mo205  1  0.10548445  0.49968980  0.89577964  1
  Mo  Mo206  1  0.39209921  0.00499895  0.80323203  1
  Mo  Mo207  1  0.30252275  0.91912495  0.09336382  1
  Mo  Mo208  1  0.19585528  0.59968605  0.81174440  1
  Mo  Mo209  1  0.60076731  0.39938501  0.39859264  1
  Mo  Mo210  1  0.19761603  0.20126159  0.59486095  1
  Mo  Mo211  1  0.48761722  0.10168034  0.89436852  1
  Mo  Mo212  1  0.50050032  0.30174038  0.89219413  1
  Mo  Mo213  1  0.90150533  0.49891292  0.50305918  1
  Mo  Mo214  1  0.78995008  -0.00145416  -0.00897283  1
  Mo  Mo215  1  0.69510334  0.50042246  0.09778367  1
  Mo  Mo216  1  0.39348349  0.79821289  0.59432287  1
  Mo  Mo217  1  0.79942132  0.20010044  0.78921883  1
  Mo  Mo218  1  0.10965995  0.30416979  0.90287055  1
  Mo  Mo219  1  0.10487316  0.69702973  0.50165738  1
  Mo  Mo220  1  0.69696593  0.29586199  0.70144492  1
  Mo  Mo221  1  0.20738931  0.59538239  -0.01389979  1
  Mo  Mo222  1  0.30792959  0.68608261  0.09873427  1
  Mo  Mo223  1  0.49120943  0.11069085  0.69783873  1
  Mo  Mo224  1  0.59898731  0.39591826  0.19472602  1
  Mo  Mo225  1  0.80072969  0.59991012  0.20366630  1
  Mo  Mo226  1  0.50339099  0.50304340  0.09692882  1
  Mo  Mo227  1  0.20034550  -0.00324003  0.59732868  1
  Mo  Mo228  1  0.80163689  0.00225627  0.40455361  1
  Mo  Mo229  1  0.29548680  0.69648291  0.90191734  1
  Mo  Mo230  1  0.29561116  0.49871101  0.90276077  1
  Mo  Mo231  1  0.38978248  0.79842513  0.80939890  1
  Mo  Mo232  1  0.11012296  0.10624850  0.10016162  1
  Mo  Mo233  1  0.30422724  0.70310146  0.50522526  1
  Mo  Mo234  1  0.39737858  0.00269554  -0.00540228  1
  Mo  Mo235  1  0.40224546  0.80191747  0.19727724  1
  Mo  Mo236  1  0.59691041  0.80038639  0.80208648  1
  Mo  Mo237  1  0.29461495  0.10658764  0.49779011  1
  Mo  Mo238  1  0.89909010  0.10882649  0.10758255  1
  Mo  Mo239  1  0.69456630  0.69780810  0.90457515  1
  Mo  Mo240  1  0.60367215  0.00311603  0.59693336  1
  Mo  Mo241  1  0.30380029  0.29729933  0.09785478  1
  Mo  Mo242  1  0.70233378  0.50264262  0.29349061  1
  Mo  Mo243  1  0.79975207  0.00133093  0.59681093  1
  Mo  Mo244  1  0.09851113  0.69507672  0.89388616  1
  Mo  Mo245  1  0.79881280  0.60083969  0.60398988  1
  Mo  Mo246  1  0.79610949  0.60366416  0.79873536  1
  Mo  Mo247  1  0.09986425  0.49634250  0.69911993  1
  Mo  Mo248  1  0.00038576  0.39711993  0.40061116  1
  Mo  Mo249  1  0.39491042  0.39829952  0.79812679  1
