# generated using pymatgen
data_HfZrTaTiMo
_symmetry_space_group_name_H-M   'P 1'
_cell_length_a   16.87978427
_cell_length_b   16.88885928
_cell_length_c   16.88424685
_cell_angle_alpha   89.96397186
_cell_angle_beta   90.04335174
_cell_angle_gamma   90.01761675
_symmetry_Int_Tables_number   1
_chemical_formula_structural   HfZrTaTiMo
_chemical_formula_sum   'Hf50 Zr50 Ta50 Ti50 Mo50'
_cell_volume   4813.36362156
_cell_formula_units_Z   50
loop_
 _symmetry_equiv_pos_site_id
 _symmetry_equiv_pos_as_xyz
  1  'x, y, z'
loop_
 _atom_site_type_symbol
 _atom_site_label
 _atom_site_symmetry_multiplicity
 _atom_site_fract_x
 _atom_site_fract_y
 _atom_site_fract_z
 _atom_site_occupancy
  Hf  Hf0  1  0.90414503  0.89210549  0.09423812  1
  Hf  Hf1  1  0.49367224  0.30049281  0.10184532  1
  Hf  Hf2  1  0.80730157  -0.00486262  0.40411770  1
  Hf  Hf3  1  0.28847448  0.88833882  0.69425490  1
  Hf  Hf4  1  0.00165594  0.39852719  0.59703410  1
  Hf  Hf5  1  0.20136583  0.18969409  0.39719868  1
  Hf  Hf6  1  0.69918342  0.69284600  0.31074178  1
  Hf  Hf7  1  0.49319142  0.29640420  0.70894863  1
  Hf  Hf8  1  0.69852373  0.89958991  0.30264073  1
  Hf  Hf9  1  0.29347928  0.09274551  0.09494974  1
  Hf  Hf10  1  0.48860292  0.70535960  0.10680912  1
  Hf  Hf11  1  0.90141542  0.28345339  0.29845795  1
  Hf  Hf12  1  0.30464316  0.11278835  0.69608398  1
  Hf  Hf13  1  0.40266381  -0.00811625  0.59535886  1
  Hf  Hf14  1  0.50074359  0.11760339  0.89183674  1
  Hf  Hf15  1  0.40155363  -0.01079948  0.40100593  1
  Hf  Hf16  1  0.50458572  0.90450732  0.28807284  1
  Hf  Hf17  1  0.39717321  0.40778041  0.20105064  1
  Hf  Hf18  1  0.70295535  0.49936263  0.90851389  1
  Hf  Hf19  1  0.90317213  0.51268620  0.49599443  1
  Hf  Hf20  1  0.00789753  0.40850151  0.00912839  1
  Hf  Hf21  1  0.39603579  0.60051824  0.59263008  1
  Hf  Hf22  1  0.00760520  0.40114989  0.80127270  1
  Hf  Hf23  1  0.50938912  0.09039801  0.49668769  1
  Hf  Hf24  1  0.59479110  0.40175454  0.80685077  1
  Hf  Hf25  1  0.10300403  0.70092896  0.69697211  1
  Hf  Hf26  1  0.69841864  0.10250489  0.10426994  1
  Hf  Hf27  1  0.29264832  0.89863896  0.90897911  1
  Hf  Hf28  1  0.80463782  0.40584287  0.79389545  1
  Hf  Hf29  1  0.00587015  0.19873946  0.19651414  1
  Hf  Hf30  1  0.50507414  0.10380016  0.70370534  1
  Hf  Hf31  1  0.80083564  0.79371496  0.19317880  1
  Hf  Hf32  1  0.40259121  0.79568428  0.58906684  1
  Hf  Hf33  1  0.81027240  -0.00534860  0.80588318  1
  Hf  Hf34  1  0.70268841  0.49930097  0.10282358  1
  Hf  Hf35  1  0.39007414  0.19863840  0.20322878  1
  Hf  Hf36  1  0.70334202  0.70943551  0.90219797  1
  Hf  Hf37  1  0.60507971  0.20632947  0.59438153  1
  Hf  Hf38  1  0.19636885  0.19994429  0.19881433  1
  Hf  Hf39  1  0.11367769  0.30098279  0.50116622  1
  Hf  Hf40  1  0.60059761  0.40038712  0.39746659  1
  Hf  Hf41  1  0.00388980  0.40114866  0.20225520  1
  Hf  Hf42  1  0.90352612  0.50640130  0.90705186  1
  Hf  Hf43  1  0.00060335  0.39896947  0.40132965  1
  Hf  Hf44  1  0.69833311  0.09272616  0.29428099  1
  Hf  Hf45  1  0.89756508  0.10488471  0.10738813  1
  Hf  Hf46  1  0.29674620  0.30803340  0.68481194  1
  Hf  Hf47  1  0.59579799  0.39510944  0.58912199  1
  Hf  Hf48  1  0.29796964  0.69658822  0.29925267  1
  Hf  Hf49  1  0.70491432  0.29446580  0.28961437  1
  Zr  Zr50  1  0.18600266  -0.00361006  0.79645666  1
  Zr  Zr51  1  0.39262028  0.79375058  0.80365799  1
  Zr  Zr52  1  0.91748685  0.09688203  0.49702924  1
  Zr  Zr53  1  0.79737019  0.39750163  0.59676704  1
  Zr  Zr54  1  0.50668648  0.89664681  0.69706489  1
  Zr  Zr55  1  0.80556808  0.62114973  0.00649727  1
  Zr  Zr56  1  0.80941558  0.19978625  0.80376933  1
  Zr  Zr57  1  0.29803537  0.09977923  0.49977340  1
  Zr  Zr58  1  0.50664435  0.09133902  0.29352767  1
  Zr  Zr59  1  0.40389110  0.79532897  0.39447553  1
  Zr  Zr60  1  0.89253415  0.51204059  0.30275331  1
  Zr  Zr61  1  0.19002126  -0.00356720  0.59904352  1
  Zr  Zr62  1  0.59883963  0.79870930  0.79954293  1
  Zr  Zr63  1  0.29940245  0.70188826  0.10099829  1
  Zr  Zr64  1  0.48643652  0.49416470  0.70022939  1
  Zr  Zr65  1  0.60602951  0.20537179  0.40554508  1
  Zr  Zr66  1  0.89577390  0.70223476  0.48906633  1
  Zr  Zr67  1  0.28581200  0.51285796  0.10320478  1
  Zr  Zr68  1  0.79849265  0.38974550  0.40534691  1
  Zr  Zr69  1  0.10631676  0.50547667  0.69467432  1
  Zr  Zr70  1  0.60272785  0.79032173  0.19702482  1
  Zr  Zr71  1  0.69739553  0.09376918  0.70130229  1
  Zr  Zr72  1  0.00621827  0.20202807  0.80722787  1
  Zr  Zr73  1  0.80335338  0.80414079  0.60369897  1
  Zr  Zr74  1  0.69441684  0.10559354  0.90065287  1
  Zr  Zr75  1  0.90688131  0.51235378  0.10491677  1
  Zr  Zr76  1  0.80222286  0.00216172  -0.00389454  1
  Zr  Zr77  1  0.19625359  0.39926798  0.80466324  1
  Zr  Zr78  1  0.19495024  -0.00366862  0.20181588  1
  Zr  Zr79  1  0.59756228  0.60271847  0.00762957  1
  Zr  Zr80  1  0.29584268  0.10776682  0.89759826  1
  Zr  Zr81  1  0.79863854  0.60791852  0.60774893  1
  Zr  Zr82  1  -0.00856311  0.00579137  -0.01737871  1
  Zr  Zr83  1  0.39976578  0.00119564  -0.00093883  1
  Zr  Zr84  1  0.08671554  0.09497643  0.31414554  1
  Zr  Zr85  1  0.29317413  0.30853815  0.30596344  1
  Zr  Zr86  1  0.50087046  0.09461480  0.10369748  1
  Zr  Zr87  1  0.70092619  0.30496689  0.90456023  1
  Zr  Zr88  1  0.29967155  0.30976030  0.50039808  1
  Zr  Zr89  1  0.80321559  0.20305058  0.59145168  1
  Zr  Zr90  1  0.29506137  0.50243697  0.90213234  1
  Zr  Zr91  1  0.49077029  0.70068120  0.90756986  1
  Zr  Zr92  1  0.10197007  0.89825896  0.08803781  1
  Zr  Zr93  1  0.91138080  0.09183516  0.70064430  1
  Zr  Zr94  1  0.80387513  0.60829016  0.79595707  1
  Zr  Zr95  1  0.10432631  0.68626029  0.09904609  1
  Zr  Zr96  1  0.41064662  0.40781521  0.39791701  1
  Zr  Zr97  1  0.19340260  0.21039949  0.79915183  1
  Zr  Zr98  1  0.40125231  -0.00535157  0.79933217  1
  Zr  Zr99  1  0.69829160  0.51953251  0.48923284  1
  Ta  Ta100  1  0.69078878  0.70113575  0.69942106  1
  Ta  Ta101  1  0.19056045  0.40881023  0.20220655  1
  Ta  Ta102  1  0.90963481  0.50685047  0.69652782  1
  Ta  Ta103  1  0.00130323  0.20574191  0.00233588  1
  Ta  Ta104  1  -0.00082057  0.60689220  0.80246416  1
  Ta  Ta105  1  0.20221048  0.60537685  0.59090638  1
  Ta  Ta106  1  0.00180974  0.80350350  0.59818178  1
  Ta  Ta107  1  0.19342927  0.79806487  0.39791321  1
  Ta  Ta108  1  0.29533956  0.69399889  0.69957231  1
  Ta  Ta109  1  0.29386460  0.50212981  0.49380379  1
  Ta  Ta110  1  0.70330778  0.89327038  0.90553972  1
  Ta  Ta111  1  0.40774546  0.59798100  0.21440542  1
  Ta  Ta112  1  0.59707623  0.21204401  0.00084234  1
  Ta  Ta113  1  -0.00662044  -0.00624927  0.20635848  1
  Ta  Ta114  1  0.59748894  0.40297365  0.19949992  1
  Ta  Ta115  1  0.60182443  0.79595232  0.59232066  1
  Ta  Ta116  1  0.90254136  0.69987921  0.30274114  1
  Ta  Ta117  1  0.58995697  0.39998876  0.00509079  1
  Ta  Ta118  1  0.50336544  0.89401062  0.91393841  1
  Ta  Ta119  1  0.50901763  0.69155100  0.49248261  1
  Ta  Ta120  1  0.50107975  0.29951569  0.29611263  1
  Ta  Ta121  1  0.80695777  -0.00474869  0.20397649  1
  Ta  Ta122  1  0.28937645  0.89567339  0.49223047  1
  Ta  Ta123  1  0.00823453  0.20703203  0.60120696  1
  Ta  Ta124  1  0.80503129  0.19206243  0.40199834  1
  Ta  Ta125  1  0.19298811  0.79302288  0.80496576  1
  Ta  Ta126  1  0.49105309  0.89763515  0.10312954  1
  Ta  Ta127  1  0.60251365  -0.00812787  0.80938343  1
  Ta  Ta128  1  0.80451209  0.39415868  0.19347148  1
  Ta  Ta129  1  0.09828626  0.89792895  0.30441749  1
  Ta  Ta130  1  0.90532017  0.30295583  0.69899931  1
  Ta  Ta131  1  0.00584783  0.79611978  0.40202736  1
  Ta  Ta132  1  0.00502775  0.79754519  0.20653082  1
  Ta  Ta133  1  0.29201978  0.50922600  0.30927535  1
  Ta  Ta134  1  0.90178565  0.30962673  0.91025537  1
  Ta  Ta135  1  0.90116630  0.88978594  0.30551706  1
  Ta  Ta136  1  0.69677786  0.29845357  0.70589973  1
  Ta  Ta137  1  0.29921681  0.49858715  0.69318319  1
  Ta  Ta138  1  0.80739331  0.20895902  0.00664287  1
  Ta  Ta139  1  0.49179985  0.49987106  0.90392323  1
  Ta  Ta140  1  0.41112232  0.20808450  0.58754144  1
  Ta  Ta141  1  0.49933218  0.69357955  0.69516743  1
  Ta  Ta142  1  0.80510512  -0.01208858  0.59654649  1
  Ta  Ta143  1  0.19467695  0.79788944  0.20497290  1
  Ta  Ta144  1  0.59561305  0.59777238  0.79913982  1
  Ta  Ta145  1  0.39638095  0.40105450  0.00169513  1
  Ta  Ta146  1  0.69772201  0.50527616  0.29302458  1
  Ta  Ta147  1  0.00183330  0.79779493  0.79792251  1
  Ta  Ta148  1  0.19321088  0.20408991  0.00234599  1
  Ta  Ta149  1  0.19941553  0.79139506  -0.00814539  1
  Ti  Ti150  1  0.10639643  0.30643065  0.09994647  1
  Ti  Ti151  1  0.30230946  0.89399771  0.10131310  1
  Ti  Ti152  1  0.60365209  0.80036774  0.00901186  1
  Ti  Ti153  1  0.69784712  0.70158757  0.49322131  1
  Ti  Ti154  1  0.59384832  0.80015814  0.40230653  1
  Ti  Ti155  1  0.59941614  -0.00285538  -0.00046106  1
  Ti  Ti156  1  0.70151746  0.89991382  0.09530792  1
  Ti  Ti157  1  0.18474650  0.61148153  0.40235125  1
  Ti  Ti158  1  0.39184873  0.38697738  0.81596503  1
  Ti  Ti159  1  0.70187513  0.08995695  0.49917103  1
  Ti  Ti160  1  -0.00294838  -0.01397216  0.40147139  1
  Ti  Ti161  1  0.79551036  0.60919809  0.19664326  1
  Ti  Ti162  1  0.40456762  0.19952418  0.39871993  1
  Ti  Ti163  1  0.70468474  0.30192729  0.10005428  1
  Ti  Ti164  1  0.00426949  0.61080274  0.59531908  1
  Ti  Ti165  1  0.29824267  0.69683277  0.49098624  1
  Ti  Ti166  1  0.39544584  0.60227314  0.80028124  1
  Ti  Ti167  1  0.20074795  0.60364482  0.80444108  1
  Ti  Ti168  1  0.09930923  0.69128910  0.90176936  1
  Ti  Ti169  1  0.49834211  0.50903590  0.49478973  1
  Ti  Ti170  1  0.49764100  0.50517860  0.10285524  1
  Ti  Ti171  1  0.29730326  0.89768064  0.29573125  1
  Ti  Ti172  1  0.91074678  0.89870939  0.70447754  1
  Ti  Ti173  1  0.59768743  0.60252962  0.60236966  1
  Ti  Ti174  1  0.10424907  0.50751062  0.30601176  1
  Ti  Ti175  1  0.70345696  0.89628037  0.70528371  1
  Ti  Ti176  1  0.09884036  0.09753757  0.50045639  1
  Ti  Ti177  1  0.28942747  0.30810843  0.09407731  1
  Ti  Ti178  1  0.89865927  0.88260666  0.89992227  1
  Ti  Ti179  1  0.10309124  0.50630901  0.49623281  1
  Ti  Ti180  1  0.60966191  -0.01491047  0.59465549  1
  Ti  Ti181  1  0.39334915  0.21353487  -0.00712890  1
  Ti  Ti182  1  0.10529411  0.30891469  0.91537907  1
  Ti  Ti183  1  0.80935607  0.79459190  0.79462138  1
  Ti  Ti184  1  0.09877556  0.09141695  0.09164456  1
  Ti  Ti185  1  0.69410277  0.50228436  0.69970522  1
  Ti  Ti186  1  0.10077100  0.09687888  0.90321736  1
  Ti  Ti187  1  0.19314504  0.79235844  0.58872592  1
  Ti  Ti188  1  0.09558940  0.09989390  0.69597149  1
  Ti  Ti189  1  0.30173794  0.08471705  0.30026069  1
  Ti  Ti190  1  0.00033610  0.78721230  -0.00990323  1
  Ti  Ti191  1  0.00430372  -0.01434340  0.60224450  1
  Ti  Ti192  1  0.10237852  0.30051716  0.30808682  1
  Ti  Ti193  1  0.91413511  0.70115965  0.10135775  1
  Ti  Ti194  1  0.70338001  0.89128053  0.49294047  1
  Ti  Ti195  1  0.39338211  0.60027751  -0.00021152  1
  Ti  Ti196  1  0.09532156  0.89783778  0.89766287  1
  Ti  Ti197  1  0.10142737  0.89867316  0.49441320  1
  Ti  Ti198  1  0.59841928  0.20602713  0.19529169  1
  Ti  Ti199  1  0.01284305  0.60428950  0.21252797  1
  Mo  Mo200  1  0.00502642  0.60394771  -0.00747270  1
  Mo  Mo201  1  0.09503461  0.89064472  0.69901644  1
  Mo  Mo202  1  0.39244971  0.80434715  0.00552606  1
  Mo  Mo203  1  0.80642651  0.39486636  0.01162634  1
  Mo  Mo204  1  0.09985675  0.51200547  0.90622023  1
  Mo  Mo205  1  0.10245699  0.50516468  0.10717927  1
  Mo  Mo206  1  0.39407688  0.21326517  0.79822579  1
  Mo  Mo207  1  0.00260523  0.20329255  0.40663247  1
  Mo  Mo208  1  0.90632064  0.70822242  0.89711163  1
  Mo  Mo209  1  0.70454509  0.29458584  0.49668218  1
  Mo  Mo210  1  0.61170119  -0.01028047  0.18096394  1
  Mo  Mo211  1  0.49269797  0.30556409  0.90599277  1
  Mo  Mo212  1  0.49841041  0.29955511  0.49483810  1
  Mo  Mo213  1  0.10165668  0.29968528  0.68889611  1
  Mo  Mo214  1  0.50594460  0.50263140  0.29557683  1
  Mo  Mo215  1  0.19669002  0.59978775  0.21538347  1
  Mo  Mo216  1  0.09779395  0.70205868  0.30245851  1
  Mo  Mo217  1  0.79727676  0.60331968  0.39360531  1
  Mo  Mo218  1  0.39212589  0.80378187  0.20134841  1
  Mo  Mo219  1  0.00627544  0.60344262  0.39823660  1
  Mo  Mo220  1  0.19039698  0.19254595  0.60064738  1
  Mo  Mo221  1  0.80318372  0.80006846  0.39940998  1
  Mo  Mo222  1  0.59424330  0.60001861  0.39499161  1
  Mo  Mo223  1  0.09917731  0.70171204  0.49974887  1
  Mo  Mo224  1  0.39952524  0.40604588  0.59007594  1
  Mo  Mo225  1  0.91164648  0.70276869  0.69958337  1
  Mo  Mo226  1  0.51085874  0.89325738  0.49602040  1
  Mo  Mo227  1  0.90479094  0.11680031  0.90462971  1
  Mo  Mo228  1  0.29336186  0.69708944  0.89848795  1
  Mo  Mo229  1  0.59441787  0.59360015  0.20313489  1
  Mo  Mo230  1  0.40332382  0.59965720  0.39985076  1
  Mo  Mo231  1  0.90916412  0.89874796  0.50055677  1
  Mo  Mo232  1  0.79957183  0.19819202  0.19952507  1
  Mo  Mo233  1  0.60728703  -0.01036940  0.41470269  1
  Mo  Mo234  1  0.90267523  0.30102013  0.10171597  1
  Mo  Mo235  1  0.50121752  0.69425000  0.30388481  1
  Mo  Mo236  1  0.69644405  0.70010738  0.10305282  1
  Mo  Mo237  1  0.19687404  0.40115812  0.00850014  1
  Mo  Mo238  1  0.29611553  0.30377760  0.91483509  1
  Mo  Mo239  1  0.89855949  0.09066524  0.30011819  1
  Mo  Mo240  1  0.19576081  0.60086090  -0.01256781  1
  Mo  Mo241  1  0.19885143  -0.00973023  0.40044646  1
  Mo  Mo242  1  0.19985273  0.41793436  0.59488009  1
  Mo  Mo243  1  0.80255963  0.80196914  0.00262569  1
  Mo  Mo244  1  0.60118270  0.20548872  0.80257110  1
  Mo  Mo245  1  0.90760038  0.29064857  0.49823099  1
  Mo  Mo246  1  0.19160239  0.41567254  0.39717430  1
  Mo  Mo247  1  0.00068328  -0.00903545  0.80002283  1
  Mo  Mo248  1  0.38907169  -0.00663372  0.20178741  1
  Mo  Mo249  1  0.19021840  -0.00142970  -0.00219466  1
