# generated using pymatgen
data_HfZrTaTiMo
_symmetry_space_group_name_H-M   'P 1'
_cell_length_a   16.88116391
_cell_length_b   16.88742388
_cell_length_c   16.88057140
_cell_angle_alpha   89.99681895
_cell_angle_beta   90.00272488
_cell_angle_gamma   90.00497304
_symmetry_Int_Tables_number   1
_chemical_formula_structural   HfZrTaTiMo
_chemical_formula_sum   'Hf50 Zr50 Ta50 Ti50 Mo50'
_cell_volume   4812.30263762
_cell_formula_units_Z   50
loop_
 _symmetry_equiv_pos_site_id
 _symmetry_equiv_pos_as_xyz
  1  'x, y, z'
loop_
 _atom_site_type_symbol
 _atom_site_label
 _atom_site_symmetry_multiplicity
 _atom_site_fract_x
 _atom_site_fract_y
 _atom_site_fract_z
 _atom_site_occupancy
  Hf  Hf0  1  0.49862012  0.09716324  0.49377815  1
  Hf  Hf1  1  0.30339534  0.71076224  0.29118462  1
  Hf  Hf2  1  0.39315674  0.60156639  0.79697256  1
  Hf  Hf3  1  0.20505248  0.59842853  0.80396277  1
  Hf  Hf4  1  0.09927053  0.09638871  0.10708224  1
  Hf  Hf5  1  0.10751837  0.30588204  0.49581954  1
  Hf  Hf6  1  0.79412593  0.20019915  0.80057954  1
  Hf  Hf7  1  0.20433394  -0.00888712  0.20981926  1
  Hf  Hf8  1  0.79480273  0.59928142  0.00079888  1
  Hf  Hf9  1  0.48604089  0.48512771  0.69701803  1
  Hf  Hf10  1  0.49528089  0.70443636  0.90300418  1
  Hf  Hf11  1  0.30721470  0.89507919  0.69661794  1
  Hf  Hf12  1  -0.00487954  0.78798897  0.79886540  1
  Hf  Hf13  1  0.69912249  0.90258393  0.70344598  1
  Hf  Hf14  1  0.59665175  0.79047317  0.40667768  1
  Hf  Hf15  1  0.11312860  0.10786408  0.49005249  1
  Hf  Hf16  1  0.10359859  0.50578216  0.50266549  1
  Hf  Hf17  1  0.80414545  0.79733185  -0.00041168  1
  Hf  Hf18  1  0.32240844  0.31054714  0.70582068  1
  Hf  Hf19  1  -0.00080040  0.39988018  0.00564331  1
  Hf  Hf20  1  0.50225877  0.11369953  0.70193680  1
  Hf  Hf21  1  0.50095086  0.09733473  0.30464266  1
  Hf  Hf22  1  0.29584932  0.31214526  0.29317891  1
  Hf  Hf23  1  0.59356687  -0.00463017  0.19620232  1
  Hf  Hf24  1  -0.00728467  0.40438889  0.58669913  1
  Hf  Hf25  1  0.39924119  0.60004865  0.00363442  1
  Hf  Hf26  1  -0.00040851  -0.00865727  0.00529328  1
  Hf  Hf27  1  0.09973573  0.89477578  0.49581231  1
  Hf  Hf28  1  0.49226416  0.29914323  0.08905469  1
  Hf  Hf29  1  0.51130583  0.50592644  0.30459315  1
  Hf  Hf30  1  0.90539115  0.68953218  0.10383769  1
  Hf  Hf31  1  0.10239046  0.49498243  0.29871462  1
  Hf  Hf32  1  0.31439896  0.88523613  0.91183514  1
  Hf  Hf33  1  0.40358858  0.60222761  0.59690638  1
  Hf  Hf34  1  0.69936532  0.90052521  0.89829771  1
  Hf  Hf35  1  0.20992138  0.78372439  0.79927723  1
  Hf  Hf36  1  0.19590444  0.78768605  0.00137454  1
  Hf  Hf37  1  0.89673128  0.10113068  0.70059095  1
  Hf  Hf38  1  0.89205007  0.70213209  0.48859928  1
  Hf  Hf39  1  -0.00874963  0.21302964  0.39788948  1
  Hf  Hf40  1  0.20992892  0.60427886  0.40526248  1
  Hf  Hf41  1  0.39463173  0.19250286  0.19461589  1
  Hf  Hf42  1  0.20877686  -0.00079879  0.00658106  1
  Hf  Hf43  1  0.59307440  0.00309808  0.80032552  1
  Hf  Hf44  1  0.10543406  0.30249359  0.70080596  1
  Hf  Hf45  1  0.89329797  0.90846703  0.70469630  1
  Hf  Hf46  1  0.10216690  0.50275890  0.69571827  1
  Hf  Hf47  1  0.41130051  0.40597569  0.40250954  1
  Hf  Hf48  1  0.21189401  0.20648407  0.60132817  1
  Hf  Hf49  1  0.90044284  0.10139276  0.10178289  1
  Zr  Zr50  1  0.31291372  0.30353760  0.90500095  1
  Zr  Zr51  1  0.69749573  0.30504631  0.69522698  1
  Zr  Zr52  1  0.69772446  0.69425913  0.69818647  1
  Zr  Zr53  1  0.69693256  0.89280217  0.30193684  1
  Zr  Zr54  1  -0.01015444  0.59082665  0.39636488  1
  Zr  Zr55  1  0.80421937  0.79035385  0.20151056  1
  Zr  Zr56  1  0.59415116  0.20112302  0.19470495  1
  Zr  Zr57  1  0.69984298  0.69058565  0.30145731  1
  Zr  Zr58  1  0.89686567  0.10106322  0.30307209  1
  Zr  Zr59  1  0.29886302  0.50216273  0.29206086  1
  Zr  Zr60  1  0.80738210  0.40763355  0.39886943  1
  Zr  Zr61  1  0.40325125  0.21067411  0.39258736  1
  Zr  Zr62  1  0.80327076  0.40026386  0.20169813  1
  Zr  Zr63  1  0.00630703  0.21464913  0.00138285  1
  Zr  Zr64  1  0.20470648  0.00532811  0.60379908  1
  Zr  Zr65  1  0.89652108  0.29873749  0.69381968  1
  Zr  Zr66  1  0.48636071  0.89276596  0.09246935  1
  Zr  Zr67  1  0.69555031  0.89478140  0.09827942  1
  Zr  Zr68  1  0.30285009  0.90452217  0.49549566  1
  Zr  Zr69  1  0.69682498  0.10274816  0.31141198  1
  Zr  Zr70  1  0.40470422  0.00080499  0.80346471  1
  Zr  Zr71  1  0.59543298  0.40923320  0.00145772  1
  Zr  Zr72  1  0.68571631  0.30247404  0.31626767  1
  Zr  Zr73  1  0.01049898  0.39942247  0.81571141  1
  Zr  Zr74  1  0.80428088  0.20772842  0.20362251  1
  Zr  Zr75  1  0.79470790  0.40753433  0.79563908  1
  Zr  Zr76  1  0.09650533  0.68984904  0.69043960  1
  Zr  Zr77  1  0.88728833  0.11109804  0.50611065  1
  Zr  Zr78  1  0.20659904  0.19338600  0.19632386  1
  Zr  Zr79  1  0.89591990  0.09791723  0.89919105  1
  Zr  Zr80  1  0.70408001  0.30277444  0.08919231  1
  Zr  Zr81  1  0.79629063  -0.00885769  0.40692315  1
  Zr  Zr82  1  0.49206448  0.89748039  0.49636726  1
  Zr  Zr83  1  0.60100805  0.40568324  0.58924924  1
  Zr  Zr84  1  0.60839462  0.19782831  0.59028190  1
  Zr  Zr85  1  0.10817925  0.30574871  0.30412923  1
  Zr  Zr86  1  0.80486856  0.78894878  0.80136326  1
  Zr  Zr87  1  0.21231851  0.00729277  0.80485749  1
  Zr  Zr88  1  0.20294281  0.80497040  0.39248380  1
  Zr  Zr89  1  0.30235809  0.31473815  0.09638713  1
  Zr  Zr90  1  0.10028815  0.89833936  0.70136082  1
  Zr  Zr91  1  0.89782133  0.50326617  0.69712344  1
  Zr  Zr92  1  0.09827336  0.89536033  0.89819787  1
  Zr  Zr93  1  0.10299894  0.10380774  0.89827644  1
  Zr  Zr94  1  0.40856779  0.60219424  0.19261530  1
  Zr  Zr95  1  0.79669225  0.79579096  0.59573566  1
  Zr  Zr96  1  0.00049969  0.00116350  0.59799615  1
  Zr  Zr97  1  0.00031254  -0.00309298  0.39888764  1
  Zr  Zr98  1  0.18273663  0.40579668  -0.01011432  1
  Zr  Zr99  1  0.69886170  0.49999000  0.89881211  1
  Ta  Ta100  1  0.21169960  0.19503515  0.00053490  1
  Ta  Ta101  1  0.59750130  -0.00521962  0.60076154  1
  Ta  Ta102  1  0.90012230  0.50293134  0.90625591  1
  Ta  Ta103  1  0.69332556  0.29668191  0.90002998  1
  Ta  Ta104  1  0.69811188  0.09919045  0.90011882  1
  Ta  Ta105  1  0.59107398  0.59920795  0.00262743  1
  Ta  Ta106  1  -0.00684864  0.39683160  0.20139876  1
  Ta  Ta107  1  0.59519834  0.19161368  -0.00708047  1
  Ta  Ta108  1  0.58613957  0.79146108  0.19941526  1
  Ta  Ta109  1  0.79960507  0.60194755  0.79837140  1
  Ta  Ta110  1  0.30964732  0.11373046  0.70089666  1
  Ta  Ta111  1  0.29984795  0.88741909  0.10831075  1
  Ta  Ta112  1  -0.00154946  -0.00741579  0.20550292  1
  Ta  Ta113  1  0.20319560  0.78955191  0.59737825  1
  Ta  Ta114  1  0.90246186  0.88417890  0.30632648  1
  Ta  Ta115  1  0.89742214  0.90362556  0.89891270  1
  Ta  Ta116  1  0.10280229  0.10184621  0.30417292  1
  Ta  Ta117  1  0.29948192  0.50203747  0.90381005  1
  Ta  Ta118  1  0.00110580  0.20949275  0.80592730  1
  Ta  Ta119  1  0.88315863  0.30139290  0.50507960  1
  Ta  Ta120  1  0.79725257  -0.00117303  0.00335628  1
  Ta  Ta121  1  0.58992762  0.79991039  0.79541154  1
  Ta  Ta122  1  0.59578820  0.40370435  0.19930507  1
  Ta  Ta123  1  0.89847267  0.50053929  0.10056616  1
  Ta  Ta124  1  -0.00192338  0.20982662  0.20229771  1
  Ta  Ta125  1  0.40574011  0.00573832  0.60786454  1
  Ta  Ta126  1  0.10066227  0.11204437  0.70464731  1
  Ta  Ta127  1  0.68970725  0.69826611  0.90002785  1
  Ta  Ta128  1  0.50320113  0.29876957  0.89464619  1
  Ta  Ta129  1  0.49957342  0.89512926  0.90407695  1
  Ta  Ta130  1  0.21561013  0.40610907  0.60355050  1
  Ta  Ta131  1  0.59745972  0.59924112  0.59556885  1
  Ta  Ta132  1  0.29951813  0.70522353  0.10303149  1
  Ta  Ta133  1  0.39370672  -0.00265659  0.20234482  1
  Ta  Ta134  1  0.88320711  0.30710826  0.90994073  1
  Ta  Ta135  1  0.59541495  0.00505309  -0.00240289  1
  Ta  Ta136  1  0.59455797  0.79511770  0.59895584  1
  Ta  Ta137  1  0.40591616  0.60794607  0.40805204  1
  Ta  Ta138  1  -0.00583162  0.79389692  0.59841033  1
  Ta  Ta139  1  0.80457694  -0.00623925  0.19802243  1
  Ta  Ta140  1  0.20724406  0.40759340  0.79925401  1
  Ta  Ta141  1  0.09877531  0.88918249  0.10901870  1
  Ta  Ta142  1  0.69742879  0.50633924  0.29811560  1
  Ta  Ta143  1  0.50058709  0.30008543  0.70846397  1
  Ta  Ta144  1  0.59406527  0.59541372  0.79627050  1
  Ta  Ta145  1  0.09615510  0.70084860  0.49711433  1
  Ta  Ta146  1  -0.00093051  0.79479400  0.00214210  1
  Ta  Ta147  1  0.09460217  0.70146126  0.29884741  1
  Ta  Ta148  1  0.30613798  0.10047046  0.49538126  1
  Ta  Ta149  1  0.69375099  0.69527001  0.09986121  1
  Ti  Ti150  1  0.59579791  0.40552169  0.80010974  1
  Ti  Ti151  1  0.30968969  0.71132957  0.49675947  1
  Ti  Ti152  1  0.40993901  0.41930995  -0.00432408  1
  Ti  Ti153  1  0.20585795  0.20624157  0.80612603  1
  Ti  Ti154  1  0.19657350  0.60513529  0.19734240  1
  Ti  Ti155  1  -0.00509033  0.59981002  0.80207037  1
  Ti  Ti156  1  0.69776884  0.89221264  0.50132581  1
  Ti  Ti157  1  0.70230540  0.50468044  0.10621107  1
  Ti  Ti158  1  -0.00868609  0.59447076  0.20856977  1
  Ti  Ti159  1  0.59606280  0.60150581  0.19028648  1
  Ti  Ti160  1  0.09884394  0.50607958  0.10641317  1
  Ti  Ti161  1  0.30495623  0.30269237  0.49809914  1
  Ti  Ti162  1  0.28771254  0.50232447  0.09834310  1
  Ti  Ti163  1  0.51927026  0.30288923  0.48226074  1
  Ti  Ti164  1  0.49471821  0.70344623  0.30358039  1
  Ti  Ti165  1  0.39431193  -0.01016279  0.38599208  1
  Ti  Ti166  1  0.21096768  0.40790086  0.40923581  1
  Ti  Ti167  1  0.00323041  0.20398867  0.59931225  1
  Ti  Ti168  1  0.41227416  0.40765699  0.19591598  1
  Ti  Ti169  1  0.40515369  0.19277011  0.81628522  1
  Ti  Ti170  1  0.89971580  0.89031417  0.49514370  1
  Ti  Ti171  1  -0.00032684  0.79550408  0.20406653  1
  Ti  Ti172  1  0.29191502  0.09845503  0.31436283  1
  Ti  Ti173  1  0.00190217  0.00455688  0.80054318  1
  Ti  Ti174  1  0.59660338  0.79447931  0.00249042  1
  Ti  Ti175  1  0.09788525  0.69555804  0.10683016  1
  Ti  Ti176  1  0.40099824  0.79264964  0.79449681  1
  Ti  Ti177  1  0.10846031  0.30343516  0.10884525  1
  Ti  Ti178  1  0.09590147  0.89439635  0.29929290  1
  Ti  Ti179  1  0.90264066  0.69126239  0.90476356  1
  Ti  Ti180  1  0.40753368  0.20937059  0.59104825  1
  Ti  Ti181  1  0.21740239  0.60401289  0.60054395  1
  Ti  Ti182  1  0.70198885  0.09703091  0.09723264  1
  Ti  Ti183  1  0.59635591  0.60188070  0.41635221  1
  Ti  Ti184  1  0.50047212  0.70044734  0.69804085  1
  Ti  Ti185  1  0.79325751  0.59323807  0.59637084  1
  Ti  Ti186  1  0.90378727  0.89630585  0.10435001  1
  Ti  Ti187  1  0.39711007  0.01180749  -0.00234821  1
  Ti  Ti188  1  0.00810521  0.59334746  -0.00116724  1
  Ti  Ti189  1  0.80209810  0.59694206  0.39299134  1
  Ti  Ti190  1  0.70154372  0.50117449  0.49406767  1
  Ti  Ti191  1  0.40625797  0.79573646  0.60235328  1
  Ti  Ti192  1  0.79786384  0.19938700  0.00167320  1
  Ti  Ti193  1  0.78692429  0.00364578  0.59414083  1
  Ti  Ti194  1  0.09773956  0.68758252  0.90561623  1
  Ti  Ti195  1  0.70080587  0.09807510  0.70140844  1
  Ti  Ti196  1  0.49375712  0.09791132  0.09356173  1
  Ti  Ti197  1  0.31235195  0.49561192  0.50840586  1
  Ti  Ti198  1  -0.01415280  0.60385943  0.59346211  1
  Ti  Ti199  1  0.60001473  -0.00713824  0.40459523  1
  Mo  Mo200  1  0.50040881  0.89239846  0.69778754  1
  Mo  Mo201  1  0.40370665  0.18682079  -0.00225212  1
  Mo  Mo202  1  0.79855432  0.79553118  0.40103748  1
  Mo  Mo203  1  0.90336322  0.30198894  0.09884350  1
  Mo  Mo204  1  0.19818976  0.60021392  0.00761973  1
  Mo  Mo205  1  0.50167798  0.10112993  0.90354283  1
  Mo  Mo206  1  0.40551435  0.38796472  0.58547844  1
  Mo  Mo207  1  0.80175224  0.40517924  0.00268815  1
  Mo  Mo208  1  0.60081892  0.20285588  0.80381889  1
  Mo  Mo209  1  0.40437082  0.40500853  0.81356386  1
  Mo  Mo210  1  0.69139230  0.50661289  0.69751664  1
  Mo  Mo211  1  0.09674054  0.51188916  0.89834637  1
  Mo  Mo212  1  0.18981678  0.79677930  0.19738525  1
  Mo  Mo213  1  0.90003248  0.69048175  0.69211961  1
  Mo  Mo214  1  0.30575810  0.89919654  0.29523510  1
  Mo  Mo215  1  0.50016914  0.70092225  0.50243807  1
  Mo  Mo216  1  0.79222823  0.20693979  0.41036069  1
  Mo  Mo217  1  0.49524961  0.89717550  0.29832666  1
  Mo  Mo218  1  0.18987959  0.41087413  0.18845637  1
  Mo  Mo219  1  0.20959298  0.20158943  0.40185939  1
  Mo  Mo220  1  0.50570472  0.50130825  0.10271706  1
  Mo  Mo221  1  0.30048221  0.49702831  0.69865087  1
  Mo  Mo222  1  0.50370795  0.69989626  0.09972219  1
  Mo  Mo223  1  0.20240003  0.00227202  0.39349626  1
  Mo  Mo224  1  0.39713171  0.79030296  0.00512746  1
  Mo  Mo225  1  0.59917027  0.19847950  0.40254702  1
  Mo  Mo226  1  0.79436798  0.00466930  0.80631623  1
  Mo  Mo227  1  0.79118696  0.19460022  0.60227228  1
  Mo  Mo228  1  0.49714945  0.50250889  0.89532037  1
  Mo  Mo229  1  0.40268945  0.80211408  0.20167186  1
  Mo  Mo230  1  0.60409797  0.41004503  0.39930076  1
  Mo  Mo231  1  -0.00794408  0.39985056  0.39739858  1
  Mo  Mo232  1  0.90134964  0.69670080  0.29732658  1
  Mo  Mo233  1  0.90473790  0.30603327  0.30531086  1
  Mo  Mo234  1  0.69372849  0.09189165  0.50306528  1
  Mo  Mo235  1  0.30426797  0.70145225  0.68816806  1
  Mo  Mo236  1  0.00106047  0.79485124  0.39694479  1
  Mo  Mo237  1  0.70743280  0.29611315  0.49809440  1
  Mo  Mo238  1  0.11469661  0.29500134  0.89510880  1
  Mo  Mo239  1  0.89083548  0.50308228  0.50079590  1
  Mo  Mo240  1  0.89848511  0.50191546  0.29245338  1
  Mo  Mo241  1  0.50187427  0.50431612  0.49820794  1
  Mo  Mo242  1  0.30092621  0.69509106  0.90967634  1
  Mo  Mo243  1  0.50002293  0.30915308  0.29211681  1
  Mo  Mo244  1  0.30392524  0.08728608  0.09745249  1
  Mo  Mo245  1  0.40449488  0.79836265  0.39282539  1
  Mo  Mo246  1  0.79771137  0.59387414  0.19756085  1
  Mo  Mo247  1  0.30481128  0.10646549  0.90136380  1
  Mo  Mo248  1  0.79471334  0.41236183  0.59172510  1
  Mo  Mo249  1  0.69843867  0.68877308  0.49966349  1
