# generated using pymatgen
data_HfZrTaTiMo
_symmetry_space_group_name_H-M   'P 1'
_cell_length_a   16.89399264
_cell_length_b   16.89396862
_cell_length_c   16.88965759
_cell_angle_alpha   89.99461131
_cell_angle_beta   89.97777629
_cell_angle_gamma   90.03686764
_symmetry_Int_Tables_number   1
_chemical_formula_structural   HfZrTaTiMo
_chemical_formula_sum   'Hf50 Zr50 Ta50 Ti50 Mo50'
_cell_volume   4820.41805493
_cell_formula_units_Z   50
loop_
 _symmetry_equiv_pos_site_id
 _symmetry_equiv_pos_as_xyz
  1  'x, y, z'
loop_
 _atom_site_type_symbol
 _atom_site_label
 _atom_site_symmetry_multiplicity
 _atom_site_fract_x
 _atom_site_fract_y
 _atom_site_fract_z
 _atom_site_occupancy
  Hf  Hf0  1  0.10443222  0.90389979  0.70765935  1
  Hf  Hf1  1  0.40803202  0.59872642  0.19732589  1
  Hf  Hf2  1  0.60046686  0.59639384  0.79433663  1
  Hf  Hf3  1  0.30189696  0.70421448  0.50161913  1
  Hf  Hf4  1  0.79788316  0.41283129  0.18677200  1
  Hf  Hf5  1  0.70217360  0.69529258  0.89967259  1
  Hf  Hf6  1  0.20329423  0.60450412  -0.00989534  1
  Hf  Hf7  1  -0.00856507  0.00185740  0.60270668  1
  Hf  Hf8  1  0.30575303  0.89063905  0.10094424  1
  Hf  Hf9  1  0.40240371  0.39062873  0.40083452  1
  Hf  Hf10  1  0.50674655  0.10068664  0.89625136  1
  Hf  Hf11  1  -0.00249513  0.19469483  0.59993080  1
  Hf  Hf12  1  0.19154928  0.80967255  0.20053586  1
  Hf  Hf13  1  0.19747241  0.20045957  0.59805340  1
  Hf  Hf14  1  0.49234497  0.31097685  0.08855872  1
  Hf  Hf15  1  0.39234430  0.79543729  -0.01783296  1
  Hf  Hf16  1  0.59607347  0.79927499  0.79275738  1
  Hf  Hf17  1  0.00005413  0.80509451  0.59738537  1
  Hf  Hf18  1  0.40537224  0.60768630  0.39622300  1
  Hf  Hf19  1  0.88404476  0.88903100  0.70826934  1
  Hf  Hf20  1  0.89232089  0.70692139  0.90286179  1
  Hf  Hf21  1  0.20885242  -0.00561198  -0.00168141  1
  Hf  Hf22  1  0.20806437  0.81268020  0.59903711  1
  Hf  Hf23  1  0.79659640  0.59861996  0.60505203  1
  Hf  Hf24  1  0.00211967  0.60441182  -0.00655733  1
  Hf  Hf25  1  0.30029309  0.50321292  0.50105277  1
  Hf  Hf26  1  0.59906788  0.61287448  0.40485448  1
  Hf  Hf27  1  0.39726161  0.01011411  -0.00304959  1
  Hf  Hf28  1  0.70293279  0.69848498  0.09339058  1
  Hf  Hf29  1  0.10014698  0.51313584  0.29023564  1
  Hf  Hf30  1  0.80040136  -0.00400107  -0.00077799  1
  Hf  Hf31  1  0.09607428  0.10562918  0.71288187  1
  Hf  Hf32  1  0.50036667  0.09530387  0.29958329  1
  Hf  Hf33  1  0.20899192  0.20825918  0.81326295  1
  Hf  Hf34  1  0.59961225  0.40587789  0.19066822  1
  Hf  Hf35  1  0.69790650  0.10723710  0.29526776  1
  Hf  Hf36  1  0.60917703  0.81343694  -0.00205756  1
  Hf  Hf37  1  0.09585849  0.69602948  0.29239630  1
  Hf  Hf38  1  0.80222184  -0.00318153  0.19718862  1
  Hf  Hf39  1  0.80082724  0.80869320  0.19713898  1
  Hf  Hf40  1  0.39522757  0.19124598  0.19125567  1
  Hf  Hf41  1  0.19993395  0.80960487  0.40142159  1
  Hf  Hf42  1  0.89907533  0.29970702  0.09223151  1
  Hf  Hf43  1  0.50286660  0.10499837  0.69597389  1
  Hf  Hf44  1  0.00011307  0.80262829  0.40003682  1
  Hf  Hf45  1  0.19748527  0.39650531  -0.00603569  1
  Hf  Hf46  1  0.49853903  0.09446992  0.50667605  1
  Hf  Hf47  1  0.39737402  0.60756842  0.80654166  1
  Hf  Hf48  1  0.69599549  0.50134670  0.49725043  1
  Hf  Hf49  1  0.68305165  0.09355197  0.09361902  1
  Zr  Zr50  1  0.89062756  0.70689844  0.49824660  1
  Zr  Zr51  1  0.59581791  0.39688392  0.60135707  1
  Zr  Zr52  1  0.27791232  0.28405240  0.29715467  1
  Zr  Zr53  1  -0.00464945  0.59835953  0.61387484  1
  Zr  Zr54  1  0.30852148  0.10842345  0.69989201  1
  Zr  Zr55  1  0.69904049  0.29229709  0.28992576  1
  Zr  Zr56  1  0.29788913  0.70172930  0.29891539  1
  Zr  Zr57  1  0.69036368  0.09628206  0.50449146  1
  Zr  Zr58  1  0.60135461  0.21211606  -0.00655629  1
  Zr  Zr59  1  0.80390052  0.60084550  0.19249151  1
  Zr  Zr60  1  0.20640872  -0.00274441  0.20117413  1
  Zr  Zr61  1  0.39828959  0.39994928  0.20625347  1
  Zr  Zr62  1  0.90690741  0.49724350  0.49794782  1
  Zr  Zr63  1  0.09694674  0.09211245  0.09619621  1
  Zr  Zr64  1  0.80798358  0.19228633  0.60217931  1
  Zr  Zr65  1  0.69173095  0.29344327  0.70795329  1
  Zr  Zr66  1  0.90541562  0.30150821  0.71107351  1
  Zr  Zr67  1  0.41001573  0.60494121  0.60202144  1
  Zr  Zr68  1  -0.01382154  -0.00268181  0.80689293  1
  Zr  Zr69  1  0.59962902  -0.01122638  0.39311855  1
  Zr  Zr70  1  0.79958856  -0.00428426  0.39398605  1
  Zr  Zr71  1  0.50593783  0.90855510  0.09516738  1
  Zr  Zr72  1  0.21403371  0.79731119  0.81514672  1
  Zr  Zr73  1  0.59794518  -0.00834493  0.78899695  1
  Zr  Zr74  1  0.69726140  0.28909969  0.49961506  1
  Zr  Zr75  1  0.79688710  0.20115324  0.80754667  1
  Zr  Zr76  1  0.29796278  0.50590334  0.69963073  1
  Zr  Zr77  1  0.00388096  0.39137460  0.39306564  1
  Zr  Zr78  1  0.00397580  0.79229517  0.80819085  1
  Zr  Zr79  1  0.80710878  0.39615319  0.60077790  1
  Zr  Zr80  1  0.19958609  0.39630752  0.61103988  1
  Zr  Zr81  1  0.80699229  0.39322762  0.39913807  1
  Zr  Zr82  1  0.50510217  0.50175219  0.30392016  1
  Zr  Zr83  1  0.89303347  0.29022266  0.28915081  1
  Zr  Zr84  1  0.20486760  0.00406840  0.59816595  1
  Zr  Zr85  1  0.00557470  0.39506851  0.19607911  1
  Zr  Zr86  1  0.10558798  0.09647991  0.30414925  1
  Zr  Zr87  1  0.40029654  0.00202159  0.20153608  1
  Zr  Zr88  1  -0.00035469  0.20062433  0.40290330  1
  Zr  Zr89  1  0.70281786  0.50393503  0.30465971  1
  Zr  Zr90  1  0.11095495  0.69321960  0.69623756  1
  Zr  Zr91  1  0.10118871  0.50566405  0.51330386  1
  Zr  Zr92  1  0.09593286  0.10112402  0.90338757  1
  Zr  Zr93  1  0.39772353  0.20289914  0.40076890  1
  Zr  Zr94  1  0.20034063  0.40113577  0.80808355  1
  Zr  Zr95  1  0.71532831  0.89850923  0.88462633  1
  Zr  Zr96  1  0.50486597  0.70243369  0.09341454  1
  Zr  Zr97  1  0.29324283  0.30284399  0.09678096  1
  Zr  Zr98  1  0.29766981  0.69841626  0.10353779  1
  Zr  Zr99  1  0.19252307  0.39546089  0.39731665  1
  Ta  Ta100  1  0.60246843  0.39783103  0.80713568  1
  Ta  Ta101  1  0.70509769  0.70480243  0.30249163  1
  Ta  Ta102  1  0.19449441  0.59805341  0.80919250  1
  Ta  Ta103  1  0.80464529  0.59429603  0.79960176  1
  Ta  Ta104  1  0.89790072  0.09338798  0.49688107  1
  Ta  Ta105  1  -0.00461606  0.20132278  0.00133408  1
  Ta  Ta106  1  0.10049894  0.91509371  0.49260946  1
  Ta  Ta107  1  0.70095937  0.50009065  0.89781977  1
  Ta  Ta108  1  0.21387347  -0.00237224  0.80920865  1
  Ta  Ta109  1  0.00054078  0.80600810  0.19499371  1
  Ta  Ta110  1  0.09756372  0.90238638  0.91017334  1
  Ta  Ta111  1  -0.00131352  0.40693376  0.80919460  1
  Ta  Ta112  1  0.40348193  0.59409594  -0.00180348  1
  Ta  Ta113  1  0.90419537  0.89796652  0.30120714  1
  Ta  Ta114  1  0.50255541  0.49678484  0.90281833  1
  Ta  Ta115  1  0.29811604  0.49915377  0.09937707  1
  Ta  Ta116  1  0.58900151  0.38697630  0.39978533  1
  Ta  Ta117  1  0.10385110  0.50468887  0.09959991  1
  Ta  Ta118  1  -0.00015374  0.19127523  0.19719487  1
  Ta  Ta119  1  0.49624216  0.89751456  0.49790202  1
  Ta  Ta120  1  0.49688809  0.29497635  0.70849400  1
  Ta  Ta121  1  0.58536551  0.20760208  0.39935644  1
  Ta  Ta122  1  0.39589550  0.19718600  -0.00289197  1
  Ta  Ta123  1  0.09154074  0.30084381  0.71137422  1
  Ta  Ta124  1  0.50605694  0.69666125  0.90122971  1
  Ta  Ta125  1  0.41513425  0.80226878  0.21749972  1
  Ta  Ta126  1  0.39817662  -0.01224896  0.60350652  1
  Ta  Ta127  1  0.59822344  0.80092395  0.39375274  1
  Ta  Ta128  1  0.50124490  0.49701598  0.50349647  1
  Ta  Ta129  1  0.40311364  0.39383503  0.60141429  1
  Ta  Ta130  1  0.69018828  0.09939465  0.69675777  1
  Ta  Ta131  1  0.79785114  0.40535166  -0.00319745  1
  Ta  Ta132  1  0.19784234  0.60334135  0.40243731  1
  Ta  Ta133  1  0.70414658  0.70571522  0.69548616  1
  Ta  Ta134  1  0.80388408  0.58855540  -0.00018527  1
  Ta  Ta135  1  0.90576734  0.70360008  0.09709695  1
  Ta  Ta136  1  0.00034722  0.59533505  0.80568805  1
  Ta  Ta137  1  0.49868843  0.90076789  0.89569078  1
  Ta  Ta138  1  0.60479376  0.80361107  0.20685135  1
  Ta  Ta139  1  0.49426705  0.30973176  0.89614299  1
  Ta  Ta140  1  0.69572099  0.10023393  0.89582591  1
  Ta  Ta141  1  0.90012529  0.30707601  0.90481166  1
  Ta  Ta142  1  0.39962054  0.80741918  0.60589695  1
  Ta  Ta143  1  0.70027340  0.89030304  0.50345577  1
  Ta  Ta144  1  0.39509361  -0.00901277  0.79850261  1
  Ta  Ta145  1  0.79808066  -0.00140774  0.60310424  1
  Ta  Ta146  1  0.60202674  0.60287294  0.19413994  1
  Ta  Ta147  1  0.91016193  0.51523014  0.29553600  1
  Ta  Ta148  1  0.49812449  0.49169970  0.70616729  1
  Ta  Ta149  1  0.89791858  0.10475106  0.90434489  1
  Ti  Ti150  1  0.29002252  0.50566209  0.29444904  1
  Ti  Ti151  1  0.18546037  0.19492136  0.41779455  1
  Ti  Ti152  1  -0.00511050  0.00486914  0.40006286  1
  Ti  Ti153  1  0.39962340  0.20880144  0.59355401  1
  Ti  Ti154  1  0.09164859  0.49671230  0.90622712  1
  Ti  Ti155  1  0.90174533  0.70182420  0.29546753  1
  Ti  Ti156  1  0.80389269  0.80991864  0.00489192  1
  Ti  Ti157  1  0.39727956  0.20161313  0.81313489  1
  Ti  Ti158  1  0.08765357  0.30965821  0.51733823  1
  Ti  Ti159  1  0.49949995  0.71151418  0.50091088  1
  Ti  Ti160  1  0.30143172  0.08956448  0.49113772  1
  Ti  Ti161  1  0.90005744  0.49246576  0.71040942  1
  Ti  Ti162  1  0.50218057  0.70269781  0.69847084  1
  Ti  Ti163  1  0.90483697  0.09738256  0.09307714  1
  Ti  Ti164  1  0.19408299  0.79734822  -0.00320556  1
  Ti  Ti165  1  0.20869310  0.19660304  -0.00228962  1
  Ti  Ti166  1  0.70303526  0.29989554  0.09634676  1
  Ti  Ti167  1  0.91600025  0.50020877  0.09281930  1
  Ti  Ti168  1  0.09450269  0.90884287  0.30385466  1
  Ti  Ti169  1  0.60535385  -0.01357287  0.20230787  1
  Ti  Ti170  1  0.70236945  0.89508015  0.68931483  1
  Ti  Ti171  1  0.31389579  0.90501814  0.31780226  1
  Ti  Ti172  1  0.29797653  0.69845744  0.69822138  1
  Ti  Ti173  1  0.80860529  0.19367204  0.40064300  1
  Ti  Ti174  1  0.19314154  0.39858490  0.19881081  1
  Ti  Ti175  1  0.08547749  0.29708659  0.90295379  1
  Ti  Ti176  1  0.91337605  0.90172375  0.09279594  1
  Ti  Ti177  1  0.31138013  0.30384355  0.70922522  1
  Ti  Ti178  1  0.89149905  0.89866361  0.49763688  1
  Ti  Ti179  1  0.60645542  0.40836317  -0.00084220  1
  Ti  Ti180  1  0.10003606  0.29398951  0.09756175  1
  Ti  Ti181  1  0.29386685  0.09615138  0.31008872  1
  Ti  Ti182  1  0.29571360  0.30048151  0.50175261  1
  Ti  Ti183  1  0.31154578  0.49237628  0.90228428  1
  Ti  Ti184  1  0.59964749  0.60224335  0.60207721  1
  Ti  Ti185  1  0.00733927  0.80373258  0.00198010  1
  Ti  Ti186  1  0.58580703  0.20423799  0.19296911  1
  Ti  Ti187  1  0.10515085  0.69944014  0.50381339  1
  Ti  Ti188  1  0.89144466  0.70369741  0.70410489  1
  Ti  Ti189  1  0.80473620  0.18670139  0.18762312  1
  Ti  Ti190  1  0.39892839  0.80257130  0.79534332  1
  Ti  Ti191  1  0.80114376  0.01071266  0.79333762  1
  Ti  Ti192  1  0.09811239  0.69657621  0.10358437  1
  Ti  Ti193  1  0.00122134  0.60701978  0.40325437  1
  Ti  Ti194  1  0.80232888  0.60630329  0.39791003  1
  Ti  Ti195  1  -0.00519285  -0.00256006  0.20003444  1
  Ti  Ti196  1  0.79577813  0.20104829  -0.00266726  1
  Ti  Ti197  1  0.59451761  0.80524764  0.59996279  1
  Ti  Ti198  1  0.70342729  0.71144805  0.50326662  1
  Ti  Ti199  1  0.70121264  0.49537266  0.70540144  1
  Mo  Mo200  1  0.30418554  0.89842325  0.90084251  1
  Mo  Mo201  1  0.90123716  0.09443792  0.29470808  1
  Mo  Mo202  1  0.90175982  0.89911875  0.90639419  1
  Mo  Mo203  1  0.79610770  0.78945815  0.79374470  1
  Mo  Mo204  1  0.60075187  0.59251234  -0.00358423  1
  Mo  Mo205  1  0.30496251  0.10259716  0.89831667  1
  Mo  Mo206  1  0.70363962  0.89189728  0.30098466  1
  Mo  Mo207  1  0.79789849  0.80055113  0.39514255  1
  Mo  Mo208  1  0.49632295  0.89516478  0.69534139  1
  Mo  Mo209  1  0.30754388  0.90254845  0.49634064  1
  Mo  Mo210  1  0.69340384  0.50459753  0.08800694  1
  Mo  Mo211  1  0.31157700  0.30084543  0.90367013  1
  Mo  Mo212  1  0.39746939  -0.00103324  0.40659772  1
  Mo  Mo213  1  0.00308847  0.39896750  0.61741610  1
  Mo  Mo214  1  0.20448809  0.00026657  0.40157355  1
  Mo  Mo215  1  0.69972626  0.90153037  0.10297564  1
  Mo  Mo216  1  0.79463102  0.80069863  0.59724554  1
  Mo  Mo217  1  -0.00832094  -0.00188173  -0.00019955  1
  Mo  Mo218  1  0.49506713  0.29740522  0.50989850  1
  Mo  Mo219  1  0.50286101  0.29570535  0.29012561  1
  Mo  Mo220  1  0.00430726  0.39812538  -0.00069978  1
  Mo  Mo221  1  0.90588146  0.29249214  0.50028284  1
  Mo  Mo222  1  0.60137646  0.00105317  -0.00870649  1
  Mo  Mo223  1  0.59780044  0.20455418  0.80153057  1
  Mo  Mo224  1  0.40765001  0.80342710  0.40440613  1
  Mo  Mo225  1  0.40473323  0.40107836  0.79971174  1
  Mo  Mo226  1  0.70174529  0.30888642  0.90506408  1
  Mo  Mo227  1  0.09694047  0.09364614  0.49983594  1
  Mo  Mo228  1  0.30434974  0.69359257  0.89849795  1
  Mo  Mo229  1  0.10470135  0.28321534  0.28017980  1
  Mo  Mo230  1  0.20027775  0.59642490  0.19325484  1
  Mo  Mo231  1  0.89810687  0.50013664  0.90078202  1
  Mo  Mo232  1  0.29507473  0.10567416  0.09527660  1
  Mo  Mo233  1  0.59020375  0.19813902  0.60240633  1
  Mo  Mo234  1  0.89178558  0.09665198  0.70258164  1
  Mo  Mo235  1  0.60133564  -0.01193623  0.59871234  1
  Mo  Mo236  1  0.79860367  0.40638553  0.80903047  1
  Mo  Mo237  1  0.09923792  0.70050460  0.90360014  1
  Mo  Mo238  1  0.39808950  0.40621768  -0.00339613  1
  Mo  Mo239  1  0.09485756  0.49838201  0.71430715  1
  Mo  Mo240  1  0.51099018  0.70309635  0.29721117  1
  Mo  Mo241  1  -0.00428070  0.20493034  0.81123574  1
  Mo  Mo242  1  0.19530732  0.19248093  0.18922511  1
  Mo  Mo243  1  0.50363014  0.10366281  0.09695250  1
  Mo  Mo244  1  0.20206172  0.60559543  0.60062913  1
  Mo  Mo245  1  0.30468201  0.89943713  0.70434531  1
  Mo  Mo246  1  0.50188305  0.89877397  0.30361766  1
  Mo  Mo247  1  0.50079676  0.50390328  0.08966997  1
  Mo  Mo248  1  -0.00116852  0.60852962  0.18743933  1
  Mo  Mo249  1  0.09366676  0.89588157  0.09521163  1
