# generated using pymatgen
data_HfZrTaTiMo
_symmetry_space_group_name_H-M   'P 1'
_cell_length_a   16.87598814
_cell_length_b   16.88111076
_cell_length_c   16.88147540
_cell_angle_alpha   90.07522139
_cell_angle_beta   89.99082737
_cell_angle_gamma   90.10221754
_symmetry_Int_Tables_number   1
_chemical_formula_structural   HfZrTaTiMo
_chemical_formula_sum   'Hf50 Zr50 Ta50 Ti50 Mo50'
_cell_volume   4809.27443580
_cell_formula_units_Z   50
loop_
 _symmetry_equiv_pos_site_id
 _symmetry_equiv_pos_as_xyz
  1  'x, y, z'
loop_
 _atom_site_type_symbol
 _atom_site_label
 _atom_site_symmetry_multiplicity
 _atom_site_fract_x
 _atom_site_fract_y
 _atom_site_fract_z
 _atom_site_occupancy
  Hf  Hf0  1  0.40355423  0.79666235  0.59899335  1
  Hf  Hf1  1  0.80133828  0.19766189  0.39887873  1
  Hf  Hf2  1  0.00799878  0.20315876  -0.00421185  1
  Hf  Hf3  1  0.90160647  0.69698441  0.90468593  1
  Hf  Hf4  1  0.10803286  0.09346907  0.09932749  1
  Hf  Hf5  1  0.10042124  0.70300797  0.09844180  1
  Hf  Hf6  1  0.30471420  0.10234933  0.28940109  1
  Hf  Hf7  1  0.10035987  0.30157480  0.30513024  1
  Hf  Hf8  1  0.79876159  0.60377919  0.20769221  1
  Hf  Hf9  1  0.40439264  -0.00515854  0.60076012  1
  Hf  Hf10  1  0.71613865  0.89474935  0.09141582  1
  Hf  Hf11  1  0.39080374  0.19550624  0.79423757  1
  Hf  Hf12  1  0.39919630  0.60680641  -0.00240055  1
  Hf  Hf13  1  0.29863811  0.50150731  0.09745609  1
  Hf  Hf14  1  0.00752904  0.40830198  0.20452761  1
  Hf  Hf15  1  0.19486114  0.19584864  0.80216005  1
  Hf  Hf16  1  0.19187661  0.39940994  -0.00373454  1
  Hf  Hf17  1  0.89139907  0.29510366  0.89970050  1
  Hf  Hf18  1  0.89132422  0.10494758  0.71334491  1
  Hf  Hf19  1  0.49565547  0.50208346  0.70184280  1
  Hf  Hf20  1  0.30398046  0.10054512  0.49711750  1
  Hf  Hf21  1  0.09714166  0.29955043  0.70175677  1
  Hf  Hf22  1  0.69340247  0.09796047  0.70445881  1
  Hf  Hf23  1  0.89515901  0.30369662  0.09577868  1
  Hf  Hf24  1  0.09902746  0.50006529  0.49183915  1
  Hf  Hf25  1  0.89188268  0.10252045  0.90767299  1
  Hf  Hf26  1  0.21068135  0.20759534  0.60210726  1
  Hf  Hf27  1  0.29561481  0.30120257  0.90131443  1
  Hf  Hf28  1  0.10100711  0.70115101  0.49718855  1
  Hf  Hf29  1  0.00190761  0.60255594  0.60761198  1
  Hf  Hf30  1  0.40399053  0.20087864  0.39194795  1
  Hf  Hf31  1  0.20417974  0.79345298  0.60328880  1
  Hf  Hf32  1  0.00540594  0.80418728  0.80207372  1
  Hf  Hf33  1  0.70513273  0.28906721  0.70549991  1
  Hf  Hf34  1  -0.00168856  0.19805623  0.19329598  1
  Hf  Hf35  1  0.19078897  0.58869054  0.21212153  1
  Hf  Hf36  1  0.39493381  0.60230774  0.40171530  1
  Hf  Hf37  1  0.19805870  0.61050679  -0.01139078  1
  Hf  Hf38  1  0.39869000  0.80003009  0.00372882  1
  Hf  Hf39  1  0.20268945  -0.00802857  0.39151396  1
  Hf  Hf40  1  0.10390473  0.90669228  0.70389246  1
  Hf  Hf41  1  0.09833687  0.09188933  0.29351224  1
  Hf  Hf42  1  0.52075206  0.49712300  0.30036331  1
  Hf  Hf43  1  0.49774470  0.30310006  0.29735147  1
  Hf  Hf44  1  0.79457053  0.59910710  0.00097565  1
  Hf  Hf45  1  0.79159342  0.59649725  0.79837632  1
  Hf  Hf46  1  -0.00306742  0.60424865  0.20763679  1
  Hf  Hf47  1  0.51195593  0.90316869  0.70812400  1
  Hf  Hf48  1  0.90442977  0.49950502  0.09242996  1
  Hf  Hf49  1  -0.00561666  0.40403775  0.60038220  1
  Zr  Zr50  1  0.30539897  0.49156939  0.30766319  1
  Zr  Zr51  1  0.60877225  0.00336462  0.00490065  1
  Zr  Zr52  1  0.68543189  0.50784125  0.47556296  1
  Zr  Zr53  1  0.09984890  0.90213659  0.49261329  1
  Zr  Zr54  1  0.69524926  0.30777630  0.29142857  1
  Zr  Zr55  1  0.39070212  0.19500821  -0.00495761  1
  Zr  Zr56  1  0.50140632  0.29936959  0.09499780  1
  Zr  Zr57  1  -0.00917562  0.80670574  0.39676130  1
  Zr  Zr58  1  0.50690530  0.09774195  0.89615280  1
  Zr  Zr59  1  0.60194724  0.39321029  0.59761439  1
  Zr  Zr60  1  0.88847503  0.90764738  0.91179420  1
  Zr  Zr61  1  0.00620982  0.39777386  0.80861701  1
  Zr  Zr62  1  0.40087483  -0.00766460  0.19195919  1
  Zr  Zr63  1  0.60218327  -0.00286061  0.19521414  1
  Zr  Zr64  1  -0.00054705  0.80088027  0.20388742  1
  Zr  Zr65  1  0.60732622  0.80335572  0.39634767  1
  Zr  Zr66  1  0.50136098  0.08985902  0.49318402  1
  Zr  Zr67  1  0.40232199  0.79321171  0.40364443  1
  Zr  Zr68  1  -0.00651125  0.80225221  0.60536551  1
  Zr  Zr69  1  0.29322851  0.70663212  0.11328589  1
  Zr  Zr70  1  -0.01453637  -0.00726077  0.60166204  1
  Zr  Zr71  1  0.59938221  0.39903605  0.80635660  1
  Zr  Zr72  1  0.59542403  0.59916946  -0.00134293  1
  Zr  Zr73  1  0.68736168  0.49382215  0.11151140  1
  Zr  Zr74  1  0.51294931  0.68719405  0.50091990  1
  Zr  Zr75  1  0.51373248  0.89653465  0.89421404  1
  Zr  Zr76  1  0.01455799  0.80663488  -0.00954348  1
  Zr  Zr77  1  0.39268328  -0.01263247  0.00398933  1
  Zr  Zr78  1  0.39208734  0.39140766  0.60024799  1
  Zr  Zr79  1  0.79805879  0.40172946  0.40007345  1
  Zr  Zr80  1  0.38959232  0.79658636  0.80347337  1
  Zr  Zr81  1  0.00009969  0.19641962  0.60037088  1
  Zr  Zr82  1  0.10069727  0.10106897  0.49450042  1
  Zr  Zr83  1  0.69719225  0.29443923  0.09481779  1
  Zr  Zr84  1  0.49676848  0.48994040  0.48895921  1
  Zr  Zr85  1  0.61060360  0.59835765  0.61311982  1
  Zr  Zr86  1  0.80819022  0.79633176  0.21055273  1
  Zr  Zr87  1  0.69845643  0.09794051  0.29947029  1
  Zr  Zr88  1  0.80857029  0.81106331  0.60074165  1
  Zr  Zr89  1  0.19451336  0.60805250  0.79701799  1
  Zr  Zr90  1  0.49531414  0.28797850  0.69775906  1
  Zr  Zr91  1  0.69786163  0.90426897  0.70826454  1
  Zr  Zr92  1  0.79372607  0.40808225  0.60328256  1
  Zr  Zr93  1  0.50320322  0.90426756  0.30427235  1
  Zr  Zr94  1  0.89974478  0.29712008  0.50150723  1
  Zr  Zr95  1  0.20212892  0.40277027  0.59692745  1
  Zr  Zr96  1  0.39267018  0.39499347  0.19820227  1
  Zr  Zr97  1  0.39142422  0.00076148  0.79926886  1
  Zr  Zr98  1  0.80467275  -0.00041931  0.40323431  1
  Zr  Zr99  1  0.79845508  0.59782281  0.60310574  1
  Ta  Ta100  1  0.30062435  0.50194044  0.89590206  1
  Ta  Ta101  1  0.59791700  0.79807374  0.00642965  1
  Ta  Ta102  1  0.89521490  0.69681251  0.49563256  1
  Ta  Ta103  1  0.60398810  0.79851894  0.19846763  1
  Ta  Ta104  1  0.50003649  0.50008796  0.10658584  1
  Ta  Ta105  1  0.29943702  0.50021113  0.70417579  1
  Ta  Ta106  1  0.59307520  0.19154928  0.19961157  1
  Ta  Ta107  1  0.20450289  0.60027482  0.59876709  1
  Ta  Ta108  1  0.89860089  0.30021500  0.29352068  1
  Ta  Ta109  1  0.39486362  0.39932553  0.80224859  1
  Ta  Ta110  1  0.38845846  0.60045613  0.59936076  1
  Ta  Ta111  1  0.30672251  0.30197524  0.48709437  1
  Ta  Ta112  1  -0.00393022  0.19921929  0.39321467  1
  Ta  Ta113  1  0.29651070  0.88554940  0.29690134  1
  Ta  Ta114  1  0.80349050  0.80182066  0.80154320  1
  Ta  Ta115  1  0.90498398  0.90947118  0.09737474  1
  Ta  Ta116  1  0.27294774  0.08017806  0.90510875  1
  Ta  Ta117  1  0.90408192  0.49952181  0.90484187  1
  Ta  Ta118  1  0.59278142  0.19258851  0.59423096  1
  Ta  Ta119  1  0.30094048  0.89505336  0.49548087  1
  Ta  Ta120  1  0.20485855  0.21100815  0.19717368  1
  Ta  Ta121  1  0.90920683  0.91927889  0.29441676  1
  Ta  Ta122  1  0.90123788  0.49890768  0.71272062  1
  Ta  Ta123  1  0.00544493  0.60519938  0.80220832  1
  Ta  Ta124  1  0.79535363  0.40071248  0.80530477  1
  Ta  Ta125  1  0.59573771  0.19638598  0.39875920  1
  Ta  Ta126  1  0.70682147  0.70612301  0.49503946  1
  Ta  Ta127  1  0.89954094  0.69899144  0.70724150  1
  Ta  Ta128  1  0.19551463  0.39785332  0.19999174  1
  Ta  Ta129  1  0.49797283  0.10674227  0.09970989  1
  Ta  Ta130  1  0.60113653  0.80263765  0.59740280  1
  Ta  Ta131  1  0.69843359  0.71042368  0.90177900  1
  Ta  Ta132  1  0.19736224  0.79853105  0.80976574  1
  Ta  Ta133  1  0.89980038  0.49931805  0.30677491  1
  Ta  Ta134  1  0.10773544  0.70570276  0.30800660  1
  Ta  Ta135  1  0.50527701  0.70202166  0.89365389  1
  Ta  Ta136  1  0.20644349  0.60184302  0.40547533  1
  Ta  Ta137  1  0.69966997  0.70213704  0.10105314  1
  Ta  Ta138  1  0.20013941  0.40180555  0.80096447  1
  Ta  Ta139  1  0.79206173  0.40051803  -0.00856709  1
  Ta  Ta140  1  0.80273886  -0.00083501  0.59880487  1
  Ta  Ta141  1  0.40194628  0.40461314  -0.00616456  1
  Ta  Ta142  1  0.20764705  -0.00151829  0.59899007  1
  Ta  Ta143  1  0.40534220  0.60418543  0.20416378  1
  Ta  Ta144  1  0.89322545  0.29503902  0.70861718  1
  Ta  Ta145  1  0.10489885  0.90211240  0.10463769  1
  Ta  Ta146  1  0.60195157  0.60130443  0.80160914  1
  Ta  Ta147  1  0.80668387  0.00927456  0.18971642  1
  Ta  Ta148  1  0.69678950  0.90458446  0.49970103  1
  Ta  Ta149  1  0.39841997  0.60257257  0.80089161  1
  Ti  Ti150  1  0.90521542  0.09621780  0.49568416  1
  Ti  Ti151  1  0.29360414  0.90130644  0.70284606  1
  Ti  Ti152  1  0.00007385  0.60145222  0.39338079  1
  Ti  Ti153  1  0.20731035  0.80786694  -0.00749183  1
  Ti  Ti154  1  0.20442360  0.40121598  0.39823635  1
  Ti  Ti155  1  0.50465832  0.70104463  0.70571897  1
  Ti  Ti156  1  0.00781101  0.19514661  0.80810279  1
  Ti  Ti157  1  0.80145301  0.19063583  0.19131733  1
  Ti  Ti158  1  0.29402547  0.70502248  0.29999611  1
  Ti  Ti159  1  0.70437268  0.11416441  0.90825659  1
  Ti  Ti160  1  0.30126224  0.09917157  0.69319178  1
  Ti  Ti161  1  0.12331497  0.92796609  0.90198604  1
  Ti  Ti162  1  0.10130495  0.29886704  0.49362162  1
  Ti  Ti163  1  0.89902885  0.70697682  0.08878138  1
  Ti  Ti164  1  0.59854013  -0.00219539  0.59579137  1
  Ti  Ti165  1  0.50612849  0.69613027  0.10778526  1
  Ti  Ti166  1  0.40822806  0.79936505  0.19857565  1
  Ti  Ti167  1  0.51050723  0.69458114  0.29501008  1
  Ti  Ti168  1  0.80126856  0.40804954  0.20296712  1
  Ti  Ti169  1  0.79741815  0.60823631  0.39085599  1
  Ti  Ti170  1  0.00444100  0.00544132  0.00240355  1
  Ti  Ti171  1  0.59644905  0.39839818  -0.00542206  1
  Ti  Ti172  1  0.80459004  0.80248070  0.39616468  1
  Ti  Ti173  1  0.29730932  0.10297329  0.10100113  1
  Ti  Ti174  1  0.69638724  0.49862730  0.90095405  1
  Ti  Ti175  1  0.29871022  0.29766198  0.09780456  1
  Ti  Ti176  1  0.49490858  0.50218078  0.89873877  1
  Ti  Ti177  1  0.90619146  0.09883273  0.29398918  1
  Ti  Ti178  1  0.10180253  0.09335904  0.70119994  1
  Ti  Ti179  1  0.69517997  0.09473262  0.49953396  1
  Ti  Ti180  1  0.69955159  0.71084791  0.70444259  1
  Ti  Ti181  1  0.89959068  0.50853521  0.49468884  1
  Ti  Ti182  1  0.20702144  -0.01255500  0.19775394  1
  Ti  Ti183  1  0.19338988  0.19994862  -0.00143007  1
  Ti  Ti184  1  0.70046023  0.89588369  0.90145744  1
  Ti  Ti185  1  0.69178995  0.29290635  0.49683073  1
  Ti  Ti186  1  0.20419970  0.20339553  0.39289302  1
  Ti  Ti187  1  0.50081072  0.29464712  0.90267658  1
  Ti  Ti188  1  0.79650855  0.19171435  0.59475494  1
  Ti  Ti189  1  0.59984135  0.19793208  0.80462048  1
  Ti  Ti190  1  0.09935295  0.30560186  0.09764517  1
  Ti  Ti191  1  0.10099261  0.50120217  0.70169827  1
  Ti  Ti192  1  0.29944318  0.69612993  0.70137450  1
  Ti  Ti193  1  -0.00387066  0.39979215  0.39784425  1
  Ti  Ti194  1  0.00419999  0.00554917  0.80879196  1
  Ti  Ti195  1  0.09237366  0.50382945  0.08872081  1
  Ti  Ti196  1  0.09065983  0.50488049  0.90689862  1
  Ti  Ti197  1  0.40141669  -0.00634812  0.39598094  1
  Ti  Ti198  1  0.79218618  0.00149801  0.80799831  1
  Ti  Ti199  1  0.70623599  0.90497834  0.29883992  1
  Mo  Mo200  1  -0.00146593  0.00107223  0.19205338  1
  Mo  Mo201  1  0.50328161  0.89973453  0.50357682  1
  Mo  Mo202  1  0.39991237  0.19675303  0.59673253  1
  Mo  Mo203  1  0.09894671  0.50074532  0.31184597  1
  Mo  Mo204  1  0.00119029  0.60118615  -0.00193638  1
  Mo  Mo205  1  0.79808345  0.79614628  -0.00027664  1
  Mo  Mo206  1  0.70152415  0.49363995  0.71548354  1
  Mo  Mo207  1  0.70309239  0.50392438  0.29707343  1
  Mo  Mo208  1  0.09905158  0.70226523  0.70267271  1
  Mo  Mo209  1  0.10123302  0.70280906  0.90082755  1
  Mo  Mo210  1  0.29665074  0.30256018  0.70559625  1
  Mo  Mo211  1  0.20392606  0.79688489  0.39811290  1
  Mo  Mo212  1  0.20368787  -0.00662534  0.01799857  1
  Mo  Mo213  1  0.50607178  0.09906917  0.69596164  1
  Mo  Mo214  1  0.30243698  0.70214197  0.89771855  1
  Mo  Mo215  1  0.10161141  0.29829667  0.90104250  1
  Mo  Mo216  1  0.70293039  0.10589027  0.09797847  1
  Mo  Mo217  1  0.79238802  0.20217107  0.80485906  1
  Mo  Mo218  1  0.19934655  0.00389284  0.78472189  1
  Mo  Mo219  1  0.39540022  0.19608486  0.19420084  1
  Mo  Mo220  1  0.19333128  0.80257021  0.20752306  1
  Mo  Mo221  1  0.61152271  0.00864581  0.80737266  1
  Mo  Mo222  1  0.89591154  0.90979637  0.72093403  1
  Mo  Mo223  1  0.59874924  0.60813349  0.19935832  1
  Mo  Mo224  1  0.60023251  0.19977463  -0.00045178  1
  Mo  Mo225  1  0.61103551  0.61534458  0.38585468  1
  Mo  Mo226  1  0.29244656  0.29804275  0.30053207  1
  Mo  Mo227  1  0.10233140  0.89975301  0.29237571  1
  Mo  Mo228  1  0.59882767  0.37938963  0.40112331  1
  Mo  Mo229  1  0.49984418  0.29074908  0.49599625  1
  Mo  Mo230  1  0.89936830  0.09891497  0.09544012  1
  Mo  Mo231  1  0.00077657  0.40171653  0.00032304  1
  Mo  Mo232  1  0.69488087  0.29683308  0.90297329  1
  Mo  Mo233  1  0.89220284  0.90087276  0.48883359  1
  Mo  Mo234  1  0.60704491  0.79158068  0.80078069  1
  Mo  Mo235  1  0.49939344  0.10174704  0.29506319  1
  Mo  Mo236  1  0.29558710  0.88852814  0.10808965  1
  Mo  Mo237  1  0.09835882  0.09530504  0.90259219  1
  Mo  Mo238  1  0.40014762  0.39567564  0.40217011  1
  Mo  Mo239  1  0.29611978  0.49893027  0.50191923  1
  Mo  Mo240  1  -0.00076505  0.00633831  0.39151933  1
  Mo  Mo241  1  0.90213463  0.69228389  0.31280535  1
  Mo  Mo242  1  0.59703268  0.39747878  0.19915970  1
  Mo  Mo243  1  0.60621017  -0.00050682  0.40308431  1
  Mo  Mo244  1  0.28997592  0.89977757  0.90048217  1
  Mo  Mo245  1  0.29701785  0.69798155  0.50411139  1
  Mo  Mo246  1  0.79489560  0.20116309  0.00231496  1
  Mo  Mo247  1  0.79832159  0.00858960  0.00339449  1
  Mo  Mo248  1  0.70397115  0.70368820  0.29925763  1
  Mo  Mo249  1  0.50489181  0.88725602  0.10271736  1
