# generated using pymatgen
data_HfZrTaTiMo
_symmetry_space_group_name_H-M   'P 1'
_cell_length_a   16.89093900
_cell_length_b   16.89290684
_cell_length_c   16.88513630
_cell_angle_alpha   89.99041923
_cell_angle_beta   90.02083563
_cell_angle_gamma   89.97245740
_symmetry_Int_Tables_number   1
_chemical_formula_structural   HfZrTaTiMo
_chemical_formula_sum   'Hf50 Zr50 Ta50 Ti50 Mo50'
_cell_volume   4817.95419011
_cell_formula_units_Z   50
loop_
 _symmetry_equiv_pos_site_id
 _symmetry_equiv_pos_as_xyz
  1  'x, y, z'
loop_
 _atom_site_type_symbol
 _atom_site_label
 _atom_site_symmetry_multiplicity
 _atom_site_fract_x
 _atom_site_fract_y
 _atom_site_fract_z
 _atom_site_occupancy
  Hf  Hf0  1  0.60053246  0.79883302  0.20462436  1
  Hf  Hf1  1  0.40521594  0.19794058  0.00658003  1
  Hf  Hf2  1  0.00312923  0.19864942  0.80086418  1
  Hf  Hf3  1  0.29287000  0.09835723  0.89845892  1
  Hf  Hf4  1  0.19482627  0.60266844  0.19363705  1
  Hf  Hf5  1  -0.00117257  0.39488839  0.80738007  1
  Hf  Hf6  1  0.30313185  0.09014078  0.50037353  1
  Hf  Hf7  1  0.29993953  0.90708071  0.68522486  1
  Hf  Hf8  1  0.70209483  0.90371690  0.49897920  1
  Hf  Hf9  1  0.09419514  0.70603416  0.28671763  1
  Hf  Hf10  1  0.60343172  0.80427667  0.79778555  1
  Hf  Hf11  1  0.78839326  -0.00371240  -0.01015058  1
  Hf  Hf12  1  0.49450640  0.69620963  0.10771291  1
  Hf  Hf13  1  0.38927147  -0.00139480  0.01040406  1
  Hf  Hf14  1  0.51155928  0.90355403  0.90715940  1
  Hf  Hf15  1  0.70194569  0.90786552  0.30230627  1
  Hf  Hf16  1  0.00268444  0.39549560  -0.00133305  1
  Hf  Hf17  1  0.58614301  0.00461208  0.38563533  1
  Hf  Hf18  1  0.69898551  0.69804233  0.70250882  1
  Hf  Hf19  1  0.70035428  0.28868508  0.10303768  1
  Hf  Hf20  1  0.39598451  0.20191705  0.38546850  1
  Hf  Hf21  1  0.88772191  0.10117094  0.89280002  1
  Hf  Hf22  1  0.60399954  0.19487961  0.79780614  1
  Hf  Hf23  1  0.10351011  0.89453592  0.09589766  1
  Hf  Hf24  1  0.70653318  0.09626853  0.49891791  1
  Hf  Hf25  1  0.60227533  0.20239977  0.61074692  1
  Hf  Hf26  1  0.49106615  0.08562244  0.70553342  1
  Hf  Hf27  1  0.10415174  0.49271172  0.48915465  1
  Hf  Hf28  1  0.50974108  0.29356034  0.10954589  1
  Hf  Hf29  1  0.20054638  0.40049499  0.59888923  1
  Hf  Hf30  1  0.39600449  0.38812439  0.20606238  1
  Hf  Hf31  1  0.61009078  0.40840868  0.40560644  1
  Hf  Hf32  1  0.61235599  -0.00327579  0.61986929  1
  Hf  Hf33  1  0.50903934  0.08814650  0.90315699  1
  Hf  Hf34  1  0.39938922  0.20719555  0.60333286  1
  Hf  Hf35  1  0.40297128  0.20528876  0.79950834  1
  Hf  Hf36  1  0.00358539  0.80996680  0.40207999  1
  Hf  Hf37  1  0.79893297  0.00069979  0.19417631  1
  Hf  Hf38  1  0.10383682  0.09139738  0.90233703  1
  Hf  Hf39  1  0.09421877  0.29552968  0.69264097  1
  Hf  Hf40  1  0.59314621  0.80085698  0.39748959  1
  Hf  Hf41  1  0.90333025  0.89892175  0.10198592  1
  Hf  Hf42  1  0.79553305  0.40471313  0.40436769  1
  Hf  Hf43  1  0.09056396  0.71267688  0.70167818  1
  Hf  Hf44  1  0.49528277  0.09992764  0.50439499  1
  Hf  Hf45  1  0.69785865  0.50314861  0.89186995  1
  Hf  Hf46  1  0.00616669  0.00660051  0.19493601  1
  Hf  Hf47  1  0.89508203  0.70534255  0.50446344  1
  Hf  Hf48  1  0.90151095  0.50020871  0.49758661  1
  Hf  Hf49  1  0.78301910  0.59519386  0.39835706  1
  Zr  Zr50  1  0.50334947  0.50562782  0.29887105  1
  Zr  Zr51  1  0.69449094  0.29857148  0.28834856  1
  Zr  Zr52  1  0.90517595  0.89735917  0.70015060  1
  Zr  Zr53  1  0.79600295  0.40615548  0.00191685  1
  Zr  Zr54  1  0.30209112  0.70187796  0.49185494  1
  Zr  Zr55  1  0.90466136  0.69768498  0.29789676  1
  Zr  Zr56  1  0.79101264  0.79534316  0.20042261  1
  Zr  Zr57  1  0.90728667  0.29902280  0.29882430  1
  Zr  Zr58  1  0.10675263  0.70629953  0.49540552  1
  Zr  Zr59  1  0.29693379  0.30118513  0.90583426  1
  Zr  Zr60  1  0.00513106  0.19956660  0.00128131  1
  Zr  Zr61  1  -0.00415321  0.79493269  -0.00558114  1
  Zr  Zr62  1  0.00798694  0.00208770  0.39982412  1
  Zr  Zr63  1  0.90229632  0.51070924  0.10239041  1
  Zr  Zr64  1  0.70607803  0.29224038  0.89795710  1
  Zr  Zr65  1  0.38517850  -0.01466944  0.81046050  1
  Zr  Zr66  1  0.49159743  0.68607316  0.29682583  1
  Zr  Zr67  1  0.50875757  0.49845270  0.89647399  1
  Zr  Zr68  1  0.29244296  0.70725491  0.68698563  1
  Zr  Zr69  1  0.80173709  0.20451960  0.40020498  1
  Zr  Zr70  1  0.20152139  0.59987217  0.79707441  1
  Zr  Zr71  1  0.39672074  0.60515782  -0.00436757  1
  Zr  Zr72  1  0.19743564  0.19795055  0.01328554  1
  Zr  Zr73  1  0.50704389  0.50470262  0.70059561  1
  Zr  Zr74  1  0.69127063  0.70030396  0.50443655  1
  Zr  Zr75  1  0.19243751  0.19241251  0.59076460  1
  Zr  Zr76  1  0.40096368  0.81109773  0.38828672  1
  Zr  Zr77  1  0.79397081  0.41318463  0.20565088  1
  Zr  Zr78  1  0.02128259  -0.00523990  0.59299051  1
  Zr  Zr79  1  0.90967400  0.69357544  0.11036175  1
  Zr  Zr80  1  0.30080615  0.50132175  0.30578051  1
  Zr  Zr81  1  0.38913473  0.79952341  -0.00018329  1
  Zr  Zr82  1  0.49077747  0.91496618  0.50949419  1
  Zr  Zr83  1  0.20089565  0.80749549  0.80117927  1
  Zr  Zr84  1  0.40109936  0.61290401  0.79521880  1
  Zr  Zr85  1  0.90390474  0.10518171  0.50593113  1
  Zr  Zr86  1  0.09580243  0.50314438  0.70326294  1
  Zr  Zr87  1  0.59581276  0.20153570  0.40068011  1
  Zr  Zr88  1  0.89873218  0.50062489  0.70492224  1
  Zr  Zr89  1  0.89398821  0.29360042  0.10579221  1
  Zr  Zr90  1  0.41612277  0.79363456  0.60441848  1
  Zr  Zr91  1  0.29617345  0.49861927  0.09511197  1
  Zr  Zr92  1  0.40221488  0.39472518  0.79532686  1
  Zr  Zr93  1  0.50240197  0.50370054  0.11093114  1
  Zr  Zr94  1  0.19294324  0.39562398  0.20454933  1
  Zr  Zr95  1  0.00104681  0.60272335  0.59671259  1
  Zr  Zr96  1  0.49677510  0.50543457  0.49992961  1
  Zr  Zr97  1  0.49581430  0.90266683  0.10903060  1
  Zr  Zr98  1  0.79775717  0.79735810  -0.00407678  1
  Zr  Zr99  1  0.29264366  0.49773967  0.90427075  1
  Ta  Ta100  1  0.09725071  0.90101608  0.90185104  1
  Ta  Ta101  1  0.49938405  0.30535187  0.50228082  1
  Ta  Ta102  1  0.20514570  0.19862906  0.20752941  1
  Ta  Ta103  1  0.90842710  0.50648734  0.29967533  1
  Ta  Ta104  1  0.00894277  0.19471947  0.20200677  1
  Ta  Ta105  1  0.70166421  0.69562570  0.90044332  1
  Ta  Ta106  1  0.29435928  0.29974574  0.69774966  1
  Ta  Ta107  1  0.19571638  0.20274475  0.79775576  1
  Ta  Ta108  1  0.80161351  -0.00077440  0.60755930  1
  Ta  Ta109  1  0.39963652  0.39279331  0.39908717  1
  Ta  Ta110  1  0.60493928  0.18992805  -0.00084076  1
  Ta  Ta111  1  0.90365265  0.29613660  0.50829638  1
  Ta  Ta112  1  0.30300332  0.49883433  0.49610113  1
  Ta  Ta113  1  0.10734110  0.09976475  0.29864363  1
  Ta  Ta114  1  0.90100650  0.90222188  0.29992477  1
  Ta  Ta115  1  0.79626894  0.59577434  0.60450125  1
  Ta  Ta116  1  0.79678557  0.40005212  0.60146194  1
  Ta  Ta117  1  0.50549599  0.09242993  0.10669362  1
  Ta  Ta118  1  0.09461912  0.29743773  0.49298117  1
  Ta  Ta119  1  0.10831507  0.90048191  0.29067439  1
  Ta  Ta120  1  0.09785633  0.50582104  0.90562044  1
  Ta  Ta121  1  0.20855523  0.79776183  0.18987565  1
  Ta  Ta122  1  -0.00423119  0.39448438  0.59702139  1
  Ta  Ta123  1  0.19858784  0.59931473  0.39360736  1
  Ta  Ta124  1  0.60349916  0.60250727  0.00002912  1
  Ta  Ta125  1  0.40797594  0.39240181  0.00385557  1
  Ta  Ta126  1  0.40104516  0.79733206  0.80537539  1
  Ta  Ta127  1  0.70582657  0.09771121  0.29640578  1
  Ta  Ta128  1  0.29756199  0.90775175  0.49814794  1
  Ta  Ta129  1  0.60086231  0.39882144  0.00526273  1
  Ta  Ta130  1  0.89423573  0.10549479  0.09746512  1
  Ta  Ta131  1  0.20247492  0.59433168  0.59387953  1
  Ta  Ta132  1  0.19330788  0.39422286  0.80217469  1
  Ta  Ta133  1  0.89859257  0.10048584  0.29673359  1
  Ta  Ta134  1  0.89762453  0.50860897  0.90356126  1
  Ta  Ta135  1  0.90162323  0.10250701  0.69784566  1
  Ta  Ta136  1  0.80212356  0.80190355  0.80638860  1
  Ta  Ta137  1  0.00346787  -0.00265729  0.79795838  1
  Ta  Ta138  1  0.20248664  0.19960988  0.39509535  1
  Ta  Ta139  1  0.29325141  0.09859514  0.69929965  1
  Ta  Ta140  1  0.89068939  0.29462641  0.89813752  1
  Ta  Ta141  1  0.80375400  0.60591326  0.80114034  1
  Ta  Ta142  1  0.88834882  0.90381200  0.49578820  1
  Ta  Ta143  1  0.89989397  0.70774145  0.70288371  1
  Ta  Ta144  1  0.89453572  0.29022001  0.69575382  1
  Ta  Ta145  1  0.29698161  0.30608849  0.49422567  1
  Ta  Ta146  1  0.60690897  0.39548473  0.60313287  1
  Ta  Ta147  1  0.60627476  0.79663079  0.00090743  1
  Ta  Ta148  1  0.09865273  0.70130387  0.90256472  1
  Ta  Ta149  1  0.79723267  0.79918040  0.39578614  1
  Ti  Ti150  1  0.27862920  0.89903718  0.91594593  1
  Ti  Ti151  1  0.30957210  0.10109414  0.11965358  1
  Ti  Ti152  1  0.69373175  0.50764376  0.10134000  1
  Ti  Ti153  1  0.39842138  0.60246060  0.60161543  1
  Ti  Ti154  1  0.90342669  0.90343702  0.89318916  1
  Ti  Ti155  1  0.78717190  0.60114622  0.20967294  1
  Ti  Ti156  1  0.59690782  0.80358148  0.60744142  1
  Ti  Ti157  1  0.40241387  0.39586829  0.60099553  1
  Ti  Ti158  1  0.09697663  0.50651772  0.09398805  1
  Ti  Ti159  1  0.18273439  0.82333867  0.59374863  1
  Ti  Ti160  1  0.30364395  0.90468259  0.28380995  1
  Ti  Ti161  1  0.00220794  0.60527073  -0.00199635  1
  Ti  Ti162  1  0.19195631  -0.00367066  0.78978240  1
  Ti  Ti163  1  0.79475946  0.80475274  0.60542729  1
  Ti  Ti164  1  0.72010032  0.09720151  0.71649615  1
  Ti  Ti165  1  0.51067546  0.69953511  0.89635883  1
  Ti  Ti166  1  0.20369271  0.00147676  0.39312707  1
  Ti  Ti167  1  0.20503141  0.00419071  0.19785340  1
  Ti  Ti168  1  0.18893097  0.39307697  -0.00021062  1
  Ti  Ti169  1  0.20040048  0.00477170  0.01801082  1
  Ti  Ti170  1  0.59980968  0.38581791  0.78849968  1
  Ti  Ti171  1  0.00799945  0.40645588  0.20458687  1
  Ti  Ti172  1  0.10373320  0.29995322  0.30712148  1
  Ti  Ti173  1  0.00815342  0.19541514  0.39936238  1
  Ti  Ti174  1  0.49853620  0.90362226  0.70941541  1
  Ti  Ti175  1  0.30432117  0.69751503  0.29303945  1
  Ti  Ti176  1  0.00537099  0.81332518  0.59101315  1
  Ti  Ti177  1  0.60057085  0.59911649  0.60198271  1
  Ti  Ti178  1  0.20581501  0.80645121  0.38757990  1
  Ti  Ti179  1  0.71380066  0.29443788  0.70044198  1
  Ti  Ti180  1  0.59770325  0.18258317  0.20597518  1
  Ti  Ti181  1  0.50874872  0.29971022  0.90531745  1
  Ti  Ti182  1  0.69853424  0.09953444  0.09813990  1
  Ti  Ti183  1  0.28488093  0.70258987  0.90885772  1
  Ti  Ti184  1  0.49939730  0.68744053  0.49268570  1
  Ti  Ti185  1  0.10054645  0.09746651  0.69615703  1
  Ti  Ti186  1  0.30185991  0.29566931  0.10523784  1
  Ti  Ti187  1  0.30165183  0.49653211  0.69573722  1
  Ti  Ti188  1  0.09817349  0.29725503  0.10831209  1
  Ti  Ti189  1  0.39781345  0.00342574  0.37993054  1
  Ti  Ti190  1  0.80278884  0.40015721  0.79728613  1
  Ti  Ti191  1  0.70531962  0.29663859  0.51045859  1
  Ti  Ti192  1  0.70071739  0.69025657  0.09601792  1
  Ti  Ti193  1  0.00132940  0.39850641  0.39612827  1
  Ti  Ti194  1  0.68688760  0.90667697  0.09673989  1
  Ti  Ti195  1  0.50663571  0.30022573  0.29558182  1
  Ti  Ti196  1  0.69811978  0.50185324  0.70417611  1
  Ti  Ti197  1  -0.00226827  0.00390575  0.00053246  1
  Ti  Ti198  1  -0.00628942  0.60998328  0.80860389  1
  Ti  Ti199  1  0.00707644  0.59926220  0.39427374  1
  Mo  Mo200  1  0.50528035  0.70072243  0.70164747  1
  Mo  Mo201  1  0.60203797  0.00421518  0.19803344  1
  Mo  Mo202  1  0.80193625  0.18748754  0.19849433  1
  Mo  Mo203  1  0.18824499  0.60681439  0.00076457  1
  Mo  Mo204  1  0.10262061  0.09740706  0.10527151  1
  Mo  Mo205  1  0.60008799  0.60190724  0.40262270  1
  Mo  Mo206  1  0.10702300  0.10299167  0.48599651  1
  Mo  Mo207  1  0.60630016  -0.00124988  0.00442607  1
  Mo  Mo208  1  0.49365289  0.10124203  0.28753458  1
  Mo  Mo209  1  0.09603920  0.50025375  0.30361108  1
  Mo  Mo210  1  0.09878319  0.90363249  0.70744981  1
  Mo  Mo211  1  0.49457798  0.90558576  0.29161889  1
  Mo  Mo212  1  0.01172017  0.58579257  0.20012202  1
  Mo  Mo213  1  0.20086181  0.00138907  0.59574351  1
  Mo  Mo214  1  0.11849749  0.90305454  0.48076922  1
  Mo  Mo215  1  0.69866344  0.50039348  0.51773341  1
  Mo  Mo216  1  0.60647406  0.60864897  0.80030696  1
  Mo  Mo217  1  0.62105962  -0.00473042  0.80601717  1
  Mo  Mo218  1  0.40126029  0.19667460  0.20207134  1
  Mo  Mo219  1  0.38824751  0.80144025  0.19885540  1
  Mo  Mo220  1  0.80604340  -0.00081495  0.39690502  1
  Mo  Mo221  1  0.10016764  0.30268116  0.89860799  1
  Mo  Mo222  1  -0.00012771  0.19853552  0.59772957  1
  Mo  Mo223  1  0.69933067  0.09357999  0.89678533  1
  Mo  Mo224  1  0.79829945  0.19995966  0.60577907  1
  Mo  Mo225  1  0.20073897  0.39432182  0.40190201  1
  Mo  Mo226  1  0.38049598  0.60597465  0.19667082  1
  Mo  Mo227  1  0.39874724  0.00096368  0.20532247  1
  Mo  Mo228  1  0.29666117  0.09642400  0.29669945  1
  Mo  Mo229  1  0.89791947  0.69392080  0.89571151  1
  Mo  Mo230  1  0.80350197  0.19898406  0.79734686  1
  Mo  Mo231  1  0.59994712  0.40674174  0.19748209  1
  Mo  Mo232  1  0.50413260  0.30274474  0.69497025  1
  Mo  Mo233  1  0.29341083  0.90187988  0.10541672  1
  Mo  Mo234  1  0.70078356  0.89578073  0.89772991  1
  Mo  Mo235  1  0.79536279  0.60105559  -0.00469766  1
  Mo  Mo236  1  0.80497670  -0.00607156  0.79613622  1
  Mo  Mo237  1  0.29552863  0.29740741  0.30295428  1
  Mo  Mo238  1  0.39081543  0.59865702  0.40290648  1
  Mo  Mo239  1  0.19541521  0.79675468  0.00047798  1
  Mo  Mo240  1  0.70934526  0.89518764  0.70153683  1
  Mo  Mo241  1  0.69280464  0.50477553  0.29168631  1
  Mo  Mo242  1  0.61699830  0.60521761  0.19831616  1
  Mo  Mo243  1  0.29780274  0.70225504  0.10174337  1
  Mo  Mo244  1  0.79401742  0.19119812  0.00008988  1
  Mo  Mo245  1  -0.00259159  0.80263964  0.80735235  1
  Mo  Mo246  1  0.00736369  0.81232363  0.20284418  1
  Mo  Mo247  1  0.10327389  0.69930456  0.09419123  1
  Mo  Mo248  1  0.39825463  0.00172690  0.60781760  1
  Mo  Mo249  1  0.69305633  0.69719620  0.30447737  1
