# generated using pymatgen
data_HfZrTaTiMo
_symmetry_space_group_name_H-M   'P 1'
_cell_length_a   16.89240871
_cell_length_b   16.88784612
_cell_length_c   16.87888514
_cell_angle_alpha   89.95950916
_cell_angle_beta   90.04818181
_cell_angle_gamma   89.95407277
_symmetry_Int_Tables_number   1
_chemical_formula_structural   HfZrTaTiMo
_chemical_formula_sum   'Hf50 Zr50 Ta50 Ti50 Mo50'
_cell_volume   4815.14311783
_cell_formula_units_Z   50
loop_
 _symmetry_equiv_pos_site_id
 _symmetry_equiv_pos_as_xyz
  1  'x, y, z'
loop_
 _atom_site_type_symbol
 _atom_site_label
 _atom_site_symmetry_multiplicity
 _atom_site_fract_x
 _atom_site_fract_y
 _atom_site_fract_z
 _atom_site_occupancy
  Hf  Hf0  1  0.39848880  0.40602213  0.20403574  1
  Hf  Hf1  1  0.39816661  0.00146296  0.00166476  1
  Hf  Hf2  1  0.80697591  0.00345283  0.00581963  1
  Hf  Hf3  1  0.10584867  0.71047710  0.90894381  1
  Hf  Hf4  1  0.50967718  0.29842701  0.89044248  1
  Hf  Hf5  1  -0.00197484  0.40900461  0.79807736  1
  Hf  Hf6  1  0.08419952  0.89004990  0.69370658  1
  Hf  Hf7  1  0.20823864  0.79728507  0.20065679  1
  Hf  Hf8  1  0.19632385  -0.00703538  0.79404012  1
  Hf  Hf9  1  0.29872809  0.11008441  0.89364304  1
  Hf  Hf10  1  0.92476480  0.70027336  0.30758838  1
  Hf  Hf11  1  0.49050642  0.89985345  0.29425123  1
  Hf  Hf12  1  0.19074185  0.20880714  0.00669546  1
  Hf  Hf13  1  0.30811189  0.30620688  0.69107395  1
  Hf  Hf14  1  -0.00205791  0.39624438  0.40878302  1
  Hf  Hf15  1  0.09945137  0.09789576  0.69324759  1
  Hf  Hf16  1  0.49450166  0.90386778  0.70321213  1
  Hf  Hf17  1  0.59832345  0.00167036  0.20144019  1
  Hf  Hf18  1  0.69026698  0.29654720  0.50185055  1
  Hf  Hf19  1  0.00698780  0.39578090  -0.00132627  1
  Hf  Hf20  1  0.81382096  0.59830724  0.40366282  1
  Hf  Hf21  1  0.19490407  0.00290889  0.00197344  1
  Hf  Hf22  1  0.59874795  0.40576220  0.20173038  1
  Hf  Hf23  1  0.80898317  0.79210438  0.00895309  1
  Hf  Hf24  1  0.90113214  0.51154365  0.10322459  1
  Hf  Hf25  1  0.60648040  0.20263352  0.20357761  1
  Hf  Hf26  1  0.80683845  0.61748643  0.20957488  1
  Hf  Hf27  1  0.70260378  0.68815547  0.90981744  1
  Hf  Hf28  1  0.80364460  0.79171896  0.39469573  1
  Hf  Hf29  1  0.29899064  0.29801795  0.30325494  1
  Hf  Hf30  1  0.10431840  0.48513548  0.51556093  1
  Hf  Hf31  1  0.59688656  0.79802373  0.80782405  1
  Hf  Hf32  1  0.09018386  0.70632396  0.49201643  1
  Hf  Hf33  1  0.40099368  0.80156987  0.59188326  1
  Hf  Hf34  1  0.69949119  0.89774185  0.69863314  1
  Hf  Hf35  1  0.29862031  0.50907762  0.09594787  1
  Hf  Hf36  1  0.70566319  0.89629929  0.29440154  1
  Hf  Hf37  1  0.09950212  0.50601067  0.30476371  1
  Hf  Hf38  1  0.00104759  0.79862355  0.19528047  1
  Hf  Hf39  1  0.00413028  0.19699377  0.40798450  1
  Hf  Hf40  1  0.19727894  0.39585798  0.19812459  1
  Hf  Hf41  1  0.69807429  0.69839551  0.69891830  1
  Hf  Hf42  1  0.80198000  0.79717738  0.59185690  1
  Hf  Hf43  1  0.39793370  0.79675482  -0.00283236  1
  Hf  Hf44  1  0.30865407  0.10077216  0.69261967  1
  Hf  Hf45  1  0.49827809  0.51137788  0.09192366  1
  Hf  Hf46  1  0.89595909  0.10045474  0.69635862  1
  Hf  Hf47  1  -0.00545457  0.59359960  0.60819973  1
  Hf  Hf48  1  0.09605300  0.89406791  0.30299447  1
  Hf  Hf49  1  0.20144985  0.80499553  0.59791665  1
  Zr  Zr50  1  0.70004470  0.51293810  0.09361267  1
  Zr  Zr51  1  0.80042167  -0.00356666  0.79410963  1
  Zr  Zr52  1  0.39627353  0.39116440  -0.00564836  1
  Zr  Zr53  1  0.69920095  0.48662071  0.50253398  1
  Zr  Zr54  1  0.70496200  0.30450648  0.31166672  1
  Zr  Zr55  1  0.20165542  0.20532119  0.58411733  1
  Zr  Zr56  1  0.70217239  0.89628628  0.10469299  1
  Zr  Zr57  1  0.59595336  0.58922963  0.79988441  1
  Zr  Zr58  1  0.68676956  0.68304501  0.48813433  1
  Zr  Zr59  1  0.49689726  0.10329754  0.30840846  1
  Zr  Zr60  1  0.10354706  0.51236088  0.09876947  1
  Zr  Zr61  1  0.49571098  0.29597660  0.31375914  1
  Zr  Zr62  1  0.59908383  -0.00167203  -0.00237171  1
  Zr  Zr63  1  0.48880564  0.69266203  0.70309316  1
  Zr  Zr64  1  0.79668614  0.40073740  0.00081515  1
  Zr  Zr65  1  0.49512071  0.10447214  0.10009409  1
  Zr  Zr66  1  0.80595206  0.19542795  0.20077521  1
  Zr  Zr67  1  0.49735529  0.29840978  0.10034701  1
  Zr  Zr68  1  0.09372098  0.10217740  0.89819037  1
  Zr  Zr69  1  0.00075331  0.21054949  0.78863344  1
  Zr  Zr70  1  0.00356636  0.20009229  0.19421115  1
  Zr  Zr71  1  0.30169387  0.69490782  0.49685250  1
  Zr  Zr72  1  0.87988552  0.30144389  0.50706081  1
  Zr  Zr73  1  0.69311139  0.50910315  0.30831071  1
  Zr  Zr74  1  0.19533641  0.39677284  -0.00525986  1
  Zr  Zr75  1  0.91661520  0.88755045  0.50102646  1
  Zr  Zr76  1  0.00122693  0.20852295  0.59181459  1
  Zr  Zr77  1  0.81071590  0.59408899  0.60072805  1
  Zr  Zr78  1  0.89133060  0.29527928  0.89691318  1
  Zr  Zr79  1  0.58674386  0.58582536  0.59956672  1
  Zr  Zr80  1  0.20434263  0.00181743  0.39858022  1
  Zr  Zr81  1  0.50151234  0.10817279  0.89357074  1
  Zr  Zr82  1  0.91451521  0.89416575  0.90361904  1
  Zr  Zr83  1  0.90264278  0.10589839  0.90077034  1
  Zr  Zr84  1  0.80533327  -0.00546156  0.40291977  1
  Zr  Zr85  1  0.29861364  0.50605778  0.89481391  1
  Zr  Zr86  1  0.59320069  0.80668668  0.58832090  1
  Zr  Zr87  1  0.49942997  0.11008148  0.50093920  1
  Zr  Zr88  1  0.10606107  0.10038369  0.29923161  1
  Zr  Zr89  1  0.00579585  0.59660844  0.80075237  1
  Zr  Zr90  1  0.29755092  0.89649418  0.89937113  1
  Zr  Zr91  1  0.80820228  0.59780786  0.79349650  1
  Zr  Zr92  1  -0.00246833  0.40082169  0.20407025  1
  Zr  Zr93  1  0.11016608  0.32262837  0.68470858  1
  Zr  Zr94  1  0.20259128  0.59969057  0.60133282  1
  Zr  Zr95  1  0.69583161  0.69904348  0.10127671  1
  Zr  Zr96  1  0.70551855  0.11040870  0.89413788  1
  Zr  Zr97  1  0.59579107  0.80533270  0.40283864  1
  Zr  Zr98  1  0.49056189  0.70013205  0.30254510  1
  Zr  Zr99  1  -0.00079458  0.00586590  0.19173424  1
  Ta  Ta100  1  0.69903919  0.09805489  0.30812658  1
  Ta  Ta101  1  0.20678193  0.39420439  0.41050711  1
  Ta  Ta102  1  0.70090945  0.89374169  0.90271735  1
  Ta  Ta103  1  0.70046948  0.30191296  0.88884038  1
  Ta  Ta104  1  0.70411412  0.10056122  0.10418314  1
  Ta  Ta105  1  0.69851613  0.10293360  0.49982976  1
  Ta  Ta106  1  0.60355798  0.40075165  -0.00555119  1
  Ta  Ta107  1  0.20701370  0.60721215  0.20676525  1
  Ta  Ta108  1  0.79706290  -0.00422332  0.59630135  1
  Ta  Ta109  1  0.90642666  0.70116716  0.90158953  1
  Ta  Ta110  1  0.90596580  0.89914563  0.09974373  1
  Ta  Ta111  1  -0.00135363  -0.00731658  0.79663381  1
  Ta  Ta112  1  0.91484179  0.72278798  0.70184777  1
  Ta  Ta113  1  0.60290836  -0.00011158  0.59599504  1
  Ta  Ta114  1  0.89884173  0.29992906  0.30332269  1
  Ta  Ta115  1  0.20360162  0.00015050  0.19406393  1
  Ta  Ta116  1  0.58351364  0.40113375  0.40670164  1
  Ta  Ta117  1  0.40809069  0.40387096  0.79375333  1
  Ta  Ta118  1  0.00300773  0.00032468  0.40586153  1
  Ta  Ta119  1  0.50049472  0.49963491  0.89878216  1
  Ta  Ta120  1  0.60189366  -0.00417180  0.40846807  1
  Ta  Ta121  1  0.89829256  0.30099966  0.10174431  1
  Ta  Ta122  1  0.30464377  0.09897791  0.50120544  1
  Ta  Ta123  1  0.19959269  0.60264493  0.80443935  1
  Ta  Ta124  1  0.49995478  0.10028363  0.69641624  1
  Ta  Ta125  1  0.30488533  0.49816469  0.70005586  1
  Ta  Ta126  1  0.49298560  0.70003294  0.10155076  1
  Ta  Ta127  1  0.20099628  0.79956593  0.79952615  1
  Ta  Ta128  1  0.29771664  0.10485051  0.10224782  1
  Ta  Ta129  1  0.59038913  0.79762411  -0.00049826  1
  Ta  Ta130  1  0.49122914  0.89013976  0.10775069  1
  Ta  Ta131  1  0.59215115  0.60652125  0.20655070  1
  Ta  Ta132  1  0.80467794  0.80061529  0.80144692  1
  Ta  Ta133  1  0.30121463  0.69540282  0.70829970  1
  Ta  Ta134  1  0.00176599  0.60505282  -0.00048851  1
  Ta  Ta135  1  0.19757736  -0.00364737  0.59241272  1
  Ta  Ta136  1  0.38976006  0.60780143  0.20395872  1
  Ta  Ta137  1  0.69986287  0.48290839  0.70442110  1
  Ta  Ta138  1  0.29869043  0.49970492  0.30739353  1
  Ta  Ta139  1  0.10477405  0.70097096  0.09890731  1
  Ta  Ta140  1  0.10422797  0.69511733  0.30504038  1
  Ta  Ta141  1  0.30176659  0.90480489  0.49676673  1
  Ta  Ta142  1  0.61376372  0.20827047  0.00510802  1
  Ta  Ta143  1  0.39416708  0.80428677  0.39945669  1
  Ta  Ta144  1  0.09889971  0.89452338  0.08638500  1
  Ta  Ta145  1  0.89605633  0.50404756  0.90442199  1
  Ta  Ta146  1  0.20048697  0.20085275  0.40547496  1
  Ta  Ta147  1  0.10391140  0.29898561  0.30551484  1
  Ta  Ta148  1  0.60210873  0.00108374  0.79545581  1
  Ta  Ta149  1  0.10165463  0.70392282  0.70321238  1
  Ti  Ti150  1  0.40354631  0.20503832  0.79156463  1
  Ti  Ti151  1  0.80521413  0.40760118  0.20808117  1
  Ti  Ti152  1  0.88276994  0.30945883  0.69911201  1
  Ti  Ti153  1  0.00389168  0.19854099  0.01285536  1
  Ti  Ti154  1  0.30113524  0.89782252  0.10173188  1
  Ti  Ti155  1  0.19854571  0.20488077  0.79016274  1
  Ti  Ti156  1  0.90047590  0.09719926  0.30476311  1
  Ti  Ti157  1  0.39465551  0.79156093  0.80632013  1
  Ti  Ti158  1  0.29633200  0.30264937  0.88320170  1
  Ti  Ti159  1  0.60809128  0.19627698  0.78534131  1
  Ti  Ti160  1  0.30389607  0.89766672  0.29713388  1
  Ti  Ti161  1  0.69930260  0.30538261  0.70437761  1
  Ti  Ti162  1  0.59792548  0.79320965  0.20194100  1
  Ti  Ti163  1  0.70561095  0.30538533  0.10325121  1
  Ti  Ti164  1  0.38778608  0.00490789  0.20089672  1
  Ti  Ti165  1  0.10593216  0.30560927  0.88564106  1
  Ti  Ti166  1  0.48963143  0.29856792  0.50524007  1
  Ti  Ti167  1  0.81364201  0.41323417  0.39549126  1
  Ti  Ti168  1  -0.00704482  0.58494304  0.41408321  1
  Ti  Ti169  1  0.38626567  0.20067982  0.40787251  1
  Ti  Ti170  1  0.11562273  0.49523886  0.70398392  1
  Ti  Ti171  1  0.30454869  0.89871148  0.69878438  1
  Ti  Ti172  1  0.58757598  0.39772603  0.60510594  1
  Ti  Ti173  1  0.40246471  -0.00300726  0.59252090  1
  Ti  Ti174  1  0.50000651  0.90146168  0.89898073  1
  Ti  Ti175  1  0.50081481  0.30041904  0.69693965  1
  Ti  Ti176  1  0.39383253  0.60827103  -0.00786876  1
  Ti  Ti177  1  0.39066458  0.19351156  0.20573476  1
  Ti  Ti178  1  0.78508028  0.19381632  0.61101915  1
  Ti  Ti179  1  0.00159871  -0.00077938  0.59275778  1
  Ti  Ti180  1  0.79955622  0.20056586  0.01054991  1
  Ti  Ti181  1  0.49680784  0.68885789  0.90258946  1
  Ti  Ti182  1  0.69866776  0.49794675  0.89981000  1
  Ti  Ti183  1  0.39172309  0.59379213  0.39946092  1
  Ti  Ti184  1  0.39747770  0.58851040  0.60204140  1
  Ti  Ti185  1  0.20482264  0.80197533  0.39894495  1
  Ti  Ti186  1  0.48460503  0.49187160  0.49785897  1
  Ti  Ti187  1  0.59891121  0.19753986  0.60624539  1
  Ti  Ti188  1  0.49274868  0.50350695  0.30676282  1
  Ti  Ti189  1  0.89604278  0.09897743  0.50553341  1
  Ti  Ti190  1  0.49411089  0.68711184  0.49267838  1
  Ti  Ti191  1  0.29428937  0.70017482  0.08977404  1
  Ti  Ti192  1  0.80947536  0.00122242  0.20067759  1
  Ti  Ti193  1  0.30028324  0.29498585  0.10454990  1
  Ti  Ti194  1  0.39623715  -0.00008715  0.39927292  1
  Ti  Ti195  1  0.19820186  0.19598194  0.19725499  1
  Ti  Ti196  1  0.40134286  0.00209816  0.80121975  1
  Ti  Ti197  1  0.80048025  0.19253948  0.40041892  1
  Ti  Ti198  1  0.39474637  0.20507778  -0.00328845  1
  Ti  Ti199  1  0.20428867  0.59363526  0.40365423  1
  Mo  Mo200  1  0.89882542  0.10032598  0.09422111  1
  Mo  Mo201  1  0.70279611  0.90776294  0.50032857  1
  Mo  Mo202  1  0.40919623  0.39984980  0.59933781  1
  Mo  Mo203  1  0.00348543  -0.00088128  -0.00032182  1
  Mo  Mo204  1  0.20023954  0.60975452  -0.00023293  1
  Mo  Mo205  1  0.49030091  0.91283505  0.49454972  1
  Mo  Mo206  1  0.69368330  0.09773712  0.69130863  1
  Mo  Mo207  1  0.59981916  0.39641518  0.80055434  1
  Mo  Mo208  1  0.81360595  0.60189343  -0.00302434  1
  Mo  Mo209  1  0.79141456  0.20623246  0.78430802  1
  Mo  Mo210  1  0.00754206  0.80509290  0.39613251  1
  Mo  Mo211  1  0.90073009  0.49282390  0.50922669  1
  Mo  Mo212  1  0.10057048  0.09204000  0.50019532  1
  Mo  Mo213  1  0.39084887  0.79676255  0.19600718  1
  Mo  Mo214  1  0.60672367  0.20050045  0.40616375  1
  Mo  Mo215  1  0.00330754  0.79332567  0.59576238  1
  Mo  Mo216  1  0.00386624  0.79818293  0.00336075  1
  Mo  Mo217  1  0.79605468  0.40172682  0.80279038  1
  Mo  Mo218  1  0.10552979  0.90084479  0.49768119  1
  Mo  Mo219  1  0.09948905  0.50681694  0.89912407  1
  Mo  Mo220  1  0.29908631  0.70015336  0.89644844  1
  Mo  Mo221  1  0.30138576  0.10251918  0.29700712  1
  Mo  Mo222  1  0.09711208  0.29552119  0.10682833  1
  Mo  Mo223  1  0.58569779  0.60173290  -0.00187334  1
  Mo  Mo224  1  0.90075089  0.89762062  0.29444459  1
  Mo  Mo225  1  0.49559315  0.48983962  0.69941717  1
  Mo  Mo226  1  0.68926339  0.70147485  0.29657522  1
  Mo  Mo227  1  0.39727739  0.59716732  0.80054785  1
  Mo  Mo228  1  0.30965587  0.30106279  0.49744165  1
  Mo  Mo229  1  0.30574332  0.49600828  0.49939621  1
  Mo  Mo230  1  0.10762187  0.30541177  0.49579736  1
  Mo  Mo231  1  0.29598282  0.69540435  0.30717989  1
  Mo  Mo232  1  0.10477668  0.09644958  0.09819271  1
  Mo  Mo233  1  0.79046340  0.39557222  0.60752064  1
  Mo  Mo234  1  0.22197740  0.40580495  0.59475804  1
  Mo  Mo235  1  0.01087243  0.60645166  0.19723203  1
  Mo  Mo236  1  0.89142516  0.48425952  0.70419260  1
  Mo  Mo237  1  0.20296022  0.80362871  0.00266136  1
  Mo  Mo238  1  0.09968848  0.89777447  0.89722617  1
  Mo  Mo239  1  -0.01875884  0.40483895  0.60509204  1
  Mo  Mo240  1  0.39748914  0.40150604  0.40420872  1
  Mo  Mo241  1  0.58032701  0.58964922  0.39915969  1
  Mo  Mo242  1  0.89975904  0.90077989  0.69693899  1
  Mo  Mo243  1  0.90530093  0.50121625  0.30038588  1
  Mo  Mo244  1  0.81325372  0.80331673  0.20441627  1
  Mo  Mo245  1  0.00430138  0.80037354  0.80483716  1
  Mo  Mo246  1  0.91127696  0.70094321  0.09943864  1
  Mo  Mo247  1  0.40727083  0.20139461  0.59919450  1
  Mo  Mo248  1  0.91096729  0.69590801  0.50209833  1
  Mo  Mo249  1  0.20574236  0.40726317  0.79751226  1
