# generated using pymatgen
data_HfZrTaTiMo
_symmetry_space_group_name_H-M   'P 1'
_cell_length_a   16.88255783
_cell_length_b   16.88805109
_cell_length_c   16.87803899
_cell_angle_alpha   90.08436687
_cell_angle_beta   90.01576366
_cell_angle_gamma   90.02648333
_symmetry_Int_Tables_number   1
_chemical_formula_structural   HfZrTaTiMo
_chemical_formula_sum   'Hf50 Zr50 Ta50 Ti50 Mo50'
_cell_volume   4812.15084009
_cell_formula_units_Z   50
loop_
 _symmetry_equiv_pos_site_id
 _symmetry_equiv_pos_as_xyz
  1  'x, y, z'
loop_
 _atom_site_type_symbol
 _atom_site_label
 _atom_site_symmetry_multiplicity
 _atom_site_fract_x
 _atom_site_fract_y
 _atom_site_fract_z
 _atom_site_occupancy
  Hf  Hf0  1  0.29532400  0.50880952  0.69321318  1
  Hf  Hf1  1  0.38865362  -0.00632100  0.80972990  1
  Hf  Hf2  1  0.91338408  0.48892395  0.29610519  1
  Hf  Hf3  1  0.58674161  0.40596883  0.39207509  1
  Hf  Hf4  1  0.60673547  0.60449848  0.01174169  1
  Hf  Hf5  1  0.80991755  0.20086796  0.79853214  1
  Hf  Hf6  1  0.50205005  0.89800427  0.90625932  1
  Hf  Hf7  1  0.21434975  0.79817633  0.20792286  1
  Hf  Hf8  1  0.00135156  0.79819608  0.79246955  1
  Hf  Hf9  1  -0.00051060  0.40457253  -0.00218357  1
  Hf  Hf10  1  0.29387272  0.69637774  0.50462945  1
  Hf  Hf11  1  0.19654709  0.20490149  0.39493038  1
  Hf  Hf12  1  0.39579314  0.79385948  0.38344995  1
  Hf  Hf13  1  0.69399504  0.29973592  0.69788931  1
  Hf  Hf14  1  0.30017564  0.50242089  0.10517060  1
  Hf  Hf15  1  0.20320981  0.20157413  0.00463687  1
  Hf  Hf16  1  0.01123249  0.60583389  0.59969646  1
  Hf  Hf17  1  0.68710492  0.29940112  0.28418217  1
  Hf  Hf18  1  0.09802271  0.87792805  0.49225232  1
  Hf  Hf19  1  0.60003651  0.60116618  0.80307386  1
  Hf  Hf20  1  0.40342927  0.40664712  -0.00130328  1
  Hf  Hf21  1  0.31114482  0.90024227  0.09902168  1
  Hf  Hf22  1  0.00460901  0.60023022  0.39956465  1
  Hf  Hf23  1  0.40504248  0.20443915  0.39699008  1
  Hf  Hf24  1  0.79990703  0.20115428  0.19014085  1
  Hf  Hf25  1  0.90220085  0.50502877  0.70287780  1
  Hf  Hf26  1  0.40194081  0.40311336  0.80429675  1
  Hf  Hf27  1  0.20711856  -0.00077098  -0.00518146  1
  Hf  Hf28  1  0.61256642  -0.00760226  0.79840558  1
  Hf  Hf29  1  0.79221847  0.60889135  0.59546785  1
  Hf  Hf30  1  0.50361394  0.09295608  0.69747885  1
  Hf  Hf31  1  0.28644779  0.10727343  0.70123543  1
  Hf  Hf32  1  0.10143493  0.09784933  0.50982299  1
  Hf  Hf33  1  -0.00419339  -0.00595615  0.40433366  1
  Hf  Hf34  1  0.69418994  0.30003312  0.49594129  1
  Hf  Hf35  1  0.69556893  0.49716054  0.69596648  1
  Hf  Hf36  1  0.59401252  0.80669733  0.39367887  1
  Hf  Hf37  1  0.29287563  0.10386263  0.50302250  1
  Hf  Hf38  1  0.40259198  0.20695551  0.80283604  1
  Hf  Hf39  1  0.59934566  0.00128258  0.39762343  1
  Hf  Hf40  1  0.79530807  0.80611807  0.79263596  1
  Hf  Hf41  1  0.20009196  0.58996006  -0.00638724  1
  Hf  Hf42  1  0.09738580  0.09893339  0.09922001  1
  Hf  Hf43  1  0.49712506  0.09645095  0.10051962  1
  Hf  Hf44  1  0.49603069  0.70382245  0.69804747  1
  Hf  Hf45  1  0.59221511  0.19212508  0.38932333  1
  Hf  Hf46  1  0.10215472  0.71265828  0.31060790  1
  Hf  Hf47  1  0.80769421  0.40078089  0.00660491  1
  Hf  Hf48  1  0.19672717  0.40789614  0.20548373  1
  Hf  Hf49  1  0.29129249  0.30713700  0.50033366  1
  Zr  Zr50  1  0.69295735  0.69219208  0.29702631  1
  Zr  Zr51  1  0.50433794  0.88960713  0.70553198  1
  Zr  Zr52  1  0.80196924  -0.00679103  0.79761852  1
  Zr  Zr53  1  -0.00320226  0.21098488  0.19299911  1
  Zr  Zr54  1  0.89468157  0.30570039  0.30184910  1
  Zr  Zr55  1  0.29253281  0.88737862  0.70624752  1
  Zr  Zr56  1  0.80169900  0.39731281  0.60358105  1
  Zr  Zr57  1  0.69487633  0.09730579  0.09574010  1
  Zr  Zr58  1  0.39379055  -0.00653910  0.59965874  1
  Zr  Zr59  1  0.40002753  -0.00613481  0.39361215  1
  Zr  Zr60  1  0.09647699  0.09386084  0.29946283  1
  Zr  Zr61  1  0.20780644  0.20537120  0.20054855  1
  Zr  Zr62  1  0.59590109  0.41189991  0.00640035  1
  Zr  Zr63  1  0.90002202  0.09173867  0.09749323  1
  Zr  Zr64  1  0.78849102  0.40735610  0.39585752  1
  Zr  Zr65  1  0.50114560  0.09539892  0.91328069  1
  Zr  Zr66  1  0.60442444  0.19634111  0.80115895  1
  Zr  Zr67  1  0.10322844  0.89101078  0.90089948  1
  Zr  Zr68  1  0.39857567  0.59343733  0.80798137  1
  Zr  Zr69  1  0.70979676  0.50570152  0.90260791  1
  Zr  Zr70  1  -0.00648876  0.19808067  0.40884818  1
  Zr  Zr71  1  0.10225104  0.29413252  0.70693627  1
  Zr  Zr72  1  0.79794624  0.59320691  0.19080728  1
  Zr  Zr73  1  0.40602348  0.61161644  0.21274635  1
  Zr  Zr74  1  0.59562276  -0.00153895  0.21095552  1
  Zr  Zr75  1  0.09984194  0.30223474  0.89917420  1
  Zr  Zr76  1  0.50656135  0.71556251  0.89590184  1
  Zr  Zr77  1  0.29992941  0.50490630  0.30665201  1
  Zr  Zr78  1  0.01008614  0.59761402  0.19718280  1
  Zr  Zr79  1  0.59095772  0.40178019  0.80704427  1
  Zr  Zr80  1  0.40282620  0.40346253  0.59610990  1
  Zr  Zr81  1  0.50950383  0.29314638  0.11204468  1
  Zr  Zr82  1  0.00182016  -0.00227381  -0.00611836  1
  Zr  Zr83  1  0.40261173  0.20421301  0.60184350  1
  Zr  Zr84  1  0.40964575  0.59630421  -0.00065843  1
  Zr  Zr85  1  0.79487198  0.79708178  0.00492836  1
  Zr  Zr86  1  -0.00699987  0.79956555  0.19656373  1
  Zr  Zr87  1  0.90107953  0.70088849  0.90127766  1
  Zr  Zr88  1  0.49658193  0.69535989  0.50084033  1
  Zr  Zr89  1  -0.00639994  0.20021401  0.60617233  1
  Zr  Zr90  1  0.89189625  0.09102909  0.30181086  1
  Zr  Zr91  1  0.90259725  0.49945873  0.49916625  1
  Zr  Zr92  1  0.79424618  0.79939920  0.39789288  1
  Zr  Zr93  1  0.80219977  0.19742937  0.59592270  1
  Zr  Zr94  1  0.19918402  0.60301124  0.39775441  1
  Zr  Zr95  1  0.08768942  0.32548372  0.30913507  1
  Zr  Zr96  1  0.19262327  -0.01057817  0.60219265  1
  Zr  Zr97  1  0.90553944  0.70993021  0.49432140  1
  Zr  Zr98  1  0.20919383  0.00010046  0.20318955  1
  Zr  Zr99  1  0.90188853  0.50845821  0.89728414  1
  Ta  Ta100  1  0.41454203  0.40554137  0.20752695  1
  Ta  Ta101  1  0.89732675  0.69284019  0.09403322  1
  Ta  Ta102  1  0.00176645  -0.00550968  0.79277854  1
  Ta  Ta103  1  0.60191569  0.19197979  0.59173017  1
  Ta  Ta104  1  0.79730349  0.80597784  0.60357199  1
  Ta  Ta105  1  0.50147732  0.90042857  0.09442221  1
  Ta  Ta106  1  0.89925053  0.70121304  0.69684161  1
  Ta  Ta107  1  0.10311696  0.89395216  0.10332859  1
  Ta  Ta108  1  0.70349417  0.08914098  0.68425017  1
  Ta  Ta109  1  0.29704890  0.69706081  0.69819111  1
  Ta  Ta110  1  0.69158297  0.89863052  0.09758066  1
  Ta  Ta111  1  0.69844958  0.30258121  0.09951719  1
  Ta  Ta112  1  0.90150948  0.30597341  0.49676079  1
  Ta  Ta113  1  0.79800210  -0.00455199  -0.00538550  1
  Ta  Ta114  1  0.10347309  0.69820467  0.90263079  1
  Ta  Ta115  1  0.39432967  0.79927836  0.59768194  1
  Ta  Ta116  1  0.30241687  0.69955350  0.10038477  1
  Ta  Ta117  1  0.50141267  0.89818078  0.50527371  1
  Ta  Ta118  1  0.00678355  0.59860568  0.00181987  1
  Ta  Ta119  1  0.10183457  0.89604619  0.30396106  1
  Ta  Ta120  1  0.10874619  0.49474035  0.50059858  1
  Ta  Ta121  1  0.80783246  0.39093951  0.80135002  1
  Ta  Ta122  1  0.01009784  0.60448010  0.79867682  1
  Ta  Ta123  1  0.90265694  0.89779109  0.90012423  1
  Ta  Ta124  1  0.29607369  0.70347567  0.89897375  1
  Ta  Ta125  1  0.79204993  0.59647454  0.39727687  1
  Ta  Ta126  1  0.10116128  0.30915504  0.09643361  1
  Ta  Ta127  1  0.29018245  0.30226908  0.70524588  1
  Ta  Ta128  1  0.90252234  0.09114473  0.69877681  1
  Ta  Ta129  1  0.89523301  0.90101074  0.50357437  1
  Ta  Ta130  1  0.79535094  0.79841738  0.19493441  1
  Ta  Ta131  1  0.80042906  -0.01523869  0.19650193  1
  Ta  Ta132  1  0.39537569  0.80017188  -0.00208183  1
  Ta  Ta133  1  0.10206543  0.49962506  0.70187090  1
  Ta  Ta134  1  0.49978902  0.71222685  0.10258226  1
  Ta  Ta135  1  -0.00855137  0.20752114  -0.00557449  1
  Ta  Ta136  1  0.20230416  0.41137909  0.80962239  1
  Ta  Ta137  1  0.59641961  0.80124610  0.20213713  1
  Ta  Ta138  1  0.30187986  0.10374157  0.90410285  1
  Ta  Ta139  1  0.70275426  0.91292188  0.50471181  1
  Ta  Ta140  1  0.40606976  0.40722326  0.40008918  1
  Ta  Ta141  1  0.50333460  0.09243967  0.50306116  1
  Ta  Ta142  1  0.30448036  0.31140746  0.30275806  1
  Ta  Ta143  1  0.80736579  0.20424371  -0.00455943  1
  Ta  Ta144  1  0.79688331  0.61059720  0.79423154  1
  Ta  Ta145  1  0.19664535  0.40141279  0.60421455  1
  Ta  Ta146  1  0.50172151  0.50557619  0.68625152  1
  Ta  Ta147  1  0.29617918  0.30513266  0.90447932  1
  Ta  Ta148  1  0.70435929  0.29919851  0.90531856  1
  Ta  Ta149  1  0.00321828  0.39718945  0.60513980  1
  Ti  Ti150  1  0.69156093  0.89334106  0.91068781  1
  Ti  Ti151  1  0.69311220  0.70167979  0.49647172  1
  Ti  Ti152  1  0.10375450  0.49720727  0.10089625  1
  Ti  Ti153  1  0.10115607  0.30565702  0.50308294  1
  Ti  Ti154  1  0.10974443  0.69933564  0.09998413  1
  Ti  Ti155  1  0.20512276  -0.00816494  0.39524000  1
  Ti  Ti156  1  0.40416114  -0.00681626  0.21055145  1
  Ti  Ti157  1  0.70337619  0.09896045  0.90465715  1
  Ti  Ti158  1  0.20108177  0.20065912  0.80812469  1
  Ti  Ti159  1  0.59340944  0.59601904  0.19452145  1
  Ti  Ti160  1  0.40576598  0.20328478  0.21132213  1
  Ti  Ti161  1  0.09726802  0.10173771  0.70604491  1
  Ti  Ti162  1  -0.00062375  0.79880296  0.60465757  1
  Ti  Ti163  1  0.68688575  0.50128851  0.50094462  1
  Ti  Ti164  1  0.09604308  0.10423898  0.89324561  1
  Ti  Ti165  1  0.50783474  0.30466312  0.69096965  1
  Ti  Ti166  1  0.60660383  0.80698297  0.59867865  1
  Ti  Ti167  1  0.88482509  0.08427664  0.50381488  1
  Ti  Ti168  1  0.80198143  0.40392281  0.18738872  1
  Ti  Ti169  1  0.00423291  0.79442670  0.00443482  1
  Ti  Ti170  1  0.10306888  0.89167132  0.69840966  1
  Ti  Ti171  1  -0.00469932  -0.01057656  0.60670846  1
  Ti  Ti172  1  0.70722092  0.09727087  0.29745945  1
  Ti  Ti173  1  0.20022355  0.79342767  0.80410887  1
  Ti  Ti174  1  0.19668222  -0.00121612  0.80633428  1
  Ti  Ti175  1  0.58884924  0.59568036  0.39348967  1
  Ti  Ti176  1  0.69228311  0.70625667  0.69805853  1
  Ti  Ti177  1  0.89957723  0.89620795  0.09320163  1
  Ti  Ti178  1  0.39565760  0.20577662  0.00180895  1
  Ti  Ti179  1  0.69200461  0.49864270  0.28927882  1
  Ti  Ti180  1  0.30255174  0.30884331  0.10349088  1
  Ti  Ti181  1  0.30167241  0.50620618  0.50258701  1
  Ti  Ti182  1  0.11424170  0.69950061  0.69409256  1
  Ti  Ti183  1  0.31443412  0.09719528  0.09789310  1
  Ti  Ti184  1  0.20498198  0.79802801  0.00213525  1
  Ti  Ti185  1  0.69920263  0.70514145  0.90383337  1
  Ti  Ti186  1  0.59788274  0.59990563  0.59493003  1
  Ti  Ti187  1  0.30416812  0.10211688  0.30009992  1
  Ti  Ti188  1  0.89660380  0.69830502  0.29812110  1
  Ti  Ti189  1  0.50509055  0.30205079  0.50273195  1
  Ti  Ti190  1  0.29280603  0.88794184  0.49667330  1
  Ti  Ti191  1  0.89816034  0.89470763  0.30560762  1
  Ti  Ti192  1  0.79403601  0.19282723  0.40444870  1
  Ti  Ti193  1  0.60822096  0.20234307  -0.00000528  1
  Ti  Ti194  1  0.70539211  0.90171530  0.29918284  1
  Ti  Ti195  1  0.19553728  0.59690488  0.80548036  1
  Ti  Ti196  1  -0.00286542  0.39779422  0.79916370  1
  Ti  Ti197  1  0.50317093  0.29649435  0.90862365  1
  Ti  Ti198  1  0.90549276  0.09751360  0.89449509  1
  Ti  Ti199  1  -0.00242952  -0.01186350  0.20014124  1
  Mo  Mo200  1  0.39777063  -0.00105552  0.00272515  1
  Mo  Mo201  1  0.49688239  0.50805845  0.49810472  1
  Mo  Mo202  1  0.19879702  0.60595014  0.19438467  1
  Mo  Mo203  1  0.29973874  0.70009374  0.29888146  1
  Mo  Mo204  1  -0.00152908  0.18530759  0.80386954  1
  Mo  Mo205  1  0.29637937  0.49941951  0.90018953  1
  Mo  Mo206  1  0.90596247  0.89741106  0.69450069  1
  Mo  Mo207  1  0.10216869  0.70215434  0.50579003  1
  Mo  Mo208  1  0.49523079  0.30268740  0.29796673  1
  Mo  Mo209  1  0.29747415  0.89279364  0.90208178  1
  Mo  Mo210  1  0.38406191  0.79610245  0.80283461  1
  Mo  Mo211  1  0.80233084  -0.00289266  0.59784467  1
  Mo  Mo212  1  0.59473387  0.40004494  0.59209499  1
  Mo  Mo213  1  0.19680039  0.79103051  0.60039008  1
  Mo  Mo214  1  0.40550511  0.80183634  0.19676655  1
  Mo  Mo215  1  0.30026928  0.90149632  0.29943219  1
  Mo  Mo216  1  0.49692682  0.89700660  0.29229359  1
  Mo  Mo217  1  0.39908873  0.60242642  0.60063805  1
  Mo  Mo218  1  0.09791075  0.50319822  0.89279907  1
  Mo  Mo219  1  0.40407996  0.59662769  0.40397293  1
  Mo  Mo220  1  0.10144487  0.50355528  0.30256997  1
  Mo  Mo221  1  0.60251117  0.19419551  0.20015454  1
  Mo  Mo222  1  0.60592813  -0.00384918  -0.00122296  1
  Mo  Mo223  1  0.60052843  0.41407835  0.19742763  1
  Mo  Mo224  1  0.79697379  -0.00396744  0.39684490  1
  Mo  Mo225  1  0.60242305  -0.00107080  0.59506702  1
  Mo  Mo226  1  0.50507350  0.69964945  0.29692599  1
  Mo  Mo227  1  0.90091598  0.29849904  0.89663003  1
  Mo  Mo228  1  -0.01026041  0.80340090  0.39510838  1
  Mo  Mo229  1  0.90657723  0.30085823  0.70276186  1
  Mo  Mo230  1  0.70067979  0.89961304  0.68572529  1
  Mo  Mo231  1  0.00441207  0.40462779  0.41811212  1
  Mo  Mo232  1  0.49147924  0.10256102  0.29645423  1
  Mo  Mo233  1  0.20804698  0.80266180  0.39815902  1
  Mo  Mo234  1  0.50150390  0.50613114  0.30251785  1
  Mo  Mo235  1  0.59933173  0.80017617  0.00738419  1
  Mo  Mo236  1  0.19331923  0.20849370  0.60507079  1
  Mo  Mo237  1  0.20282137  0.40374913  0.40722950  1
  Mo  Mo238  1  0.50172295  0.50521656  0.10855192  1
  Mo  Mo239  1  0.69990053  0.49835419  0.10619357  1
  Mo  Mo240  1  0.69966070  0.09943663  0.49511552  1
  Mo  Mo241  1  0.90032366  0.30310819  0.09600521  1
  Mo  Mo242  1  0.19754757  0.59616860  0.60105586  1
  Mo  Mo243  1  0.20235434  0.39981936  0.00303789  1
  Mo  Mo244  1  0.50183217  0.50289268  0.89772326  1
  Mo  Mo245  1  0.90429107  0.50362989  0.09743991  1
  Mo  Mo246  1  0.80057036  0.60369229  0.00229910  1
  Mo  Mo247  1  0.69502054  0.70357505  0.10493972  1
  Mo  Mo248  1  0.61930340  0.80002966  0.79887585  1
  Mo  Mo249  1  0.00004979  0.40698012  0.18039062  1
