# generated using pymatgen
data_HfZrTaTiMo
_symmetry_space_group_name_H-M   'P 1'
_cell_length_a   16.88981024
_cell_length_b   16.88432106
_cell_length_c   16.88522447
_cell_angle_alpha   90.01525194
_cell_angle_beta   89.99642282
_cell_angle_gamma   90.05178755
_symmetry_Int_Tables_number   1
_chemical_formula_structural   HfZrTaTiMo
_chemical_formula_sum   'Hf50 Zr50 Ta50 Ti50 Mo50'
_cell_volume   4815.20761068
_cell_formula_units_Z   50
loop_
 _symmetry_equiv_pos_site_id
 _symmetry_equiv_pos_as_xyz
  1  'x, y, z'
loop_
 _atom_site_type_symbol
 _atom_site_label
 _atom_site_symmetry_multiplicity
 _atom_site_fract_x
 _atom_site_fract_y
 _atom_site_fract_z
 _atom_site_occupancy
  Hf  Hf0  1  0.59836983  -0.00176768  0.80149409  1
  Hf  Hf1  1  0.29907254  0.30676847  0.30435223  1
  Hf  Hf2  1  0.69923374  0.10691320  0.29506600  1
  Hf  Hf3  1  0.29467339  0.50369792  0.69589119  1
  Hf  Hf4  1  0.00224325  0.39637181  0.40672951  1
  Hf  Hf5  1  0.10408287  0.69701283  0.09465054  1
  Hf  Hf6  1  0.80133116  0.39931105  0.78862231  1
  Hf  Hf7  1  0.90164263  0.89248404  0.09458092  1
  Hf  Hf8  1  0.49424221  0.09612637  0.50373876  1
  Hf  Hf9  1  0.10596533  0.50143605  0.30614175  1
  Hf  Hf10  1  0.40433700  0.40854505  0.78970613  1
  Hf  Hf11  1  0.59687694  0.59984439  0.20536159  1
  Hf  Hf12  1  0.89508579  0.50200032  0.30692443  1
  Hf  Hf13  1  0.90281855  0.30026303  0.89811672  1
  Hf  Hf14  1  0.60697822  -0.00776206  0.39525205  1
  Hf  Hf15  1  0.20841425  0.40982382  0.19354600  1
  Hf  Hf16  1  0.20469979  0.79723332  0.19381678  1
  Hf  Hf17  1  0.60290064  0.20135510  0.00535481  1
  Hf  Hf18  1  0.00032125  0.79469315  0.19269122  1
  Hf  Hf19  1  0.60075295  0.40788439  0.19562974  1
  Hf  Hf20  1  0.29540880  0.31155495  0.89238911  1
  Hf  Hf21  1  0.69642354  0.50876276  0.70289012  1
  Hf  Hf22  1  0.11238259  0.10628762  0.10755121  1
  Hf  Hf23  1  0.79721144  0.19980663  0.79581940  1
  Hf  Hf24  1  0.20166490  0.00237343  0.60637597  1
  Hf  Hf25  1  0.39995009  0.00133306  0.80524201  1
  Hf  Hf26  1  0.50446354  0.30549376  0.89794159  1
  Hf  Hf27  1  0.50475434  0.30328100  0.29912335  1
  Hf  Hf28  1  0.80909922  0.59918644  0.00692205  1
  Hf  Hf29  1  0.39918606  0.78330726  0.80803129  1
  Hf  Hf30  1  0.40216805  0.41512296  0.19510280  1
  Hf  Hf31  1  0.69046718  0.69604350  0.89575625  1
  Hf  Hf32  1  -0.00440982  0.59699985  0.19443011  1
  Hf  Hf33  1  0.69467212  0.69898451  0.70997574  1
  Hf  Hf34  1  0.10716650  0.89054493  0.70956842  1
  Hf  Hf35  1  0.49171404  0.70648134  0.50081139  1
  Hf  Hf36  1  0.29877896  0.89197748  0.89918828  1
  Hf  Hf37  1  0.30320763  0.10133444  0.09535111  1
  Hf  Hf38  1  0.90940526  0.69618437  0.89813380  1
  Hf  Hf39  1  0.39666312  0.79775707  0.19487308  1
  Hf  Hf40  1  0.39474915  0.41348312  0.00527551  1
  Hf  Hf41  1  0.39995465  0.20469992  -0.00303537  1
  Hf  Hf42  1  0.69572602  0.50827476  0.89564717  1
  Hf  Hf43  1  0.70471935  0.09658926  0.50689907  1
  Hf  Hf44  1  0.19928778  0.79537779  0.40215084  1
  Hf  Hf45  1  0.80193706  -0.00300101  0.80182318  1
  Hf  Hf46  1  0.00052957  0.19657046  0.40528665  1
  Hf  Hf47  1  0.39685551  0.20947580  0.60351581  1
  Hf  Hf48  1  0.09489112  0.31061023  0.89626817  1
  Hf  Hf49  1  0.50244531  0.10349224  0.29344823  1
  Zr  Zr50  1  0.49237917  0.69079535  0.10136879  1
  Zr  Zr51  1  0.11015894  0.29579035  0.29540775  1
  Zr  Zr52  1  0.19391411  0.00443963  0.39918396  1
  Zr  Zr53  1  0.90382889  0.70140243  0.50169756  1
  Zr  Zr54  1  0.00657481  0.40815164  0.60149272  1
  Zr  Zr55  1  0.10347920  0.30292320  0.70057847  1
  Zr  Zr56  1  -0.00138888  0.19838702  0.00272240  1
  Zr  Zr57  1  0.79734174  0.59816360  0.19228513  1
  Zr  Zr58  1  0.88931993  0.09464499  0.50851663  1
  Zr  Zr59  1  -0.00318543  -0.00028961  0.80371754  1
  Zr  Zr60  1  0.00395520  0.79778873  0.40136080  1
  Zr  Zr61  1  0.80380791  0.39758418  0.59466180  1
  Zr  Zr62  1  0.29218506  0.49551089  0.49676498  1
  Zr  Zr63  1  0.29794716  0.10692143  0.28990332  1
  Zr  Zr64  1  0.00323208  0.00888270  0.60390159  1
  Zr  Zr65  1  0.51191468  0.29920109  0.69817414  1
  Zr  Zr66  1  0.81089571  0.79885064  0.79955730  1
  Zr  Zr67  1  0.90099323  0.89436034  0.68487902  1
  Zr  Zr68  1  0.90699372  0.49525890  0.89127322  1
  Zr  Zr69  1  0.00095828  -0.00534347  0.00461197  1
  Zr  Zr70  1  0.59392645  -0.00351014  0.00479238  1
  Zr  Zr71  1  0.79507855  0.40270692  0.00882917  1
  Zr  Zr72  1  0.48835749  0.89570501  0.50051810  1
  Zr  Zr73  1  0.80509319  0.79866011  -0.00548424  1
  Zr  Zr74  1  0.89500148  0.29422988  0.10391804  1
  Zr  Zr75  1  0.69189121  0.29973173  0.50970077  1
  Zr  Zr76  1  0.09099070  0.89600579  0.50734678  1
  Zr  Zr77  1  0.40192838  0.20697973  0.40394205  1
  Zr  Zr78  1  0.62368741  0.80244964  0.40593975  1
  Zr  Zr79  1  0.79556291  0.60392266  0.59936013  1
  Zr  Zr80  1  0.90526393  0.51339314  0.49250515  1
  Zr  Zr81  1  0.60236431  -0.00635746  0.60163926  1
  Zr  Zr82  1  0.89325468  0.69722463  0.30733135  1
  Zr  Zr83  1  0.10355211  0.10206568  0.90282417  1
  Zr  Zr84  1  0.19996572  -0.00998811  0.19609101  1
  Zr  Zr85  1  0.80176314  0.20989387  0.40706435  1
  Zr  Zr86  1  0.49477551  0.89238568  0.30462286  1
  Zr  Zr87  1  0.20659970  0.19584838  0.79986450  1
  Zr  Zr88  1  0.19872920  0.78645674  0.60288842  1
  Zr  Zr89  1  0.89092766  0.30240429  0.29774879  1
  Zr  Zr90  1  0.69317720  0.30184519  0.89929918  1
  Zr  Zr91  1  0.60588502  0.60384076  0.40237451  1
  Zr  Zr92  1  0.88776107  0.89108612  0.29816401  1
  Zr  Zr93  1  0.31233747  0.89891114  0.50556912  1
  Zr  Zr94  1  -0.00146156  0.18633489  0.20873297  1
  Zr  Zr95  1  0.48972895  0.89182663  0.69549436  1
  Zr  Zr96  1  0.79266975  -0.00414546  0.19470061  1
  Zr  Zr97  1  0.00165706  0.00772375  0.39018090  1
  Zr  Zr98  1  0.01826090  0.59860596  0.79361707  1
  Zr  Zr99  1  0.11689216  0.30144289  0.50564391  1
  Ta  Ta100  1  0.69530133  0.88880953  0.09633945  1
  Ta  Ta101  1  0.58975961  0.79605071  -0.00264312  1
  Ta  Ta102  1  0.00450371  0.79432543  0.80020753  1
  Ta  Ta103  1  0.19998440  -0.01063139  -0.00010271  1
  Ta  Ta104  1  0.49089480  0.70134517  0.30423367  1
  Ta  Ta105  1  0.20240467  0.60697024  0.80236643  1
  Ta  Ta106  1  0.70473774  0.49553443  0.30558595  1
  Ta  Ta107  1  0.10080281  0.89504779  0.29277293  1
  Ta  Ta108  1  0.59596866  -0.00914499  0.19349087  1
  Ta  Ta109  1  0.30439253  0.09803917  0.69946169  1
  Ta  Ta110  1  0.20284277  -0.00203610  0.80271337  1
  Ta  Ta111  1  0.00637424  0.40870553  0.00623534  1
  Ta  Ta112  1  0.10666688  0.69111501  0.29959380  1
  Ta  Ta113  1  0.30253795  0.89492018  0.70231775  1
  Ta  Ta114  1  0.29943118  0.10360648  0.50775734  1
  Ta  Ta115  1  0.69324892  0.89418150  0.89846779  1
  Ta  Ta116  1  -0.00142826  0.40478344  0.19411761  1
  Ta  Ta117  1  0.30008938  0.69099123  0.30287627  1
  Ta  Ta118  1  0.90802615  0.50954556  0.69920452  1
  Ta  Ta119  1  0.30430359  0.89499206  0.30295069  1
  Ta  Ta120  1  0.50241647  0.10715958  0.89604352  1
  Ta  Ta121  1  0.49813355  0.50090180  0.50020465  1
  Ta  Ta122  1  0.40245846  0.40190044  0.59718840  1
  Ta  Ta123  1  0.69795032  0.09947657  0.89996410  1
  Ta  Ta124  1  0.10193322  0.88839896  0.90350139  1
  Ta  Ta125  1  0.10641093  0.30388658  0.10083491  1
  Ta  Ta126  1  0.69917642  0.30348210  0.29514344  1
  Ta  Ta127  1  0.49819440  0.69807833  0.69909903  1
  Ta  Ta128  1  0.59581662  0.41108480  0.79655153  1
  Ta  Ta129  1  0.40593919  -0.00604388  0.19194437  1
  Ta  Ta130  1  -0.00667173  0.19596318  0.79436099  1
  Ta  Ta131  1  0.60367699  0.79587082  0.60177424  1
  Ta  Ta132  1  0.49523369  0.50661524  0.90120459  1
  Ta  Ta133  1  0.20160731  0.41114409  -0.00077036  1
  Ta  Ta134  1  0.89143241  0.10245724  0.90481735  1
  Ta  Ta135  1  0.30227490  0.69137800  0.50237393  1
  Ta  Ta136  1  0.20550259  0.79586035  0.00210852  1
  Ta  Ta137  1  0.10690673  0.50431876  0.10074640  1
  Ta  Ta138  1  0.40524163  0.20948152  0.19021453  1
  Ta  Ta139  1  0.20397330  0.59708740  -0.00568829  1
  Ta  Ta140  1  0.79601899  -0.00356345  -0.00570275  1
  Ta  Ta141  1  0.69373624  0.70330242  0.09674617  1
  Ta  Ta142  1  0.00680750  0.59587632  0.00020094  1
  Ta  Ta143  1  0.39862245  0.20154865  0.79904338  1
  Ta  Ta144  1  0.40273514  0.59639170  0.60395911  1
  Ta  Ta145  1  0.50461134  0.30958446  0.09480209  1
  Ta  Ta146  1  0.60188502  0.40641846  0.40278130  1
  Ta  Ta147  1  0.49767037  0.10314499  0.70297876  1
  Ta  Ta148  1  0.69833071  0.89242597  0.70460060  1
  Ta  Ta149  1  0.79380013  0.40462245  0.19399373  1
  Ti  Ti150  1  0.70961448  0.71758209  0.28814551  1
  Ti  Ti151  1  0.88975205  0.89888792  0.50176027  1
  Ti  Ti152  1  0.90761227  0.29578435  0.69250412  1
  Ti  Ti153  1  0.40382530  0.40302230  0.40353098  1
  Ti  Ti154  1  0.30710250  0.89957212  0.09176839  1
  Ti  Ti155  1  0.49776631  0.10201440  0.10154354  1
  Ti  Ti156  1  0.79186169  0.19778973  0.00502547  1
  Ti  Ti157  1  0.70126471  0.10029250  0.10133657  1
  Ti  Ti158  1  0.89030149  0.09826622  0.10085697  1
  Ti  Ti159  1  0.00355338  -0.00179738  0.20080523  1
  Ti  Ti160  1  0.79335678  0.79487170  0.59682774  1
  Ti  Ti161  1  0.19983806  0.19331586  0.39816496  1
  Ti  Ti162  1  0.30375336  0.51160935  0.89423135  1
  Ti  Ti163  1  0.40751629  -0.00308998  0.00062750  1
  Ti  Ti164  1  0.89362615  0.10617380  0.69302787  1
  Ti  Ti165  1  0.58771023  0.60008109  -0.00047242  1
  Ti  Ti166  1  0.59917295  0.19381358  0.60320526  1
  Ti  Ti167  1  0.00586964  0.77717842  0.61170113  1
  Ti  Ti168  1  0.10335719  0.11167294  0.69650824  1
  Ti  Ti169  1  0.59710385  0.60092744  0.59434498  1
  Ti  Ti170  1  0.29733394  0.51048380  0.30226042  1
  Ti  Ti171  1  0.10900200  0.70560981  0.90002724  1
  Ti  Ti172  1  0.28960012  0.30786873  0.69407587  1
  Ti  Ti173  1  0.69216790  0.29703914  0.69877282  1
  Ti  Ti174  1  0.39407863  0.00601440  0.39309263  1
  Ti  Ti175  1  0.29998618  0.69464200  0.70177433  1
  Ti  Ti176  1  0.79301539  0.40052594  0.40852555  1
  Ti  Ti177  1  0.59593620  0.80304601  0.19604085  1
  Ti  Ti178  1  0.50478046  0.30715773  0.50214920  1
  Ti  Ti179  1  0.10588586  0.11312875  0.51258156  1
  Ti  Ti180  1  0.60324592  0.20642289  0.19008476  1
  Ti  Ti181  1  0.49678841  0.50621014  0.30676694  1
  Ti  Ti182  1  0.59707860  0.41465371  0.59985827  1
  Ti  Ti183  1  0.39937624  0.78854634  -0.00120652  1
  Ti  Ti184  1  0.18743171  0.42056754  0.80019488  1
  Ti  Ti185  1  0.29251364  0.30434689  0.50030329  1
  Ti  Ti186  1  0.60004947  0.20391997  0.40299642  1
  Ti  Ti187  1  0.20357020  0.20790304  -0.00115154  1
  Ti  Ti188  1  0.68711463  0.50347243  0.09188746  1
  Ti  Ti189  1  0.39936366  0.59929190  0.40151416  1
  Ti  Ti190  1  0.29747501  0.29997729  0.10034324  1
  Ti  Ti191  1  0.77852356  0.61250458  0.40837963  1
  Ti  Ti192  1  0.88509051  0.09714755  0.29941945  1
  Ti  Ti193  1  0.50020212  0.89117603  0.90157883  1
  Ti  Ti194  1  0.30194308  0.09686776  0.90416953  1
  Ti  Ti195  1  0.19276678  0.60195116  0.41062540  1
  Ti  Ti196  1  0.69991838  0.10079320  0.69911922  1
  Ti  Ti197  1  0.57672503  0.60043074  0.79874863  1
  Ti  Ti198  1  0.30193808  0.68115585  0.10172648  1
  Ti  Ti199  1  0.78475184  -0.02077769  0.39880882  1
  Mo  Mo200  1  0.78962847  0.19802592  0.19493692  1
  Mo  Mo201  1  0.29831611  0.69636806  0.90503002  1
  Mo  Mo202  1  0.39537780  0.00920053  0.60794041  1
  Mo  Mo203  1  0.79632469  0.79394518  0.18434391  1
  Mo  Mo204  1  0.39760359  0.59962665  0.79785071  1
  Mo  Mo205  1  0.39368134  0.60229848  -0.00951278  1
  Mo  Mo206  1  0.20290042  0.79449773  0.80425993  1
  Mo  Mo207  1  0.20478321  0.60023923  0.19832236  1
  Mo  Mo208  1  0.10183271  0.89451252  0.09619487  1
  Mo  Mo209  1  0.50063504  0.50608233  0.69276008  1
  Mo  Mo210  1  0.71342720  0.89985292  0.51888531  1
  Mo  Mo211  1  0.19854832  0.59885879  0.60360002  1
  Mo  Mo212  1  0.10263708  0.09472487  0.29945614  1
  Mo  Mo213  1  0.10496632  0.50537917  0.50270447  1
  Mo  Mo214  1  0.59341016  0.79956393  0.80309014  1
  Mo  Mo215  1  0.49686746  0.89401890  0.09389268  1
  Mo  Mo216  1  0.10190779  0.68849769  0.50258594  1
  Mo  Mo217  1  0.20532000  0.40141607  0.60069926  1
  Mo  Mo218  1  0.69556074  0.89383077  0.28066662  1
  Mo  Mo219  1  0.69608462  0.29957263  0.10476831  1
  Mo  Mo220  1  0.59309475  0.41087599  -0.00045955  1
  Mo  Mo221  1  0.50069538  0.50421069  0.09248535  1
  Mo  Mo222  1  0.90908608  0.49701304  0.10143051  1
  Mo  Mo223  1  0.10676651  0.50206997  0.90320248  1
  Mo  Mo224  1  0.39497522  0.78408662  0.60789461  1
  Mo  Mo225  1  0.00905188  0.79570473  -0.00637925  1
  Mo  Mo226  1  0.20969135  0.20915712  0.19339762  1
  Mo  Mo227  1  0.49656853  0.69392268  0.90072049  1
  Mo  Mo228  1  0.60126169  0.19266589  0.79836004  1
  Mo  Mo229  1  0.79731885  0.80354486  0.41090892  1
  Mo  Mo230  1  0.79706630  -0.00382036  0.61077656  1
  Mo  Mo231  1  0.20459693  0.40472926  0.39890841  1
  Mo  Mo232  1  0.81215846  0.60110481  0.79356466  1
  Mo  Mo233  1  0.20874505  0.19898097  0.60214117  1
  Mo  Mo234  1  0.69736009  0.70359723  0.51169203  1
  Mo  Mo235  1  0.90606452  0.69507932  0.70023401  1
  Mo  Mo236  1  0.01516355  0.60159149  0.60041861  1
  Mo  Mo237  1  0.90415613  0.29371442  0.51265734  1
  Mo  Mo238  1  0.29961755  0.51242369  0.09698751  1
  Mo  Mo239  1  0.69250563  0.50205490  0.49804280  1
  Mo  Mo240  1  -0.00441968  0.20276561  0.60235249  1
  Mo  Mo241  1  0.38802210  0.78863989  0.39604913  1
  Mo  Mo242  1  0.39859249  0.59673575  0.21302046  1
  Mo  Mo243  1  0.10710344  0.69744558  0.70258616  1
  Mo  Mo244  1  0.90763422  0.90328156  0.89988340  1
  Mo  Mo245  1  0.90545148  0.69623540  0.09105552  1
  Mo  Mo246  1  -0.00010833  0.40008878  0.79535173  1
  Mo  Mo247  1  0.01659731  0.60069195  0.40153252  1
  Mo  Mo248  1  0.79748150  0.19978298  0.61202309  1
  Mo  Mo249  1  0.10716467  0.50393332  0.69710502  1
