# generated using pymatgen
data_HfZrTaTiMo
_symmetry_space_group_name_H-M   'P 1'
_cell_length_a   16.88234659
_cell_length_b   16.89374275
_cell_length_c   16.88514804
_cell_angle_alpha   90.00140374
_cell_angle_beta   89.98879396
_cell_angle_gamma   89.99396620
_symmetry_Int_Tables_number   1
_chemical_formula_structural   HfZrTaTiMo
_chemical_formula_sum   'Hf50 Zr50 Ta50 Ti50 Mo50'
_cell_volume   4815.74575393
_cell_formula_units_Z   50
loop_
 _symmetry_equiv_pos_site_id
 _symmetry_equiv_pos_as_xyz
  1  'x, y, z'
loop_
 _atom_site_type_symbol
 _atom_site_label
 _atom_site_symmetry_multiplicity
 _atom_site_fract_x
 _atom_site_fract_y
 _atom_site_fract_z
 _atom_site_occupancy
  Hf  Hf0  1  0.18700925  0.60771723  0.20459261  1
  Hf  Hf1  1  0.09389284  0.49987394  0.31040681  1
  Hf  Hf2  1  0.31152349  0.69649449  0.29361860  1
  Hf  Hf3  1  0.10637406  0.90187892  0.09313211  1
  Hf  Hf4  1  0.09479944  0.09780962  0.70245162  1
  Hf  Hf5  1  0.59842796  0.79668065  0.00362814  1
  Hf  Hf6  1  0.79326082  0.57931557  0.39553689  1
  Hf  Hf7  1  0.00124519  0.19060395  0.39746810  1
  Hf  Hf8  1  0.89616063  0.70225976  0.30027595  1
  Hf  Hf9  1  0.30582825  0.51136920  0.10970742  1
  Hf  Hf10  1  0.30206052  0.70677414  0.09750377  1
  Hf  Hf11  1  0.39280996  -0.00015382  0.80329205  1
  Hf  Hf12  1  0.60223541  0.59519416  0.79422770  1
  Hf  Hf13  1  0.60062012  0.80067826  0.19907436  1
  Hf  Hf14  1  0.89402068  0.10294125  0.49808107  1
  Hf  Hf15  1  0.40176720  0.00395231  0.60241973  1
  Hf  Hf16  1  0.59905977  0.59337017  0.00637963  1
  Hf  Hf17  1  0.10349105  0.30616958  0.30401868  1
  Hf  Hf18  1  0.09960378  0.30167995  0.90196656  1
  Hf  Hf19  1  0.00529918  0.19600389  0.20151831  1
  Hf  Hf20  1  0.70112045  0.09893928  0.69858974  1
  Hf  Hf21  1  0.70123041  0.90929722  0.49229428  1
  Hf  Hf22  1  0.10246112  0.90142041  0.70508569  1
  Hf  Hf23  1  0.81870273  0.59689817  0.79663221  1
  Hf  Hf24  1  0.60410278  0.18507767  0.20713863  1
  Hf  Hf25  1  0.40850735  0.40384875  0.20466776  1
  Hf  Hf26  1  0.41202627  0.19730022  0.39243935  1
  Hf  Hf27  1  0.18899292  0.60176573  0.00005740  1
  Hf  Hf28  1  0.19394164  0.79501097  0.19403040  1
  Hf  Hf29  1  0.60483961  0.20326496  0.80396159  1
  Hf  Hf30  1  0.00347302  0.79191260  0.00054948  1
  Hf  Hf31  1  0.39713565  0.00621390  0.39133400  1
  Hf  Hf32  1  0.29335871  0.10318350  0.69806875  1
  Hf  Hf33  1  0.89916566  0.10247820  0.09760496  1
  Hf  Hf34  1  0.80879283  0.59487450  -0.00387857  1
  Hf  Hf35  1  0.79327822  0.40364813  0.19446588  1
  Hf  Hf36  1  0.38872970  0.80874958  0.59698517  1
  Hf  Hf37  1  0.30368494  0.30886801  0.50457127  1
  Hf  Hf38  1  0.09131464  0.30100208  0.70786528  1
  Hf  Hf39  1  0.50235938  0.69644506  0.49017831  1
  Hf  Hf40  1  0.50042441  0.28513846  0.09660084  1
  Hf  Hf41  1  0.50619681  0.91036750  0.49341825  1
  Hf  Hf42  1  0.70385506  0.90998257  0.70246554  1
  Hf  Hf43  1  0.40400199  0.18674014  0.80260379  1
  Hf  Hf44  1  0.19756003  0.40115528  0.00491564  1
  Hf  Hf45  1  -0.01265987  0.40708790  0.41281246  1
  Hf  Hf46  1  0.19242709  0.59051723  0.80141357  1
  Hf  Hf47  1  0.30016627  0.48988462  0.89066350  1
  Hf  Hf48  1  0.49683547  0.90488538  0.90411648  1
  Hf  Hf49  1  0.49465287  0.30769511  0.69324674  1
  Zr  Zr50  1  0.49713356  0.49805192  0.50031388  1
  Zr  Zr51  1  0.30242249  0.29627851  0.90316110  1
  Zr  Zr52  1  0.90040300  0.91207078  0.70536516  1
  Zr  Zr53  1  0.29973607  0.30349333  0.70427730  1
  Zr  Zr54  1  0.29177172  0.70111736  0.70130107  1
  Zr  Zr55  1  0.80353080  0.20537040  -0.00930011  1
  Zr  Zr56  1  0.60431677  0.00290275  0.19982414  1
  Zr  Zr57  1  0.81021737  0.79455170  0.80166485  1
  Zr  Zr58  1  0.30722105  0.48684603  0.69826119  1
  Zr  Zr59  1  0.09103233  0.89188458  0.49374883  1
  Zr  Zr60  1  0.39793659  0.59812829  0.60113999  1
  Zr  Zr61  1  0.89883581  0.89386228  0.10928505  1
  Zr  Zr62  1  0.60993082  0.40038876  0.79352711  1
  Zr  Zr63  1  0.19803549  -0.00338892  0.59281666  1
  Zr  Zr64  1  0.70549400  0.69954680  0.90337627  1
  Zr  Zr65  1  0.29824557  0.30358474  0.30122622  1
  Zr  Zr66  1  0.79254265  0.39693115  0.40245514  1
  Zr  Zr67  1  0.39214273  0.00905210  0.19749094  1
  Zr  Zr68  1  0.49959477  0.29744526  0.90398102  1
  Zr  Zr69  1  0.61063148  0.00366164  0.00439598  1
  Zr  Zr70  1  0.09616112  0.89413250  0.29853716  1
  Zr  Zr71  1  0.50628676  0.90970445  0.69806086  1
  Zr  Zr72  1  0.60219950  0.40762050  0.19557755  1
  Zr  Zr73  1  0.19273033  0.19558345  0.40253134  1
  Zr  Zr74  1  -0.00844133  0.80134808  0.60208088  1
  Zr  Zr75  1  0.10360002  0.70256723  0.70131077  1
  Zr  Zr76  1  0.30131665  0.10571409  0.49952926  1
  Zr  Zr77  1  0.89485151  0.90155849  0.91280921  1
  Zr  Zr78  1  0.60625376  0.40545759  0.39877315  1
  Zr  Zr79  1  -0.00643854  0.59456575  0.61184031  1
  Zr  Zr80  1  0.70217851  0.69429611  0.49656076  1
  Zr  Zr81  1  0.79542959  0.01019095  0.20814741  1
  Zr  Zr82  1  0.72126059  0.50131871  0.67987119  1
  Zr  Zr83  1  0.81047827  0.39056197  0.79497052  1
  Zr  Zr84  1  -0.01507479  0.19456084  0.80788543  1
  Zr  Zr85  1  0.00428795  0.00858001  0.20677171  1
  Zr  Zr86  1  0.18515858  0.40550620  0.60046824  1
  Zr  Zr87  1  0.60396418  0.80298671  0.59589181  1
  Zr  Zr88  1  0.40843753  0.40706196  0.00943507  1
  Zr  Zr89  1  0.60152103  0.80380641  0.80449407  1
  Zr  Zr90  1  0.20258927  0.79133063  0.39765070  1
  Zr  Zr91  1  0.89888681  0.29972630  0.29776126  1
  Zr  Zr92  1  0.48672574  0.89985714  0.10241897  1
  Zr  Zr93  1  0.50248801  0.70053783  0.69722390  1
  Zr  Zr94  1  0.19814092  0.40367355  0.19717555  1
  Zr  Zr95  1  0.00138970  0.60415332  0.19363218  1
  Zr  Zr96  1  0.40637475  0.60063400  -0.00554476  1
  Zr  Zr97  1  0.60958731  0.40374080  0.00231872  1
  Zr  Zr98  1  0.70172438  0.69756163  0.29751898  1
  Zr  Zr99  1  0.89867468  0.70019061  0.48943100  1
  Ta  Ta100  1  0.59665602  0.01296388  0.80456236  1
  Ta  Ta101  1  0.49894746  0.69999403  0.29741617  1
  Ta  Ta102  1  0.19245226  0.00506276  0.39108240  1
  Ta  Ta103  1  0.29596805  0.70310257  0.89737781  1
  Ta  Ta104  1  0.30132214  0.89694700  0.29162546  1
  Ta  Ta105  1  0.40078557  0.80239440  0.39772332  1
  Ta  Ta106  1  0.40494839  0.60015712  0.79988071  1
  Ta  Ta107  1  -0.00335134  0.00401128  0.39882719  1
  Ta  Ta108  1  0.39146388  0.80508267  0.80195976  1
  Ta  Ta109  1  0.49720322  0.89829516  0.29893421  1
  Ta  Ta110  1  0.00017653  0.79811714  0.80717694  1
  Ta  Ta111  1  0.50115781  0.51610622  0.30241743  1
  Ta  Ta112  1  0.00288713  0.19933088  0.00269060  1
  Ta  Ta113  1  0.19943444  0.19450336  0.80592503  1
  Ta  Ta114  1  -0.00487321  0.00472837  0.59289988  1
  Ta  Ta115  1  0.89656007  0.29554727  0.50673735  1
  Ta  Ta116  1  0.30070983  0.28602454  0.10145532  1
  Ta  Ta117  1  0.49559113  0.10415523  0.09152212  1
  Ta  Ta118  1  0.70962784  0.49597008  0.89841949  1
  Ta  Ta119  1  0.70969865  0.70111118  0.10310248  1
  Ta  Ta120  1  0.10588486  0.10074271  0.90862349  1
  Ta  Ta121  1  0.80510239  0.80578423  0.59658285  1
  Ta  Ta122  1  0.90590702  0.49390089  0.09332236  1
  Ta  Ta123  1  0.70488072  0.10593048  0.89813148  1
  Ta  Ta124  1  0.69764783  0.29262772  0.29937120  1
  Ta  Ta125  1  0.20350603  0.00008004  0.80977683  1
  Ta  Ta126  1  0.51369966  0.10244953  0.50039188  1
  Ta  Ta127  1  0.60775287  0.39794305  0.59470376  1
  Ta  Ta128  1  0.00301272  0.00153014  0.81330936  1
  Ta  Ta129  1  0.09088038  0.30352544  0.50237880  1
  Ta  Ta130  1  0.87718909  0.49591070  0.52592075  1
  Ta  Ta131  1  0.70042727  0.29041174  0.09717404  1
  Ta  Ta132  1  0.89331189  0.70118746  0.10010843  1
  Ta  Ta133  1  0.09277763  0.69133792  0.49299434  1
  Ta  Ta134  1  0.70573186  0.89625721  0.30196278  1
  Ta  Ta135  1  0.19713664  0.59842780  0.40170523  1
  Ta  Ta136  1  0.79558154  0.19524449  0.20140130  1
  Ta  Ta137  1  0.90870648  0.31074108  0.90660346  1
  Ta  Ta138  1  0.89758532  0.89102359  0.30788152  1
  Ta  Ta139  1  0.59853283  0.80217517  0.39265870  1
  Ta  Ta140  1  0.18641438  0.20171126  0.59741868  1
  Ta  Ta141  1  0.10535271  0.70540939  0.89642737  1
  Ta  Ta142  1  0.38958313  0.80610485  -0.00411784  1
  Ta  Ta143  1  0.00466749  0.00735037  -0.00072270  1
  Ta  Ta144  1  0.80314296  0.00279040  0.59335287  1
  Ta  Ta145  1  0.80014642  0.19871396  0.60271721  1
  Ta  Ta146  1  0.29618237  0.49476794  0.49247320  1
  Ta  Ta147  1  0.49059458  0.69885870  0.11075405  1
  Ta  Ta148  1  0.71397941  0.89052248  0.09885678  1
  Ta  Ta149  1  0.70924004  0.69946529  0.69277465  1
  Ti  Ti150  1  0.20979966  -0.00210464  -0.00308635  1
  Ti  Ti151  1  0.20773930  0.81268802  0.80693239  1
  Ti  Ti152  1  0.29575585  0.11045915  0.09246245  1
  Ti  Ti153  1  0.60426631  0.59222923  0.59734801  1
  Ti  Ti154  1  0.39591182  0.59944154  0.39948078  1
  Ti  Ti155  1  0.10468326  0.90060254  0.90437228  1
  Ti  Ti156  1  0.10597954  0.29205269  0.09866821  1
  Ti  Ti157  1  0.20351298  0.00212547  0.19676131  1
  Ti  Ti158  1  0.50078656  0.49513837  0.88790783  1
  Ti  Ti159  1  0.11382126  0.10544883  0.09668474  1
  Ti  Ti160  1  0.08402259  0.48802315  0.89947435  1
  Ti  Ti161  1  0.20324836  0.80211815  0.59501823  1
  Ti  Ti162  1  0.70700861  0.29355141  0.69657998  1
  Ti  Ti163  1  0.59998317  0.19990360  0.60090023  1
  Ti  Ti164  1  0.40720060  0.19674942  0.59941987  1
  Ti  Ti165  1  0.49433290  0.70395239  0.89823290  1
  Ti  Ti166  1  0.38519933  0.00287500  -0.00271702  1
  Ti  Ti167  1  0.90165484  0.30272342  0.09730038  1
  Ti  Ti168  1  0.80660591  0.01374548  0.81132957  1
  Ti  Ti169  1  0.60368224  0.59545602  0.19575048  1
  Ti  Ti170  1  0.29629335  0.69387839  0.49890844  1
  Ti  Ti171  1  -0.00290568  0.19757113  0.59962960  1
  Ti  Ti172  1  0.08916979  0.49804768  0.09490774  1
  Ti  Ti173  1  0.89549897  0.10170606  0.70142283  1
  Ti  Ti174  1  0.40324538  0.19476414  0.20470355  1
  Ti  Ti175  1  0.70610414  0.90430568  0.90298614  1
  Ti  Ti176  1  0.80051020  0.40174624  -0.00005538  1
  Ti  Ti177  1  0.79426888  0.19535052  0.39486026  1
  Ti  Ti178  1  -0.01426023  0.39672991  0.60932574  1
  Ti  Ti179  1  -0.00635571  0.60119406  0.80594356  1
  Ti  Ti180  1  0.50351460  0.29824791  0.50086885  1
  Ti  Ti181  1  0.08927217  0.48979269  0.71320975  1
  Ti  Ti182  1  0.80483585  0.00372455  0.39601161  1
  Ti  Ti183  1  0.28767134  0.10691589  0.29066582  1
  Ti  Ti184  1  0.19545157  0.59511339  0.59608280  1
  Ti  Ti185  1  0.40566902  0.40017080  0.39632815  1
  Ti  Ti186  1  0.09281392  0.50248712  0.49904247  1
  Ti  Ti187  1  0.00032492  0.39766950  0.19317828  1
  Ti  Ti188  1  0.69549739  0.10193004  0.49740147  1
  Ti  Ti189  1  0.50967785  0.29722114  0.30204140  1
  Ti  Ti190  1  -0.00205787  0.60148192  -0.00705695  1
  Ti  Ti191  1  0.79586839  0.58804180  0.19354964  1
  Ti  Ti192  1  0.90452722  0.49988281  0.29241642  1
  Ti  Ti193  1  0.69900951  0.28990177  0.50004938  1
  Ti  Ti194  1  0.60123618  0.01129855  0.38559609  1
  Ti  Ti195  1  0.50125870  0.10339720  0.91438376  1
  Ti  Ti196  1  0.00665495  0.78836763  0.19996945  1
  Ti  Ti197  1  0.79866156  0.00670617  0.00225973  1
  Ti  Ti198  1  0.29920484  0.50006184  0.30776127  1
  Ti  Ti199  1  0.29691593  0.90273413  0.48711136  1
  Mo  Mo200  1  0.70829509  0.50478103  0.09598432  1
  Mo  Mo201  1  0.00107289  0.39488983  0.01122839  1
  Mo  Mo202  1  0.70242421  0.10401907  0.09039377  1
  Mo  Mo203  1  0.29470138  0.09675312  0.90519664  1
  Mo  Mo204  1  0.69395624  0.50067922  0.29289165  1
  Mo  Mo205  1  0.89452126  0.09892985  0.30327579  1
  Mo  Mo206  1  0.09683792  0.69838217  0.08795646  1
  Mo  Mo207  1  0.20053452  0.19563763  0.19467342  1
  Mo  Mo208  1  0.90040239  0.29314203  0.69501171  1
  Mo  Mo209  1  -0.00391574  0.79712081  0.39789693  1
  Mo  Mo210  1  0.91277170  0.69497274  0.90183212  1
  Mo  Mo211  1  0.39940584  0.80335255  0.20063222  1
  Mo  Mo212  1  0.39564657  0.18901000  0.00236114  1
  Mo  Mo213  1  0.70978679  0.30147411  0.90195850  1
  Mo  Mo214  1  -0.00653559  0.40438397  0.80254964  1
  Mo  Mo215  1  0.20079068  0.80175112  -0.00629114  1
  Mo  Mo216  1  0.69693824  0.49910283  0.50515625  1
  Mo  Mo217  1  0.90178166  0.70537551  0.70345115  1
  Mo  Mo218  1  0.89407770  0.90678490  0.49418096  1
  Mo  Mo219  1  0.50663273  0.10650348  0.69253265  1
  Mo  Mo220  1  0.29342411  0.90400413  0.09796354  1
  Mo  Mo221  1  0.60652580  0.01168692  0.59730980  1
  Mo  Mo222  1  0.29334925  0.89910641  0.70608653  1
  Mo  Mo223  1  0.40902521  0.39638276  0.59035041  1
  Mo  Mo224  1  0.90684024  0.49349353  0.70032509  1
  Mo  Mo225  1  0.80092545  0.79432791  0.00330170  1
  Mo  Mo226  1  0.40271453  0.59994899  0.20615717  1
  Mo  Mo227  1  0.09157312  0.09985072  0.50238458  1
  Mo  Mo228  1  0.50205246  0.51314488  0.11194828  1
  Mo  Mo229  1  0.80019851  0.79834222  0.20173619  1
  Mo  Mo230  1  0.50379652  0.49674427  0.69692242  1
  Mo  Mo231  1  0.08659749  0.69573968  0.31782999  1
  Mo  Mo232  1  0.60802423  0.19699790  0.00074895  1
  Mo  Mo233  1  0.90209237  0.09698479  0.90494951  1
  Mo  Mo234  1  0.80052298  0.20013352  0.79866398  1
  Mo  Mo235  1  0.79775622  0.81007523  0.39922265  1
  Mo  Mo236  1  0.29626176  0.89914193  0.90431808  1
  Mo  Mo237  1  0.19454317  0.40755407  0.40929875  1
  Mo  Mo238  1  0.90861540  0.49373494  0.90396438  1
  Mo  Mo239  1  0.18464966  0.39732332  0.80338399  1
  Mo  Mo240  1  0.79756657  0.37634903  0.59869734  1
  Mo  Mo241  1  0.70245420  0.10114706  0.31493600  1
  Mo  Mo242  1  0.10491984  0.09468808  0.29671004  1
  Mo  Mo243  1  0.50227987  0.09887429  0.30146856  1
  Mo  Mo244  1  0.41489138  0.40830232  0.79361448  1
  Mo  Mo245  1  0.80561235  0.61672544  0.60246418  1
  Mo  Mo246  1  0.19863010  0.19782586  0.00230123  1
  Mo  Mo247  1  0.60287895  0.20165078  0.40416721  1
  Mo  Mo248  1  -0.00677291  0.59177473  0.40674685  1
  Mo  Mo249  1  0.59914251  0.60217356  0.39251538  1
