# generated using pymatgen
data_HfZrTaTiMo
_symmetry_space_group_name_H-M   'P 1'
_cell_length_a   16.88633695
_cell_length_b   16.89336708
_cell_length_c   16.88998270
_cell_angle_alpha   89.96221581
_cell_angle_beta   90.03638806
_cell_angle_gamma   90.00838971
_symmetry_Int_Tables_number   1
_chemical_formula_structural   HfZrTaTiMo
_chemical_formula_sum   'Hf50 Zr50 Ta50 Ti50 Mo50'
_cell_volume   4818.15412269
_cell_formula_units_Z   50
loop_
 _symmetry_equiv_pos_site_id
 _symmetry_equiv_pos_as_xyz
  1  'x, y, z'
loop_
 _atom_site_type_symbol
 _atom_site_label
 _atom_site_symmetry_multiplicity
 _atom_site_fract_x
 _atom_site_fract_y
 _atom_site_fract_z
 _atom_site_occupancy
  Hf  Hf0  1  0.39970872  0.60014519  0.60248342  1
  Hf  Hf1  1  0.00744640  0.40455750  0.19761740  1
  Hf  Hf2  1  0.89205512  0.50462608  0.10079412  1
  Hf  Hf3  1  0.49784621  0.89004883  0.52456485  1
  Hf  Hf4  1  0.70127118  0.70771737  0.50332817  1
  Hf  Hf5  1  0.79556056  0.59967054  0.79651958  1
  Hf  Hf6  1  0.89844414  0.89092651  0.49703197  1
  Hf  Hf7  1  0.49887038  0.30710163  0.90357052  1
  Hf  Hf8  1  0.90004009  0.70294579  0.50124305  1
  Hf  Hf9  1  0.19943582  0.40489138  0.41412294  1
  Hf  Hf10  1  0.39774549  0.80004510  0.39730341  1
  Hf  Hf11  1  0.20503709  0.40897460  0.20129436  1
  Hf  Hf12  1  0.29633416  0.89533255  0.10105110  1
  Hf  Hf13  1  0.30332148  0.09494184  0.50972760  1
  Hf  Hf14  1  0.59147878  0.80348392  0.39276275  1
  Hf  Hf15  1  0.41023693  0.18287986  0.40141083  1
  Hf  Hf16  1  0.49267396  0.68967100  0.29844337  1
  Hf  Hf17  1  0.79845091  0.20118976  -0.00109442  1
  Hf  Hf18  1  0.80056093  -0.00257939  0.00892046  1
  Hf  Hf19  1  0.80117279  0.00040355  0.19867625  1
  Hf  Hf20  1  0.49880055  0.29764713  0.69158272  1
  Hf  Hf21  1  0.90944781  0.08892158  0.70312418  1
  Hf  Hf22  1  0.62078375  0.21278983  0.00126044  1
  Hf  Hf23  1  0.29346384  0.89034206  0.50856933  1
  Hf  Hf24  1  0.30299363  0.89536378  0.90244138  1
  Hf  Hf25  1  0.01199253  0.19518771  0.40165735  1
  Hf  Hf26  1  0.69570514  0.49827707  0.69932542  1
  Hf  Hf27  1  0.39207207  0.18890071  0.19268342  1
  Hf  Hf28  1  0.00652054  0.40193477  0.40969595  1
  Hf  Hf29  1  0.89793257  0.08535714  0.88789901  1
  Hf  Hf30  1  0.29877728  0.29955356  0.70428364  1
  Hf  Hf31  1  0.00030920  0.20489678  -0.00761785  1
  Hf  Hf32  1  0.19197343  0.79574610  0.80180785  1
  Hf  Hf33  1  0.20213111  0.00558365  0.20138757  1
  Hf  Hf34  1  -0.00164827  -0.00758553  -0.00014037  1
  Hf  Hf35  1  0.49633291  0.50298395  0.29779204  1
  Hf  Hf36  1  0.78156464  0.39347304  -0.00328495  1
  Hf  Hf37  1  0.29965027  0.10834234  0.70282128  1
  Hf  Hf38  1  0.49844958  0.91130605  0.10580282  1
  Hf  Hf39  1  0.79555835  0.19376265  0.59743158  1
  Hf  Hf40  1  0.29845108  0.69314694  0.29220749  1
  Hf  Hf41  1  0.89889138  0.50539763  0.29651286  1
  Hf  Hf42  1  0.09851635  0.52300967  0.88034043  1
  Hf  Hf43  1  0.69961373  0.71025805  0.88890196  1
  Hf  Hf44  1  0.79029966  -0.00508675  0.59695610  1
  Hf  Hf45  1  0.10431094  0.51714339  0.30683069  1
  Hf  Hf46  1  0.10352388  0.09796191  0.89202288  1
  Hf  Hf47  1  0.89366278  0.31234935  0.70287849  1
  Hf  Hf48  1  0.50816369  0.29226074  0.50602377  1
  Hf  Hf49  1  0.10354360  0.70303089  0.50189738  1
  Zr  Zr50  1  0.10403134  0.30001743  0.09512706  1
  Zr  Zr51  1  0.00941203  0.61096940  0.19731195  1
  Zr  Zr52  1  0.10564254  0.29911361  0.30394872  1
  Zr  Zr53  1  0.50156990  0.30049828  0.09869906  1
  Zr  Zr54  1  0.89302360  0.29978377  0.29787053  1
  Zr  Zr55  1  0.70012672  0.88915009  0.50405350  1
  Zr  Zr56  1  0.10075621  0.89573781  0.50073142  1
  Zr  Zr57  1  0.50572484  0.09945094  0.90751194  1
  Zr  Zr58  1  0.49312636  0.71008609  0.89103461  1
  Zr  Zr59  1  0.51079107  0.09136242  0.28404766  1
  Zr  Zr60  1  0.19601415  0.40554459  -0.01126634  1
  Zr  Zr61  1  0.00594626  0.21221134  0.79973194  1
  Zr  Zr62  1  0.00518832  0.79804237  -0.00184738  1
  Zr  Zr63  1  0.59634025  0.00198574  0.40917468  1
  Zr  Zr64  1  0.59939893  0.20066175  0.80100680  1
  Zr  Zr65  1  0.40010906  0.60024100  -0.00289688  1
  Zr  Zr66  1  0.59297537  0.80242222  0.00693289  1
  Zr  Zr67  1  0.31162673  0.89004518  0.69571817  1
  Zr  Zr68  1  0.90182378  0.49993646  0.89832492  1
  Zr  Zr69  1  0.79632035  0.59790280  0.40561602  1
  Zr  Zr70  1  0.09734770  0.67244438  0.71121193  1
  Zr  Zr71  1  0.20222653  0.18748162  0.20098477  1
  Zr  Zr72  1  0.69548763  0.09071776  0.70112768  1
  Zr  Zr73  1  0.51148005  0.29413445  0.29935050  1
  Zr  Zr74  1  0.89991394  0.29497632  0.50318366  1
  Zr  Zr75  1  0.40421307  0.00212163  0.80283019  1
  Zr  Zr76  1  0.69125111  0.30888926  0.68920111  1
  Zr  Zr77  1  0.00343984  0.79571440  0.61260771  1
  Zr  Zr78  1  0.89987905  0.30663948  0.10080939  1
  Zr  Zr79  1  0.39818876  0.40351890  0.39974138  1
  Zr  Zr80  1  0.49839629  0.71741442  0.69824382  1
  Zr  Zr81  1  0.89676069  0.70215679  0.29446016  1
  Zr  Zr82  1  0.80679839  0.80752066  0.00559353  1
  Zr  Zr83  1  0.69985938  0.89975980  0.89207958  1
  Zr  Zr84  1  0.90859436  0.08878226  0.50426780  1
  Zr  Zr85  1  0.89398532  0.90060826  0.70747062  1
  Zr  Zr86  1  0.69020055  0.29625517  0.49961969  1
  Zr  Zr87  1  0.60020787  0.60022225  -0.00262239  1
  Zr  Zr88  1  0.70559438  0.70202925  0.11033021  1
  Zr  Zr89  1  0.40313978  -0.00869028  0.39459215  1
  Zr  Zr90  1  0.69973360  0.49743690  0.29205797  1
  Zr  Zr91  1  0.30202321  0.29546665  0.30353847  1
  Zr  Zr92  1  0.79888599  0.40325101  0.40778044  1
  Zr  Zr93  1  0.39699552  0.40903639  0.59988877  1
  Zr  Zr94  1  0.29818406  0.51277210  0.10162188  1
  Zr  Zr95  1  0.30276738  0.28986079  0.50897693  1
  Zr  Zr96  1  0.01087833  0.40214032  0.60365074  1
  Zr  Zr97  1  0.79353687  0.20723611  0.80795211  1
  Zr  Zr98  1  0.89803972  0.09931651  0.30268047  1
  Zr  Zr99  1  0.20009047  0.00307862  0.39138658  1
  Ta  Ta100  1  0.29597236  0.70590092  0.50595112  1
  Ta  Ta101  1  0.89938828  0.31600702  0.89405720  1
  Ta  Ta102  1  0.20379655  0.60784012  0.40314477  1
  Ta  Ta103  1  0.59683826  0.60167129  0.79475590  1
  Ta  Ta104  1  0.70209848  0.70449437  0.29730683  1
  Ta  Ta105  1  0.79445296  0.19740308  0.19140629  1
  Ta  Ta106  1  0.30026814  0.70143940  0.89427209  1
  Ta  Ta107  1  0.69757599  0.49843647  0.10244683  1
  Ta  Ta108  1  0.69825577  0.10029094  0.30000118  1
  Ta  Ta109  1  0.00189849  0.79423445  0.80698412  1
  Ta  Ta110  1  0.09772352  0.52046954  0.50805661  1
  Ta  Ta111  1  0.18996479  0.19680341  0.60172337  1
  Ta  Ta112  1  0.69784181  0.08405976  0.90197280  1
  Ta  Ta113  1  0.59260708  -0.00810407  0.79285809  1
  Ta  Ta114  1  0.39763089  0.40168042  0.19501521  1
  Ta  Ta115  1  0.09941218  0.09576466  0.09281229  1
  Ta  Ta116  1  0.49790172  0.69719151  0.50036263  1
  Ta  Ta117  1  0.50532170  0.50983973  0.49548040  1
  Ta  Ta118  1  0.19730892  0.79474151  -0.00062559  1
  Ta  Ta119  1  0.39787325  0.40665336  0.80340747  1
  Ta  Ta120  1  0.89943417  0.69904364  0.89672303  1
  Ta  Ta121  1  0.69605814  0.90047974  0.29508701  1
  Ta  Ta122  1  0.60141583  0.60527855  0.60245185  1
  Ta  Ta123  1  0.39523292  0.40150856  -0.00350108  1
  Ta  Ta124  1  0.00448377  0.19017909  0.19982120  1
  Ta  Ta125  1  0.59923997  0.60085599  0.19767360  1
  Ta  Ta126  1  0.20186148  0.19982172  -0.00728266  1
  Ta  Ta127  1  0.90559682  0.10043387  0.10037119  1
  Ta  Ta128  1  0.00157989  0.79736083  0.38651233  1
  Ta  Ta129  1  0.80259304  0.41574524  0.59702689  1
  Ta  Ta130  1  0.30012694  0.30097648  0.09231735  1
  Ta  Ta131  1  0.29774291  0.29817289  0.89419708  1
  Ta  Ta132  1  0.19756773  -0.00210889  0.60834674  1
  Ta  Ta133  1  0.29154170  0.50199932  0.70578390  1
  Ta  Ta134  1  0.89771105  0.69883318  0.10142077  1
  Ta  Ta135  1  0.20115928  -0.00251222  0.79764881  1
  Ta  Ta136  1  0.50308948  0.49583570  0.10052574  1
  Ta  Ta137  1  0.69948698  0.29308513  0.29882467  1
  Ta  Ta138  1  0.79501418  -0.00496211  0.39648959  1
  Ta  Ta139  1  0.39132564  0.19688689  -0.00078753  1
  Ta  Ta140  1  0.09742200  0.09041725  0.50867284  1
  Ta  Ta141  1  0.09735289  0.89204869  0.29229487  1
  Ta  Ta142  1  0.00531803  0.00109543  0.20276704  1
  Ta  Ta143  1  0.79937479  0.60114098  0.60430601  1
  Ta  Ta144  1  0.39526453  0.00669612  0.00463200  1
  Ta  Ta145  1  0.30085849  0.70095994  0.70301775  1
  Ta  Ta146  1  0.50936963  0.09592003  0.09480806  1
  Ta  Ta147  1  0.10413297  0.89933407  0.10241155  1
  Ta  Ta148  1  0.09750163  0.09317650  0.70162887  1
  Ta  Ta149  1  0.79654273  0.60180935  -0.00217915  1
  Ti  Ti150  1  0.00868698  0.20358778  0.60163581  1
  Ti  Ti151  1  0.19653559  0.40279061  0.79996509  1
  Ti  Ti152  1  0.01137673  0.40390912  0.79578256  1
  Ti  Ti153  1  0.29915064  0.51239998  0.49953359  1
  Ti  Ti154  1  0.39788253  0.79902537  0.00459710  1
  Ti  Ti155  1  0.41321330  0.00905309  0.61044798  1
  Ti  Ti156  1  0.60047133  0.40173719  0.40015629  1
  Ti  Ti157  1  0.29913085  0.50410293  0.89379617  1
  Ti  Ti158  1  0.78997714  0.18864437  0.40420302  1
  Ti  Ti159  1  0.20373315  0.59857169  0.60495049  1
  Ti  Ti160  1  0.29922136  0.70019982  0.10387571  1
  Ti  Ti161  1  0.20479628  0.00253425  -0.00069164  1
  Ti  Ti162  1  0.69274112  0.88203334  0.70076566  1
  Ti  Ti163  1  0.40329393  0.20109176  0.80279809  1
  Ti  Ti164  1  0.09884019  0.90326742  0.70196654  1
  Ti  Ti165  1  0.59691036  0.40304585  0.80299276  1
  Ti  Ti166  1  0.11092070  0.29822110  0.70435288  1
  Ti  Ti167  1  0.29247211  0.89008295  0.29625726  1
  Ti  Ti168  1  0.00116015  -0.00785473  0.39063230  1
  Ti  Ti169  1  0.89632970  0.89764843  0.88582815  1
  Ti  Ti170  1  0.10437850  0.51258049  0.09430785  1
  Ti  Ti171  1  0.68829554  0.90688938  0.10517066  1
  Ti  Ti172  1  0.19148129  0.79274071  0.20033010  1
  Ti  Ti173  1  0.49177009  0.69530057  0.10876045  1
  Ti  Ti174  1  0.10321688  0.90335230  0.89964710  1
  Ti  Ti175  1  0.19762663  0.18955510  0.40444610  1
  Ti  Ti176  1  0.19361422  0.40277681  0.59945369  1
  Ti  Ti177  1  0.80333181  0.81045019  0.20427618  1
  Ti  Ti178  1  0.00046568  0.60893597  -0.00296439  1
  Ti  Ti179  1  0.60261250  0.60296572  0.39924311  1
  Ti  Ti180  1  0.91430039  0.89459454  0.11574895  1
  Ti  Ti181  1  0.89318709  0.70153982  0.70361922  1
  Ti  Ti182  1  0.50215981  0.49748420  0.90110397  1
  Ti  Ti183  1  0.50367039  0.49825124  0.69894681  1
  Ti  Ti184  1  0.00903176  0.40392653  -0.00682827  1
  Ti  Ti185  1  0.40175256  0.59456526  0.79698100  1
  Ti  Ti186  1  0.30528677  0.51376775  0.29901694  1
  Ti  Ti187  1  0.29571168  0.10460455  0.89613245  1
  Ti  Ti188  1  0.91209245  0.51378350  0.50430772  1
  Ti  Ti189  1  0.40337975  0.80393553  0.20276141  1
  Ti  Ti190  1  0.90840590  0.50553223  0.70167312  1
  Ti  Ti191  1  0.61358033  0.19451201  0.19018661  1
  Ti  Ti192  1  0.10366342  0.70327647  0.10118127  1
  Ti  Ti193  1  0.49975323  0.89896480  0.90078517  1
  Ti  Ti194  1  0.19725233  0.61382872  -0.00718865  1
  Ti  Ti195  1  0.60357939  0.39690926  0.19405163  1
  Ti  Ti196  1  0.38813113  0.00422831  0.20180803  1
  Ti  Ti197  1  0.68986849  0.50144925  0.50627467  1
  Ti  Ti198  1  0.69335392  0.49732555  0.89673939  1
  Ti  Ti199  1  0.59238766  0.80213984  0.20403528  1
  Mo  Mo200  1  0.00824944  -0.00512366  0.60498799  1
  Mo  Mo201  1  0.80058800  0.80663572  0.38221995  1
  Mo  Mo202  1  0.79755145  0.40652742  0.79705026  1
  Mo  Mo203  1  0.49897231  0.89661524  0.28449360  1
  Mo  Mo204  1  0.79731110  0.79022005  0.61498606  1
  Mo  Mo205  1  0.21836247  0.59981490  0.80284836  1
  Mo  Mo206  1  0.79471155  0.60005381  0.19326748  1
  Mo  Mo207  1  0.78861610  -0.00746023  0.79795293  1
  Mo  Mo208  1  0.30166479  0.09633269  0.30802745  1
  Mo  Mo209  1  0.59488748  0.41844305  0.59439512  1
  Mo  Mo210  1  -0.01619601  0.60180753  0.79764875  1
  Mo  Mo211  1  0.69522021  0.09644238  0.49549686  1
  Mo  Mo212  1  0.61007034  0.00123951  0.19545312  1
  Mo  Mo213  1  0.40436950  0.19247514  0.60323327  1
  Mo  Mo214  1  0.39241815  0.60162654  0.40945757  1
  Mo  Mo215  1  0.10619128  0.70699218  0.30456925  1
  Mo  Mo216  1  0.01273778  -0.01427831  0.80250776  1
  Mo  Mo217  1  0.20073471  0.20038675  0.79875100  1
  Mo  Mo218  1  0.40455523  0.59761219  0.19346735  1
  Mo  Mo219  1  0.80338704  0.79590010  0.79772495  1
  Mo  Mo220  1  0.70208144  0.09888452  0.09959539  1
  Mo  Mo221  1  0.00443817  0.60664145  0.40569787  1
  Mo  Mo222  1  0.20138899  0.60803991  0.19684924  1
  Mo  Mo223  1  0.20047321  0.79552613  0.61082567  1
  Mo  Mo224  1  0.10245742  0.30718787  0.89318362  1
  Mo  Mo225  1  0.60142681  0.79402442  0.60359686  1
  Mo  Mo226  1  0.09811637  0.69858819  0.90390740  1
  Mo  Mo227  1  0.39701676  0.79119198  0.59902029  1
  Mo  Mo228  1  0.59546732  0.17657486  0.59552319  1
  Mo  Mo229  1  0.39727478  0.80385416  0.80474097  1
  Mo  Mo230  1  0.69948162  0.30520985  0.11417091  1
  Mo  Mo231  1  0.59802062  -0.00013065  -0.00024472  1
  Mo  Mo232  1  0.69812133  0.69975215  0.69757412  1
  Mo  Mo233  1  0.50443273  0.09547212  0.51377182  1
  Mo  Mo234  1  -0.00856092  0.59884871  0.60510679  1
  Mo  Mo235  1  0.69885413  0.31867655  0.88636376  1
  Mo  Mo236  1  0.59692502  -0.00734404  0.60902418  1
  Mo  Mo237  1  0.60635866  0.19239705  0.39958540  1
  Mo  Mo238  1  0.89966225  0.89981503  0.29977962  1
  Mo  Mo239  1  0.79267669  0.39631240  0.19771262  1
  Mo  Mo240  1  0.00490564  0.80272020  0.19589976  1
  Mo  Mo241  1  0.59585553  0.40724449  -0.00132051  1
  Mo  Mo242  1  0.10670783  0.28876697  0.50672582  1
  Mo  Mo243  1  0.09689044  0.09221094  0.30264430  1
  Mo  Mo244  1  0.59621724  0.80587283  0.79612987  1
  Mo  Mo245  1  0.10735411  0.49560242  0.69748253  1
  Mo  Mo246  1  0.29649086  0.09679746  0.08670059  1
  Mo  Mo247  1  0.49981042  0.10238582  0.69917762  1
  Mo  Mo248  1  0.50482261  0.90103642  0.70288822  1
  Mo  Mo249  1  0.19918567  0.79830266  0.38977864  1
