# generated using pymatgen
data_HfZrTiNb
_symmetry_space_group_name_H-M   'P 1'
_cell_length_a   11.35852387
_cell_length_b   10.25305377
_cell_length_c   14.08829007
_cell_angle_alpha   89.71715874
_cell_angle_beta   98.79975273
_cell_angle_gamma   89.28596889
_symmetry_Int_Tables_number   1
_chemical_formula_structural   HfZrTiNb
_chemical_formula_sum   'Hf2 Zr2 Ti2 Nb2'
_cell_volume   1621.23842736
_cell_formula_units_Z   2
loop_
 _symmetry_equiv_pos_site_id
 _symmetry_equiv_pos_as_xyz
  1  'x, y, z'
loop_
 _atom_site_type_symbol
 _atom_site_label
 _atom_site_symmetry_multiplicity
 _atom_site_fract_x
 _atom_site_fract_y
 _atom_site_fract_z
 _atom_site_occupancy
  Hf  Hf0  1  0.88438462  0.04685252  0.14848251  1
  Hf  Hf1  1  0.17278429  0.74008009  0.49666537  1
  Zr  Zr2  1  0.79590209  0.91209923  0.98496218  1
  Zr  Zr3  1  0.02483296  0.98549407  1.01087442  1
  Ti  Ti4  1  0.12222805  0.56987334  0.34753594  1
  Ti  Ti5  1  0.85043596  0.16666365  0.97808185  1
  Nb  Nb6  1  0.33977197  0.63692422  0.39758614  1
  Nb  Nb7  1  0.25410452  0.49756843  0.50821159  1
