# generated using pymatgen
data_HfZrTiNb
_symmetry_space_group_name_H-M   'P 1'
_cell_length_a   5.25029950
_cell_length_b   10.87774108
_cell_length_c   5.83369313
_cell_angle_alpha   75.54760294
_cell_angle_beta   93.25678740
_cell_angle_gamma   109.49866093
_symmetry_Int_Tables_number   1
_chemical_formula_structural   HfZrTiNb
_chemical_formula_sum   'Hf2 Zr2 Ti2 Nb2'
_cell_volume   303.99628107
_cell_formula_units_Z   2
loop_
 _symmetry_equiv_pos_site_id
 _symmetry_equiv_pos_as_xyz
  1  'x, y, z'
loop_
 _atom_site_type_symbol
 _atom_site_label
 _atom_site_symmetry_multiplicity
 _atom_site_fract_x
 _atom_site_fract_y
 _atom_site_fract_z
 _atom_site_occupancy
  Hf  Hf0  1  0.39544355  0.55576035  0.84932749  1
  Hf  Hf1  1  0.44274326  0.30410167  0.76901395  1
  Zr  Zr2  1  0.90437995  0.56937956  0.59923756  1
  Zr  Zr3  1  0.41451188  0.57639971  0.33074939  1
  Ti  Ti4  1  0.46643605  0.32985537  0.26563791  1
  Ti  Ti5  1  0.90455927  0.55913530  0.09858720  1
  Nb  Nb6  1  -0.03223961  0.33637310  0.50088065  1
  Nb  Nb7  1  0.94861009  0.32455049  0.02276582  1
