# generated using pymatgen
data_HfZrTiNb
_symmetry_space_group_name_H-M   'P 1'
_cell_length_a   10.27380087
_cell_length_b   10.22179337
_cell_length_c   13.35750473
_cell_angle_alpha   74.27935696
_cell_angle_beta   119.12892004
_cell_angle_gamma   108.86582188
_symmetry_Int_Tables_number   1
_chemical_formula_structural   HfZrTiNb
_chemical_formula_sum   'Hf2 Zr2 Ti2 Nb2'
_cell_volume   1148.52926972
_cell_formula_units_Z   2
loop_
 _symmetry_equiv_pos_site_id
 _symmetry_equiv_pos_as_xyz
  1  'x, y, z'
loop_
 _atom_site_type_symbol
 _atom_site_label
 _atom_site_symmetry_multiplicity
 _atom_site_fract_x
 _atom_site_fract_y
 _atom_site_fract_z
 _atom_site_occupancy
  Hf  Hf0  1  0.11375405  0.06604081  0.20637819  1
  Hf  Hf1  1  0.86854290  0.85539790  0.08386184  1
  Zr  Zr2  1  0.21447036  -0.03540593  0.08155920  1
  Zr  Zr3  1  0.15690423  0.61047221  0.38848343  1
  Ti  Ti4  1  1.01167004  0.81244609  0.32253653  1
  Ti  Ti5  1  0.07113193  0.68230733  0.15793243  1
  Nb  Nb6  1  0.96235899  0.81468265  0.94788789  1
  Nb  Nb7  1  0.27538526  0.86450118  0.31136050  1
