# generated using pymatgen
data_HfZrTiNb
_symmetry_space_group_name_H-M   'P 1'
_cell_length_a   12.67833940
_cell_length_b   11.45884662
_cell_length_c   13.42991168
_cell_angle_alpha   85.85833468
_cell_angle_beta   90.58188324
_cell_angle_gamma   156.43845935
_symmetry_Int_Tables_number   1
_chemical_formula_structural   HfZrTiNb
_chemical_formula_sum   'Hf2 Zr2 Ti2 Nb2'
_cell_volume   770.15405403
_cell_formula_units_Z   2
loop_
 _symmetry_equiv_pos_site_id
 _symmetry_equiv_pos_as_xyz
  1  'x, y, z'
loop_
 _atom_site_type_symbol
 _atom_site_label
 _atom_site_symmetry_multiplicity
 _atom_site_fract_x
 _atom_site_fract_y
 _atom_site_fract_z
 _atom_site_occupancy
  Hf  Hf0  1  0.16646711  0.18986503  1.02543844  1
  Hf  Hf1  1  0.93800075  0.76651533  0.89823805  1
  Zr  Zr2  1  0.44608986  0.17926907  1.00457599  1
  Zr  Zr3  1  0.57478484  0.50217383  0.12170475  1
  Ti  Ti4  1  0.73073394  0.78846686  0.93376484  1
  Ti  Ti5  1  0.43146668  0.35105045  0.85302175  1
  Nb  Nb6  1  0.11756178  0.38855873  0.37039536  1
  Nb  Nb7  1  -0.01055272  0.78420847  0.10146086  1
