# generated using pymatgen
data_HfZrTiNb
_symmetry_space_group_name_H-M   'P 1'
_cell_length_a   9.97628082
_cell_length_b   11.14869326
_cell_length_c   10.53337724
_cell_angle_alpha   84.70095439
_cell_angle_beta   93.31899235
_cell_angle_gamma   105.22062066
_symmetry_Int_Tables_number   1
_chemical_formula_structural   HfZrTiNb
_chemical_formula_sum   'Hf2 Zr2 Ti2 Nb2'
_cell_volume   1124.93120628
_cell_formula_units_Z   2
loop_
 _symmetry_equiv_pos_site_id
 _symmetry_equiv_pos_as_xyz
  1  'x, y, z'
loop_
 _atom_site_type_symbol
 _atom_site_label
 _atom_site_symmetry_multiplicity
 _atom_site_fract_x
 _atom_site_fract_y
 _atom_site_fract_z
 _atom_site_occupancy
  Hf  Hf0  1  0.39604801  0.36006749  0.34735190  1
  Hf  Hf1  1  0.19750668  0.54802642  0.97955246  1
  Zr  Zr2  1  0.29727019  0.56397101  0.23690834  1
  Zr  Zr3  1  0.59051927  0.56492972  0.20995535  1
  Ti  Ti4  1  0.45265488  0.71168728  0.04571849  1
  Ti  Ti5  1  0.23340207  0.33226773  0.12368901  1
  Nb  Nb6  1  0.50162028  0.31975699  0.13806307  1
  Nb  Nb7  1  0.44208974  0.48818227  0.98256138  1
