# generated using pymatgen
data_HfZrTiNb
_symmetry_space_group_name_H-M   'P 1'
_cell_length_a   15.21059398
_cell_length_b   14.89247747
_cell_length_c   15.07725165
_cell_angle_alpha   94.10064002
_cell_angle_beta   86.70281377
_cell_angle_gamma   117.56408972
_symmetry_Int_Tables_number   1
_chemical_formula_structural   HfZrTiNb
_chemical_formula_sum   'Hf2 Zr2 Ti2 Nb2'
_cell_volume   3018.78385831
_cell_formula_units_Z   2
loop_
 _symmetry_equiv_pos_site_id
 _symmetry_equiv_pos_as_xyz
  1  'x, y, z'
loop_
 _atom_site_type_symbol
 _atom_site_label
 _atom_site_symmetry_multiplicity
 _atom_site_fract_x
 _atom_site_fract_y
 _atom_site_fract_z
 _atom_site_occupancy
  Hf  Hf0  1  0.55555556  0.77777778  0.21810000  1
  Hf  Hf1  1  0.44444444  0.22222222  0.28190000  1
  Zr  Zr2  1  0.10875613  0.55837636  0.69841223  1
  Zr  Zr3  1  0.09956256  0.27961929  1.00456870  1
  Ti  Ti4  1  0.11320760  0.55100370  0.55334955  1
  Ti  Ti5  1  0.86708664  0.11198217  0.54444338  1
  Nb  Nb6  1  0.06913550  0.39236354  0.08677912  1
  Nb  Nb7  1  0.74602712  0.11420605  0.61244702  1
