# generated using pymatgen
data_HfZrTiNb
_symmetry_space_group_name_H-M   'P 1'
_cell_length_a   13.93015745
_cell_length_b   13.81052771
_cell_length_c   13.15351409
_cell_angle_alpha   67.87434068
_cell_angle_beta   112.17438534
_cell_angle_gamma   128.15439930
_symmetry_Int_Tables_number   1
_chemical_formula_structural   HfZrTiNb
_chemical_formula_sum   'Hf2 Zr2 Ti2 Nb2'
_cell_volume   1806.57276314
_cell_formula_units_Z   2
loop_
 _symmetry_equiv_pos_site_id
 _symmetry_equiv_pos_as_xyz
  1  'x, y, z'
loop_
 _atom_site_type_symbol
 _atom_site_label
 _atom_site_symmetry_multiplicity
 _atom_site_fract_x
 _atom_site_fract_y
 _atom_site_fract_z
 _atom_site_occupancy
  Hf  Hf0  1  0.28071975  0.99600856  1.00422323  1
  Hf  Hf1  1  0.47720962  -0.02693638  0.17313110  1
  Zr  Zr2  1  0.23578347  0.05466012  0.16428455  1
  Zr  Zr3  1  0.23635699  0.83851345  0.21551243  1
  Ti  Ti4  1  0.43141346  1.03765304  0.32111284  1
  Ti  Ti5  1  0.56189080  0.44823990  0.73002563  1
  Nb  Nb6  1  0.46378308  0.17215182  0.12571916  1
  Nb  Nb7  1  0.69984393  0.58704503  0.63839105  1
