# generated using pymatgen
data_HfZrTiNb
_symmetry_space_group_name_H-M   'P 1'
_cell_length_a   14.25092986
_cell_length_b   12.16044959
_cell_length_c   15.66101976
_cell_angle_alpha   101.27068054
_cell_angle_beta   95.52413448
_cell_angle_gamma   122.57550217
_symmetry_Int_Tables_number   1
_chemical_formula_structural   HfZrTiNb
_chemical_formula_sum   'Hf2 Zr2 Ti2 Nb2'
_cell_volume   2175.26350565
_cell_formula_units_Z   2
loop_
 _symmetry_equiv_pos_site_id
 _symmetry_equiv_pos_as_xyz
  1  'x, y, z'
loop_
 _atom_site_type_symbol
 _atom_site_label
 _atom_site_symmetry_multiplicity
 _atom_site_fract_x
 _atom_site_fract_y
 _atom_site_fract_z
 _atom_site_occupancy
  Hf  Hf0  1  0.74626321  0.17450590  0.94438288  1
  Hf  Hf1  1  0.34689098  0.52489116  0.60908409  1
  Zr  Zr2  1  0.88888889  0.77777778  0.03190000  1
  Zr  Zr3  1  0.50299663  0.51575695  0.69054481  1
  Ti  Ti4  1  0.52034472  0.75230655  0.73319126  1
  Ti  Ti5  1  0.74485112  0.15850239  0.44982915  1
  Nb  Nb6  1  0.64214999  0.94883316  0.39327085  1
  Nb  Nb7  1  0.60383891  -0.02112836  0.83399696  1
