# generated using pymatgen
data_HfZrTiNb
_symmetry_space_group_name_H-M   'P 1'
_cell_length_a   15.41107752
_cell_length_b   12.58815846
_cell_length_c   16.09060522
_cell_angle_alpha   98.84773579
_cell_angle_beta   89.51797749
_cell_angle_gamma   127.03115764
_symmetry_Int_Tables_number   1
_chemical_formula_structural   HfZrTiNb
_chemical_formula_sum   'Hf2 Zr2 Ti2 Nb2'
_cell_volume   2448.21623617
_cell_formula_units_Z   2
loop_
 _symmetry_equiv_pos_site_id
 _symmetry_equiv_pos_as_xyz
  1  'x, y, z'
loop_
 _atom_site_type_symbol
 _atom_site_label
 _atom_site_symmetry_multiplicity
 _atom_site_fract_x
 _atom_site_fract_y
 _atom_site_fract_z
 _atom_site_occupancy
  Hf  Hf0  1  0.87366791  0.78216903  0.56278223  1
  Hf  Hf1  1  0.11111111  0.88888889  0.96810000  1
  Zr  Zr2  1  0.79807392  -0.08961755  0.65069809  1
  Zr  Zr3  1  0.54450208  0.77198271  0.01585625  1
  Ti  Ti4  1  0.65713725  0.66632396  0.55719289  1
  Ti  Ti5  1  0.78222793  0.86334492  0.47932986  1
  Nb  Nb6  1  0.27589000  0.05744333  0.37500000  1
  Nb  Nb7  1  0.45927759  0.72990693  0.89104068  1
