# generated using pymatgen
data_HfZrTiNb
_symmetry_space_group_name_H-M   'P 1'
_cell_length_a   9.61880159
_cell_length_b   8.27550544
_cell_length_c   14.17864978
_cell_angle_alpha   105.93440457
_cell_angle_beta   51.03837200
_cell_angle_gamma   94.91525834
_symmetry_Int_Tables_number   1
_chemical_formula_structural   HfZrTiNb
_chemical_formula_sum   'Hf2 Zr2 Ti2 Nb2'
_cell_volume   838.13854184
_cell_formula_units_Z   2
loop_
 _symmetry_equiv_pos_site_id
 _symmetry_equiv_pos_as_xyz
  1  'x, y, z'
loop_
 _atom_site_type_symbol
 _atom_site_label
 _atom_site_symmetry_multiplicity
 _atom_site_fract_x
 _atom_site_fract_y
 _atom_site_fract_z
 _atom_site_occupancy
  Hf  Hf0  1  0.87296025  0.71359279  0.75555365  1
  Hf  Hf1  1  0.17077673  0.27617757  0.38552537  1
  Zr  Zr2  1  0.88479826  0.56728074  0.50889055  1
  Zr  Zr3  1  0.57534622  0.68355862  0.77699426  1
  Ti  Ti4  1  0.57439671  0.38239895  0.66077323  1
  Ti  Ti5  1  -0.15205590  0.19151634  0.46831055  1
  Nb  Nb6  1  0.86072323  0.36809977  0.65633484  1
  Nb  Nb7  1  0.15561116  0.54148521  0.53761754  1
