# generated using pymatgen
data_HfZrTiNb
_symmetry_space_group_name_H-M   'P 1'
_cell_length_a   5.48048905
_cell_length_b   9.12306739
_cell_length_c   5.46763210
_cell_angle_alpha   104.67707635
_cell_angle_beta   80.84947919
_cell_angle_gamma   91.76772778
_symmetry_Int_Tables_number   1
_chemical_formula_structural   HfZrTiNb
_chemical_formula_sum   'Hf2 Zr2 Ti2 Nb2'
_cell_volume   261.07674162
_cell_formula_units_Z   2
loop_
 _symmetry_equiv_pos_site_id
 _symmetry_equiv_pos_as_xyz
  1  'x, y, z'
loop_
 _atom_site_type_symbol
 _atom_site_label
 _atom_site_symmetry_multiplicity
 _atom_site_fract_x
 _atom_site_fract_y
 _atom_site_fract_z
 _atom_site_occupancy
  Hf  Hf0  1  0.35544440  0.84205971  0.87569434  1
  Hf  Hf1  1  0.66921718  0.21035130  0.22610247  1
  Zr  Zr2  1  1.18429289  0.10709011  0.30700228  1
  Zr  Zr3  1  0.20271408  1.16457262  0.82329162  1
  Ti  Ti4  1  0.99635998  0.84340845  0.46039207  1
  Ti  Ti5  1  0.50528886  0.87056205  0.38740003  1
  Nb  Nb6  1  0.70297593  1.10338588  0.67270925  1
  Nb  Nb7  1  0.83192666  -0.08398677  -0.00259207  1
