# generated using pymatgen
data_HfZrTiNb
_symmetry_space_group_name_H-M   'P 1'
_cell_length_a   10.07671261
_cell_length_b   5.21194204
_cell_length_c   11.08151281
_cell_angle_alpha   99.63821475
_cell_angle_beta   92.54061188
_cell_angle_gamma   103.23425549
_symmetry_Int_Tables_number   1
_chemical_formula_structural   HfZrTiNb
_chemical_formula_sum   'Hf2 Zr2 Ti2 Nb2'
_cell_volume   556.46384524
_cell_formula_units_Z   2
loop_
 _symmetry_equiv_pos_site_id
 _symmetry_equiv_pos_as_xyz
  1  'x, y, z'
loop_
 _atom_site_type_symbol
 _atom_site_label
 _atom_site_symmetry_multiplicity
 _atom_site_fract_x
 _atom_site_fract_y
 _atom_site_fract_z
 _atom_site_occupancy
  Hf  Hf0  1  0.35317657  0.50563136  0.75800052  1
  Hf  Hf1  1  0.18126711  0.92073372  0.70679971  1
  Zr  Zr2  1  0.35650311  0.14844199  0.12221983  1
  Zr  Zr3  1  0.44553205  0.64807255  0.02137781  1
  Ti  Ti4  1  0.16553275  0.22937089  -0.05441165  1
  Ti  Ti5  1  0.06242918  0.39643994  0.74635351  1
  Nb  Nb6  1  1.18412029  0.73926449  0.94918789  1
  Nb  Nb7  1  0.41999338  0.08248728  0.87807238  1
