# generated using pymatgen
data_HfZrTiNb
_symmetry_space_group_name_H-M   'P 1'
_cell_length_a   13.23466342
_cell_length_b   11.94840201
_cell_length_c   8.73548506
_cell_angle_alpha   110.15185475
_cell_angle_beta   81.66032068
_cell_angle_gamma   132.75492271
_symmetry_Int_Tables_number   1
_chemical_formula_structural   HfZrTiNb
_chemical_formula_sum   'Hf2 Zr2 Ti2 Nb2'
_cell_volume   944.25775753
_cell_formula_units_Z   2
loop_
 _symmetry_equiv_pos_site_id
 _symmetry_equiv_pos_as_xyz
  1  'x, y, z'
loop_
 _atom_site_type_symbol
 _atom_site_label
 _atom_site_symmetry_multiplicity
 _atom_site_fract_x
 _atom_site_fract_y
 _atom_site_fract_z
 _atom_site_occupancy
  Hf  Hf0  1  0.39430009  0.43402938  0.69272313  1
  Hf  Hf1  1  0.22069036  0.23812050  0.37195468  1
  Zr  Zr2  1  0.20898485  0.45758218  0.60069313  1
  Zr  Zr3  1  0.48152489  0.75602004  0.74338234  1
  Ti  Ti4  1  0.56772050  0.00154476  -0.00046035  1
  Ti  Ti5  1  0.64458510  0.68750191  0.60310816  1
  Nb  Nb6  1  0.49598815  0.40522273  0.38984473  1
  Nb  Nb7  1  0.42687493  0.56798296  0.41255417  1
