# generated using pymatgen
data_HfZrTiNb
_symmetry_space_group_name_H-M   'P 1'
_cell_length_a   14.71710870
_cell_length_b   12.75740219
_cell_length_c   16.79221274
_cell_angle_alpha   86.35948574
_cell_angle_beta   87.94814837
_cell_angle_gamma   124.36100424
_symmetry_Int_Tables_number   1
_chemical_formula_structural   HfZrTiNb
_chemical_formula_sum   'Hf2 Zr2 Ti2 Nb2'
_cell_volume   2587.51563769
_cell_formula_units_Z   2
loop_
 _symmetry_equiv_pos_site_id
 _symmetry_equiv_pos_as_xyz
  1  'x, y, z'
loop_
 _atom_site_type_symbol
 _atom_site_label
 _atom_site_symmetry_multiplicity
 _atom_site_fract_x
 _atom_site_fract_y
 _atom_site_fract_z
 _atom_site_occupancy
  Hf  Hf0  1  0.69081722  0.41081793  0.30807637  1
  Hf  Hf1  1  0.74570966  0.23558708  0.28935529  1
  Zr  Zr2  1  0.09843272  0.13960642  0.78997852  1
  Zr  Zr3  1  0.45641475  0.57824852  0.47335141  1
  Ti  Ti4  1  0.09891638  0.92720681  0.78801958  1
  Ti  Ti5  1  0.54258412  0.76299066  0.52050792  1
  Nb  Nb6  1  0.96742979  0.92941121  0.86080190  1
  Nb  Nb7  1  0.56824981  0.18091026  0.34750901  1
