# generated using pymatgen
data_HfZrTiNb
_symmetry_space_group_name_H-M   'P 1'
_cell_length_a   9.59491626
_cell_length_b   7.57499065
_cell_length_c   7.98576481
_cell_angle_alpha   158.16696120
_cell_angle_beta   51.40405713
_cell_angle_gamma   130.78572791
_symmetry_Int_Tables_number   1
_chemical_formula_structural   HfZrTiNb
_chemical_formula_sum   'Hf2 Zr2 Ti2 Nb2'
_cell_volume   163.12510978
_cell_formula_units_Z   2
loop_
 _symmetry_equiv_pos_site_id
 _symmetry_equiv_pos_as_xyz
  1  'x, y, z'
loop_
 _atom_site_type_symbol
 _atom_site_label
 _atom_site_symmetry_multiplicity
 _atom_site_fract_x
 _atom_site_fract_y
 _atom_site_fract_z
 _atom_site_occupancy
  Hf  Hf0  1  0.23069127  -0.01755819  0.42821076  1
  Hf  Hf1  1  0.50416532  0.69317757  0.61700754  1
  Zr  Zr2  1  0.66582662  0.20124728  0.34333428  1
  Zr  Zr3  1  0.40578999  0.42398917  0.07315999  1
  Ti  Ti4  1  0.78926557  1.06182278  0.47005337  1
  Ti  Ti5  1  0.12388589  0.84922996  0.03536691  1
  Nb  Nb6  1  0.87632803  0.27222524  0.94115372  1
  Nb  Nb7  1  1.02082172  0.91041833  0.84171346  1
