# generated using pymatgen
data_HfZrTiNb
_symmetry_space_group_name_H-M   'P 1'
_cell_length_a   5.94936659
_cell_length_b   5.17035568
_cell_length_c   13.15760463
_cell_angle_alpha   82.26064906
_cell_angle_beta   63.86567653
_cell_angle_gamma   86.32519094
_symmetry_Int_Tables_number   1
_chemical_formula_structural   HfZrTiNb
_chemical_formula_sum   'Hf2 Zr2 Ti2 Nb2'
_cell_volume   360.03913033
_cell_formula_units_Z   2
loop_
 _symmetry_equiv_pos_site_id
 _symmetry_equiv_pos_as_xyz
  1  'x, y, z'
loop_
 _atom_site_type_symbol
 _atom_site_label
 _atom_site_symmetry_multiplicity
 _atom_site_fract_x
 _atom_site_fract_y
 _atom_site_fract_z
 _atom_site_occupancy
  Hf  Hf0  1  -0.19124191  0.41711796  0.51405558  1
  Hf  Hf1  1  0.46790504  1.15850319  0.29381260  1
  Zr  Zr2  1  0.29766831  0.40808783  0.51957925  1
  Zr  Zr3  1  -0.04082605  0.16076833  0.29771620  1
  Ti  Ti4  1  0.57244744  0.91076676  0.50647232  1
  Ti  Ti5  1  0.19546030  0.66348193  0.30383834  1
  Nb  Nb6  1  0.08624908  -0.08993131  0.49240212  1
  Nb  Nb7  1  0.67355668  0.65464645  0.32212358  1
