# generated using pymatgen
data_HfZrTiNb
_symmetry_space_group_name_H-M   'P 1'
_cell_length_a   10.69851641
_cell_length_b   12.59717495
_cell_length_c   13.18271164
_cell_angle_alpha   81.04177305
_cell_angle_beta   128.79754820
_cell_angle_gamma   129.76753272
_symmetry_Int_Tables_number   1
_chemical_formula_structural   HfZrTiNb
_chemical_formula_sum   'Hf2 Zr2 Ti2 Nb2'
_cell_volume   971.16264788
_cell_formula_units_Z   2
loop_
 _symmetry_equiv_pos_site_id
 _symmetry_equiv_pos_as_xyz
  1  'x, y, z'
loop_
 _atom_site_type_symbol
 _atom_site_label
 _atom_site_symmetry_multiplicity
 _atom_site_fract_x
 _atom_site_fract_y
 _atom_site_fract_z
 _atom_site_occupancy
  Hf  Hf0  1  0.63774099  0.50364978  0.42611012  1
  Hf  Hf1  1  0.72277226  0.83826100  0.53823977  1
  Zr  Zr2  1  0.31225485  0.50332215  0.35561433  1
  Zr  Zr3  1  0.53688983  0.67223715  0.27972013  1
  Ti  Ti4  1  0.05256099  0.67963685  0.71596545  1
  Ti  Ti5  1  0.96696583  0.81775694  0.53266523  1
  Nb  Nb6  1  0.08473182  -0.11921102  0.77655026  1
  Nb  Nb7  1  0.68608344  0.61001047  0.62513470  1
