# generated using pymatgen
data_HfZrTiNb
_symmetry_space_group_name_H-M   'P 1'
_cell_length_a   10.33753832
_cell_length_b   11.43082653
_cell_length_c   10.11991023
_cell_angle_alpha   36.42470952
_cell_angle_beta   140.52967045
_cell_angle_gamma   155.36054293
_symmetry_Int_Tables_number   1
_chemical_formula_structural   HfZrTiNb
_chemical_formula_sum   'Hf2 Zr2 Ti2 Nb2'
_cell_volume   292.01880376
_cell_formula_units_Z   2
loop_
 _symmetry_equiv_pos_site_id
 _symmetry_equiv_pos_as_xyz
  1  'x, y, z'
loop_
 _atom_site_type_symbol
 _atom_site_label
 _atom_site_symmetry_multiplicity
 _atom_site_fract_x
 _atom_site_fract_y
 _atom_site_fract_z
 _atom_site_occupancy
  Hf  Hf0  1  0.93147852  0.14755915  0.06525173  1
  Hf  Hf1  1  0.17360188  0.86367668  0.63330487  1
  Zr  Zr2  1  0.87066267  0.41608892  0.54711732  1
  Zr  Zr3  1  0.49730808  0.77527817  -0.18376046  1
  Ti  Ti4  1  0.57809053  0.53151952  0.30737078  1
  Ti  Ti5  1  0.79706075  0.66228304  0.07061776  1
  Nb  Nb6  1  0.26436056  0.05608349  0.27977342  1
  Nb  Nb7  1  1.16710258  0.26784549  0.84412460  1
