# generated using pymatgen
data_HfZrTiNb
_symmetry_space_group_name_H-M   'P 1'
_cell_length_a   5.80433465
_cell_length_b   6.20184332
_cell_length_c   10.00843273
_cell_angle_alpha   68.12609533
_cell_angle_beta   114.51956155
_cell_angle_gamma   121.61392686
_symmetry_Int_Tables_number   1
_chemical_formula_structural   HfZrTiNb
_chemical_formula_sum   'Hf2 Zr2 Ti2 Nb2'
_cell_volume   273.50063036
_cell_formula_units_Z   2
loop_
 _symmetry_equiv_pos_site_id
 _symmetry_equiv_pos_as_xyz
  1  'x, y, z'
loop_
 _atom_site_type_symbol
 _atom_site_label
 _atom_site_symmetry_multiplicity
 _atom_site_fract_x
 _atom_site_fract_y
 _atom_site_fract_z
 _atom_site_occupancy
  Hf  Hf0  1  0.06954960  0.52910320  0.44049732  1
  Hf  Hf1  1  0.43189121  0.89149155  0.13994163  1
  Zr  Zr2  1  -0.07030049  -0.11999785  0.14995140  1
  Zr  Zr3  1  0.56760283  1.02504670  0.43360381  1
  Ti  Ti4  1  0.94952350  0.38125560  0.17095359  1
  Ti  Ti5  1  0.43423793  0.37412369  0.16084397  1
  Nb  Nb6  1  0.55407468  0.54649705  0.40239880  1
  Nb  Nb7  1  0.06342072  1.03914672  0.41560949  1
