# generated using pymatgen
data_HfZrTiNb
_symmetry_space_group_name_H-M   'P 1'
_cell_length_a   11.82933595
_cell_length_b   14.90683761
_cell_length_c   15.87806449
_cell_angle_alpha   89.74637668
_cell_angle_beta   83.10433073
_cell_angle_gamma   124.08791427
_symmetry_Int_Tables_number   1
_chemical_formula_structural   HfZrTiNb
_chemical_formula_sum   'Hf2 Zr2 Ti2 Nb2'
_cell_volume   2293.27442892
_cell_formula_units_Z   2
loop_
 _symmetry_equiv_pos_site_id
 _symmetry_equiv_pos_as_xyz
  1  'x, y, z'
loop_
 _atom_site_type_symbol
 _atom_site_label
 _atom_site_symmetry_multiplicity
 _atom_site_fract_x
 _atom_site_fract_y
 _atom_site_fract_z
 _atom_site_occupancy
  Hf  Hf0  1  0.77892256  0.43882084  0.65360284  1
  Hf  Hf1  1  0.56286435  0.40887498  0.57070142  1
  Zr  Zr2  1  0.33219204  0.23418320  0.67448134  1
  Zr  Zr3  1  0.53960071  0.39449986  0.75466139  1
  Ti  Ti4  1  0.66526507  0.87702427  1.03702921  1
  Ti  Ti5  1  0.28117934  0.78000484  0.18400144  1
  Nb  Nb6  1  0.44433225  0.79119089  0.09016936  1
  Nb  Nb7  1  0.56042255  0.24395555  0.65775301  1
