# generated using pymatgen
data_HfZrTiNb
_symmetry_space_group_name_H-M   'P 1'
_cell_length_a   10.50983142
_cell_length_b   9.49351219
_cell_length_c   10.89001280
_cell_angle_alpha   148.85742518
_cell_angle_beta   61.40697765
_cell_angle_gamma   125.89914775
_symmetry_Int_Tables_number   1
_chemical_formula_structural   HfZrTiNb
_chemical_formula_sum   'Hf2 Zr2 Ti2 Nb2'
_cell_volume   454.49057107
_cell_formula_units_Z   2
loop_
 _symmetry_equiv_pos_site_id
 _symmetry_equiv_pos_as_xyz
  1  'x, y, z'
loop_
 _atom_site_type_symbol
 _atom_site_label
 _atom_site_symmetry_multiplicity
 _atom_site_fract_x
 _atom_site_fract_y
 _atom_site_fract_z
 _atom_site_occupancy
  Hf  Hf0  1  0.12061476  0.36228823  0.89361685  1
  Hf  Hf1  1  0.08586812  0.33019732  0.59284789  1
  Zr  Zr2  1  0.76374346  0.41991970  0.84565578  1
  Zr  Zr3  1  0.80103937  0.44083939  0.13490901  1
  Ti  Ti4  1  0.05144371  0.76991631  0.08634837  1
  Ti  Ti5  1  0.10157848  0.86865736  0.39094535  1
  Nb  Nb6  1  0.78882711  0.90867334  0.34945981  1
  Nb  Nb7  1  0.84244054  1.01061947  0.64241691  1
