# generated using pymatgen
data_HfZrTiNb
_symmetry_space_group_name_H-M   'P 1'
_cell_length_a   9.09862680
_cell_length_b   11.55675420
_cell_length_c   5.87988116
_cell_angle_alpha   123.91961418
_cell_angle_beta   86.55168931
_cell_angle_gamma   139.03666916
_symmetry_Int_Tables_number   1
_chemical_formula_structural   HfZrTiNb
_chemical_formula_sum   'Hf2 Zr2 Ti2 Nb2'
_cell_volume   251.49063983
_cell_formula_units_Z   2
loop_
 _symmetry_equiv_pos_site_id
 _symmetry_equiv_pos_as_xyz
  1  'x, y, z'
loop_
 _atom_site_type_symbol
 _atom_site_label
 _atom_site_symmetry_multiplicity
 _atom_site_fract_x
 _atom_site_fract_y
 _atom_site_fract_z
 _atom_site_occupancy
  Hf  Hf0  1  0.13858806  0.03440058  0.18644991  1
  Hf  Hf1  1  0.60108470  0.54222235  0.97580038  1
  Zr  Zr2  1  0.84117999  0.47372326  0.72717434  1
  Zr  Zr3  1  0.87528075  0.41632431  0.13481975  1
  Ti  Ti4  1  1.08029831  1.07477714  0.78169877  1
  Ti  Ti5  1  0.34123010  0.94676901  0.93337583  1
  Nb  Nb6  1  0.68814992  0.52293948  0.40046441  1
  Nb  Nb7  1  0.27318485  0.98884388  0.54641661  1
