# generated using pymatgen
data_HfZrTiNb
_symmetry_space_group_name_H-M   'P 1'
_cell_length_a   13.50991271
_cell_length_b   15.44954935
_cell_length_c   13.84390220
_cell_angle_alpha   95.76959708
_cell_angle_beta   101.15557848
_cell_angle_gamma   130.96752201
_symmetry_Int_Tables_number   1
_chemical_formula_structural   HfZrTiNb
_chemical_formula_sum   'Hf2 Zr2 Ti2 Nb2'
_cell_volume   2037.28364443
_cell_formula_units_Z   2
loop_
 _symmetry_equiv_pos_site_id
 _symmetry_equiv_pos_as_xyz
  1  'x, y, z'
loop_
 _atom_site_type_symbol
 _atom_site_label
 _atom_site_symmetry_multiplicity
 _atom_site_fract_x
 _atom_site_fract_y
 _atom_site_fract_z
 _atom_site_occupancy
  Hf  Hf0  1  0.23469783  0.14325194  -0.00537412  1
  Hf  Hf1  1  0.20825157  0.98168175  0.84977117  1
  Zr  Zr2  1  0.68907795  0.84096631  0.48728479  1
  Zr  Zr3  1  0.15161769  0.92809629  1.02780502  1
  Ti  Ti4  1  0.56566395  0.78821298  0.61538370  1
  Ti  Ti5  1  0.21019303  0.59253552  0.31153282  1
  Nb  Nb6  1  0.42772951  0.72461742  0.42889870  1
  Nb  Nb7  1  0.40165735  0.11174890  0.03469793  1
