# generated using pymatgen
data_HfZrTiNb
_symmetry_space_group_name_H-M   'P 1'
_cell_length_a   9.94336464
_cell_length_b   12.66772606
_cell_length_c   12.08584037
_cell_angle_alpha   111.93064970
_cell_angle_beta   95.76117856
_cell_angle_gamma   119.63637133
_symmetry_Int_Tables_number   1
_chemical_formula_structural   HfZrTiNb
_chemical_formula_sum   'Hf2 Zr2 Ti2 Nb2'
_cell_volume   1148.15472955
_cell_formula_units_Z   2
loop_
 _symmetry_equiv_pos_site_id
 _symmetry_equiv_pos_as_xyz
  1  'x, y, z'
loop_
 _atom_site_type_symbol
 _atom_site_label
 _atom_site_symmetry_multiplicity
 _atom_site_fract_x
 _atom_site_fract_y
 _atom_site_fract_z
 _atom_site_occupancy
  Hf  Hf0  1  0.24510112  0.17023831  0.34400268  1
  Hf  Hf1  1  0.22402372  0.87806969  0.13310608  1
  Zr  Zr2  1  0.46547935  0.06706026  0.39377306  1
  Zr  Zr3  1  0.47636885  0.15626543  0.18354056  1
  Ti  Ti4  1  0.12605463  0.91971354  0.35088232  1
  Ti  Ti5  1  0.14590464  1.04637511  1.07538417  1
  Nb  Nb6  1  0.96238252  0.89363516  0.15639696  1
  Nb  Nb7  1  0.57690737  0.31308695  0.42671416  1
