# generated using pymatgen
data_HfZrTiNb
_symmetry_space_group_name_H-M   'P 1'
_cell_length_a   13.77993292
_cell_length_b   15.49682892
_cell_length_c   15.20453004
_cell_angle_alpha   84.70622847
_cell_angle_beta   98.77385871
_cell_angle_gamma   120.59900952
_symmetry_Int_Tables_number   1
_chemical_formula_structural   HfZrTiNb
_chemical_formula_sum   'Hf2 Zr2 Ti2 Nb2'
_cell_volume   2761.62185984
_cell_formula_units_Z   2
loop_
 _symmetry_equiv_pos_site_id
 _symmetry_equiv_pos_as_xyz
  1  'x, y, z'
loop_
 _atom_site_type_symbol
 _atom_site_label
 _atom_site_symmetry_multiplicity
 _atom_site_fract_x
 _atom_site_fract_y
 _atom_site_fract_z
 _atom_site_occupancy
  Hf  Hf0  1  0.32777347  0.09918085  0.82342331  1
  Hf  Hf1  1  0.47681302  0.10528906  -0.04390412  1
  Zr  Zr2  1  0.89379731  0.45322180  0.70759420  1
  Zr  Zr3  1  0.11976561  0.56212539  0.78149519  1
  Ti  Ti4  1  0.69237125  0.84585008  0.30692410  1
  Ti  Ti5  1  0.41763573  0.23997453  0.93858081  1
  Nb  Nb6  1  0.04388041  0.59387614  0.63591061  1
  Nb  Nb7  1  0.53362653  0.76714881  0.34997590  1
