# generated using pymatgen
data_HfZrTiNb
_symmetry_space_group_name_H-M   'P 1'
_cell_length_a   12.45940798
_cell_length_b   13.91641518
_cell_length_c   16.41179226
_cell_angle_alpha   80.39827732
_cell_angle_beta   85.76776358
_cell_angle_gamma   126.52059030
_symmetry_Int_Tables_number   1
_chemical_formula_structural   HfZrTiNb
_chemical_formula_sum   'Hf2 Zr2 Ti2 Nb2'
_cell_volume   2200.40892853
_cell_formula_units_Z   2
loop_
 _symmetry_equiv_pos_site_id
 _symmetry_equiv_pos_as_xyz
  1  'x, y, z'
loop_
 _atom_site_type_symbol
 _atom_site_label
 _atom_site_symmetry_multiplicity
 _atom_site_fract_x
 _atom_site_fract_y
 _atom_site_fract_z
 _atom_site_occupancy
  Hf  Hf0  1  0.84344909  0.10143455  0.16192816  1
  Hf  Hf1  1  0.77777778  0.55555556  0.46810000  1
  Zr  Zr2  1  0.61504007  1.06149780  0.25502563  1
  Zr  Zr3  1  0.82254750  0.29411418  0.14904416  1
  Ti  Ti4  1  0.50329024  0.74649737  0.74451074  1
  Ti  Ti5  1  0.38572210  0.82933233  0.68045727  1
  Nb  Nb6  1  0.66529556  0.10228459  0.09090204  1
  Nb  Nb7  1  0.61287543  0.92228253  0.63623199  1
