# generated using pymatgen
data_HfZrTiNb
_symmetry_space_group_name_H-M   'P 1'
_cell_length_a   13.76133931
_cell_length_b   15.40434680
_cell_length_c   16.05775513
_cell_angle_alpha   89.21670992
_cell_angle_beta   87.28431420
_cell_angle_gamma   122.42493104
_symmetry_Int_Tables_number   1
_chemical_formula_structural   HfZrTiNb
_chemical_formula_sum   'Hf2 Zr2 Ti2 Nb2'
_cell_volume   2866.98275788
_cell_formula_units_Z   2
loop_
 _symmetry_equiv_pos_site_id
 _symmetry_equiv_pos_as_xyz
  1  'x, y, z'
loop_
 _atom_site_type_symbol
 _atom_site_label
 _atom_site_symmetry_multiplicity
 _atom_site_fract_x
 _atom_site_fract_y
 _atom_site_fract_z
 _atom_site_occupancy
  Hf  Hf0  1  0.81951525  0.74228643  0.02409597  1
  Hf  Hf1  1  0.11111111  0.22222222  0.46810000  1
  Zr  Zr2  1  0.58271001  0.61059051  0.99115979  1
  Zr  Zr3  1  0.60940768  0.14242737  -0.03693605  1
  Ti  Ti4  1  0.73977964  0.55588305  0.95255848  1
  Ti  Ti5  1  0.72498840  0.19562704  0.85103038  1
  Nb  Nb6  1  0.74959680  0.69951783  0.87499143  1
  Nb  Nb7  1  0.27589000  0.88511333  0.37500000  1
