# generated using pymatgen
data_HfZrTiNb
_symmetry_space_group_name_H-M   'P 1'
_cell_length_a   4.31643771
_cell_length_b   9.28277847
_cell_length_c   12.67133692
_cell_angle_alpha   69.61836727
_cell_angle_beta   80.99948068
_cell_angle_gamma   81.31244369
_symmetry_Int_Tables_number   1
_chemical_formula_structural   HfZrTiNb
_chemical_formula_sum   'Hf2 Zr2 Ti2 Nb2'
_cell_volume   467.51149982
_cell_formula_units_Z   2
loop_
 _symmetry_equiv_pos_site_id
 _symmetry_equiv_pos_as_xyz
  1  'x, y, z'
loop_
 _atom_site_type_symbol
 _atom_site_label
 _atom_site_symmetry_multiplicity
 _atom_site_fract_x
 _atom_site_fract_y
 _atom_site_fract_z
 _atom_site_occupancy
  Hf  Hf0  1  0.76989328  0.69989783  -0.02937067  1
  Hf  Hf1  1  0.76341194  0.38690577  0.20960353  1
  Zr  Zr2  1  0.90059102  0.64820622  0.74306794  1
  Zr  Zr3  1  0.37011950  0.22031979  0.12150882  1
  Ti  Ti4  1  0.30692552  0.79692695  0.82273289  1
  Ti  Ti5  1  0.27295719  0.54494610  0.08206848  1
  Nb  Nb6  1  0.88229576  0.37635353  0.98873980  1
  Nb  Nb7  1  0.39669693  0.49122268  0.87544921  1
