# generated using pymatgen
data_HfZrTiNb
_symmetry_space_group_name_H-M   'P 1'
_cell_length_a   12.69456576
_cell_length_b   15.04829167
_cell_length_c   16.25225124
_cell_angle_alpha   89.48509595
_cell_angle_beta   82.18542551
_cell_angle_gamma   130.82108642
_symmetry_Int_Tables_number   1
_chemical_formula_structural   HfZrTiNb
_chemical_formula_sum   'Hf2 Zr2 Ti2 Nb2'
_cell_volume   2307.75352274
_cell_formula_units_Z   2
loop_
 _symmetry_equiv_pos_site_id
 _symmetry_equiv_pos_as_xyz
  1  'x, y, z'
loop_
 _atom_site_type_symbol
 _atom_site_label
 _atom_site_symmetry_multiplicity
 _atom_site_fract_x
 _atom_site_fract_y
 _atom_site_fract_z
 _atom_site_occupancy
  Hf  Hf0  1  0.19227386  0.44224440  0.25103339  1
  Hf  Hf1  1  0.16458681  0.08659952  0.72675191  1
  Zr  Zr2  1  0.10006261  0.56117757  0.32583543  1
  Zr  Zr3  1  0.05157167  0.87845760  0.79065896  1
  Ti  Ti4  1  0.89495263  0.92383177  0.76448914  1
  Ti  Ti5  1  0.92840035  0.32144686  0.35196065  1
  Nb  Nb6  1  0.12774812  0.40710040  0.42913919  1
  Nb  Nb7  1  0.32573282  0.60513966  0.36013134  1
