# generated using pymatgen
data_HfZrTiNb
_symmetry_space_group_name_H-M   'P 1'
_cell_length_a   14.19625415
_cell_length_b   14.19625428
_cell_length_c   16.12714399
_cell_angle_alpha   86.05948223
_cell_angle_beta   93.94051734
_cell_angle_gamma   119.16275955
_symmetry_Int_Tables_number   1
_chemical_formula_structural   HfZrTiNb
_chemical_formula_sum   'Hf2 Zr2 Ti2 Nb2'
_cell_volume   2829.14181647
_cell_formula_units_Z   2
loop_
 _symmetry_equiv_pos_site_id
 _symmetry_equiv_pos_as_xyz
  1  'x, y, z'
loop_
 _atom_site_type_symbol
 _atom_site_label
 _atom_site_symmetry_multiplicity
 _atom_site_fract_x
 _atom_site_fract_y
 _atom_site_fract_z
 _atom_site_occupancy
  Hf  Hf0  1  0.86328849  0.47004484  0.65489983  1
  Hf  Hf1  1  0.80337818  0.52995516  0.53130017  1
  Zr  Zr2  1  0.27654927  0.88278959  0.53241337  1
  Zr  Zr3  1  0.45054374  0.05678405  0.53241339  1
  Ti  Ti4  1  0.27279857  0.06053478  0.53453561  1
  Ti  Ti5  1  0.22222222  0.44444444  0.21810000  1
  Nb  Nb6  1  0.27599842  0.05733491  0.87133764  1
  Nb  Nb7  1  0.72411000  0.27589000  0.12500000  1
