# generated using pymatgen
data_HfZrTiNb
_symmetry_space_group_name_H-M   'P 1'
_cell_length_a   15.27268365
_cell_length_b   11.63465952
_cell_length_c   14.14007723
_cell_angle_alpha   84.28723336
_cell_angle_beta   98.63797559
_cell_angle_gamma   124.86856696
_symmetry_Int_Tables_number   1
_chemical_formula_structural   HfZrTiNb
_chemical_formula_sum   'Hf2 Zr2 Ti2 Nb2'
_cell_volume   2037.81675514
_cell_formula_units_Z   2
loop_
 _symmetry_equiv_pos_site_id
 _symmetry_equiv_pos_as_xyz
  1  'x, y, z'
loop_
 _atom_site_type_symbol
 _atom_site_label
 _atom_site_symmetry_multiplicity
 _atom_site_fract_x
 _atom_site_fract_y
 _atom_site_fract_z
 _atom_site_occupancy
  Hf  Hf0  1  0.11206349  0.22252240  0.79289164  1
  Hf  Hf1  1  0.10388350  0.21299472  0.96098356  1
  Zr  Zr2  1  0.85788204  0.65696031  0.10678840  1
  Zr  Zr3  1  0.03462031  0.73161850  0.22601094  1
  Ti  Ti4  1  0.96749229  0.53476841  0.08608423  1
  Ti  Ti5  1  0.44444441  0.88888888  0.46809999  1
  Nb  Nb6  1  0.92410476  0.46984335  0.27378370  1
  Nb  Nb7  1  0.77773143  0.39351453  0.14915753  1
