# generated using pymatgen
data_HfZrTiNb
_symmetry_space_group_name_H-M   'P 1'
_cell_length_a   14.85582107
_cell_length_b   14.02902196
_cell_length_c   12.31308113
_cell_angle_alpha   97.39828745
_cell_angle_beta   90.42659097
_cell_angle_gamma   135.16737364
_symmetry_Int_Tables_number   1
_chemical_formula_structural   HfZrTiNb
_chemical_formula_sum   'Hf2 Zr2 Ti2 Nb2'
_cell_volume   1776.21748005
_cell_formula_units_Z   2
loop_
 _symmetry_equiv_pos_site_id
 _symmetry_equiv_pos_as_xyz
  1  'x, y, z'
loop_
 _atom_site_type_symbol
 _atom_site_label
 _atom_site_symmetry_multiplicity
 _atom_site_fract_x
 _atom_site_fract_y
 _atom_site_fract_z
 _atom_site_occupancy
  Hf  Hf0  1  -0.03230013  0.46050258  0.75246612  1
  Hf  Hf1  1  0.17559927  0.60360448  0.91407427  1
  Zr  Zr2  1  0.50736620  0.32278059  0.23832409  1
  Zr  Zr3  1  0.13392600  0.61705996  0.58819948  1
  Ti  Ti4  1  0.31719475  0.71943495  0.75532730  1
  Ti  Ti5  1  0.91033998  0.35762665  0.53906730  1
  Nb  Nb6  1  0.16568235  0.74365917  0.79396553  1
  Nb  Nb7  1  0.66118824  0.50866496  0.16857591  1
