# generated using pymatgen
data_HfZrTiNb
_symmetry_space_group_name_H-M   'P 1'
_cell_length_a   13.61529825
_cell_length_b   11.75498200
_cell_length_c   16.40640156
_cell_angle_alpha   79.07119664
_cell_angle_beta   98.04080056
_cell_angle_gamma   114.87006890
_symmetry_Int_Tables_number   1
_chemical_formula_structural   HfZrTiNb
_chemical_formula_sum   'Hf2 Zr2 Ti2 Nb2'
_cell_volume   2333.75397545
_cell_formula_units_Z   2
loop_
 _symmetry_equiv_pos_site_id
 _symmetry_equiv_pos_as_xyz
  1  'x, y, z'
loop_
 _atom_site_type_symbol
 _atom_site_label
 _atom_site_symmetry_multiplicity
 _atom_site_fract_x
 _atom_site_fract_y
 _atom_site_fract_z
 _atom_site_occupancy
  Hf  Hf0  1  0.59712626  0.86259889  0.18820999  1
  Hf  Hf1  1  0.61837731  0.07850418  0.09452783  1
  Zr  Zr2  1  0.54942422  -0.03137158  0.54985214  1
  Zr  Zr3  1  0.78449644  0.05889693  0.18536219  1
  Ti  Ti4  1  0.21213752  0.45796864  0.02510654  1
  Ti  Ti5  1  0.12119581  0.54203136  0.97489346  1
  Nb  Nb6  1  0.54989186  0.75230945  0.60370266  1
  Nb  Nb7  1  0.39879615  0.78094989  0.62834519  1
