# generated using pymatgen
data_HfZrTiNb
_symmetry_space_group_name_H-M   'P 1'
_cell_length_a   14.52918491
_cell_length_b   13.95950973
_cell_length_c   14.22116240
_cell_angle_alpha   95.79777250
_cell_angle_beta   76.40645798
_cell_angle_gamma   116.59667040
_symmetry_Int_Tables_number   1
_chemical_formula_structural   HfZrTiNb
_chemical_formula_sum   'Hf2 Zr2 Ti2 Nb2'
_cell_volume   2506.84323794
_cell_formula_units_Z   2
loop_
 _symmetry_equiv_pos_site_id
 _symmetry_equiv_pos_as_xyz
  1  'x, y, z'
loop_
 _atom_site_type_symbol
 _atom_site_label
 _atom_site_symmetry_multiplicity
 _atom_site_fract_x
 _atom_site_fract_y
 _atom_site_fract_z
 _atom_site_occupancy
  Hf  Hf0  1  0.55636565  0.86645109  0.53033933  1
  Hf  Hf1  1  0.44013188  0.88184317  0.97892001  1
  Zr  Zr2  1  0.83610472  0.47204091  0.32006387  1
  Zr  Zr3  1  0.63995432  0.47707284  0.61651616  1
  Ti  Ti4  1  0.74615381  0.49528927  0.46769750  1
  Ti  Ti5  1  0.55476520  0.02248920  0.53345912  1
  Nb  Nb6  1  0.94254633  0.55177004  0.87502402  1
  Nb  Nb7  1  0.39508923  0.78859905  0.11417999  1
