# generated using pymatgen
data_HfZrTiNb
_symmetry_space_group_name_H-M   'P 1'
_cell_length_a   5.22124022
_cell_length_b   2.99150446
_cell_length_c   14.47167752
_cell_angle_alpha   89.48120331
_cell_angle_beta   86.58185373
_cell_angle_gamma   92.13972621
_symmetry_Int_Tables_number   1
_chemical_formula_structural   HfZrTiNb
_chemical_formula_sum   'Hf2 Zr2 Ti2 Nb2'
_cell_volume   225.46452253
_cell_formula_units_Z   2
loop_
 _symmetry_equiv_pos_site_id
 _symmetry_equiv_pos_as_xyz
  1  'x, y, z'
loop_
 _atom_site_type_symbol
 _atom_site_label
 _atom_site_symmetry_multiplicity
 _atom_site_fract_x
 _atom_site_fract_y
 _atom_site_fract_z
 _atom_site_occupancy
  Hf  Hf0  1  0.69819849  0.86650842  0.35901398  1
  Hf  Hf1  1  0.83581071  1.00105160  1.00482566  1
  Zr  Zr2  1  0.44717542  0.28508845  0.53924693  1
  Zr  Zr3  1  0.12987623  0.01314729  0.18930095  1
  Ti  Ti4  1  0.63520439  0.36895876  0.17487179  1
  Ti  Ti5  1  0.19570079  0.41729090  0.37053424  1
  Nb  Nb6  1  0.95231865  0.78378277  0.52500482  1
  Nb  Nb7  1  0.33171311  0.54383735  0.02340163  1
