# generated using pymatgen
data_HfZrTiNb
_symmetry_space_group_name_H-M   'P 1'
_cell_length_a   11.92825566
_cell_length_b   13.41774745
_cell_length_c   5.20228227
_cell_angle_alpha   101.30476343
_cell_angle_beta   74.55648146
_cell_angle_gamma   128.83768201
_symmetry_Int_Tables_number   1
_chemical_formula_structural   HfZrTiNb
_chemical_formula_sum   'Hf2 Zr2 Ti2 Nb2'
_cell_volume   624.66984904
_cell_formula_units_Z   2
loop_
 _symmetry_equiv_pos_site_id
 _symmetry_equiv_pos_as_xyz
  1  'x, y, z'
loop_
 _atom_site_type_symbol
 _atom_site_label
 _atom_site_symmetry_multiplicity
 _atom_site_fract_x
 _atom_site_fract_y
 _atom_site_fract_z
 _atom_site_occupancy
  Hf  Hf0  1  0.52760975  0.68657808  0.24380377  1
  Hf  Hf1  1  0.43800322  0.81892526  1.05150304  1
  Zr  Zr2  1  0.28355109  0.69629328  0.61028966  1
  Zr  Zr3  1  0.31259580  0.40486587  0.97633264  1
  Ti  Ti4  1  0.21919967  0.45493394  0.54871129  1
  Ti  Ti5  1  0.45316543  0.45574145  0.41013540  1
  Nb  Nb6  1  0.22011902  0.55784784  0.10007935  1
  Nb  Nb7  1  0.48831265  0.64892426  0.74534484  1
