# generated using pymatgen
data_HfZrTiNb
_symmetry_space_group_name_H-M   'P 1'
_cell_length_a   15.15706501
_cell_length_b   15.29520039
_cell_length_c   15.19866968
_cell_angle_alpha   93.31512072
_cell_angle_beta   81.29828737
_cell_angle_gamma   119.77800268
_symmetry_Int_Tables_number   1
_chemical_formula_structural   HfZrTiNb
_chemical_formula_sum   'Hf2 Zr2 Ti2 Nb2'
_cell_volume   3022.43704514
_cell_formula_units_Z   2
loop_
 _symmetry_equiv_pos_site_id
 _symmetry_equiv_pos_as_xyz
  1  'x, y, z'
loop_
 _atom_site_type_symbol
 _atom_site_label
 _atom_site_symmetry_multiplicity
 _atom_site_fract_x
 _atom_site_fract_y
 _atom_site_fract_z
 _atom_site_occupancy
  Hf  Hf0  1  0.26377384  0.13177246  -0.02537906  1
  Hf  Hf1  1  0.11111111  0.55555556  0.46810000  1
  Zr  Zr2  1  0.86357337  0.81222213  0.28170716  1
  Zr  Zr3  1  0.45842774  0.22906061  0.97841132  1
  Ti  Ti4  1  0.38890952  0.19472247  0.82886774  1
  Ti  Ti5  1  0.80309330  0.85444454  0.40449284  1
  Nb  Nb6  1  0.40216086  0.62514750  0.11216034  1
  Nb  Nb7  1  0.59783914  0.86918916  0.88783966  1
