# generated using pymatgen
data_HfZrTiNb
_symmetry_space_group_name_H-M   'P 1'
_cell_length_a   10.17262214
_cell_length_b   9.23455974
_cell_length_c   16.86716603
_cell_angle_alpha   89.22274912
_cell_angle_beta   77.44348816
_cell_angle_gamma   92.04218755
_symmetry_Int_Tables_number   1
_chemical_formula_structural   HfZrTiNb
_chemical_formula_sum   'Hf2 Zr2 Ti2 Nb2'
_cell_volume   1545.24714235
_cell_formula_units_Z   2
loop_
 _symmetry_equiv_pos_site_id
 _symmetry_equiv_pos_as_xyz
  1  'x, y, z'
loop_
 _atom_site_type_symbol
 _atom_site_label
 _atom_site_symmetry_multiplicity
 _atom_site_fract_x
 _atom_site_fract_y
 _atom_site_fract_z
 _atom_site_occupancy
  Hf  Hf0  1  1.01263430  0.15851317  0.55590489  1
  Hf  Hf1  1  0.91845089  0.90236886  0.49255026  1
  Zr  Zr2  1  0.52446926  0.78581798  0.04182191  1
  Zr  Zr3  1  0.82600807  0.17069584  0.45520761  1
  Ti  Ti4  1  0.54665439  0.07046968  0.98518627  1
  Ti  Ti5  1  0.45759260  0.87174275  0.90088711  1
  Nb  Nb6  1  0.07435230  0.09797990  0.40323723  1
  Nb  Nb7  1  0.69728151  0.88496848  0.91520470  1
