# generated using pymatgen
data_HfZrTiNb
_symmetry_space_group_name_H-M   'P 1'
_cell_length_a   9.20160837
_cell_length_b   13.23046652
_cell_length_c   11.99087092
_cell_angle_alpha   89.50152155
_cell_angle_beta   97.23287895
_cell_angle_gamma   133.13500669
_symmetry_Int_Tables_number   1
_chemical_formula_structural   HfZrTiNb
_chemical_formula_sum   'Hf2 Zr2 Ti2 Nb2'
_cell_volume   1050.74075717
_cell_formula_units_Z   2
loop_
 _symmetry_equiv_pos_site_id
 _symmetry_equiv_pos_as_xyz
  1  'x, y, z'
loop_
 _atom_site_type_symbol
 _atom_site_label
 _atom_site_symmetry_multiplicity
 _atom_site_fract_x
 _atom_site_fract_y
 _atom_site_fract_z
 _atom_site_occupancy
  Hf  Hf0  1  0.26365496  0.34489484  0.50991710  1
  Hf  Hf1  1  0.40864070  0.50996795  0.72090256  1
  Zr  Zr2  1  0.76921283  0.60706406  0.85297972  1
  Zr  Zr3  1  0.54834621  0.37208429  0.67864982  1
  Ti  Ti4  1  0.76784199  0.78796996  0.73294141  1
  Ti  Ti5  1  0.55601999  0.64073967  0.52365424  1
  Nb  Nb6  1  -0.15779273  0.65419173  0.63820155  1
  Nb  Nb7  1  0.62185382  0.47763972  0.46515361  1
