# generated using pymatgen
data_HfZrTiNb
_symmetry_space_group_name_H-M   'P 1'
_cell_length_a   14.92062515
_cell_length_b   14.72618314
_cell_length_c   15.80859575
_cell_angle_alpha   93.92500381
_cell_angle_beta   95.60713869
_cell_angle_gamma   126.95222603
_symmetry_Int_Tables_number   1
_chemical_formula_structural   HfZrTiNb
_chemical_formula_sum   'Hf2 Zr2 Ti2 Nb2'
_cell_volume   2726.98704531
_cell_formula_units_Z   2
loop_
 _symmetry_equiv_pos_site_id
 _symmetry_equiv_pos_as_xyz
  1  'x, y, z'
loop_
 _atom_site_type_symbol
 _atom_site_label
 _atom_site_symmetry_multiplicity
 _atom_site_fract_x
 _atom_site_fract_y
 _atom_site_fract_z
 _atom_site_occupancy
  Hf  Hf0  1  0.95837014  0.84100495  0.22005053  1
  Hf  Hf1  1  0.11371768  0.88853056  0.78352822  1
  Zr  Zr2  1  0.35948514  0.16734064  0.38846491  1
  Zr  Zr3  1  0.19816823  0.03003552  0.27212056  1
  Ti  Ti4  1  0.45786273  0.92115779  0.97612764  1
  Ti  Ti5  1  0.53901850  0.07908122  0.02267505  1
  Nb  Nb6  1  0.94255913  0.21844564  0.37499864  1
  Nb  Nb7  1  0.09748512  0.85440367  0.14823445  1
