# generated using pymatgen
data_HfZrTiNb
_symmetry_space_group_name_H-M   'P 1'
_cell_length_a   14.72781136
_cell_length_b   12.95800366
_cell_length_c   15.02907065
_cell_angle_alpha   96.58079453
_cell_angle_beta   87.28290354
_cell_angle_gamma   113.19480430
_symmetry_Int_Tables_number   1
_chemical_formula_structural   HfZrTiNb
_chemical_formula_sum   'Hf2 Zr2 Ti2 Nb2'
_cell_volume   2618.98197195
_cell_formula_units_Z   2
loop_
 _symmetry_equiv_pos_site_id
 _symmetry_equiv_pos_as_xyz
  1  'x, y, z'
loop_
 _atom_site_type_symbol
 _atom_site_label
 _atom_site_symmetry_multiplicity
 _atom_site_fract_x
 _atom_site_fract_y
 _atom_site_fract_z
 _atom_site_occupancy
  Hf  Hf0  1  0.12210429  0.63705647  0.54996822  1
  Hf  Hf1  1  0.11757545  0.81190995  0.67217066  1
  Zr  Zr2  1  0.11974657  0.83838372  0.50821102  1
  Zr  Zr3  1  0.55501835  0.45915146  0.20976506  1
  Ti  Ti4  1  0.19638539  0.49060491  0.51975242  1
  Ti  Ti5  1  0.55529941  0.77760051  0.71799769  1
  Nb  Nb6  1  0.55231721  0.59451631  0.13333494  1
  Nb  Nb7  1  0.60922333  0.05744333  0.37500000  1
