# generated using pymatgen
data_HfZrTiNb
_symmetry_space_group_name_H-M   'P 1'
_cell_length_a   13.67955777
_cell_length_b   10.41567907
_cell_length_c   17.19079876
_cell_angle_alpha   95.26595149
_cell_angle_beta   87.94614355
_cell_angle_gamma   121.86583886
_symmetry_Int_Tables_number   1
_chemical_formula_structural   HfZrTiNb
_chemical_formula_sum   'Hf2 Zr2 Ti2 Nb2'
_cell_volume   2071.21320861
_cell_formula_units_Z   2
loop_
 _symmetry_equiv_pos_site_id
 _symmetry_equiv_pos_as_xyz
  1  'x, y, z'
loop_
 _atom_site_type_symbol
 _atom_site_label
 _atom_site_symmetry_multiplicity
 _atom_site_fract_x
 _atom_site_fract_y
 _atom_site_fract_z
 _atom_site_occupancy
  Hf  Hf0  1  0.40755256  0.59760395  0.38035400  1
  Hf  Hf1  1  0.26275311  0.36751433  0.25371635  1
  Zr  Zr2  1  0.51139008  0.50946693  0.22876782  1
  Zr  Zr3  1  0.41528852  0.67614591  0.23099645  1
  Ti  Ti4  1  0.49720431  0.36617006  0.83120452  1
  Ti  Ti5  1  0.42997372  0.51559022  0.75695936  1
  Nb  Nb6  1  0.57093418  0.62012750  0.85063612  1
  Nb  Nb7  1  0.40679129  0.35115666  0.34496538  1
