# generated using pymatgen
data_HfZrTiNb
_symmetry_space_group_name_H-M   'P 1'
_cell_length_a   11.12818188
_cell_length_b   12.29276865
_cell_length_c   17.07496958
_cell_angle_alpha   88.14646882
_cell_angle_beta   97.07088426
_cell_angle_gamma   99.05896770
_symmetry_Int_Tables_number   1
_chemical_formula_structural   HfZrTiNb
_chemical_formula_sum   'Hf2 Zr2 Ti2 Nb2'
_cell_volume   2288.91237504
_cell_formula_units_Z   2
loop_
 _symmetry_equiv_pos_site_id
 _symmetry_equiv_pos_as_xyz
  1  'x, y, z'
loop_
 _atom_site_type_symbol
 _atom_site_label
 _atom_site_symmetry_multiplicity
 _atom_site_fract_x
 _atom_site_fract_y
 _atom_site_fract_z
 _atom_site_occupancy
  Hf  Hf0  1  0.66290575  0.78301972  0.08224459  1
  Hf  Hf1  1  0.71016356  0.65998732  0.93457789  1
  Zr  Zr2  1  0.49429754  0.58087370  1.02478452  1
  Zr  Zr3  1  0.51539694  0.77428574  0.94072235  1
  Ti  Ti4  1  0.88891275  0.11115758  0.53206551  1
  Ti  Ti5  1  0.44444444  0.55555556  0.46810000  1
  Nb  Nb6  1  0.94253281  0.21840020  0.87483449  1
  Nb  Nb7  1  0.72457176  0.58883464  0.07887065  1
