# generated using pymatgen
data_HfZrTiNb
_symmetry_space_group_name_H-M   'P 1'
_cell_length_a   4.50440469
_cell_length_b   9.21865694
_cell_length_c   11.90772706
_cell_angle_alpha   95.00914260
_cell_angle_beta   71.14462733
_cell_angle_gamma   93.93771562
_symmetry_Int_Tables_number   1
_chemical_formula_structural   HfZrTiNb
_chemical_formula_sum   'Hf2 Zr2 Ti2 Nb2'
_cell_volume   465.71245458
_cell_formula_units_Z   2
loop_
 _symmetry_equiv_pos_site_id
 _symmetry_equiv_pos_as_xyz
  1  'x, y, z'
loop_
 _atom_site_type_symbol
 _atom_site_label
 _atom_site_symmetry_multiplicity
 _atom_site_fract_x
 _atom_site_fract_y
 _atom_site_fract_z
 _atom_site_occupancy
  Hf  Hf0  1  0.79358077  0.84989978  0.91443130  1
  Hf  Hf1  1  -0.02120036  0.76172296  0.27189174  1
  Zr  Zr2  1  0.18709023  -0.03037906  0.05397725  1
  Zr  Zr3  1  0.59725777  0.70484439  0.12711482  1
  Ti  Ti4  1  0.58153854  1.02212404  0.18586388  1
  Ti  Ti5  1  0.21833851  0.67536364  0.97958087  1
  Nb  Nb6  1  0.38894795  0.90245908  0.38874039  1
  Nb  Nb7  1  0.97855660  0.05652187  0.32839976  1
