# generated using pymatgen
data_HfZrTiNb
_symmetry_space_group_name_H-M   'P 1'
_cell_length_a   11.77710418
_cell_length_b   8.93990236
_cell_length_c   9.21403096
_cell_angle_alpha   37.06783750
_cell_angle_beta   113.30583017
_cell_angle_gamma   117.48629892
_symmetry_Int_Tables_number   1
_chemical_formula_structural   HfZrTiNb
_chemical_formula_sum   'Hf2 Zr2 Ti2 Nb2'
_cell_volume   518.05858320
_cell_formula_units_Z   2
loop_
 _symmetry_equiv_pos_site_id
 _symmetry_equiv_pos_as_xyz
  1  'x, y, z'
loop_
 _atom_site_type_symbol
 _atom_site_label
 _atom_site_symmetry_multiplicity
 _atom_site_fract_x
 _atom_site_fract_y
 _atom_site_fract_z
 _atom_site_occupancy
  Hf  Hf0  1  0.59741112  0.94119493  0.29623762  1
  Hf  Hf1  1  0.35053338  0.55018212  0.51825753  1
  Zr  Zr2  1  0.63182008  0.04988742  0.91885829  1
  Zr  Zr3  1  0.38448629  0.64730387  0.14062264  1
  Ti  Ti4  1  0.61954387  0.54598207  0.42597595  1
  Ti  Ti5  1  0.58679396  0.43237228  0.78817559  1
  Nb  Nb6  1  0.37015233  0.04832774  0.01057647  1
  Nb  Nb7  1  0.40181564  0.17552622  0.65129591  1
