# generated using pymatgen
data_HfZrTiNb
_symmetry_space_group_name_H-M   'P 1'
_cell_length_a   10.76915828
_cell_length_b   9.35115322
_cell_length_c   6.93852243
_cell_angle_alpha   112.68710951
_cell_angle_beta   78.07904985
_cell_angle_gamma   152.53028679
_symmetry_Int_Tables_number   1
_chemical_formula_structural   HfZrTiNb
_chemical_formula_sum   'Hf2 Zr2 Ti2 Nb2'
_cell_volume   281.86414907
_cell_formula_units_Z   2
loop_
 _symmetry_equiv_pos_site_id
 _symmetry_equiv_pos_as_xyz
  1  'x, y, z'
loop_
 _atom_site_type_symbol
 _atom_site_label
 _atom_site_symmetry_multiplicity
 _atom_site_fract_x
 _atom_site_fract_y
 _atom_site_fract_z
 _atom_site_occupancy
  Hf  Hf0  1  0.07411683  0.57860794  0.55138605  1
  Hf  Hf1  1  0.66600353  1.10011130  0.74210311  1
  Zr  Zr2  1  0.55906827  0.19736014  0.43837964  1
  Zr  Zr3  1  0.42149279  0.11238549  0.00440457  1
  Ti  Ti4  1  0.21889073  0.59539712  0.91715337  1
  Ti  Ti5  1  -0.00210612  0.64229003  0.20674072  1
  Nb  Nb6  1  1.38509851  0.70136852  0.28048738  1
  Nb  Nb7  1  0.78854659  0.13369837  0.10934516  1
