# generated using pymatgen
data_HfZrTiNb
_symmetry_space_group_name_H-M   'P 1'
_cell_length_a   13.92074592
_cell_length_b   10.30551375
_cell_length_c   12.64846111
_cell_angle_alpha   106.13126946
_cell_angle_beta   72.32865233
_cell_angle_gamma   138.83091558
_symmetry_Int_Tables_number   1
_chemical_formula_structural   HfZrTiNb
_chemical_formula_sum   'Hf2 Zr2 Ti2 Nb2'
_cell_volume   1134.60110885
_cell_formula_units_Z   2
loop_
 _symmetry_equiv_pos_site_id
 _symmetry_equiv_pos_as_xyz
  1  'x, y, z'
loop_
 _atom_site_type_symbol
 _atom_site_label
 _atom_site_symmetry_multiplicity
 _atom_site_fract_x
 _atom_site_fract_y
 _atom_site_fract_z
 _atom_site_occupancy
  Hf  Hf0  1  0.70162812  0.00893933  0.61265035  1
  Hf  Hf1  1  0.80639744  0.27313713  -0.03627168  1
  Zr  Zr2  1  0.85875896  0.32746679  0.75593249  1
  Zr  Zr3  1  0.53615527  0.95213398  0.85624650  1
  Ti  Ti4  1  0.76918194  0.97288633  0.78987610  1
  Ti  Ti5  1  0.63363345  0.90878788  0.01275787  1
  Nb  Nb6  1  0.47827334  0.62113588  0.87960292  1
  Nb  Nb7  1  0.49941261  0.66339824  0.69300546  1
