# generated using pymatgen
data_HfZrTiNb
_symmetry_space_group_name_H-M   'P 1'
_cell_length_a   5.18579235
_cell_length_b   9.50467366
_cell_length_c   12.18390629
_cell_angle_alpha   116.53150730
_cell_angle_beta   115.67507345
_cell_angle_gamma   87.42612856
_symmetry_Int_Tables_number   1
_chemical_formula_structural   HfZrTiNb
_chemical_formula_sum   'Hf2 Zr2 Ti2 Nb2'
_cell_volume   475.94631564
_cell_formula_units_Z   2
loop_
 _symmetry_equiv_pos_site_id
 _symmetry_equiv_pos_as_xyz
  1  'x, y, z'
loop_
 _atom_site_type_symbol
 _atom_site_label
 _atom_site_symmetry_multiplicity
 _atom_site_fract_x
 _atom_site_fract_y
 _atom_site_fract_z
 _atom_site_occupancy
  Hf  Hf0  1  0.53966348  0.24745668  0.27266320  1
  Hf  Hf1  1  0.82457104  0.57514226  0.31761334  1
  Zr  Zr2  1  0.64043170  1.00967020  1.03798136  1
  Zr  Zr3  1  0.56023836  0.30582603  1.02624451  1
  Ti  Ti4  1  0.07163719  0.12698977  0.00328909  1
  Ti  Ti5  1  0.03490537  0.27879553  0.26833600  1
  Nb  Nb6  1  0.43328143  0.55993502  0.41879727  1
  Nb  Nb7  1  1.17493702  0.45551565  0.15507522  1
