# generated using pymatgen
data_HfZrTiNb
_symmetry_space_group_name_H-M   'P 1'
_cell_length_a   13.94392854
_cell_length_b   13.82770146
_cell_length_c   14.40805073
_cell_angle_alpha   99.22230721
_cell_angle_beta   86.90569357
_cell_angle_gamma   118.93110047
_symmetry_Int_Tables_number   1
_chemical_formula_structural   HfZrTiNb
_chemical_formula_sum   'Hf2 Zr2 Ti2 Nb2'
_cell_volume   2399.03710907
_cell_formula_units_Z   2
loop_
 _symmetry_equiv_pos_site_id
 _symmetry_equiv_pos_as_xyz
  1  'x, y, z'
loop_
 _atom_site_type_symbol
 _atom_site_label
 _atom_site_symmetry_multiplicity
 _atom_site_fract_x
 _atom_site_fract_y
 _atom_site_fract_z
 _atom_site_occupancy
  Hf  Hf0  1  0.79301878  0.27137326  0.53829221  1
  Hf  Hf1  1  0.79890269  0.38526689  0.69952891  1
  Zr  Zr2  1  0.71252073  0.85998873  0.71733709  1
  Zr  Zr3  1  0.22384315  0.16708085  0.53106332  1
  Ti  Ti4  1  0.60178319  0.78636221  0.59573484  1
  Ti  Ti5  1  0.24256866  0.36683636  0.51619196  1
  Nb  Nb6  1  0.27074489  0.25979658  0.39224297  1
  Nb  Nb7  1  0.68617569  0.40140734  0.82340870  1
