# generated using pymatgen
data_HfZrTiNb
_symmetry_space_group_name_H-M   'P 1'
_cell_length_a   11.14808049
_cell_length_b   2.94991893
_cell_length_c   7.51281644
_cell_angle_alpha   88.94142580
_cell_angle_beta   138.40658736
_cell_angle_gamma   92.40647985
_symmetry_Int_Tables_number   1
_chemical_formula_structural   HfZrTiNb
_chemical_formula_sum   'Hf2 Zr2 Ti2 Nb2'
_cell_volume   163.83656490
_cell_formula_units_Z   2
loop_
 _symmetry_equiv_pos_site_id
 _symmetry_equiv_pos_as_xyz
  1  'x, y, z'
loop_
 _atom_site_type_symbol
 _atom_site_label
 _atom_site_symmetry_multiplicity
 _atom_site_fract_x
 _atom_site_fract_y
 _atom_site_fract_z
 _atom_site_occupancy
  Hf  Hf0  1  0.46056103  0.49022988  0.23780664  1
  Hf  Hf1  1  0.69802227  0.85695313  0.20274564  1
  Zr  Zr2  1  0.08994745  0.25795609  0.70795834  1
  Zr  Zr3  1  0.18279175  0.91818172  1.20272354  1
  Ti  Ti4  1  0.35185531  0.32189713  0.70268335  1
  Ti  Ti5  1  0.94177122  0.41022648  0.19681738  1
  Nb  Nb6  1  0.60928386  0.88129717  0.73718451  1
  Nb  Nb7  1  0.82677049  0.35759509  0.69828058  1
