# generated using pymatgen
data_HfZrTiNb
_symmetry_space_group_name_H-M   'P 1'
_cell_length_a   15.56664584
_cell_length_b   15.71119321
_cell_length_c   16.87908390
_cell_angle_alpha   90.86183482
_cell_angle_beta   90.59644983
_cell_angle_gamma   120.53004584
_symmetry_Int_Tables_number   1
_chemical_formula_structural   HfZrTiNb
_chemical_formula_sum   'Hf2 Zr2 Ti2 Nb2'
_cell_volume   3554.63249818
_cell_formula_units_Z   2
loop_
 _symmetry_equiv_pos_site_id
 _symmetry_equiv_pos_as_xyz
  1  'x, y, z'
loop_
 _atom_site_type_symbol
 _atom_site_label
 _atom_site_symmetry_multiplicity
 _atom_site_fract_x
 _atom_site_fract_y
 _atom_site_fract_z
 _atom_site_occupancy
  Hf  Hf0  1  0.08423887  0.54213044  0.77420432  1
  Hf  Hf1  1  0.91576113  0.45786956  0.72579568  1
  Zr  Zr2  1  0.55555556  0.77777778  0.71810000  1
  Zr  Zr3  1  0.77777778  0.55555556  0.28190000  1
  Ti  Ti4  1  0.23029118  0.12760491  0.74231545  1
  Ti  Ti5  1  0.11111111  0.22222222  0.28190000  1
  Nb  Nb6  1  0.26782104  0.20195287  0.85078455  1
  Nb  Nb7  1  0.39077667  0.78155333  0.12500000  1
