# generated using pymatgen
data_HfZrTiNb
_symmetry_space_group_name_H-M   'P 1'
_cell_length_a   11.49552694
_cell_length_b   12.02417323
_cell_length_c   14.91033163
_cell_angle_alpha   96.40064615
_cell_angle_beta   96.04564193
_cell_angle_gamma   109.87117372
_symmetry_Int_Tables_number   1
_chemical_formula_structural   HfZrTiNb
_chemical_formula_sum   'Hf2 Zr2 Ti2 Nb2'
_cell_volume   1903.42662429
_cell_formula_units_Z   2
loop_
 _symmetry_equiv_pos_site_id
 _symmetry_equiv_pos_as_xyz
  1  'x, y, z'
loop_
 _atom_site_type_symbol
 _atom_site_label
 _atom_site_symmetry_multiplicity
 _atom_site_fract_x
 _atom_site_fract_y
 _atom_site_fract_z
 _atom_site_occupancy
  Hf  Hf0  1  0.13347172  0.83792186  0.52424881  1
  Hf  Hf1  1  0.07720373  0.19463431  1.01792952  1
  Zr  Zr2  1  0.20644920  0.46366115  0.01687032  1
  Zr  Zr3  1  0.08919346  0.36904742  0.18983381  1
  Ti  Ti4  1  0.96314731  0.35474753  1.02422929  1
  Ti  Ti5  1  0.20197961  0.06776798  0.52208243  1
  Nb  Nb6  1  0.21632849  0.70353336  0.57866785  1
  Nb  Nb7  1  0.27700538  0.33824416  0.12613798  1
