# generated using pymatgen
data_HfZrTiNb
_symmetry_space_group_name_H-M   'P 1'
_cell_length_a   2.95922599
_cell_length_b   7.12005743
_cell_length_c   12.06511210
_cell_angle_alpha   95.38744992
_cell_angle_beta   102.03630166
_cell_angle_gamma   97.54286685
_symmetry_Int_Tables_number   1
_chemical_formula_structural   HfZrTiNb
_chemical_formula_sum   'Hf2 Zr2 Ti2 Nb2'
_cell_volume   244.53487042
_cell_formula_units_Z   2
loop_
 _symmetry_equiv_pos_site_id
 _symmetry_equiv_pos_as_xyz
  1  'x, y, z'
loop_
 _atom_site_type_symbol
 _atom_site_label
 _atom_site_symmetry_multiplicity
 _atom_site_fract_x
 _atom_site_fract_y
 _atom_site_fract_z
 _atom_site_occupancy
  Hf  Hf0  1  0.19302872  1.06583931  0.42943222  1
  Hf  Hf1  1  0.81761851  0.36964063  0.60902703  1
  Zr  Zr2  1  0.38762439  0.70030985  0.50307449  1
  Zr  Zr3  1  0.14195732  0.00656527  0.67034653  1
  Ti  Ti4  1  0.24113921  0.09748437  0.19648601  1
  Ti  Ti5  1  0.63088811  0.75674519  0.27032918  1
  Nb  Nb6  1  -0.01186813  0.44350970  0.15420745  1
  Nb  Nb7  1  0.77194185  0.39890236  0.35329705  1
