# generated using pymatgen
data_HfZrTiNb
_symmetry_space_group_name_H-M   'P 1'
_cell_length_a   12.86788284
_cell_length_b   13.74135240
_cell_length_c   15.39394675
_cell_angle_alpha   92.43220557
_cell_angle_beta   89.42334996
_cell_angle_gamma   117.66660315
_symmetry_Int_Tables_number   1
_chemical_formula_structural   HfZrTiNb
_chemical_formula_sum   'Hf2 Zr2 Ti2 Nb2'
_cell_volume   2408.45514513
_cell_formula_units_Z   2
loop_
 _symmetry_equiv_pos_site_id
 _symmetry_equiv_pos_as_xyz
  1  'x, y, z'
loop_
 _atom_site_type_symbol
 _atom_site_label
 _atom_site_symmetry_multiplicity
 _atom_site_fract_x
 _atom_site_fract_y
 _atom_site_fract_z
 _atom_site_occupancy
  Hf  Hf0  1  0.81064271  0.22723010  0.37971653  1
  Hf  Hf1  1  0.88903563  0.15499668  0.22601642  1
  Zr  Zr2  1  0.40052535  0.51957332  0.76150762  1
  Zr  Zr3  1  0.27929466  0.63036310  0.82364180  1
  Ti  Ti4  1  0.86579867  0.34763922  0.25942275  1
  Ti  Ti5  1  0.44444444  0.55555556  0.28190000  1
  Nb  Nb6  1  0.87516666  0.99044843  0.16412144  1
  Nb  Nb7  1  0.48498408  0.68530471  0.85367344  1
