# generated using pymatgen
data_HfZrTiNb
_symmetry_space_group_name_H-M   'P 1'
_cell_length_a   12.69139223
_cell_length_b   10.57279607
_cell_length_c   14.56779208
_cell_angle_alpha   74.75727691
_cell_angle_beta   97.34791990
_cell_angle_gamma   116.67939328
_symmetry_Int_Tables_number   1
_chemical_formula_structural   HfZrTiNb
_chemical_formula_sum   'Hf2 Zr2 Ti2 Nb2'
_cell_volume   1685.08456074
_cell_formula_units_Z   2
loop_
 _symmetry_equiv_pos_site_id
 _symmetry_equiv_pos_as_xyz
  1  'x, y, z'
loop_
 _atom_site_type_symbol
 _atom_site_label
 _atom_site_symmetry_multiplicity
 _atom_site_fract_x
 _atom_site_fract_y
 _atom_site_fract_z
 _atom_site_occupancy
  Hf  Hf0  1  0.36342658  0.32837022  0.44239563  1
  Hf  Hf1  1  0.38276180  0.25518240  0.64819214  1
  Zr  Zr2  1  0.88888889  0.11111111  0.03190000  1
  Zr  Zr3  1  0.58718161  0.38169625  0.53854940  1
  Ti  Ti4  1  0.32264045  0.96323932  0.72170406  1
  Ti  Ti5  1  0.51792483  0.08867744  0.62859129  1
  Nb  Nb6  1  0.48203907  0.16728366  0.44554430  1
  Nb  Nb7  1  0.29413345  1.03777294  0.54312317  1
