# generated using pymatgen
data_HfZrTiNb
_symmetry_space_group_name_H-M   'P 1'
_cell_length_a   9.32803238
_cell_length_b   13.80314294
_cell_length_c   10.35939774
_cell_angle_alpha   125.05947573
_cell_angle_beta   102.44020436
_cell_angle_gamma   125.31289653
_symmetry_Int_Tables_number   1
_chemical_formula_structural   HfZrTiNb
_chemical_formula_sum   'Hf2 Zr2 Ti2 Nb2'
_cell_volume   510.42378969
_cell_formula_units_Z   2
loop_
 _symmetry_equiv_pos_site_id
 _symmetry_equiv_pos_as_xyz
  1  'x, y, z'
loop_
 _atom_site_type_symbol
 _atom_site_label
 _atom_site_symmetry_multiplicity
 _atom_site_fract_x
 _atom_site_fract_y
 _atom_site_fract_z
 _atom_site_occupancy
  Hf  Hf0  1  -0.05101018  0.36165721  0.72023024  1
  Hf  Hf1  1  0.43769218  0.63552684  -0.14473941  1
  Zr  Zr2  1  0.59740189  0.90997983  0.41850266  1
  Zr  Zr3  1  0.78355568  0.80721077  0.26719035  1
  Ti  Ti4  1  0.39106903  0.84347946  0.09134781  1
  Ti  Ti5  1  0.92501393  1.13202390  0.35156837  1
  Nb  Nb6  1  0.24977310  0.46232098  0.05909450  1
  Nb  Nb7  1  0.21450879  0.28846988  0.73680549  1
