# generated using pymatgen
data_HfZrTiNb
_symmetry_space_group_name_H-M   'P 1'
_cell_length_a   10.43729217
_cell_length_b   12.02761987
_cell_length_c   13.86274354
_cell_angle_alpha   90.53520837
_cell_angle_beta   76.74349969
_cell_angle_gamma   135.30041531
_symmetry_Int_Tables_number   1
_chemical_formula_structural   HfZrTiNb
_chemical_formula_sum   'Hf2 Zr2 Ti2 Nb2'
_cell_volume   1161.07629296
_cell_formula_units_Z   2
loop_
 _symmetry_equiv_pos_site_id
 _symmetry_equiv_pos_as_xyz
  1  'x, y, z'
loop_
 _atom_site_type_symbol
 _atom_site_label
 _atom_site_symmetry_multiplicity
 _atom_site_fract_x
 _atom_site_fract_y
 _atom_site_fract_z
 _atom_site_occupancy
  Hf  Hf0  1  0.70021814  0.80614980  0.83293281  1
  Hf  Hf1  1  0.67972893  1.01782969  0.76204957  1
  Zr  Zr2  1  0.08455942  0.25111719  0.63705309  1
  Zr  Zr3  1  -0.02516521  0.13342902  0.84149006  1
  Ti  Ti4  1  0.07266630  1.01913575  0.70127614  1
  Ti  Ti5  1  0.96869993  0.55056981  0.28639255  1
  Nb  Nb6  1  0.81755018  0.93711743  0.63209833  1
  Nb  Nb7  1  0.19607896  0.77898796  0.30670745  1
