# generated using pymatgen
data_HfZrTiNb
_symmetry_space_group_name_H-M   'P 1'
_cell_length_a   9.56257944
_cell_length_b   10.91854140
_cell_length_c   10.03527213
_cell_angle_alpha   148.65156146
_cell_angle_beta   71.78439986
_cell_angle_gamma   108.43189442
_symmetry_Int_Tables_number   1
_chemical_formula_structural   HfZrTiNb
_chemical_formula_sum   'Hf2 Zr2 Ti2 Nb2'
_cell_volume   515.20607526
_cell_formula_units_Z   2
loop_
 _symmetry_equiv_pos_site_id
 _symmetry_equiv_pos_as_xyz
  1  'x, y, z'
loop_
 _atom_site_type_symbol
 _atom_site_label
 _atom_site_symmetry_multiplicity
 _atom_site_fract_x
 _atom_site_fract_y
 _atom_site_fract_z
 _atom_site_occupancy
  Hf  Hf0  1  0.25942530  0.15491429  0.69054565  1
  Hf  Hf1  1  0.44346230  0.40055006  1.09225161  1
  Zr  Zr2  1  0.64339050  0.72949592  0.16427040  1
  Zr  Zr3  1  0.45664298  0.98822784  0.27497558  1
  Ti  Ti4  1  0.45903467  0.48577664  0.78536701  1
  Ti  Ti5  1  0.60931428  0.22831482  0.67165846  1
  Nb  Nb6  1  0.29664486  0.66013356  0.18923828  1
  Nb  Nb7  1  0.44130844  0.90436690  0.56789301  1
