# generated using pymatgen
data_HfZrTiNb
_symmetry_space_group_name_H-M   'P 1'
_cell_length_a   5.49910059
_cell_length_b   5.58810329
_cell_length_c   11.48742084
_cell_angle_alpha   107.14384486
_cell_angle_beta   86.66329841
_cell_angle_gamma   99.31583645
_symmetry_Int_Tables_number   1
_chemical_formula_structural   HfZrTiNb
_chemical_formula_sum   'Hf2 Zr2 Ti2 Nb2'
_cell_volume   332.84897326
_cell_formula_units_Z   2
loop_
 _symmetry_equiv_pos_site_id
 _symmetry_equiv_pos_as_xyz
  1  'x, y, z'
loop_
 _atom_site_type_symbol
 _atom_site_label
 _atom_site_symmetry_multiplicity
 _atom_site_fract_x
 _atom_site_fract_y
 _atom_site_fract_z
 _atom_site_occupancy
  Hf  Hf0  1  -0.10576697  0.83347209  0.53009007  1
  Hf  Hf1  1  0.21046839  0.25681456  0.73652374  1
  Zr  Zr2  1  0.69336612  1.13635151  0.77334034  1
  Zr  Zr3  1  0.13361433  0.77570707  0.79561389  1
  Ti  Ti4  1  0.49272953  0.20586593  0.51850849  1
  Ti  Ti5  1  0.37533350  0.72889374  0.56349854  1
  Nb  Nb6  1  0.65321520  0.59609318  0.72258881  1
  Nb  Nb7  1  0.99148431  0.35569078  0.54603614  1
