# generated using pymatgen
data_HfZrTiNb
_symmetry_space_group_name_H-M   'P 1'
_cell_length_a   9.76968174
_cell_length_b   10.53624652
_cell_length_c   5.85371195
_cell_angle_alpha   61.91156771
_cell_angle_beta   83.11671647
_cell_angle_gamma   133.27235037
_symmetry_Int_Tables_number   1
_chemical_formula_structural   HfZrTiNb
_chemical_formula_sum   'Hf2 Zr2 Ti2 Nb2'
_cell_volume   280.51435596
_cell_formula_units_Z   2
loop_
 _symmetry_equiv_pos_site_id
 _symmetry_equiv_pos_as_xyz
  1  'x, y, z'
loop_
 _atom_site_type_symbol
 _atom_site_label
 _atom_site_symmetry_multiplicity
 _atom_site_fract_x
 _atom_site_fract_y
 _atom_site_fract_z
 _atom_site_occupancy
  Hf  Hf0  1  0.18563769  0.30317971  -0.04850451  1
  Hf  Hf1  1  0.80276278  0.20804568  1.03397091  1
  Zr  Zr2  1  0.29605818  0.70826851  0.28533290  1
  Zr  Zr3  1  1.16258400  0.29618721  0.46289962  1
  Ti  Ti4  1  0.28025119  0.67231272  0.82571705  1
  Ti  Ti5  1  0.78368705  0.18142433  0.55459992  1
  Nb  Nb6  1  0.66370045  0.81694459  0.68796619  1
  Nb  Nb7  1  0.66431536  0.81363727  0.19801791  1
