# generated using pymatgen
data_HfZrTiNb
_symmetry_space_group_name_H-M   'P 1'
_cell_length_a   15.25693745
_cell_length_b   14.50044687
_cell_length_c   16.91940624
_cell_angle_alpha   94.03318771
_cell_angle_beta   88.14593959
_cell_angle_gamma   120.49375461
_symmetry_Int_Tables_number   1
_chemical_formula_structural   HfZrTiNb
_chemical_formula_sum   'Hf2 Zr2 Ti2 Nb2'
_cell_volume   3217.37730162
_cell_formula_units_Z   2
loop_
 _symmetry_equiv_pos_site_id
 _symmetry_equiv_pos_as_xyz
  1  'x, y, z'
loop_
 _atom_site_type_symbol
 _atom_site_label
 _atom_site_symmetry_multiplicity
 _atom_site_fract_x
 _atom_site_fract_y
 _atom_site_fract_z
 _atom_site_occupancy
  Hf  Hf0  1  0.16246669  0.04625230  0.20475189  1
  Hf  Hf1  1  0.74995693  0.54161249  0.47608242  1
  Zr  Zr2  1  0.58337641  0.45838751  0.52391758  1
  Zr  Zr3  1  0.44444444  0.88888889  0.78190000  1
  Ti  Ti4  1  0.13333229  0.19675126  0.26807168  1
  Ti  Ti5  1  0.55555556  0.44444444  0.03190000  1
  Nb  Nb6  1  0.09497768  0.87188310  0.15217642  1
  Nb  Nb7  1  0.05744333  0.44822000  0.62500000  1
