# generated using pymatgen
data_HfZrTiNb
_symmetry_space_group_name_H-M   'P 1'
_cell_length_a   15.13464165
_cell_length_b   14.13826655
_cell_length_c   16.14378054
_cell_angle_alpha   89.40142987
_cell_angle_beta   92.87868639
_cell_angle_gamma   116.97235197
_symmetry_Int_Tables_number   1
_chemical_formula_structural   HfZrTiNb
_chemical_formula_sum   'Hf2 Zr2 Ti2 Nb2'
_cell_volume   3074.47589328
_cell_formula_units_Z   2
loop_
 _symmetry_equiv_pos_site_id
 _symmetry_equiv_pos_as_xyz
  1  'x, y, z'
loop_
 _atom_site_type_symbol
 _atom_site_label
 _atom_site_symmetry_multiplicity
 _atom_site_fract_x
 _atom_site_fract_y
 _atom_site_fract_z
 _atom_site_occupancy
  Hf  Hf0  1  0.20819021  0.79183419  0.52373952  1
  Hf  Hf1  1  0.77915206  0.97896536  0.78263761  1
  Zr  Zr2  1  0.77777778  0.88888889  0.28190000  1
  Zr  Zr3  1  0.22222342  0.44454461  0.71804092  1
  Ti  Ti4  1  0.12514192  0.87473231  0.47631956  1
  Ti  Ti5  1  0.77640350  0.13214575  0.78116239  1
  Nb  Nb6  1  0.36283115  0.09985461  0.06303655  1
  Nb  Nb7  1  0.30383552  0.07247539  0.93696345  1
