# generated using pymatgen
data_HfZrTiNb
_symmetry_space_group_name_H-M   'P 1'
_cell_length_a   11.02390492
_cell_length_b   7.50777748
_cell_length_c   2.97563386
_cell_angle_alpha   78.91252474
_cell_angle_beta   77.44616653
_cell_angle_gamma   129.97624350
_symmetry_Int_Tables_number   1
_chemical_formula_structural   HfZrTiNb
_chemical_formula_sum   'Hf2 Zr2 Ti2 Nb2'
_cell_volume   165.07941270
_cell_formula_units_Z   2
loop_
 _symmetry_equiv_pos_site_id
 _symmetry_equiv_pos_as_xyz
  1  'x, y, z'
loop_
 _atom_site_type_symbol
 _atom_site_label
 _atom_site_symmetry_multiplicity
 _atom_site_fract_x
 _atom_site_fract_y
 _atom_site_fract_z
 _atom_site_occupancy
  Hf  Hf0  1  0.61176993  1.18395571  0.05734060  1
  Hf  Hf1  1  0.41204104  0.29191323  0.56522993  1
  Zr  Zr2  1  0.12322174  0.26883905  0.02810455  1
  Zr  Zr3  1  -0.05153168  0.75589711  1.06754782  1
  Ti  Ti4  1  0.45079550  0.70239367  0.86196571  1
  Ti  Ti5  1  -0.08431731  0.35607570  0.13364397  1
  Nb  Nb6  1  0.75365330  -0.10813639  0.86401441  1
  Nb  Nb7  1  0.23636303  0.77505971  0.35835300  1
