# generated using pymatgen
data_HfZrTiNb
_symmetry_space_group_name_H-M   'P 1'
_cell_length_a   12.85235187
_cell_length_b   14.13280968
_cell_length_c   16.64396732
_cell_angle_alpha   84.62741254
_cell_angle_beta   97.23535633
_cell_angle_gamma   110.20942774
_symmetry_Int_Tables_number   1
_chemical_formula_structural   HfZrTiNb
_chemical_formula_sum   'Hf2 Zr2 Ti2 Nb2'
_cell_volume   2810.41386463
_cell_formula_units_Z   2
loop_
 _symmetry_equiv_pos_site_id
 _symmetry_equiv_pos_as_xyz
  1  'x, y, z'
loop_
 _atom_site_type_symbol
 _atom_site_label
 _atom_site_symmetry_multiplicity
 _atom_site_fract_x
 _atom_site_fract_y
 _atom_site_fract_z
 _atom_site_occupancy
  Hf  Hf0  1  0.01103645  0.92719927  0.74181176  1
  Hf  Hf1  1  0.11111111  0.55555556  0.46810000  1
  Zr  Zr2  1  0.95011089  0.09665605  0.72933987  1
  Zr  Zr3  1  0.55555556  0.77777778  0.21810000  1
  Ti  Ti4  1  0.92038113  0.09405174  0.56737426  1
  Ti  Ti5  1  0.44444444  0.22222222  0.96810000  1
  Nb  Nb6  1  -0.02178375  0.94673974  0.58502111  1
  Nb  Nb7  1  0.81069750  0.93157764  0.65835300  1
