# generated using pymatgen
data_HfZrTiNb
_symmetry_space_group_name_H-M   'P 1'
_cell_length_a   14.80249267
_cell_length_b   13.26106959
_cell_length_c   15.41131699
_cell_angle_alpha   82.81367826
_cell_angle_beta   85.96659227
_cell_angle_gamma   121.61764507
_symmetry_Int_Tables_number   1
_chemical_formula_structural   HfZrTiNb
_chemical_formula_sum   'Hf2 Zr2 Ti2 Nb2'
_cell_volume   2522.62237859
_cell_formula_units_Z   2
loop_
 _symmetry_equiv_pos_site_id
 _symmetry_equiv_pos_as_xyz
  1  'x, y, z'
loop_
 _atom_site_type_symbol
 _atom_site_label
 _atom_site_symmetry_multiplicity
 _atom_site_fract_x
 _atom_site_fract_y
 _atom_site_fract_z
 _atom_site_occupancy
  Hf  Hf0  1  0.83450386  0.89603331  0.76338691  1
  Hf  Hf1  1  0.15229112  0.99906420  0.25132819  1
  Zr  Zr2  1  0.18817554  0.01650881  0.06756938  1
  Zr  Zr3  1  0.26387246  0.90295707  0.18204789  1
  Ti  Ti4  1  0.11111111  0.55555556  0.78190000  1
  Ti  Ti5  1  0.78946208  0.89145682  0.93048646  1
  Nb  Nb6  1  0.34186293  0.13509479  0.15590512  1
  Nb  Nb7  1  -0.01083688  0.93288723  0.68117605  1
