# generated using pymatgen
data_HfZrTiNb
_symmetry_space_group_name_H-M   'P 1'
_cell_length_a   12.84291835
_cell_length_b   14.12445707
_cell_length_c   16.77050513
_cell_angle_alpha   82.26512668
_cell_angle_beta   90.82632662
_cell_angle_gamma   140.66301025
_symmetry_Int_Tables_number   1
_chemical_formula_structural   HfZrTiNb
_chemical_formula_sum   'Hf2 Zr2 Ti2 Nb2'
_cell_volume   1891.24434353
_cell_formula_units_Z   2
loop_
 _symmetry_equiv_pos_site_id
 _symmetry_equiv_pos_as_xyz
  1  'x, y, z'
loop_
 _atom_site_type_symbol
 _atom_site_label
 _atom_site_symmetry_multiplicity
 _atom_site_fract_x
 _atom_site_fract_y
 _atom_site_fract_z
 _atom_site_occupancy
  Hf  Hf0  1  0.34312050  0.32357706  0.33643071  1
  Hf  Hf1  1  0.73560215  0.45533774  0.25159991  1
  Zr  Zr2  1  0.37383884  0.78833718  0.52151221  1
  Zr  Zr3  1  0.68138376  0.61906333  0.27187221  1
  Ti  Ti4  1  0.44444444  0.88888889  0.96810000  1
  Ti  Ti5  1  0.48479301  0.37231053  0.19611735  1
  Nb  Nb6  1  0.12804893  0.54877171  0.57158779  1
  Nb  Nb7  1  0.58654613  0.39826579  0.38277982  1
