# generated using pymatgen
data_HfZrTiNb
_symmetry_space_group_name_H-M   'P 1'
_cell_length_a   11.30862749
_cell_length_b   13.41121670
_cell_length_c   11.06163012
_cell_angle_alpha   115.12705105
_cell_angle_beta   88.46559249
_cell_angle_gamma   125.38170340
_symmetry_Int_Tables_number   1
_chemical_formula_structural   HfZrTiNb
_chemical_formula_sum   'Hf2 Zr2 Ti2 Nb2'
_cell_volume   1182.55602523
_cell_formula_units_Z   2
loop_
 _symmetry_equiv_pos_site_id
 _symmetry_equiv_pos_as_xyz
  1  'x, y, z'
loop_
 _atom_site_type_symbol
 _atom_site_label
 _atom_site_symmetry_multiplicity
 _atom_site_fract_x
 _atom_site_fract_y
 _atom_site_fract_z
 _atom_site_occupancy
  Hf  Hf0  1  0.26499435  0.14349530  0.77125212  1
  Hf  Hf1  1  0.10793220  0.84583290  0.59206409  1
  Zr  Zr2  1  0.87988617  -0.02551475  -0.12622752  1
  Zr  Zr3  1  0.94923729  0.96250699  0.60101506  1
  Ti  Ti4  1  0.11159635  -0.05134494  0.86949724  1
  Ti  Ti5  1  0.19752924  0.20924977  0.03011673  1
  Nb  Nb6  1  0.85749731  0.75754312  0.66286654  1
  Nb  Nb7  1  1.07577153  0.20812384  0.84941574  1
