# generated using pymatgen
data_HfZrTiNb
_symmetry_space_group_name_H-M   'P 1'
_cell_length_a   11.57425948
_cell_length_b   12.67186136
_cell_length_c   11.37511044
_cell_angle_alpha   81.87929601
_cell_angle_beta   139.65083704
_cell_angle_gamma   114.93841612
_symmetry_Int_Tables_number   1
_chemical_formula_structural   HfZrTiNb
_chemical_formula_sum   'Hf2 Zr2 Ti2 Nb2'
_cell_volume   932.23811153
_cell_formula_units_Z   2
loop_
 _symmetry_equiv_pos_site_id
 _symmetry_equiv_pos_as_xyz
  1  'x, y, z'
loop_
 _atom_site_type_symbol
 _atom_site_label
 _atom_site_symmetry_multiplicity
 _atom_site_fract_x
 _atom_site_fract_y
 _atom_site_fract_z
 _atom_site_occupancy
  Hf  Hf0  1  0.18311617  0.40846109  0.67474168  1
  Hf  Hf1  1  0.99234037  0.22117608  0.33944732  1
  Zr  Zr2  1  0.50771333  0.35784400  0.00267414  1
  Zr  Zr3  1  0.24689571  0.48915674  0.45093103  1
  Ti  Ti4  1  0.88082394  0.38824949  0.29924656  1
  Ti  Ti5  1  0.49870752  0.71255014  0.55801355  1
  Nb  Nb6  1  0.41725642  0.35437416  0.69865661  1
  Nb  Nb7  1  0.16203545  0.17929940  0.66248911  1
