# generated using pymatgen
data_HfZrTiNb
_symmetry_space_group_name_H-M   'P 1'
_cell_length_a   10.62664165
_cell_length_b   15.13691731
_cell_length_c   10.68929310
_cell_angle_alpha   96.28335331
_cell_angle_beta   63.17409006
_cell_angle_gamma   125.20065622
_symmetry_Int_Tables_number   1
_chemical_formula_structural   HfZrTiNb
_chemical_formula_sum   'Hf2 Zr2 Ti2 Nb2'
_cell_volume   1226.73702156
_cell_formula_units_Z   2
loop_
 _symmetry_equiv_pos_site_id
 _symmetry_equiv_pos_as_xyz
  1  'x, y, z'
loop_
 _atom_site_type_symbol
 _atom_site_label
 _atom_site_symmetry_multiplicity
 _atom_site_fract_x
 _atom_site_fract_y
 _atom_site_fract_z
 _atom_site_occupancy
  Hf  Hf0  1  0.35179597  0.88873291  0.84916085  1
  Hf  Hf1  1  0.83095520  0.60282973  0.93938732  1
  Zr  Zr2  1  0.07431217  0.82655743  0.77236628  1
  Zr  Zr3  1  0.13109657  0.64762040  -0.05259495  1
  Ti  Ti4  1  0.43534509  0.75026207  0.68248777  1
  Ti  Ti5  1  0.12093018  0.65490018  0.68627927  1
  Nb  Nb6  1  0.38651638  0.85998078  0.57996870  1
  Nb  Nb7  1  1.00238179  0.76911649  0.04294477  1
