# generated using pymatgen
data_HfZrTiNb
_symmetry_space_group_name_H-M   'P 1'
_cell_length_a   14.32411143
_cell_length_b   14.39764239
_cell_length_c   16.05441231
_cell_angle_alpha   88.57393602
_cell_angle_beta   87.84568240
_cell_angle_gamma   115.03463393
_symmetry_Int_Tables_number   1
_chemical_formula_structural   HfZrTiNb
_chemical_formula_sum   'Hf2 Zr2 Ti2 Nb2'
_cell_volume   2994.73469257
_cell_formula_units_Z   2
loop_
 _symmetry_equiv_pos_site_id
 _symmetry_equiv_pos_as_xyz
  1  'x, y, z'
loop_
 _atom_site_type_symbol
 _atom_site_label
 _atom_site_symmetry_multiplicity
 _atom_site_fract_x
 _atom_site_fract_y
 _atom_site_fract_z
 _atom_site_occupancy
  Hf  Hf0  1  0.90227114  0.38904304  0.75696163  1
  Hf  Hf1  1  0.88890274  0.11114312  0.21799550  1
  Zr  Zr2  1  0.55551314  0.44445032  0.05731880  1
  Zr  Zr3  1  0.15994853  0.88290386  0.75408091  1
  Ti  Ti4  1  0.55559798  0.44443856  0.19268120  1
  Ti  Ti5  1  0.24873649  0.08559352  0.70380650  1
  Nb  Nb6  1  0.92916057  0.27381606  0.83624287  1
  Nb  Nb7  1  0.31542498  0.97405928  0.66711260  1
