# generated using pymatgen
data_HfZrTiNb
_symmetry_space_group_name_H-M   'P 1'
_cell_length_a   12.79333865
_cell_length_b   14.13561456
_cell_length_c   8.91391477
_cell_angle_alpha   55.30503293
_cell_angle_beta   109.93226626
_cell_angle_gamma   132.20956169
_symmetry_Int_Tables_number   1
_chemical_formula_structural   HfZrTiNb
_chemical_formula_sum   'Hf2 Zr2 Ti2 Nb2'
_cell_volume   979.41811510
_cell_formula_units_Z   2
loop_
 _symmetry_equiv_pos_site_id
 _symmetry_equiv_pos_as_xyz
  1  'x, y, z'
loop_
 _atom_site_type_symbol
 _atom_site_label
 _atom_site_symmetry_multiplicity
 _atom_site_fract_x
 _atom_site_fract_y
 _atom_site_fract_z
 _atom_site_occupancy
  Hf  Hf0  1  0.74498821  0.84363566  0.22903856  1
  Hf  Hf1  1  1.13739355  0.15811648  0.28850014  1
  Zr  Zr2  1  0.91033103  0.85576257  0.56375389  1
  Zr  Zr3  1  0.00995706  0.88993864  0.30455915  1
  Ti  Ti4  1  0.04307011  0.31691770  0.00360035  1
  Ti  Ti5  1  -0.00805734  0.09934064  0.99639401  1
  Nb  Nb6  1  0.87133946  0.06155615  0.31471698  1
  Nb  Nb7  1  0.79286568  0.11184102  0.98563692  1
