# generated using pymatgen
data_HfZrTiNb
_symmetry_space_group_name_H-M   'P 1'
_cell_length_a   5.81056014
_cell_length_b   12.15599424
_cell_length_c   5.28404196
_cell_angle_alpha   95.18512683
_cell_angle_beta   94.10228334
_cell_angle_gamma   98.76969252
_symmetry_Int_Tables_number   1
_chemical_formula_structural   HfZrTiNb
_chemical_formula_sum   'Hf2 Zr2 Ti2 Nb2'
_cell_volume   365.97302007
_cell_formula_units_Z   2
loop_
 _symmetry_equiv_pos_site_id
 _symmetry_equiv_pos_as_xyz
  1  'x, y, z'
loop_
 _atom_site_type_symbol
 _atom_site_label
 _atom_site_symmetry_multiplicity
 _atom_site_fract_x
 _atom_site_fract_y
 _atom_site_fract_z
 _atom_site_occupancy
  Hf  Hf0  1  0.83774253  0.09338323  0.95154219  1
  Hf  Hf1  1  0.25278536  0.30483472  0.22774938  1
  Zr  Zr2  1  0.12385309  0.07921273  0.45563311  1
  Zr  Zr3  1  0.01325744  0.30019824  0.71562252  1
  Ti  Ti4  1  0.73541700  0.29488028  0.21400357  1
  Ti  Ti5  1  0.61707920  0.09720982  0.44118674  1
  Nb  Nb6  1  0.34785212  0.10844630  0.96568029  1
  Nb  Nb7  1  0.51268214  0.28116577  0.71478220  1
