# generated using pymatgen
data_HfZrTiNb
_symmetry_space_group_name_H-M   'P 1'
_cell_length_a   10.57441761
_cell_length_b   10.15712316
_cell_length_c   14.57316177
_cell_angle_alpha   58.51446062
_cell_angle_beta   92.05902999
_cell_angle_gamma   97.11584640
_symmetry_Int_Tables_number   1
_chemical_formula_structural   HfZrTiNb
_chemical_formula_sum   'Hf2 Zr2 Ti2 Nb2'
_cell_volume   1323.74628037
_cell_formula_units_Z   2
loop_
 _symmetry_equiv_pos_site_id
 _symmetry_equiv_pos_as_xyz
  1  'x, y, z'
loop_
 _atom_site_type_symbol
 _atom_site_label
 _atom_site_symmetry_multiplicity
 _atom_site_fract_x
 _atom_site_fract_y
 _atom_site_fract_z
 _atom_site_occupancy
  Hf  Hf0  1  0.37218078  -0.02773644  0.19333559  1
  Hf  Hf1  1  0.58206281  0.21665999  0.16342278  1
  Zr  Zr2  1  0.51732756  0.95426127  0.37570074  1
  Zr  Zr3  1  0.73531529  0.96618259  0.24809137  1
  Ti  Ti4  1  0.57753946  0.90124776  0.11174846  1
  Ti  Ti5  1  0.73761903  0.17769226  1.02565594  1
  Nb  Nb6  1  0.52650854  0.74970358  0.32032798  1
  Nb  Nb7  1  0.50322654  0.17687565  0.99791714  1
