# generated using pymatgen
data_HfZrTiNb
_symmetry_space_group_name_H-M   'P 1'
_cell_length_a   5.77501153
_cell_length_b   5.99777532
_cell_length_c   10.11991772
_cell_angle_alpha   71.67621300
_cell_angle_beta   29.58315718
_cell_angle_gamma   78.79367057
_symmetry_Int_Tables_number   1
_chemical_formula_structural   HfZrTiNb
_chemical_formula_sum   'Hf2 Zr2 Ti2 Nb2'
_cell_volume   161.92090175
_cell_formula_units_Z   2
loop_
 _symmetry_equiv_pos_site_id
 _symmetry_equiv_pos_as_xyz
  1  'x, y, z'
loop_
 _atom_site_type_symbol
 _atom_site_label
 _atom_site_symmetry_multiplicity
 _atom_site_fract_x
 _atom_site_fract_y
 _atom_site_fract_z
 _atom_site_occupancy
  Hf  Hf0  1  0.91231798  0.14079037  -0.02065537  1
  Hf  Hf1  1  -0.05359421  0.64702776  0.92927846  1
  Zr  Zr2  1  -0.00414046  0.89564633  0.38536823  1
  Zr  Zr3  1  0.38072443  0.38192981  0.96966502  1
  Ti  Ti4  1  0.51876453  0.87413009  0.88293514  1
  Ti  Ti5  1  0.94399692  0.39113533  0.43373605  1
  Nb  Nb6  1  0.48369080  0.66936241  0.41425303  1
  Nb  Nb7  1  1.32390345  1.17230800  0.50541951  1
