# generated using pymatgen
data_HfZrTiNb
_symmetry_space_group_name_H-M   'P 1'
_cell_length_a   12.68358766
_cell_length_b   13.33982250
_cell_length_c   16.32871407
_cell_angle_alpha   85.15077130
_cell_angle_beta   103.85937781
_cell_angle_gamma   131.58000749
_symmetry_Int_Tables_number   1
_chemical_formula_structural   HfZrTiNb
_chemical_formula_sum   'Hf2 Zr2 Ti2 Nb2'
_cell_volume   1995.89666686
_cell_formula_units_Z   2
loop_
 _symmetry_equiv_pos_site_id
 _symmetry_equiv_pos_as_xyz
  1  'x, y, z'
loop_
 _atom_site_type_symbol
 _atom_site_label
 _atom_site_symmetry_multiplicity
 _atom_site_fract_x
 _atom_site_fract_y
 _atom_site_fract_z
 _atom_site_occupancy
  Hf  Hf0  1  0.82836218  0.07953821  0.52635515  1
  Hf  Hf1  1  0.72935937  0.19882800  0.46500580  1
  Zr  Zr2  1  0.44525349  0.55900301  -0.00005293  1
  Zr  Zr3  1  0.19737405  0.48345444  0.03613612  1
  Ti  Ti4  1  0.55338956  0.94385602  0.47673906  1
  Ti  Ti5  1  0.55517489  0.44467553  0.71886984  1
  Nb  Nb6  1  0.28832376  0.35199443  0.08899843  1
  Nb  Nb7  1  1.18054048  0.32187592  0.93794855  1
