# generated using pymatgen
data_HfZrTiNb
_symmetry_space_group_name_H-M   'P 1'
_cell_length_a   12.68999510
_cell_length_b   11.54059539
_cell_length_c   9.64412135
_cell_angle_alpha   98.64054998
_cell_angle_beta   100.75586840
_cell_angle_gamma   120.76197158
_symmetry_Int_Tables_number   1
_chemical_formula_structural   HfZrTiNb
_chemical_formula_sum   'Hf2 Zr2 Ti2 Nb2'
_cell_volume   1140.72558420
_cell_formula_units_Z   2
loop_
 _symmetry_equiv_pos_site_id
 _symmetry_equiv_pos_as_xyz
  1  'x, y, z'
loop_
 _atom_site_type_symbol
 _atom_site_label
 _atom_site_symmetry_multiplicity
 _atom_site_fract_x
 _atom_site_fract_y
 _atom_site_fract_z
 _atom_site_occupancy
  Hf  Hf0  1  0.31187731  0.75636381  0.34365124  1
  Hf  Hf1  1  0.22091016  -0.05193246  0.41558309  1
  Zr  Zr2  1  0.11270598  0.22968475  0.97068892  1
  Zr  Zr3  1  0.59804513  0.97027092  0.51054648  1
  Ti  Ti4  1  0.44509748  0.03703360  0.34831219  1
  Ti  Ti5  1  0.21556458  0.77663099  0.58418810  1
  Nb  Nb6  1  0.43973051  1.03197656  0.62341810  1
  Nb  Nb7  1  0.43384660  -0.19447260  0.63981189  1
