# generated using pymatgen
data_HfZrTiNb
_symmetry_space_group_name_H-M   'P 1'
_cell_length_a   13.83839650
_cell_length_b   14.12307163
_cell_length_c   13.51755837
_cell_angle_alpha   82.66786726
_cell_angle_beta   86.53951336
_cell_angle_gamma   120.18454337
_symmetry_Int_Tables_number   1
_chemical_formula_structural   HfZrTiNb
_chemical_formula_sum   'Hf2 Zr2 Ti2 Nb2'
_cell_volume   2240.97647855
_cell_formula_units_Z   2
loop_
 _symmetry_equiv_pos_site_id
 _symmetry_equiv_pos_as_xyz
  1  'x, y, z'
loop_
 _atom_site_type_symbol
 _atom_site_label
 _atom_site_symmetry_multiplicity
 _atom_site_fract_x
 _atom_site_fract_y
 _atom_site_fract_z
 _atom_site_occupancy
  Hf  Hf0  1  0.77780046  0.22103889  0.78214643  1
  Hf  Hf1  1  0.76897226  0.62715620  0.92892831  1
  Zr  Zr2  1  0.75943359  0.74542075  0.74956306  1
  Zr  Zr3  1  0.76426646  0.81564773  0.93612672  1
  Ti  Ti4  1  0.58221219  0.63091093  0.90489359  1
  Ti  Ti5  1  0.79175949  0.84871440  0.57074189  1
  Nb  Nb6  1  0.05744333  0.27589000  0.12500000  1
  Nb  Nb7  1  0.27589000  0.72411000  0.37500000  1
