# generated using pymatgen
data_HfZrTiNb
_symmetry_space_group_name_H-M   'P 1'
_cell_length_a   7.53913525
_cell_length_b   8.40415285
_cell_length_c   3.11956881
_cell_angle_alpha   97.83211093
_cell_angle_beta   94.65319547
_cell_angle_gamma   121.83546031
_symmetry_Int_Tables_number   1
_chemical_formula_structural   HfZrTiNb
_chemical_formula_sum   'Hf2 Zr2 Ti2 Nb2'
_cell_volume   163.58345643
_cell_formula_units_Z   2
loop_
 _symmetry_equiv_pos_site_id
 _symmetry_equiv_pos_as_xyz
  1  'x, y, z'
loop_
 _atom_site_type_symbol
 _atom_site_label
 _atom_site_symmetry_multiplicity
 _atom_site_fract_x
 _atom_site_fract_y
 _atom_site_fract_z
 _atom_site_occupancy
  Hf  Hf0  1  0.14526342  0.01263229  0.24373768  1
  Hf  Hf1  1  0.69538473  0.70794426  0.56073366  1
  Zr  Zr2  1  0.99588303  0.60895880  0.11044279  1
  Zr  Zr3  1  0.45052194  -0.10750107  0.84973625  1
  Ti  Ti4  1  -0.08955235  0.14578525  0.78475570  1
  Ti  Ti5  1  0.44374877  0.34155141  -0.08425438  1
  Nb  Nb6  1  0.21701309  0.45283465  0.47695015  1
  Nb  Nb7  1  0.69351737  0.27468772  0.43549817  1
