# generated using pymatgen
data_HfZrTiNb
_symmetry_space_group_name_H-M   'P 1'
_cell_length_a   16.36431912
_cell_length_b   14.90282606
_cell_length_c   2.79110062
_cell_angle_alpha   100.12835900
_cell_angle_beta   88.87272187
_cell_angle_gamma   119.80813347
_symmetry_Int_Tables_number   1
_chemical_formula_structural   HfZrTiNb
_chemical_formula_sum   'Hf2 Zr2 Ti2 Nb2'
_cell_volume   579.58582796
_cell_formula_units_Z   2
loop_
 _symmetry_equiv_pos_site_id
 _symmetry_equiv_pos_as_xyz
  1  'x, y, z'
loop_
 _atom_site_type_symbol
 _atom_site_label
 _atom_site_symmetry_multiplicity
 _atom_site_fract_x
 _atom_site_fract_y
 _atom_site_fract_z
 _atom_site_occupancy
  Hf  Hf0  1  0.69038462  0.35256018  0.88489314  1
  Hf  Hf1  1  0.39123347  0.04999693  0.51318797  1
  Zr  Zr2  1  0.60089605  0.47544574  0.29533282  1
  Zr  Zr3  1  0.11110167  0.55555121  0.78190005  1
  Ti  Ti4  1  0.41676742  0.37084619  0.74566632  1
  Ti  Ti5  1  0.32325658  0.17958521  0.09517038  1
  Nb  Nb6  1  0.50161654  0.26205447  0.43427837  1
  Nb  Nb7  1  0.57774254  0.14096119  0.93577095  1
