# generated using pymatgen
data_HfZrTiNb
_symmetry_space_group_name_H-M   'P 1'
_cell_length_a   5.22765053
_cell_length_b   9.59102911
_cell_length_c   11.68510806
_cell_angle_alpha   114.99400769
_cell_angle_beta   98.16666601
_cell_angle_gamma   92.36748756
_symmetry_Int_Tables_number   1
_chemical_formula_structural   HfZrTiNb
_chemical_formula_sum   'Hf2 Zr2 Ti2 Nb2'
_cell_volume   522.26013697
_cell_formula_units_Z   2
loop_
 _symmetry_equiv_pos_site_id
 _symmetry_equiv_pos_as_xyz
  1  'x, y, z'
loop_
 _atom_site_type_symbol
 _atom_site_label
 _atom_site_symmetry_multiplicity
 _atom_site_fract_x
 _atom_site_fract_y
 _atom_site_fract_z
 _atom_site_occupancy
  Hf  Hf0  1  0.78685938  0.50505463  0.65171287  1
  Hf  Hf1  1  0.99682841  0.57913339  0.46248877  1
  Zr  Zr2  1  0.25245167  0.34583092  0.55818148  1
  Zr  Zr3  1  0.64180016  0.34669587  0.20380664  1
  Ti  Ti4  1  0.48705945  0.55071769  0.45012964  1
  Ti  Ti5  1  0.15680090  0.48188578  0.22018078  1
  Nb  Nb6  1  0.15585683  0.25814118  0.29417448  1
  Nb  Nb7  1  0.69467318  0.26587383  0.40932539  1
