# generated using pymatgen
data_HfZrTiNb
_symmetry_space_group_name_H-M   'P 1'
_cell_length_a   11.19934071
_cell_length_b   12.31478627
_cell_length_c   9.33072307
_cell_angle_alpha   115.54680268
_cell_angle_beta   112.10654081
_cell_angle_gamma   105.93167267
_symmetry_Int_Tables_number   1
_chemical_formula_structural   HfZrTiNb
_chemical_formula_sum   'Hf2 Zr2 Ti2 Nb2'
_cell_volume   917.16933403
_cell_formula_units_Z   2
loop_
 _symmetry_equiv_pos_site_id
 _symmetry_equiv_pos_as_xyz
  1  'x, y, z'
loop_
 _atom_site_type_symbol
 _atom_site_label
 _atom_site_symmetry_multiplicity
 _atom_site_fract_x
 _atom_site_fract_y
 _atom_site_fract_z
 _atom_site_occupancy
  Hf  Hf0  1  0.63303594  0.19659256  0.11166654  1
  Hf  Hf1  1  0.74711361  0.40993456  0.50306052  1
  Zr  Zr2  1  0.05411159  0.56805587  0.81523313  1
  Zr  Zr3  1  0.13861733  0.55656708  0.53798615  1
  Ti  Ti4  1  0.95683705  0.66432776  0.60468741  1
  Ti  Ti5  1  0.16538514  0.40945808  0.69534222  1
  Nb  Nb6  1  0.83763985  0.45256597  0.26946908  1
  Nb  Nb7  1  0.91170394  0.29805367  0.39875495  1
