# generated using pymatgen
data_HfZrTiNb
_symmetry_space_group_name_H-M   'P 1'
_cell_length_a   15.22470042
_cell_length_b   15.02760145
_cell_length_c   13.62643134
_cell_angle_alpha   81.26065066
_cell_angle_beta   89.67905277
_cell_angle_gamma   123.50679794
_symmetry_Int_Tables_number   1
_chemical_formula_structural   HfZrTiNb
_chemical_formula_sum   'Hf2 Zr2 Ti2 Nb2'
_cell_volume   2554.15007571
_cell_formula_units_Z   2
loop_
 _symmetry_equiv_pos_site_id
 _symmetry_equiv_pos_as_xyz
  1  'x, y, z'
loop_
 _atom_site_type_symbol
 _atom_site_label
 _atom_site_symmetry_multiplicity
 _atom_site_fract_x
 _atom_site_fract_y
 _atom_site_fract_z
 _atom_site_occupancy
  Hf  Hf0  1  0.82271015  0.70687427  0.06169871  1
  Hf  Hf1  1  0.55555556  0.77777778  0.53190000  1
  Zr  Zr2  1  0.65518473  0.53416636  0.15709082  1
  Zr  Zr3  1  0.57740783  0.05743783  0.84854960  1
  Ti  Ti4  1  0.53995637  0.13190821  0.00132980  1
  Ti  Ti5  1  0.74151073  0.52747052  0.99842089  1
  Nb  Nb6  1  0.54931165  0.98447440  0.02627386  1
  Nb  Nb7  1  0.05647522  0.44844508  0.12473633  1
