# generated using pymatgen
data_HfZrTiNb
_symmetry_space_group_name_H-M   'P 1'
_cell_length_a   15.09554152
_cell_length_b   14.35388654
_cell_length_c   16.19969940
_cell_angle_alpha   89.71165307
_cell_angle_beta   85.73620961
_cell_angle_gamma   118.29885655
_symmetry_Int_Tables_number   1
_chemical_formula_structural   HfZrTiNb
_chemical_formula_sum   'Hf2 Zr2 Ti2 Nb2'
_cell_volume   3078.83863004
_cell_formula_units_Z   2
loop_
 _symmetry_equiv_pos_site_id
 _symmetry_equiv_pos_as_xyz
  1  'x, y, z'
loop_
 _atom_site_type_symbol
 _atom_site_label
 _atom_site_symmetry_multiplicity
 _atom_site_fract_x
 _atom_site_fract_y
 _atom_site_fract_z
 _atom_site_occupancy
  Hf  Hf0  1  0.77777778  0.88888889  0.28190000  1
  Hf  Hf1  1  0.77712334  0.88771948  0.78168311  1
  Zr  Zr2  1  0.11105965  0.79746868  0.46784766  1
  Zr  Zr3  1  0.55621000  0.44561385  0.71831689  1
  Ti  Ti4  1  0.11116257  0.64697577  0.46835234  1
  Ti  Ti5  1  0.23719310  0.80647378  0.04065727  1
  Nb  Nb6  1  0.21230558  0.68034652  0.93491526  1
  Nb  Nb7  1  0.10605687  0.62429082  0.05632747  1
