# generated using pymatgen
data_HfZrTiNb
_symmetry_space_group_name_H-M   'P 1'
_cell_length_a   15.70529677
_cell_length_b   14.82695357
_cell_length_c   15.57255649
_cell_angle_alpha   97.17238981
_cell_angle_beta   89.81529692
_cell_angle_gamma   122.01716469
_symmetry_Int_Tables_number   1
_chemical_formula_structural   HfZrTiNb
_chemical_formula_sum   'Hf2 Zr2 Ti2 Nb2'
_cell_volume   3042.04265107
_cell_formula_units_Z   2
loop_
 _symmetry_equiv_pos_site_id
 _symmetry_equiv_pos_as_xyz
  1  'x, y, z'
loop_
 _atom_site_type_symbol
 _atom_site_label
 _atom_site_symmetry_multiplicity
 _atom_site_fract_x
 _atom_site_fract_y
 _atom_site_fract_z
 _atom_site_occupancy
  Hf  Hf0  1  0.13651818  0.60632339  0.84187095  1
  Hf  Hf1  1  0.48358761  0.29867522  0.33236361  1
  Zr  Zr2  1  0.88575036  0.44418074  0.21915325  1
  Zr  Zr3  1  0.19681641  0.72701085  -0.02807140  1
  Ti  Ti4  1  0.54555042  0.42442400  0.49043789  1
  Ti  Ti5  1  0.88888889  0.11111111  0.53190000  1
  Nb  Nb6  1  0.60922207  0.05744243  0.87500045  1
  Nb  Nb7  1  0.58322383  0.49561114  0.36494525  1
