# generated using pymatgen
data_HfZrTiNb
_symmetry_space_group_name_H-M   'P 1'
_cell_length_a   14.73211793
_cell_length_b   14.80514274
_cell_length_c   16.76521128
_cell_angle_alpha   93.61255906
_cell_angle_beta   86.17552615
_cell_angle_gamma   122.78766510
_symmetry_Int_Tables_number   1
_chemical_formula_structural   HfZrTiNb
_chemical_formula_sum   'Hf2 Zr2 Ti2 Nb2'
_cell_volume   3065.68624809
_cell_formula_units_Z   2
loop_
 _symmetry_equiv_pos_site_id
 _symmetry_equiv_pos_as_xyz
  1  'x, y, z'
loop_
 _atom_site_type_symbol
 _atom_site_label
 _atom_site_symmetry_multiplicity
 _atom_site_fract_x
 _atom_site_fract_y
 _atom_site_fract_z
 _atom_site_occupancy
  Hf  Hf0  1  0.77786161  0.55558001  0.28211345  1
  Hf  Hf1  1  0.22222222  0.11111111  0.21810000  1
  Zr  Zr2  1  0.54681403  0.77282284  0.03517473  1
  Zr  Zr3  1  0.44694300  0.58023388  0.97926344  1
  Ti  Ti4  1  0.26066296  0.51513833  0.05094662  1
  Ti  Ti5  1  0.13328746  0.73430303  0.55696854  1
  Nb  Nb6  1  0.97396426  0.65267363  0.59971801  1
  Nb  Nb7  1  0.35857890  0.69113605  0.09151521  1
