# generated using pymatgen
data_HfZrTiNb
_symmetry_space_group_name_H-M   'P 1'
_cell_length_a   13.68770596
_cell_length_b   13.50168335
_cell_length_c   16.30867384
_cell_angle_alpha   92.05465691
_cell_angle_beta   92.96252688
_cell_angle_gamma   113.91655902
_symmetry_Int_Tables_number   1
_chemical_formula_structural   HfZrTiNb
_chemical_formula_sum   'Hf2 Zr2 Ti2 Nb2'
_cell_volume   2746.15626174
_cell_formula_units_Z   2
loop_
 _symmetry_equiv_pos_site_id
 _symmetry_equiv_pos_as_xyz
  1  'x, y, z'
loop_
 _atom_site_type_symbol
 _atom_site_label
 _atom_site_symmetry_multiplicity
 _atom_site_fract_x
 _atom_site_fract_y
 _atom_site_fract_z
 _atom_site_occupancy
  Hf  Hf0  1  0.72721014  0.93723324  0.25470061  1
  Hf  Hf1  1  0.57728679  0.12193748  0.72445284  1
  Zr  Zr2  1  0.58182535  0.01709183  0.19592775  1
  Zr  Zr3  1  0.75601509  0.21130004  0.77577933  1
  Ti  Ti4  1  0.88888889  0.77777778  0.71810000  1
  Ti  Ti5  1  0.61246645  0.86650241  0.09693173  1
  Nb  Nb6  1  0.81730780  0.93273921  0.11285911  1
  Nb  Nb7  1  0.75933395  0.08175024  0.12124862  1
