# generated using pymatgen
data_HfZrTiNb
_symmetry_space_group_name_H-M   'P 1'
_cell_length_a   15.13707113
_cell_length_b   14.29204273
_cell_length_c   15.15974898
_cell_angle_alpha   94.66243970
_cell_angle_beta   86.54567814
_cell_angle_gamma   127.58431968
_symmetry_Int_Tables_number   1
_chemical_formula_structural   HfZrTiNb
_chemical_formula_sum   'Hf2 Zr2 Ti2 Nb2'
_cell_volume   2590.14735455
_cell_formula_units_Z   2
loop_
 _symmetry_equiv_pos_site_id
 _symmetry_equiv_pos_as_xyz
  1  'x, y, z'
loop_
 _atom_site_type_symbol
 _atom_site_label
 _atom_site_symmetry_multiplicity
 _atom_site_fract_x
 _atom_site_fract_y
 _atom_site_fract_z
 _atom_site_occupancy
  Hf  Hf0  1  0.55555236  0.77781455  0.71807583  1
  Hf  Hf1  1  0.60924964  0.49372089  0.14182811  1
  Zr  Zr2  1  0.81857958  0.70739402  0.21257874  1
  Zr  Zr3  1  0.72101707  0.19734323  0.34880235  1
  Ti  Ti4  1  0.49661376  0.31313233  1.03586536  1
  Ti  Ti5  1  0.61231947  0.13595333  0.46502181  1
  Nb  Nb6  1  0.11488666  0.39077667  0.87500000  1
  Nb  Nb7  1  0.68855591  0.71175053  0.13902779  1
