# generated using pymatgen
data_HfZrTiNb
_symmetry_space_group_name_H-M   'P 1'
_cell_length_a   7.16151232
_cell_length_b   3.03227139
_cell_length_c   10.92168348
_cell_angle_alpha   94.35206918
_cell_angle_beta   48.14511724
_cell_angle_gamma   76.98128070
_symmetry_Int_Tables_number   1
_chemical_formula_structural   HfZrTiNb
_chemical_formula_sum   'Hf2 Zr2 Ti2 Nb2'
_cell_volume   163.53914197
_cell_formula_units_Z   2
loop_
 _symmetry_equiv_pos_site_id
 _symmetry_equiv_pos_as_xyz
  1  'x, y, z'
loop_
 _atom_site_type_symbol
 _atom_site_label
 _atom_site_symmetry_multiplicity
 _atom_site_fract_x
 _atom_site_fract_y
 _atom_site_fract_z
 _atom_site_occupancy
  Hf  Hf0  1  0.59291564  0.98458655  -0.02265401  1
  Hf  Hf1  1  1.07220741  0.33870563  0.36576439  1
  Zr  Zr2  1  0.60833313  0.52996703  0.23163339  1
  Zr  Zr3  1  1.07486585  0.88860786  0.62334978  1
  Ti  Ti4  1  0.56242567  0.48170998  0.74068547  1
  Ti  Ti5  1  -0.39550388  -0.03239493  0.47659797  1
  Nb  Nb6  1  0.12374671  0.25869197  0.84956585  1
  Nb  Nb7  1  1.08511950  0.82601592  0.11265721  1
