# generated using pymatgen
data_HfZrTiNb
_symmetry_space_group_name_H-M   'P 1'
_cell_length_a   11.62929103
_cell_length_b   12.97065408
_cell_length_c   10.92215006
_cell_angle_alpha   77.93139722
_cell_angle_beta   113.36147840
_cell_angle_gamma   103.82782413
_symmetry_Int_Tables_number   1
_chemical_formula_structural   HfZrTiNb
_chemical_formula_sum   'Hf2 Zr2 Ti2 Nb2'
_cell_volume   1456.47506204
_cell_formula_units_Z   2
loop_
 _symmetry_equiv_pos_site_id
 _symmetry_equiv_pos_as_xyz
  1  'x, y, z'
loop_
 _atom_site_type_symbol
 _atom_site_label
 _atom_site_symmetry_multiplicity
 _atom_site_fract_x
 _atom_site_fract_y
 _atom_site_fract_z
 _atom_site_occupancy
  Hf  Hf0  1  0.36390843  0.18467204  0.91734933  1
  Hf  Hf1  1  0.33210921  0.40490205  0.81421212  1
  Zr  Zr2  1  0.56636131  0.17189846  0.16098592  1
  Zr  Zr3  1  0.53455473  0.37468298  0.06845257  1
  Ti  Ti4  1  0.60389173  0.45960712  0.84380868  1
  Ti  Ti5  1  0.62455898  0.25369731  0.93706874  1
  Nb  Nb6  1  0.44219147  0.28665135  0.70338947  1
  Nb  Nb7  1  0.42508861  0.47688756  0.61333317  1
