# generated using pymatgen
data_HfZrTiNb
_symmetry_space_group_name_H-M   'P 1'
_cell_length_a   11.47361981
_cell_length_b   10.60903232
_cell_length_c   12.42785977
_cell_angle_alpha   100.56839273
_cell_angle_beta   96.18132793
_cell_angle_gamma   105.47209418
_symmetry_Int_Tables_number   1
_chemical_formula_structural   HfZrTiNb
_chemical_formula_sum   'Hf2 Zr2 Ti2 Nb2'
_cell_volume   1413.49996872
_cell_formula_units_Z   2
loop_
 _symmetry_equiv_pos_site_id
 _symmetry_equiv_pos_as_xyz
  1  'x, y, z'
loop_
 _atom_site_type_symbol
 _atom_site_label
 _atom_site_symmetry_multiplicity
 _atom_site_fract_x
 _atom_site_fract_y
 _atom_site_fract_z
 _atom_site_occupancy
  Hf  Hf0  1  0.12076593  0.52549144  0.86980784  1
  Hf  Hf1  1  0.18750849  0.32084482  0.54253301  1
  Zr  Zr2  1  0.16223784  0.58058981  0.66207755  1
  Zr  Zr3  1  0.90233128  0.41337650  0.70148520  1
  Ti  Ti4  1  0.30155517  0.44250431  0.76511712  1
  Ti  Ti5  1  0.92943433  0.18243877  0.53960613  1
  Nb  Nb6  1  0.98303998  0.41191542  0.50686233  1
  Nb  Nb7  1  0.07979365  0.28384227  0.72631085  1
