# generated using pymatgen
data_HfZrTiNb
_symmetry_space_group_name_H-M   'P 1'
_cell_length_a   12.87737387
_cell_length_b   14.57140802
_cell_length_c   14.81151104
_cell_angle_alpha   83.48936691
_cell_angle_beta   102.37870623
_cell_angle_gamma   118.83424620
_symmetry_Int_Tables_number   1
_chemical_formula_structural   HfZrTiNb
_chemical_formula_sum   'Hf2 Zr2 Ti2 Nb2'
_cell_volume   2377.91407006
_cell_formula_units_Z   2
loop_
 _symmetry_equiv_pos_site_id
 _symmetry_equiv_pos_as_xyz
  1  'x, y, z'
loop_
 _atom_site_type_symbol
 _atom_site_label
 _atom_site_symmetry_multiplicity
 _atom_site_fract_x
 _atom_site_fract_y
 _atom_site_fract_z
 _atom_site_occupancy
  Hf  Hf0  1  0.99772284  0.83534700  0.24704559  1
  Hf  Hf1  1  0.95563619  0.44531506  0.82357809  1
  Zr  Zr2  1  0.18275406  0.03919533  0.23612639  1
  Zr  Zr3  1  0.44444444  0.55555556  0.46810000  1
  Ti  Ti4  1  0.93888484  0.43914326  -0.00687152  1
  Ti  Ti5  1  0.10547897  0.44887500  -0.03480657  1
  Nb  Nb6  1  0.60922333  0.88511333  0.87500000  1
  Nb  Nb7  1  0.20652421  0.89945989  0.32802802  1
