# generated using pymatgen
data_HfZrTiNb
_symmetry_space_group_name_H-M   'P 1'
_cell_length_a   8.23754060
_cell_length_b   5.94968375
_cell_length_c   5.98410189
_cell_angle_alpha   110.42416147
_cell_angle_beta   56.21178989
_cell_angle_gamma   137.88601103
_symmetry_Int_Tables_number   1
_chemical_formula_structural   HfZrTiNb
_chemical_formula_sum   'Hf2 Zr2 Ti2 Nb2'
_cell_volume   162.39324260
_cell_formula_units_Z   2
loop_
 _symmetry_equiv_pos_site_id
 _symmetry_equiv_pos_as_xyz
  1  'x, y, z'
loop_
 _atom_site_type_symbol
 _atom_site_label
 _atom_site_symmetry_multiplicity
 _atom_site_fract_x
 _atom_site_fract_y
 _atom_site_fract_z
 _atom_site_occupancy
  Hf  Hf0  1  0.40542256  0.65080027  0.79985498  1
  Hf  Hf1  1  0.92010810  0.41857725  0.77738264  1
  Zr  Zr2  1  0.43240764  0.18204587  0.78364051  1
  Zr  Zr3  1  0.91272440  -0.17659441  0.27152176  1
  Ti  Ti4  1  -0.11323651  0.28883718  0.27000890  1
  Ti  Ti5  1  0.93391765  0.93492472  0.77436826  1
  Nb  Nb6  1  0.40626914  0.57022901  0.28468660  1
  Nb  Nb7  1  0.37827702  0.01629345  0.28853636  1
