# generated using pymatgen
data_HfZrTiNb
_symmetry_space_group_name_H-M   'P 1'
_cell_length_a   8.00306675
_cell_length_b   4.84711017
_cell_length_c   12.06366560
_cell_angle_alpha   122.86949293
_cell_angle_beta   61.60399624
_cell_angle_gamma   127.30898509
_symmetry_Int_Tables_number   1
_chemical_formula_structural   HfZrTiNb
_chemical_formula_sum   'Hf2 Zr2 Ti2 Nb2'
_cell_volume   305.00439293
_cell_formula_units_Z   2
loop_
 _symmetry_equiv_pos_site_id
 _symmetry_equiv_pos_as_xyz
  1  'x, y, z'
loop_
 _atom_site_type_symbol
 _atom_site_label
 _atom_site_symmetry_multiplicity
 _atom_site_fract_x
 _atom_site_fract_y
 _atom_site_fract_z
 _atom_site_occupancy
  Hf  Hf0  1  1.04828523  0.94476445  -0.13092497  1
  Hf  Hf1  1  0.14195195  0.19195571  0.61437760  1
  Zr  Zr2  1  0.64469961  0.68608093  0.61239864  1
  Zr  Zr3  1  0.54703154  0.43677332  0.86939018  1
  Ti  Ti4  1  0.38924711  0.96061810  0.62934940  1
  Ti  Ti5  1  0.30880807  0.69214136  0.85613668  1
  Nb  Nb6  1  0.81269174  0.18253691  0.85056838  1
  Nb  Nb7  1  -0.11493750  0.46068476  0.63490405  1
