# generated using pymatgen
data_HfZrTiNb
_symmetry_space_group_name_H-M   'P 1'
_cell_length_a   13.13352295
_cell_length_b   10.95449007
_cell_length_c   8.47295902
_cell_angle_alpha   112.87902378
_cell_angle_beta   93.14873895
_cell_angle_gamma   123.84039266
_symmetry_Int_Tables_number   1
_chemical_formula_structural   HfZrTiNb
_chemical_formula_sum   'Hf2 Zr2 Ti2 Nb2'
_cell_volume   872.19220175
_cell_formula_units_Z   2
loop_
 _symmetry_equiv_pos_site_id
 _symmetry_equiv_pos_as_xyz
  1  'x, y, z'
loop_
 _atom_site_type_symbol
 _atom_site_label
 _atom_site_symmetry_multiplicity
 _atom_site_fract_x
 _atom_site_fract_y
 _atom_site_fract_z
 _atom_site_occupancy
  Hf  Hf0  1  -0.08799008  0.27716290  0.46478976  1
  Hf  Hf1  1  0.97184802  0.63045701  -0.01102620  1
  Zr  Zr2  1  0.64241686  0.18368643  0.40286787  1
  Zr  Zr3  1  0.68358667  0.94529890  0.27324855  1
  Ti  Ti4  1  0.87982741  0.51908439  0.63035582  1
  Ti  Ti5  1  0.67505278  0.04742539  0.60818925  1
  Nb  Nb6  1  0.90958677  0.32741991  0.79216377  1
  Nb  Nb7  1  0.71644825  0.34535508  0.77561119  1
