# generated using pymatgen
data_HfZrTiNb
_symmetry_space_group_name_H-M   'P 1'
_cell_length_a   15.50597184
_cell_length_b   10.82285160
_cell_length_c   11.49149799
_cell_angle_alpha   108.27687970
_cell_angle_beta   93.40176211
_cell_angle_gamma   132.42514986
_symmetry_Int_Tables_number   1
_chemical_formula_structural   HfZrTiNb
_chemical_formula_sum   'Hf2 Zr2 Ti2 Nb2'
_cell_volume   1246.67527252
_cell_formula_units_Z   2
loop_
 _symmetry_equiv_pos_site_id
 _symmetry_equiv_pos_as_xyz
  1  'x, y, z'
loop_
 _atom_site_type_symbol
 _atom_site_label
 _atom_site_symmetry_multiplicity
 _atom_site_fract_x
 _atom_site_fract_y
 _atom_site_fract_z
 _atom_site_occupancy
  Hf  Hf0  1  0.51688021  0.13526589  0.69130241  1
  Hf  Hf1  1  0.72207592  0.54417148  0.86124495  1
  Zr  Zr2  1  0.79696437  0.60122434  0.64519373  1
  Zr  Zr3  1  0.18507419  0.45400457  0.82347125  1
  Ti  Ti4  1  0.54923707  0.38174171  0.62381975  1
  Ti  Ti5  1  0.59353197  1.20034855  0.48164531  1
  Nb  Nb6  1  0.27028584  0.61793810  0.04404540  1
  Nb  Nb7  1  0.75295155  0.34497091  0.70167719  1
