# generated using pymatgen
data_HfZrTiNb
_symmetry_space_group_name_H-M   'P 1'
_cell_length_a   8.64615016
_cell_length_b   10.26022857
_cell_length_c   15.38816974
_cell_angle_alpha   72.28254721
_cell_angle_beta   105.44282523
_cell_angle_gamma   102.56934604
_symmetry_Int_Tables_number   1
_chemical_formula_structural   HfZrTiNb
_chemical_formula_sum   'Hf2 Zr2 Ti2 Nb2'
_cell_volume   1239.46527668
_cell_formula_units_Z   2
loop_
 _symmetry_equiv_pos_site_id
 _symmetry_equiv_pos_as_xyz
  1  'x, y, z'
loop_
 _atom_site_type_symbol
 _atom_site_label
 _atom_site_symmetry_multiplicity
 _atom_site_fract_x
 _atom_site_fract_y
 _atom_site_fract_z
 _atom_site_occupancy
  Hf  Hf0  1  0.93026895  0.48247270  1.01736521  1
  Hf  Hf1  1  0.96928348  0.30097061  0.19968142  1
  Zr  Zr2  1  0.28140790  0.91321485  0.68857444  1
  Zr  Zr3  1  0.86358288  0.20192444  1.03053484  1
  Ti  Ti4  1  0.11685909  0.11214898  0.17232595  1
  Ti  Ti5  1  0.47865723  0.10399127  0.58891125  1
  Nb  Nb6  1  0.17761614  0.35073271  0.07854201  1
  Nb  Nb7  1  0.23599211  0.14754334  0.59646487  1
