# generated using pymatgen
data_HfZrTiNb
_symmetry_space_group_name_H-M   'P 1'
_cell_length_a   4.25086269
_cell_length_b   12.13892384
_cell_length_c   10.34612167
_cell_angle_alpha   111.02711697
_cell_angle_beta   75.14293643
_cell_angle_gamma   110.55046795
_symmetry_Int_Tables_number   1
_chemical_formula_structural   HfZrTiNb
_chemical_formula_sum   'Hf2 Zr2 Ti2 Nb2'
_cell_volume   461.38091298
_cell_formula_units_Z   2
loop_
 _symmetry_equiv_pos_site_id
 _symmetry_equiv_pos_as_xyz
  1  'x, y, z'
loop_
 _atom_site_type_symbol
 _atom_site_label
 _atom_site_symmetry_multiplicity
 _atom_site_fract_x
 _atom_site_fract_y
 _atom_site_fract_z
 _atom_site_occupancy
  Hf  Hf0  1  0.39087507  0.22654468  0.69021448  1
  Hf  Hf1  1  0.76361280  0.38909511  0.15409581  1
  Zr  Zr2  1  0.46160014  0.46952498  0.96259459  1
  Zr  Zr3  1  0.08329225  -0.00221816  -0.18318747  1
  Ti  Ti4  1  0.57764723  0.10165328  1.00035735  1
  Ti  Ti5  1  0.73283686  0.06076739  0.68060941  1
  Nb  Nb6  1  0.20077049  0.23865655  0.01839185  1
  Nb  Nb7  1  0.85058406  0.29375395  0.86312399  1
