# generated using pymatgen
data_HfZrTiNb
_symmetry_space_group_name_H-M   'P 1'
_cell_length_a   10.53342820
_cell_length_b   14.32252256
_cell_length_c   14.03247615
_cell_angle_alpha   77.33881831
_cell_angle_beta   89.50544936
_cell_angle_gamma   124.71281598
_symmetry_Int_Tables_number   1
_chemical_formula_structural   HfZrTiNb
_chemical_formula_sum   'Hf2 Zr2 Ti2 Nb2'
_cell_volume   1674.23497775
_cell_formula_units_Z   2
loop_
 _symmetry_equiv_pos_site_id
 _symmetry_equiv_pos_as_xyz
  1  'x, y, z'
loop_
 _atom_site_type_symbol
 _atom_site_label
 _atom_site_symmetry_multiplicity
 _atom_site_fract_x
 _atom_site_fract_y
 _atom_site_fract_z
 _atom_site_occupancy
  Hf  Hf0  1  0.85322092  0.62512715  0.83890496  1
  Hf  Hf1  1  0.83817752  0.09672159  0.24156118  1
  Zr  Zr2  1  0.80153333  0.64219654  0.64140705  1
  Zr  Zr3  1  0.11154967  0.80730845  0.68485714  1
  Ti  Ti4  1  -0.02177178  0.85830487  0.81984222  1
  Ti  Ti5  1  0.67558904  0.70248429  0.77561419  1
  Nb  Nb6  1  0.90933688  0.86277936  0.64613598  1
  Nb  Nb7  1  0.66003441  0.07174443  0.35167728  1
