# generated using pymatgen
data_HfZrTiNb
_symmetry_space_group_name_H-M   'P 1'
_cell_length_a   12.80827412
_cell_length_b   13.48351210
_cell_length_c   13.61938723
_cell_angle_alpha   78.55105073
_cell_angle_beta   90.86403292
_cell_angle_gamma   137.00408456
_symmetry_Int_Tables_number   1
_chemical_formula_structural   HfZrTiNb
_chemical_formula_sum   'Hf2 Zr2 Ti2 Nb2'
_cell_volume   1542.00302614
_cell_formula_units_Z   2
loop_
 _symmetry_equiv_pos_site_id
 _symmetry_equiv_pos_as_xyz
  1  'x, y, z'
loop_
 _atom_site_type_symbol
 _atom_site_label
 _atom_site_symmetry_multiplicity
 _atom_site_fract_x
 _atom_site_fract_y
 _atom_site_fract_z
 _atom_site_occupancy
  Hf  Hf0  1  0.80371412  0.31199381  0.63199468  1
  Hf  Hf1  1  0.36514628  0.44929711  0.23675992  1
  Zr  Zr2  1  0.76228955  0.27460123  0.83971102  1
  Zr  Zr3  1  1.04396765  0.23979592  0.25020711  1
  Ti  Ti4  1  0.16383300  0.15968506  0.36391272  1
  Ti  Ti5  1  0.03342042  0.39232278  0.73634271  1
  Nb  Nb6  1  0.78763109  1.12834873  0.76261083  1
  Nb  Nb7  1  0.20100122  0.20495867  0.17846102  1
