# generated using pymatgen
data_HfZrTiNb
_symmetry_space_group_name_H-M   'P 1'
_cell_length_a   13.42522237
_cell_length_b   10.66281734
_cell_length_c   13.75292110
_cell_angle_alpha   103.94674662
_cell_angle_beta   106.08044214
_cell_angle_gamma   128.30618527
_symmetry_Int_Tables_number   1
_chemical_formula_structural   HfZrTiNb
_chemical_formula_sum   'Hf2 Zr2 Ti2 Nb2'
_cell_volume   1242.32551402
_cell_formula_units_Z   2
loop_
 _symmetry_equiv_pos_site_id
 _symmetry_equiv_pos_as_xyz
  1  'x, y, z'
loop_
 _atom_site_type_symbol
 _atom_site_label
 _atom_site_symmetry_multiplicity
 _atom_site_fract_x
 _atom_site_fract_y
 _atom_site_fract_z
 _atom_site_occupancy
  Hf  Hf0  1  0.25538141  0.84941645  0.01457991  1
  Hf  Hf1  1  0.77742287  0.88918751  0.46861509  1
  Zr  Zr2  1  0.08090193  0.65113423  0.23947883  1
  Zr  Zr3  1  0.18813169  0.58537905  0.09387671  1
  Ti  Ti4  1  0.31129660  -0.05852673  0.23837213  1
  Ti  Ti5  1  0.87523716  0.36382141  1.00138143  1
  Nb  Nb6  1  1.02837896  0.72343740  0.06125251  1
  Nb  Nb7  1  0.97758604  0.49048735  0.88244339  1
