# generated using pymatgen
data_HfZrTiNb
_symmetry_space_group_name_H-M   'P 1'
_cell_length_a   10.90015191
_cell_length_b   8.32060989
_cell_length_c   15.96013940
_cell_angle_alpha   98.83431014
_cell_angle_beta   89.73353120
_cell_angle_gamma   115.54156534
_symmetry_Int_Tables_number   1
_chemical_formula_structural   HfZrTiNb
_chemical_formula_sum   'Hf2 Zr2 Ti2 Nb2'
_cell_volume   1287.48228915
_cell_formula_units_Z   2
loop_
 _symmetry_equiv_pos_site_id
 _symmetry_equiv_pos_as_xyz
  1  'x, y, z'
loop_
 _atom_site_type_symbol
 _atom_site_label
 _atom_site_symmetry_multiplicity
 _atom_site_fract_x
 _atom_site_fract_y
 _atom_site_fract_z
 _atom_site_occupancy
  Hf  Hf0  1  0.66374724  0.63602696  0.40746843  1
  Hf  Hf1  1  0.73485827  0.33097009  0.35779472  1
  Zr  Zr2  1  0.38760466  0.45260854  0.45460920  1
  Zr  Zr3  1  0.65106289  0.47477619  0.23327435  1
  Ti  Ti4  1  0.57123487  0.32432052  0.48797577  1
  Ti  Ti5  1  0.42257561  0.49593349  0.28923581  1
  Nb  Nb6  1  0.94255667  0.55178000  0.87500000  1
  Nb  Nb7  1  0.46158090  0.23169644  0.33084173  1
