# generated using pymatgen
data_HfZrTiNb
_symmetry_space_group_name_H-M   'P 1'
_cell_length_a   12.07272606
_cell_length_b   12.19117904
_cell_length_c   17.11901698
_cell_angle_alpha   82.73232120
_cell_angle_beta   97.39444201
_cell_angle_gamma   132.98181808
_symmetry_Int_Tables_number   1
_chemical_formula_structural   HfZrTiNb
_chemical_formula_sum   'Hf2 Zr2 Ti2 Nb2'
_cell_volume   1825.31658023
_cell_formula_units_Z   2
loop_
 _symmetry_equiv_pos_site_id
 _symmetry_equiv_pos_as_xyz
  1  'x, y, z'
loop_
 _atom_site_type_symbol
 _atom_site_label
 _atom_site_symmetry_multiplicity
 _atom_site_fract_x
 _atom_site_fract_y
 _atom_site_fract_z
 _atom_site_occupancy
  Hf  Hf0  1  0.37485611  -0.07376338  0.08635542  1
  Hf  Hf1  1  0.56272855  0.44523494  0.53409831  1
  Zr  Zr2  1  0.42726510  0.86328319  0.94511713  1
  Zr  Zr3  1  0.17222591  0.82474259  0.95104721  1
  Ti  Ti4  1  0.13667521  0.57549767  0.95140174  1
  Ti  Ti5  1  1.08013621  0.63775634  0.08441900  1
  Nb  Nb6  1  0.71693701  0.44742950  0.62280169  1
  Nb  Nb7  1  0.31072924  0.67059581  0.07475951  1
