# generated using pymatgen
data_HfZrTiNb
_symmetry_space_group_name_H-M   'P 1'
_cell_length_a   8.14823362
_cell_length_b   15.38470554
_cell_length_c   8.74022592
_cell_angle_alpha   130.46044643
_cell_angle_beta   20.85074953
_cell_angle_gamma   131.58538684
_symmetry_Int_Tables_number   1
_chemical_formula_structural   HfZrTiNb
_chemical_formula_sum   'Hf2 Zr2 Ti2 Nb2'
_cell_volume   290.00010936
_cell_formula_units_Z   2
loop_
 _symmetry_equiv_pos_site_id
 _symmetry_equiv_pos_as_xyz
  1  'x, y, z'
loop_
 _atom_site_type_symbol
 _atom_site_label
 _atom_site_symmetry_multiplicity
 _atom_site_fract_x
 _atom_site_fract_y
 _atom_site_fract_z
 _atom_site_occupancy
  Hf  Hf0  1  0.14635711  0.66957462  0.73546672  1
  Hf  Hf1  1  0.43194114  0.43999861  0.65844250  1
  Zr  Zr2  1  0.40202930  0.96296417  -0.14763041  1
  Zr  Zr3  1  0.71051742  0.73257021  0.75703261  1
  Ti  Ti4  1  0.27337481  0.57449804  0.20912334  1
  Ti  Ti5  1  0.57868194  0.82533361  0.28559164  1
  Nb  Nb6  1  0.82900523  0.57670325  0.22147729  1
  Nb  Nb7  1  1.01131860  0.82380525  0.28049634  1
