# generated using pymatgen
data_HfZrTiNb
_symmetry_space_group_name_H-M   'P 1'
_cell_length_a   2.93962973
_cell_length_b   12.13428169
_cell_length_c   12.24417217
_cell_angle_alpha   87.55284071
_cell_angle_beta   81.00472647
_cell_angle_gamma   106.05933648
_symmetry_Int_Tables_number   1
_chemical_formula_structural   HfZrTiNb
_chemical_formula_sum   'Hf2 Zr2 Ti2 Nb2'
_cell_volume   412.84419086
_cell_formula_units_Z   2
loop_
 _symmetry_equiv_pos_site_id
 _symmetry_equiv_pos_as_xyz
  1  'x, y, z'
loop_
 _atom_site_type_symbol
 _atom_site_label
 _atom_site_symmetry_multiplicity
 _atom_site_fract_x
 _atom_site_fract_y
 _atom_site_fract_z
 _atom_site_occupancy
  Hf  Hf0  1  0.47508689  1.01319449  0.49887611  1
  Hf  Hf1  1  0.38339569  0.52348987  0.56595918  1
  Zr  Zr2  1  0.14813668  0.02028082  0.11927239  1
  Zr  Zr3  1  0.12809986  0.67638837  0.38743460  1
  Ti  Ti4  1  0.97633200  0.66600871  0.69964740  1
  Ti  Ti5  1  0.58924056  0.11839546  0.29251620  1
  Nb  Nb6  1  0.88002464  0.90096799  0.31948143  1
  Nb  Nb7  1  0.69179814  0.79783319  0.55301268  1
