# generated using pymatgen
data_HfZrTiNb
_symmetry_space_group_name_H-M   'P 1'
_cell_length_a   14.40919406
_cell_length_b   13.52623550
_cell_length_c   15.30040060
_cell_angle_alpha   93.56442572
_cell_angle_beta   90.00000019
_cell_angle_gamma   122.18391793
_symmetry_Int_Tables_number   1
_chemical_formula_structural   HfZrTiNb
_chemical_formula_sum   'Hf2 Zr2 Ti2 Nb2'
_cell_volume   2517.04376431
_cell_formula_units_Z   2
loop_
 _symmetry_equiv_pos_site_id
 _symmetry_equiv_pos_as_xyz
  1  'x, y, z'
loop_
 _atom_site_type_symbol
 _atom_site_label
 _atom_site_symmetry_multiplicity
 _atom_site_fract_x
 _atom_site_fract_y
 _atom_site_fract_z
 _atom_site_occupancy
  Hf  Hf0  1  0.51329170  0.69325006  0.69545526  1
  Hf  Hf1  1  0.77510163  0.21686991  0.55347727  1
  Zr  Zr2  1  0.30959579  0.77777778  0.21810000  1
  Zr  Zr3  1  0.46818199  0.77777778  0.21810000  1
  Ti  Ti4  1  0.19166499  0.04999666  0.68797853  1
  Ti  Ti5  1  0.78045393  0.22757453  0.69652273  1
  Nb  Nb6  1  0.10330830  0.87328326  0.64838810  1
  Nb  Nb7  1  0.41773279  0.50213224  0.65437812  1
