# generated using pymatgen
data_HfZrTiNb
_symmetry_space_group_name_H-M   'P 1'
_cell_length_a   15.17784247
_cell_length_b   13.76573686
_cell_length_c   16.65237950
_cell_angle_alpha   87.37893396
_cell_angle_beta   93.00666531
_cell_angle_gamma   117.82021718
_symmetry_Int_Tables_number   1
_chemical_formula_structural   HfZrTiNb
_chemical_formula_sum   'Hf2 Zr2 Ti2 Nb2'
_cell_volume   3071.98132027
_cell_formula_units_Z   2
loop_
 _symmetry_equiv_pos_site_id
 _symmetry_equiv_pos_as_xyz
  1  'x, y, z'
loop_
 _atom_site_type_symbol
 _atom_site_label
 _atom_site_symmetry_multiplicity
 _atom_site_fract_x
 _atom_site_fract_y
 _atom_site_fract_z
 _atom_site_occupancy
  Hf  Hf0  1  0.11111111  0.55555556  0.96810000  1
  Hf  Hf1  1  0.44444444  0.22222222  0.96810000  1
  Zr  Zr2  1  0.44444444  0.55555556  0.46810000  1
  Zr  Zr3  1  0.09886244  0.94390267  0.74318090  1
  Ti  Ti4  1  0.88223903  0.82348319  0.21501839  1
  Ti  Ti5  1  0.86211281  0.00570112  0.20037846  1
  Nb  Nb6  1  0.06969200  0.05987289  0.66371910  1
  Nb  Nb7  1  0.75753594  0.84125790  0.14580315  1
