# generated using pymatgen
data_HfZrTiNb
_symmetry_space_group_name_H-M   'P 1'
_cell_length_a   10.61904711
_cell_length_b   5.16240157
_cell_length_c   10.35817770
_cell_angle_alpha   88.14072970
_cell_angle_beta   90.23366236
_cell_angle_gamma   99.44691126
_symmetry_Int_Tables_number   1
_chemical_formula_structural   HfZrTiNb
_chemical_formula_sum   'Hf2 Zr2 Ti2 Nb2'
_cell_volume   559.83684877
_cell_formula_units_Z   2
loop_
 _symmetry_equiv_pos_site_id
 _symmetry_equiv_pos_as_xyz
  1  'x, y, z'
loop_
 _atom_site_type_symbol
 _atom_site_label
 _atom_site_symmetry_multiplicity
 _atom_site_fract_x
 _atom_site_fract_y
 _atom_site_fract_z
 _atom_site_occupancy
  Hf  Hf0  1  0.65477748  0.18266383  0.99085342  1
  Hf  Hf1  1  0.67470429  0.44913284  0.71186645  1
  Zr  Zr2  1  0.42291951  0.35967102  0.08699653  1
  Zr  Zr3  1  0.79557651  0.98122099  0.77617422  1
  Ti  Ti4  1  0.64155177  0.67915413  0.96637951  1
  Ti  Ti5  1  0.43261999  0.37309932  0.82375307  1
  Nb  Nb6  1  0.40435449  0.85046690  -0.03813794  1
  Nb  Nb7  1  0.53282708  0.90991987  0.74591473  1
