# generated using pymatgen
data_HfZrTiNb
_symmetry_space_group_name_H-M   'P 1'
_cell_length_a   4.84078243
_cell_length_b   7.86681530
_cell_length_c   12.82727315
_cell_angle_alpha   84.05019830
_cell_angle_beta   90.98161775
_cell_angle_gamma   129.24308984
_symmetry_Int_Tables_number   1
_chemical_formula_structural   HfZrTiNb
_chemical_formula_sum   'Hf2 Zr2 Ti2 Nb2'
_cell_volume   375.53162688
_cell_formula_units_Z   2
loop_
 _symmetry_equiv_pos_site_id
 _symmetry_equiv_pos_as_xyz
  1  'x, y, z'
loop_
 _atom_site_type_symbol
 _atom_site_label
 _atom_site_symmetry_multiplicity
 _atom_site_fract_x
 _atom_site_fract_y
 _atom_site_fract_z
 _atom_site_occupancy
  Hf  Hf0  1  0.25818845  0.26671448  0.78857342  1
  Hf  Hf1  1  0.46728209  0.97774446  0.83753120  1
  Zr  Zr2  1  0.70416043  0.19315667  0.04924080  1
  Zr  Zr3  1  0.72485444  0.74964666  0.78869552  1
  Ti  Ti4  1  0.49324746  0.48672136  -0.01170944  1
  Ti  Ti5  1  0.22198933  -0.29851223  1.02299164  1
  Nb  Nb6  1  0.94738567  0.46161777  0.85684726  1
  Nb  Nb7  1  0.01056214  0.99058085  -0.01837042  1
