# generated using pymatgen
data_HfZrTiNb
_symmetry_space_group_name_H-M   'P 1'
_cell_length_a   14.19053276
_cell_length_b   14.38151725
_cell_length_c   12.07392614
_cell_angle_alpha   86.15706366
_cell_angle_beta   99.06743635
_cell_angle_gamma   120.75078447
_symmetry_Int_Tables_number   1
_chemical_formula_structural   HfZrTiNb
_chemical_formula_sum   'Hf2 Zr2 Ti2 Nb2'
_cell_volume   2090.88525724
_cell_formula_units_Z   2
loop_
 _symmetry_equiv_pos_site_id
 _symmetry_equiv_pos_as_xyz
  1  'x, y, z'
loop_
 _atom_site_type_symbol
 _atom_site_label
 _atom_site_symmetry_multiplicity
 _atom_site_fract_x
 _atom_site_fract_y
 _atom_site_fract_z
 _atom_site_occupancy
  Hf  Hf0  1  0.49328620  0.83025330  0.81956037  1
  Hf  Hf1  1  0.91339028  0.44788107  0.38902945  1
  Zr  Zr2  1  0.88892267  0.44572182  0.17120570  1
  Zr  Zr3  1  0.08657594  0.55084155  0.28546484  1
  Ti  Ti4  1  0.46602040  0.63542103  0.93084620  1
  Ti  Ti5  1  0.65740963  0.82258475  0.96495537  1
  Nb  Nb6  1  0.42341842  0.63610838  0.72385669  1
  Nb  Nb7  1  0.62653200  0.74229921  0.77888138  1
