# generated using pymatgen
data_HfZrTiNb
_symmetry_space_group_name_H-M   'P 1'
_cell_length_a   13.04881021
_cell_length_b   14.89840532
_cell_length_c   12.78693920
_cell_angle_alpha   77.02429080
_cell_angle_beta   100.79704079
_cell_angle_gamma   127.41517575
_symmetry_Int_Tables_number   1
_chemical_formula_structural   HfZrTiNb
_chemical_formula_sum   'Hf2 Zr2 Ti2 Nb2'
_cell_volume   1919.82480310
_cell_formula_units_Z   2
loop_
 _symmetry_equiv_pos_site_id
 _symmetry_equiv_pos_as_xyz
  1  'x, y, z'
loop_
 _atom_site_type_symbol
 _atom_site_label
 _atom_site_symmetry_multiplicity
 _atom_site_fract_x
 _atom_site_fract_y
 _atom_site_fract_z
 _atom_site_occupancy
  Hf  Hf0  1  0.12322661  0.91955424  0.43701549  1
  Hf  Hf1  1  0.71188904  0.53601494  1.00270432  1
  Zr  Zr2  1  0.24127810  0.06206699  0.24879848  1
  Zr  Zr3  1  0.63794831  0.47021887  0.79787295  1
  Ti  Ti4  1  0.81123739  0.41629187  0.09786695  1
  Ti  Ti5  1  0.58977310  0.30785815  0.97299125  1
  Nb  Nb6  1  0.82928249  0.47073080  0.90422403  1
  Nb  Nb7  1  0.27381163  0.92082413  0.34712653  1
