# generated using pymatgen
data_HfZrTiNb
_symmetry_space_group_name_H-M   'P 1'
_cell_length_a   8.56364440
_cell_length_b   4.73814103
_cell_length_c   7.69600734
_cell_angle_alpha   71.32836264
_cell_angle_beta   98.10822296
_cell_angle_gamma   145.80328181
_symmetry_Int_Tables_number   1
_chemical_formula_structural   HfZrTiNb
_chemical_formula_sum   'Hf2 Zr2 Ti2 Nb2'
_cell_volume   161.71741711
_cell_formula_units_Z   2
loop_
 _symmetry_equiv_pos_site_id
 _symmetry_equiv_pos_as_xyz
  1  'x, y, z'
loop_
 _atom_site_type_symbol
 _atom_site_label
 _atom_site_symmetry_multiplicity
 _atom_site_fract_x
 _atom_site_fract_y
 _atom_site_fract_z
 _atom_site_occupancy
  Hf  Hf0  1  0.73983219  0.38098945  0.65451587  1
  Hf  Hf1  1  0.97260938  0.56114840  1.01072311  1
  Zr  Zr2  1  0.33752867  0.51282685  1.16487615  1
  Zr  Zr3  1  1.03308182  0.44002825  0.41993175  1
  Ti  Ti4  1  0.15112471  0.44001335  0.79132426  1
  Ti  Ti5  1  0.70510136  0.53735962  0.25526080  1
  Nb  Nb6  1  0.37837445  0.39981942  0.55750709  1
  Nb  Nb7  1  0.57123626  0.50559240  -0.10413906  1
