# generated using pymatgen
data_HfZrTiNb
_symmetry_space_group_name_H-M   'P 1'
_cell_length_a   5.23746140
_cell_length_b   10.87934702
_cell_length_c   13.33051979
_cell_angle_alpha   89.73764942
_cell_angle_beta   67.94206292
_cell_angle_gamma   98.85552823
_symmetry_Int_Tables_number   1
_chemical_formula_structural   HfZrTiNb
_chemical_formula_sum   'Hf2 Zr2 Ti2 Nb2'
_cell_volume   693.96979507
_cell_formula_units_Z   2
loop_
 _symmetry_equiv_pos_site_id
 _symmetry_equiv_pos_as_xyz
  1  'x, y, z'
loop_
 _atom_site_type_symbol
 _atom_site_label
 _atom_site_symmetry_multiplicity
 _atom_site_fract_x
 _atom_site_fract_y
 _atom_site_fract_z
 _atom_site_occupancy
  Hf  Hf0  1  0.74675020  0.73802258  0.65347009  1
  Hf  Hf1  1  0.51235620  0.31258225  0.76422250  1
  Zr  Zr2  1  0.15017428  0.69435318  0.75112447  1
  Zr  Zr3  1  0.51880688  0.56431447  0.84200965  1
  Ti  Ti4  1  0.46608799  0.50794268  0.62026427  1
  Ti  Ti5  1  0.96610165  0.51170127  0.62092241  1
  Nb  Nb6  1  0.98753245  0.43584704  0.82747145  1
  Nb  Nb7  1  1.09285923  0.28890432  0.67051518  1
