# generated using pymatgen
data_HfZrTiNb
_symmetry_space_group_name_H-M   'P 1'
_cell_length_a   14.68561060
_cell_length_b   14.95133373
_cell_length_c   15.33557313
_cell_angle_alpha   92.80815790
_cell_angle_beta   90.89711234
_cell_angle_gamma   117.83269087
_symmetry_Int_Tables_number   1
_chemical_formula_structural   HfZrTiNb
_chemical_formula_sum   'Hf2 Zr2 Ti2 Nb2'
_cell_volume   2971.27845560
_cell_formula_units_Z   2
loop_
 _symmetry_equiv_pos_site_id
 _symmetry_equiv_pos_as_xyz
  1  'x, y, z'
loop_
 _atom_site_type_symbol
 _atom_site_label
 _atom_site_symmetry_multiplicity
 _atom_site_fract_x
 _atom_site_fract_y
 _atom_site_fract_z
 _atom_site_occupancy
  Hf  Hf0  1  0.73572642  0.53637349  0.68937894  1
  Hf  Hf1  1  0.78205449  0.55737108  0.52391687  1
  Zr  Zr2  1  0.22222222  0.44444444  0.21810000  1
  Zr  Zr3  1  0.18190820  0.81952643  0.05399316  1
  Ti  Ti4  1  0.59333021  0.46181099  0.56860418  1
  Ti  Ti5  1  0.75489424  0.19981046  0.95526887  1
  Nb  Nb6  1  0.09775735  0.90080802  0.10290684  1
  Nb  Nb7  1  0.63210687  0.07985509  0.88783113  1
