# generated using pymatgen
data_HfZrTiNb
_symmetry_space_group_name_H-M   'P 1'
_cell_length_a   9.20973770
_cell_length_b   13.89978825
_cell_length_c   11.19815470
_cell_angle_alpha   81.61800473
_cell_angle_beta   106.99505851
_cell_angle_gamma   125.24247440
_symmetry_Int_Tables_number   1
_chemical_formula_structural   HfZrTiNb
_chemical_formula_sum   'Hf2 Zr2 Ti2 Nb2'
_cell_volume   1119.16695138
_cell_formula_units_Z   2
loop_
 _symmetry_equiv_pos_site_id
 _symmetry_equiv_pos_as_xyz
  1  'x, y, z'
loop_
 _atom_site_type_symbol
 _atom_site_label
 _atom_site_symmetry_multiplicity
 _atom_site_fract_x
 _atom_site_fract_y
 _atom_site_fract_z
 _atom_site_occupancy
  Hf  Hf0  1  0.89401775  0.94996777  0.28984143  1
  Hf  Hf1  1  0.91953370  0.11717020  0.07794350  1
  Zr  Zr2  1  0.74185247  0.76694696  0.91210250  1
  Zr  Zr3  1  0.07398046  0.97628938  1.06315359  1
  Ti  Ti4  1  0.21551835  0.13198593  0.25371661  1
  Ti  Ti5  1  0.82718906  0.76880904  0.16476578  1
  Nb  Nb6  1  0.79426159  -0.02343564  0.87076641  1
  Nb  Nb7  1  0.65230884  0.87159748  1.05391019  1
