# generated using pymatgen
data_HfZrTiNb
_symmetry_space_group_name_H-M   'P 1'
_cell_length_a   14.42733714
_cell_length_b   14.70790350
_cell_length_c   15.60109527
_cell_angle_alpha   92.56806253
_cell_angle_beta   85.18621185
_cell_angle_gamma   117.88327739
_symmetry_Int_Tables_number   1
_chemical_formula_structural   HfZrTiNb
_chemical_formula_sum   'Hf2 Zr2 Ti2 Nb2'
_cell_volume   2915.76814570
_cell_formula_units_Z   2
loop_
 _symmetry_equiv_pos_site_id
 _symmetry_equiv_pos_as_xyz
  1  'x, y, z'
loop_
 _atom_site_type_symbol
 _atom_site_label
 _atom_site_symmetry_multiplicity
 _atom_site_fract_x
 _atom_site_fract_y
 _atom_site_fract_z
 _atom_site_occupancy
  Hf  Hf0  1  0.57532599  0.11153242  0.04278149  1
  Hf  Hf1  1  0.93017060  0.73695221  0.69550305  1
  Zr  Zr2  1  0.53661384  0.74022042  0.52108549  1
  Zr  Zr3  1  0.38620404  0.52256932  1.03857260  1
  Ti  Ti4  1  0.45297000  0.58696645  0.46625526  1
  Ti  Ti5  1  0.29087878  0.48357715  0.16028665  1
  Nb  Nb6  1  0.01616162  0.65004890  0.64759695  1
  Nb  Nb7  1  0.70433957  0.11446536  0.11411851  1
