# generated using pymatgen
data_HfZrTiNb
_symmetry_space_group_name_H-M   'P 1'
_cell_length_a   12.13108881
_cell_length_b   13.18208862
_cell_length_c   12.00865677
_cell_angle_alpha   102.11195086
_cell_angle_beta   58.07911999
_cell_angle_gamma   126.33901790
_symmetry_Int_Tables_number   1
_chemical_formula_structural   HfZrTiNb
_chemical_formula_sum   'Hf2 Zr2 Ti2 Nb2'
_cell_volume   1297.83286859
_cell_formula_units_Z   2
loop_
 _symmetry_equiv_pos_site_id
 _symmetry_equiv_pos_as_xyz
  1  'x, y, z'
loop_
 _atom_site_type_symbol
 _atom_site_label
 _atom_site_symmetry_multiplicity
 _atom_site_fract_x
 _atom_site_fract_y
 _atom_site_fract_z
 _atom_site_occupancy
  Hf  Hf0  1  0.29792578  0.47952679  0.38781900  1
  Hf  Hf1  1  0.02953341  0.46191132  0.62124104  1
  Zr  Zr2  1  0.98107182  0.24793729  0.45885757  1
  Zr  Zr3  1  0.94388844  0.13055461  0.68179475  1
  Ti  Ti4  1  0.90022292  0.30805523  0.85046146  1
  Ti  Ti5  1  0.19351796  0.39218672  0.64509117  1
  Nb  Nb6  1  0.21907513  0.25940145  0.44882087  1
  Nb  Nb7  1  0.76809785  0.21476326  0.71971412  1
