# generated using pymatgen
data_HfZrTiNb
_symmetry_space_group_name_H-M   'P 1'
_cell_length_a   5.47891533
_cell_length_b   10.00818853
_cell_length_c   5.54268201
_cell_angle_alpha   96.36984819
_cell_angle_beta   129.26397717
_cell_angle_gamma   118.56007602
_symmetry_Int_Tables_number   1
_chemical_formula_structural   HfZrTiNb
_chemical_formula_sum   'Hf2 Zr2 Ti2 Nb2'
_cell_volume   164.07490823
_cell_formula_units_Z   2
loop_
 _symmetry_equiv_pos_site_id
 _symmetry_equiv_pos_as_xyz
  1  'x, y, z'
loop_
 _atom_site_type_symbol
 _atom_site_label
 _atom_site_symmetry_multiplicity
 _atom_site_fract_x
 _atom_site_fract_y
 _atom_site_fract_z
 _atom_site_occupancy
  Hf  Hf0  1  0.92804375  0.73573425  0.30856232  1
  Hf  Hf1  1  0.47408208  0.63017869  0.49156514  1
  Zr  Zr2  1  -0.04646089  0.50433534  0.63630505  1
  Zr  Zr3  1  0.77724523  1.20607177  0.75804364  1
  Ti  Ti4  1  0.84279895  -0.02797646  0.03016258  1
  Ti  Ti5  1  1.23389607  0.30713473  0.58246922  1
  Nb  Nb6  1  0.46484514  -0.11267582  0.22352203  1
  Nb  Nb7  1  0.32177420  0.09430638  0.91076996  1
