# generated using pymatgen
data_HfZrTiNb
_symmetry_space_group_name_H-M   'P 1'
_cell_length_a   14.02162382
_cell_length_b   13.95311610
_cell_length_c   15.80019854
_cell_angle_alpha   87.97344172
_cell_angle_beta   89.83340047
_cell_angle_gamma   126.83795664
_symmetry_Int_Tables_number   1
_chemical_formula_structural   HfZrTiNb
_chemical_formula_sum   'Hf2 Zr2 Ti2 Nb2'
_cell_volume   2471.35091204
_cell_formula_units_Z   2
loop_
 _symmetry_equiv_pos_site_id
 _symmetry_equiv_pos_as_xyz
  1  'x, y, z'
loop_
 _atom_site_type_symbol
 _atom_site_label
 _atom_site_symmetry_multiplicity
 _atom_site_fract_x
 _atom_site_fract_y
 _atom_site_fract_z
 _atom_site_occupancy
  Hf  Hf0  1  0.77777778  0.88888889  0.78190000  1
  Hf  Hf1  1  0.81153609  0.40039121  0.55087002  1
  Zr  Zr2  1  0.52222098  0.70888531  0.44468029  1
  Zr  Zr3  1  0.38816221  0.19437679  0.21237083  1
  Ti  Ti4  1  0.48480024  0.87433796  0.45690932  1
  Ti  Ti5  1  0.27850445  0.13895654  0.10142917  1
  Nb  Nb6  1  0.62782880  0.31396133  0.60353068  1
  Nb  Nb7  1  0.66472499  -0.07535358  0.41210968  1
