# generated using pymatgen
data_HfZrTiNb
_symmetry_space_group_name_H-M   'P 1'
_cell_length_a   13.37861173
_cell_length_b   13.53981996
_cell_length_c   15.77978400
_cell_angle_alpha   83.32649180
_cell_angle_beta   99.50430335
_cell_angle_gamma   116.44693430
_symmetry_Int_Tables_number   1
_chemical_formula_structural   HfZrTiNb
_chemical_formula_sum   'Hf2 Zr2 Ti2 Nb2'
_cell_volume   2521.19291737
_cell_formula_units_Z   2
loop_
 _symmetry_equiv_pos_site_id
 _symmetry_equiv_pos_as_xyz
  1  'x, y, z'
loop_
 _atom_site_type_symbol
 _atom_site_label
 _atom_site_symmetry_multiplicity
 _atom_site_fract_x
 _atom_site_fract_y
 _atom_site_fract_z
 _atom_site_occupancy
  Hf  Hf0  1  0.73887183  0.77549347  0.28818950  1
  Hf  Hf1  1  0.75375158  0.59145037  0.35277167  1
  Zr  Zr2  1  0.55555763  0.11110634  0.21810017  1
  Zr  Zr3  1  0.87823174  0.51717483  0.47964420  1
  Ti  Ti4  1  0.11109452  0.22236748  0.78183418  1
  Ti  Ti5  1  0.56069768  0.59543255  0.28639697  1
  Nb  Nb6  1  0.05744333  0.44822000  0.12500000  1
  Nb  Nb7  1  0.01479392  0.57397606  0.59566330  1
