# generated using pymatgen
data_HfZrTiNb
_symmetry_space_group_name_H-M   'P 1'
_cell_length_a   11.35232594
_cell_length_b   13.42695872
_cell_length_c   14.76289774
_cell_angle_alpha   79.54972521
_cell_angle_beta   86.15778371
_cell_angle_gamma   138.19001565
_symmetry_Int_Tables_number   1
_chemical_formula_structural   HfZrTiNb
_chemical_formula_sum   'Hf2 Zr2 Ti2 Nb2'
_cell_volume   1403.36320846
_cell_formula_units_Z   2
loop_
 _symmetry_equiv_pos_site_id
 _symmetry_equiv_pos_as_xyz
  1  'x, y, z'
loop_
 _atom_site_type_symbol
 _atom_site_label
 _atom_site_symmetry_multiplicity
 _atom_site_fract_x
 _atom_site_fract_y
 _atom_site_fract_z
 _atom_site_occupancy
  Hf  Hf0  1  0.38691074  0.71365319  1.10214375  1
  Hf  Hf1  1  0.64552357  0.98123467  0.16084374  1
  Zr  Zr2  1  0.29057176  0.83524054  0.18112614  1
  Zr  Zr3  1  0.48810998  0.68791191  0.27212606  1
  Ti  Ti4  1  0.40440771  -0.18234208  0.34150709  1
  Ti  Ti5  1  0.17016565  0.23952763  0.75209695  1
  Nb  Nb6  1  0.33172213  0.25858459  0.65480305  1
  Nb  Nb7  1  1.17147734  0.57730067  0.28535321  1
