# generated using pymatgen
data_HfZrTiNb
_symmetry_space_group_name_H-M   'P 1'
_cell_length_a   10.29813194
_cell_length_b   5.87833235
_cell_length_c   5.84483745
_cell_angle_alpha   63.15663238
_cell_angle_beta   79.40679996
_cell_angle_gamma   94.38488506
_symmetry_Int_Tables_number   1
_chemical_formula_structural   HfZrTiNb
_chemical_formula_sum   'Hf2 Zr2 Ti2 Nb2'
_cell_volume   305.14279361
_cell_formula_units_Z   2
loop_
 _symmetry_equiv_pos_site_id
 _symmetry_equiv_pos_as_xyz
  1  'x, y, z'
loop_
 _atom_site_type_symbol
 _atom_site_label
 _atom_site_symmetry_multiplicity
 _atom_site_fract_x
 _atom_site_fract_y
 _atom_site_fract_z
 _atom_site_occupancy
  Hf  Hf0  1  0.30717794  0.25811044  0.88385184  1
  Hf  Hf1  1  0.56559522  1.05236705  0.95635697  1
  Zr  Zr2  1  0.28854976  0.26771205  0.39335528  1
  Zr  Zr3  1  0.29897794  0.76983136  0.38999088  1
  Ti  Ti4  1  0.54386237  0.56620750  0.46977236  1
  Ti  Ti5  1  0.31317331  0.75765592  0.88923530  1
  Nb  Nb6  1  0.53577462  0.53696568  -0.01769257  1
  Nb  Nb7  1  0.53011436  0.06326443  0.47132991  1
