# generated using pymatgen
data_HfZrTiNb
_symmetry_space_group_name_H-M   'P 1'
_cell_length_a   8.93122174
_cell_length_b   5.98515406
_cell_length_c   12.79343282
_cell_angle_alpha   70.90101400
_cell_angle_beta   157.85220892
_cell_angle_gamma   124.70182726
_symmetry_Int_Tables_number   1
_chemical_formula_structural   HfZrTiNb
_chemical_formula_sum   'Hf2 Zr2 Ti2 Nb2'
_cell_volume   161.86620933
_cell_formula_units_Z   2
loop_
 _symmetry_equiv_pos_site_id
 _symmetry_equiv_pos_as_xyz
  1  'x, y, z'
loop_
 _atom_site_type_symbol
 _atom_site_label
 _atom_site_symmetry_multiplicity
 _atom_site_fract_x
 _atom_site_fract_y
 _atom_site_fract_z
 _atom_site_occupancy
  Hf  Hf0  1  0.39693790  -0.21750302  0.87862921  1
  Hf  Hf1  1  0.71307908  0.19104559  0.67854381  1
  Zr  Zr2  1  0.57685236  0.36104523  0.99153566  1
  Zr  Zr3  1  -0.08355667  1.03077970  0.40026156  1
  Ti  Ti4  1  0.74841235  0.71150312  0.69661712  1
  Ti  Ti5  1  1.14245195  0.42372417  0.13542959  1
  Nb  Nb6  1  0.01857899  0.57261886  0.45553401  1
  Nb  Nb7  1  0.26879735  0.98422973  0.19964908  1
