# generated using pymatgen
data_HfZrTiNb
_symmetry_space_group_name_H-M   'P 1'
_cell_length_a   9.24986028
_cell_length_b   12.84150360
_cell_length_c   12.41800264
_cell_angle_alpha   82.30241047
_cell_angle_beta   78.23248263
_cell_angle_gamma   108.14719134
_symmetry_Int_Tables_number   1
_chemical_formula_structural   HfZrTiNb
_chemical_formula_sum   'Hf2 Zr2 Ti2 Nb2'
_cell_volume   1340.94047431
_cell_formula_units_Z   2
loop_
 _symmetry_equiv_pos_site_id
 _symmetry_equiv_pos_as_xyz
  1  'x, y, z'
loop_
 _atom_site_type_symbol
 _atom_site_label
 _atom_site_symmetry_multiplicity
 _atom_site_fract_x
 _atom_site_fract_y
 _atom_site_fract_z
 _atom_site_occupancy
  Hf  Hf0  1  0.03923599  0.93945251  0.15674410  1
  Hf  Hf1  1  1.03018145  0.16407974  0.07121018  1
  Zr  Zr2  1  0.52653306  0.72124776  0.65707527  1
  Zr  Zr3  1  0.47346694  0.61208558  0.52912473  1
  Ti  Ti4  1  -0.00739149  0.88257492  0.94816108  1
  Ti  Ti5  1  -0.02893926  0.09063712  0.87221491  1
  Nb  Nb6  1  0.81209133  0.96996417  0.06484154  1
  Nb  Nb7  1  0.20471420  0.06440266  0.95062818  1
