# generated using pymatgen
data_HfZrTiNb
_symmetry_space_group_name_H-M   'P 1'
_cell_length_a   12.04380263
_cell_length_b   9.95332947
_cell_length_c   10.82869088
_cell_angle_alpha   76.25346460
_cell_angle_beta   54.58871095
_cell_angle_gamma   121.60403259
_symmetry_Int_Tables_number   1
_chemical_formula_structural   HfZrTiNb
_chemical_formula_sum   'Hf2 Zr2 Ti2 Nb2'
_cell_volume   564.10393133
_cell_formula_units_Z   2
loop_
 _symmetry_equiv_pos_site_id
 _symmetry_equiv_pos_as_xyz
  1  'x, y, z'
loop_
 _atom_site_type_symbol
 _atom_site_label
 _atom_site_symmetry_multiplicity
 _atom_site_fract_x
 _atom_site_fract_y
 _atom_site_fract_z
 _atom_site_occupancy
  Hf  Hf0  1  1.06834573  0.54866758  0.43695827  1
  Hf  Hf1  1  0.87896029  0.44642591  0.83707417  1
  Zr  Zr2  1  0.55583242  0.03711738  0.94225218  1
  Zr  Zr3  1  0.79810878  0.11223342  0.10075404  1
  Ti  Ti4  1  0.28790597  0.61423806  0.58690019  1
  Ti  Ti5  1  0.94742226  0.20480940  0.73824927  1
  Nb  Nb6  1  0.39951358  -0.06013718  0.31473458  1
  Nb  Nb7  1  0.45846320  0.71341985  0.22927728  1
