# generated using pymatgen
data_HfZrTiNb
_symmetry_space_group_name_H-M   'P 1'
_cell_length_a   10.88484553
_cell_length_b   11.98713754
_cell_length_c   12.16105406
_cell_angle_alpha   99.49868250
_cell_angle_beta   92.30935768
_cell_angle_gamma   120.09011103
_symmetry_Int_Tables_number   1
_chemical_formula_structural   HfZrTiNb
_chemical_formula_sum   'Hf2 Zr2 Ti2 Nb2'
_cell_volume   1339.94774800
_cell_formula_units_Z   2
loop_
 _symmetry_equiv_pos_site_id
 _symmetry_equiv_pos_as_xyz
  1  'x, y, z'
loop_
 _atom_site_type_symbol
 _atom_site_label
 _atom_site_symmetry_multiplicity
 _atom_site_fract_x
 _atom_site_fract_y
 _atom_site_fract_z
 _atom_site_occupancy
  Hf  Hf0  1  0.83098690  0.37025272  0.13101258  1
  Hf  Hf1  1  0.56267157  0.14333905  0.03504033  1
  Zr  Zr2  1  0.39474947  0.31683910  0.23868598  1
  Zr  Zr3  1  0.35693505  0.04859661  0.18116551  1
  Ti  Ti4  1  0.62618243  0.27105214  0.27066650  1
  Ti  Ti5  1  0.37468108  0.22303624  0.99163879  1
  Nb  Nb6  1  0.61937509  0.41007164  0.11990622  1
  Nb  Nb7  1  0.17697507  1.10192582  0.09568409  1
