# generated using pymatgen
data_HfZrTiNb
_symmetry_space_group_name_H-M   'P 1'
_cell_length_a   3.00976933
_cell_length_b   12.14780051
_cell_length_c   14.19363131
_cell_angle_alpha   71.15736344
_cell_angle_beta   80.85886652
_cell_angle_gamma   89.75933155
_symmetry_Int_Tables_number   1
_chemical_formula_structural   HfZrTiNb
_chemical_formula_sum   'Hf2 Zr2 Ti2 Nb2'
_cell_volume   484.28365875
_cell_formula_units_Z   2
loop_
 _symmetry_equiv_pos_site_id
 _symmetry_equiv_pos_as_xyz
  1  'x, y, z'
loop_
 _atom_site_type_symbol
 _atom_site_label
 _atom_site_symmetry_multiplicity
 _atom_site_fract_x
 _atom_site_fract_y
 _atom_site_fract_z
 _atom_site_occupancy
  Hf  Hf0  1  0.75742999  0.88923699  1.09864123  1
  Hf  Hf1  1  0.25816619  0.65621562  0.18702859  1
  Zr  Zr2  1  0.46503087  0.62502102  0.38807022  1
  Zr  Zr3  1  -0.01742953  0.86802393  0.75910734  1
  Ti  Ti4  1  0.43058196  0.66351521  -0.15769599  1
  Ti  Ti5  1  0.83984137  0.66695906  1.00433082  1
  Nb  Nb6  1  0.99796835  0.82422908  0.28757891  1
  Nb  Nb7  1  0.37574634  0.86046685  0.93293884  1
