# generated using pymatgen
data_HfZrTiNb
_symmetry_space_group_name_H-M   'P 1'
_cell_length_a   4.91989781
_cell_length_b   10.25939076
_cell_length_c   7.13463996
_cell_angle_alpha   99.35150217
_cell_angle_beta   108.50434715
_cell_angle_gamma   113.16058367
_symmetry_Int_Tables_number   1
_chemical_formula_structural   HfZrTiNb
_chemical_formula_sum   'Hf2 Zr2 Ti2 Nb2'
_cell_volume   296.44189822
_cell_formula_units_Z   2
loop_
 _symmetry_equiv_pos_site_id
 _symmetry_equiv_pos_as_xyz
  1  'x, y, z'
loop_
 _atom_site_type_symbol
 _atom_site_label
 _atom_site_symmetry_multiplicity
 _atom_site_fract_x
 _atom_site_fract_y
 _atom_site_fract_z
 _atom_site_occupancy
  Hf  Hf0  1  0.07416988  0.56885410  -0.01626432  1
  Hf  Hf1  1  0.66953273  0.55060147  0.20752323  1
  Zr  Zr2  1  0.05391599  0.74369708  0.63637059  1
  Zr  Zr3  1  0.63198967  0.71372189  0.85692275  1
  Ti  Ti4  1  0.73657882  0.42736311  0.55908094  1
  Ti  Ti5  1  0.31048627  0.40084131  0.75129002  1
  Nb  Nb6  1  0.47036003  0.76842468  0.40827387  1
  Nb  Nb7  1  0.22152104  0.49693858  0.41060290  1
