# generated using pymatgen
data_HfZrTiNb
_symmetry_space_group_name_H-M   'P 1'
_cell_length_a   7.60874244
_cell_length_b   5.38432467
_cell_length_c   10.12159643
_cell_angle_alpha   82.56880772
_cell_angle_beta   85.66436852
_cell_angle_gamma   134.27544173
_symmetry_Int_Tables_number   1
_chemical_formula_structural   HfZrTiNb
_chemical_formula_sum   'Hf2 Zr2 Ti2 Nb2'
_cell_volume   286.25126055
_cell_formula_units_Z   2
loop_
 _symmetry_equiv_pos_site_id
 _symmetry_equiv_pos_as_xyz
  1  'x, y, z'
loop_
 _atom_site_type_symbol
 _atom_site_label
 _atom_site_symmetry_multiplicity
 _atom_site_fract_x
 _atom_site_fract_y
 _atom_site_fract_z
 _atom_site_occupancy
  Hf  Hf0  1  0.34122837  0.02715593  0.39828920  1
  Hf  Hf1  1  0.71062370  0.48613139  0.12027161  1
  Zr  Zr2  1  0.82549001  0.49520221  0.41458347  1
  Zr  Zr3  1  0.66348397  0.91131773  0.22089736  1
  Ti  Ti4  1  0.17804383  0.18266667  0.16101532  1
  Ti  Ti5  1  0.19956758  0.70940809  0.15738678  1
  Nb  Nb6  1  0.55168142  0.70353395  0.49410010  1
  Nb  Nb7  1  1.08543667  1.26236178  0.41105617  1
