# generated using pymatgen
data_HfZrTiNb
_symmetry_space_group_name_H-M   'P 1'
_cell_length_a   14.42991042
_cell_length_b   7.46482667
_cell_length_c   5.31802670
_cell_angle_alpha   41.09886110
_cell_angle_beta   121.26157756
_cell_angle_gamma   125.11682215
_symmetry_Int_Tables_number   1
_chemical_formula_structural   HfZrTiNb
_chemical_formula_sum   'Hf2 Zr2 Ti2 Nb2'
_cell_volume   304.10641848
_cell_formula_units_Z   2
loop_
 _symmetry_equiv_pos_site_id
 _symmetry_equiv_pos_as_xyz
  1  'x, y, z'
loop_
 _atom_site_type_symbol
 _atom_site_label
 _atom_site_symmetry_multiplicity
 _atom_site_fract_x
 _atom_site_fract_y
 _atom_site_fract_z
 _atom_site_occupancy
  Hf  Hf0  1  0.93746904  0.56862774  0.20561156  1
  Hf  Hf1  1  0.66787239  0.33707146  1.03106156  1
  Zr  Zr2  1  0.81245813  0.96064577  0.43048148  1
  Zr  Zr3  1  0.66203143  0.81108796  -0.10437778  1
  Ti  Ti4  1  0.56969236  0.22206290  0.54028104  1
  Ti  Ti5  1  0.92732842  0.04102545  0.02335211  1
  Nb  Nb6  1  0.79546476  0.44128159  0.59840055  1
  Nb  Nb7  1  1.01090901  0.55697826  0.83898948  1
