# generated using pymatgen
data_HfZrTiNb
_symmetry_space_group_name_H-M   'P 1'
_cell_length_a   5.83731750
_cell_length_b   8.47014148
_cell_length_c   5.68522177
_cell_angle_alpha   113.74286281
_cell_angle_beta   87.60367188
_cell_angle_gamma   136.58806930
_symmetry_Int_Tables_number   1
_chemical_formula_structural   HfZrTiNb
_chemical_formula_sum   'Hf2 Zr2 Ti2 Nb2'
_cell_volume   162.18274817
_cell_formula_units_Z   2
loop_
 _symmetry_equiv_pos_site_id
 _symmetry_equiv_pos_as_xyz
  1  'x, y, z'
loop_
 _atom_site_type_symbol
 _atom_site_label
 _atom_site_symmetry_multiplicity
 _atom_site_fract_x
 _atom_site_fract_y
 _atom_site_fract_z
 _atom_site_occupancy
  Hf  Hf0  1  0.87786081  0.53278608  0.64435809  1
  Hf  Hf1  1  0.87780643  0.36384903  1.07275391  1
  Zr  Zr2  1  0.70722474  0.91315465  0.59145771  1
  Zr  Zr3  1  0.24333146  -0.03654847  0.50451905  1
  Ti  Ti4  1  0.26273801  0.41020700  0.56613138  1
  Ti  Ti5  1  0.55326018  0.90468390  0.10444818  1
  Nb  Nb6  1  0.10365221  -0.00178869  0.06585730  1
  Nb  Nb7  1  0.48523728  0.46921204  1.07287437  1
