# generated using pymatgen
data_HfZrTiNb
_symmetry_space_group_name_H-M   'P 1'
_cell_length_a   9.04413749
_cell_length_b   10.53923066
_cell_length_c   6.34514056
_cell_angle_alpha   83.51736869
_cell_angle_beta   78.37810812
_cell_angle_gamma   147.63705961
_symmetry_Int_Tables_number   1
_chemical_formula_structural   HfZrTiNb
_chemical_formula_sum   'Hf2 Zr2 Ti2 Nb2'
_cell_volume   266.91985876
_cell_formula_units_Z   2
loop_
 _symmetry_equiv_pos_site_id
 _symmetry_equiv_pos_as_xyz
  1  'x, y, z'
loop_
 _atom_site_type_symbol
 _atom_site_label
 _atom_site_symmetry_multiplicity
 _atom_site_fract_x
 _atom_site_fract_y
 _atom_site_fract_z
 _atom_site_occupancy
  Hf  Hf0  1  0.09841039  0.37526462  0.11497722  1
  Hf  Hf1  1  0.18478972  0.78017935  0.97951460  1
  Zr  Zr2  1  0.78206306  0.34283723  0.47367271  1
  Zr  Zr3  1  0.21395690  0.46825578  0.56967346  1
  Ti  Ti4  1  0.31079660  0.85928649  0.44351175  1
  Ti  Ti5  1  0.58593826  0.89567334  0.09056782  1
  Nb  Nb6  1  0.77242859  0.30650746  0.94613618  1
  Nb  Nb7  1  0.60717206  -0.07789651  0.63194627  1
