# generated using pymatgen
data_HfZrTiNb
_symmetry_space_group_name_H-M   'P 1'
_cell_length_a   15.14180082
_cell_length_b   13.63953196
_cell_length_c   12.75691271
_cell_angle_alpha   73.57680117
_cell_angle_beta   90.98012230
_cell_angle_gamma   117.65237910
_symmetry_Int_Tables_number   1
_chemical_formula_structural   HfZrTiNb
_chemical_formula_sum   'Hf2 Zr2 Ti2 Nb2'
_cell_volume   2218.22005225
_cell_formula_units_Z   2
loop_
 _symmetry_equiv_pos_site_id
 _symmetry_equiv_pos_as_xyz
  1  'x, y, z'
loop_
 _atom_site_type_symbol
 _atom_site_label
 _atom_site_symmetry_multiplicity
 _atom_site_fract_x
 _atom_site_fract_y
 _atom_site_fract_z
 _atom_site_occupancy
  Hf  Hf0  1  0.13487896  0.60921165  0.69168584  1
  Hf  Hf1  1  0.77887168  0.15945284  1.05746409  1
  Zr  Zr2  1  0.77686265  0.17550169  0.25291465  1
  Zr  Zr3  1  0.27384882  0.84089160  0.66664855  1
  Ti  Ti4  1  0.77759901  0.99837880  0.22152126  1
  Ti  Ti5  1  0.24420363  0.44484559  0.20555718  1
  Nb  Nb6  1  0.20049555  0.76834342  0.51666561  1
  Nb  Nb7  1  0.36879526  0.44781885  0.13754282  1
