# generated using pymatgen
data_HfZrTiNb
_symmetry_space_group_name_H-M   'P 1'
_cell_length_a   7.55990616
_cell_length_b   7.74080052
_cell_length_c   13.59515649
_cell_angle_alpha   116.80063528
_cell_angle_beta   57.30869124
_cell_angle_gamma   156.50953118
_symmetry_Int_Tables_number   1
_chemical_formula_structural   HfZrTiNb
_chemical_formula_sum   'Hf2 Zr2 Ti2 Nb2'
_cell_volume   264.52880288
_cell_formula_units_Z   2
loop_
 _symmetry_equiv_pos_site_id
 _symmetry_equiv_pos_as_xyz
  1  'x, y, z'
loop_
 _atom_site_type_symbol
 _atom_site_label
 _atom_site_symmetry_multiplicity
 _atom_site_fract_x
 _atom_site_fract_y
 _atom_site_fract_z
 _atom_site_occupancy
  Hf  Hf0  1  0.75187496  0.72534761  0.81785489  1
  Hf  Hf1  1  0.04823920  0.42685203  0.87823219  1
  Zr  Zr2  1  0.67326040  0.81569420  0.26587908  1
  Zr  Zr3  1  0.16591827  0.81033565  1.11699490  1
  Ti  Ti4  1  0.35654693  0.04330901  0.85716464  1
  Ti  Ti5  1  0.99835906  0.42950418  0.23206103  1
  Nb  Nb6  1  0.86222794  0.07662276  0.03222317  1
  Nb  Nb7  1  0.53057432  0.44633676  0.04959011  1
