# generated using pymatgen
data_HfZrTiNb
_symmetry_space_group_name_H-M   'P 1'
_cell_length_a   8.05929741
_cell_length_b   11.47870716
_cell_length_c   13.75991822
_cell_angle_alpha   108.68178163
_cell_angle_beta   96.37597499
_cell_angle_gamma   105.79308647
_symmetry_Int_Tables_number   1
_chemical_formula_structural   HfZrTiNb
_chemical_formula_sum   'Hf2 Zr2 Ti2 Nb2'
_cell_volume   1132.57682617
_cell_formula_units_Z   2
loop_
 _symmetry_equiv_pos_site_id
 _symmetry_equiv_pos_as_xyz
  1  'x, y, z'
loop_
 _atom_site_type_symbol
 _atom_site_label
 _atom_site_symmetry_multiplicity
 _atom_site_fract_x
 _atom_site_fract_y
 _atom_site_fract_z
 _atom_site_occupancy
  Hf  Hf0  1  0.89986759  0.79207598  0.41402069  1
  Hf  Hf1  1  0.38945738  0.54998585  0.92190457  1
  Zr  Zr2  1  0.21314247  0.83852696  0.33745370  1
  Zr  Zr3  1  0.22354017  0.79697626  0.53308991  1
  Ti  Ti4  1  0.07015222  0.03828151  0.41381434  1
  Ti  Ti5  1  0.16775785  0.56411056  0.82478433  1
  Nb  Nb6  1  0.35201326  0.04074133  0.52680792  1
  Nb  Nb7  1  1.07107018  0.99230046  0.59192455  1
