# generated using pymatgen
data_HfZrTiNb
_symmetry_space_group_name_H-M   'P 1'
_cell_length_a   6.48729108
_cell_length_b   5.86447021
_cell_length_c   5.30071609
_cell_angle_alpha   110.25655488
_cell_angle_beta   76.80657370
_cell_angle_gamma   120.71984389
_symmetry_Int_Tables_number   1
_chemical_formula_structural   HfZrTiNb
_chemical_formula_sum   'Hf2 Zr2 Ti2 Nb2'
_cell_volume   162.31229310
_cell_formula_units_Z   2
loop_
 _symmetry_equiv_pos_site_id
 _symmetry_equiv_pos_as_xyz
  1  'x, y, z'
loop_
 _atom_site_type_symbol
 _atom_site_label
 _atom_site_symmetry_multiplicity
 _atom_site_fract_x
 _atom_site_fract_y
 _atom_site_fract_z
 _atom_site_occupancy
  Hf  Hf0  1  1.09221376  -0.05738841  0.60512778  1
  Hf  Hf1  1  0.05247194  0.39660693  0.53340123  1
  Zr  Zr2  1  0.55941648  0.88472195  0.55743467  1
  Zr  Zr3  1  0.84388632  0.74583800  1.07991229  1
  Ti  Ti4  1  0.36417333  0.24717171  1.10090278  1
  Ti  Ti5  1  0.80735449  0.22595666  0.04717004  1
  Nb  Nb6  1  0.57581557  0.40686168  0.59512036  1
  Nb  Nb7  1  0.31389147  0.70201148  0.04473089  1
