# generated using pymatgen
data_HfZrTiNb
_symmetry_space_group_name_H-M   'P 1'
_cell_length_a   8.21172837
_cell_length_b   10.33690753
_cell_length_c   9.77433872
_cell_angle_alpha   93.85028648
_cell_angle_beta   118.13785489
_cell_angle_gamma   145.67817900
_symmetry_Int_Tables_number   1
_chemical_formula_structural   HfZrTiNb
_chemical_formula_sum   'Hf2 Zr2 Ti2 Nb2'
_cell_volume   163.21497062
_cell_formula_units_Z   2
loop_
 _symmetry_equiv_pos_site_id
 _symmetry_equiv_pos_as_xyz
  1  'x, y, z'
loop_
 _atom_site_type_symbol
 _atom_site_label
 _atom_site_symmetry_multiplicity
 _atom_site_fract_x
 _atom_site_fract_y
 _atom_site_fract_z
 _atom_site_occupancy
  Hf  Hf0  1  0.61884183  0.40444522  0.26511077  1
  Hf  Hf1  1  0.57412606  0.80147934  0.59084581  1
  Zr  Zr2  1  0.45871457  1.14877468  0.89691385  1
  Zr  Zr3  1  -0.01940715  0.57343415  0.84251355  1
  Ti  Ti4  1  0.12516086  0.24130436  0.55368585  1
  Ti  Ti5  1  0.51672616  0.09641422  0.37668276  1
  Nb  Nb6  1  0.11068305  0.32458098  0.10245589  1
  Nb  Nb7  1  0.61515463  0.74290045  0.05799148  1
