# generated using pymatgen
data_HfZrTiNb
_symmetry_space_group_name_H-M   'P 1'
_cell_length_a   3.02146527
_cell_length_b   10.59485552
_cell_length_c   14.50507308
_cell_angle_alpha   99.76591394
_cell_angle_beta   94.04806150
_cell_angle_gamma   101.04767185
_symmetry_Int_Tables_number   1
_chemical_formula_structural   HfZrTiNb
_chemical_formula_sum   'Hf2 Zr2 Ti2 Nb2'
_cell_volume   446.56859164
_cell_formula_units_Z   2
loop_
 _symmetry_equiv_pos_site_id
 _symmetry_equiv_pos_as_xyz
  1  'x, y, z'
loop_
 _atom_site_type_symbol
 _atom_site_label
 _atom_site_symmetry_multiplicity
 _atom_site_fract_x
 _atom_site_fract_y
 _atom_site_fract_z
 _atom_site_occupancy
  Hf  Hf0  1  0.45205987  0.61621738  0.57146835  1
  Hf  Hf1  1  -0.09811715  0.47141142  0.70696055  1
  Zr  Zr2  1  0.79300129  0.46746336  0.40199411  1
  Zr  Zr3  1  0.53850708  0.11227166  0.41656090  1
  Ti  Ti4  1  0.11340266  0.25590383  0.30738178  1
  Ti  Ti5  1  0.66372637  0.14601672  0.61206579  1
  Nb  Nb6  1  1.24168953  0.33373698  0.53900024  1
  Nb  Nb7  1  0.29573037  0.26364535  0.75836835  1
