# generated using pymatgen
data_HfZrTiNb
_symmetry_space_group_name_H-M   'P 1'
_cell_length_a   11.11058796
_cell_length_b   13.20533784
_cell_length_c   13.00359504
_cell_angle_alpha   122.64514084
_cell_angle_beta   58.55689360
_cell_angle_gamma   158.64217320
_symmetry_Int_Tables_number   1
_chemical_formula_structural   HfZrTiNb
_chemical_formula_sum   'Hf2 Zr2 Ti2 Nb2'
_cell_volume   583.91206888
_cell_formula_units_Z   2
loop_
 _symmetry_equiv_pos_site_id
 _symmetry_equiv_pos_as_xyz
  1  'x, y, z'
loop_
 _atom_site_type_symbol
 _atom_site_label
 _atom_site_symmetry_multiplicity
 _atom_site_fract_x
 _atom_site_fract_y
 _atom_site_fract_z
 _atom_site_occupancy
  Hf  Hf0  1  0.36911206  -0.01968182  0.44958377  1
  Hf  Hf1  1  0.60979480  0.38991482  0.49118139  1
  Zr  Zr2  1  0.65143670  0.24017388  0.05284389  1
  Zr  Zr3  1  0.33844870  0.19410433  0.28716360  1
  Ti  Ti4  1  0.94690461  0.78558596  0.39909139  1
  Ti  Ti5  1  0.43405308  -0.00497565  0.21173138  1
  Nb  Nb6  1  -0.04719087  0.52701771  0.26986483  1
  Nb  Nb7  1  0.91211205  0.66186298  0.15233973  1
