# generated using pymatgen
data_HfZrTiNb
_symmetry_space_group_name_H-M   'P 1'
_cell_length_a   14.27630810
_cell_length_b   5.88121569
_cell_length_c   4.88301685
_cell_angle_alpha   33.22710617
_cell_angle_beta   104.43571951
_cell_angle_gamma   111.43292025
_symmetry_Int_Tables_number   1
_chemical_formula_structural   HfZrTiNb
_chemical_formula_sum   'Hf2 Zr2 Ti2 Nb2'
_cell_volume   207.83955681
_cell_formula_units_Z   2
loop_
 _symmetry_equiv_pos_site_id
 _symmetry_equiv_pos_as_xyz
  1  'x, y, z'
loop_
 _atom_site_type_symbol
 _atom_site_label
 _atom_site_symmetry_multiplicity
 _atom_site_fract_x
 _atom_site_fract_y
 _atom_site_fract_z
 _atom_site_occupancy
  Hf  Hf0  1  1.06005209  0.64185251  0.49113678  1
  Hf  Hf1  1  0.83440335  0.35971705  1.11480750  1
  Zr  Zr2  1  0.86500564  0.88758022  0.10871552  1
  Zr  Zr3  1  0.64984319  1.13097498  0.71326308  1
  Ti  Ti4  1  0.47239857  0.41725733  0.29750633  1
  Ti  Ti5  1  0.46753811  0.88276296  0.33326717  1
  Nb  Nb6  1  0.63135882  0.59833899  0.73487156  1
  Nb  Nb7  1  0.02317581  0.08906709  0.52023205  1
