# generated using pymatgen
data_HfZrTiNb
_symmetry_space_group_name_H-M   'P 1'
_cell_length_a   5.85663698
_cell_length_b   5.85290943
_cell_length_c   6.39641698
_cell_angle_alpha   74.06505988
_cell_angle_beta   107.34943151
_cell_angle_gamma   128.63234752
_symmetry_Int_Tables_number   1
_chemical_formula_structural   HfZrTiNb
_chemical_formula_sum   'Hf2 Zr2 Ti2 Nb2'
_cell_volume   162.33308250
_cell_formula_units_Z   2
loop_
 _symmetry_equiv_pos_site_id
 _symmetry_equiv_pos_as_xyz
  1  'x, y, z'
loop_
 _atom_site_type_symbol
 _atom_site_label
 _atom_site_symmetry_multiplicity
 _atom_site_fract_x
 _atom_site_fract_y
 _atom_site_fract_z
 _atom_site_occupancy
  Hf  Hf0  1  0.56061517  0.58984239  -0.15210053  1
  Hf  Hf1  1  0.55060682  0.56714483  0.37471387  1
  Zr  Zr2  1  0.40904310  -0.06779441  0.00636846  1
  Zr  Zr3  1  0.05972179  1.08569237  0.10433401  1
  Ti  Ti4  1  0.91205948  0.43802928  0.74673174  1
  Ti  Ti5  1  0.36893765  -0.07222296  0.50437905  1
  Nb  Nb6  1  1.01485481  0.09295472  0.59223869  1
  Nb  Nb7  1  -0.09806106  0.42757265  0.25953474  1
