# generated using pymatgen
data_HfZrTiNb
_symmetry_space_group_name_H-M   'P 1'
_cell_length_a   13.68216161
_cell_length_b   12.55947181
_cell_length_c   15.99948948
_cell_angle_alpha   101.66880656
_cell_angle_beta   94.50488641
_cell_angle_gamma   124.60056087
_symmetry_Int_Tables_number   1
_chemical_formula_structural   HfZrTiNb
_chemical_formula_sum   'Hf2 Zr2 Ti2 Nb2'
_cell_volume   2151.58891723
_cell_formula_units_Z   2
loop_
 _symmetry_equiv_pos_site_id
 _symmetry_equiv_pos_as_xyz
  1  'x, y, z'
loop_
 _atom_site_type_symbol
 _atom_site_label
 _atom_site_symmetry_multiplicity
 _atom_site_fract_x
 _atom_site_fract_y
 _atom_site_fract_z
 _atom_site_occupancy
  Hf  Hf0  1  0.51653604  -0.04005598  0.16993197  1
  Hf  Hf1  1  0.43634354  0.79925134  0.28297762  1
  Zr  Zr2  1  0.63462972  0.84501001  0.22494017  1
  Zr  Zr3  1  0.38419711  0.67030723  0.11015621  1
  Ti  Ti4  1  0.11137041  0.88887946  0.46793185  1
  Ti  Ti5  1  0.58492202  0.83690988  0.05705622  1
  Nb  Nb6  1  0.05744333  0.44822000  0.62500000  1
  Nb  Nb7  1  0.94122450  0.88481138  0.87580597  1
