# generated using pymatgen
data_HfZrTiNb
_symmetry_space_group_name_H-M   'P 1'
_cell_length_a   11.13742770
_cell_length_b   12.77439612
_cell_length_c   16.59605996
_cell_angle_alpha   92.08784618
_cell_angle_beta   86.13524748
_cell_angle_gamma   106.65111338
_symmetry_Int_Tables_number   1
_chemical_formula_structural   HfZrTiNb
_chemical_formula_sum   'Hf2 Zr2 Ti2 Nb2'
_cell_volume   2256.66925614
_cell_formula_units_Z   2
loop_
 _symmetry_equiv_pos_site_id
 _symmetry_equiv_pos_as_xyz
  1  'x, y, z'
loop_
 _atom_site_type_symbol
 _atom_site_label
 _atom_site_symmetry_multiplicity
 _atom_site_fract_x
 _atom_site_fract_y
 _atom_site_fract_z
 _atom_site_occupancy
  Hf  Hf0  1  0.70362594  0.22837344  0.81388814  1
  Hf  Hf1  1  0.51060302  0.25524487  0.92423663  1
  Zr  Zr2  1  0.69993713  0.17385253  0.97693680  1
  Zr  Zr3  1  0.52457618  0.77445014  0.47296763  1
  Ti  Ti4  1  0.47130040  0.56749584  0.47112313  1
  Ti  Ti5  1  0.67087476  0.65828352  0.45952626  1
  Nb  Nb6  1  0.53369128  0.06489364  0.87891275  1
  Nb  Nb7  1  0.72438795  0.78306936  0.12480866  1
