# generated using pymatgen
data_HfZrTiNb
_symmetry_space_group_name_H-M   'P 1'
_cell_length_a   6.05125829
_cell_length_b   5.32140713
_cell_length_c   13.79655403
_cell_angle_alpha   80.09292958
_cell_angle_beta   103.70893286
_cell_angle_gamma   127.19182839
_symmetry_Int_Tables_number   1
_chemical_formula_structural   HfZrTiNb
_chemical_formula_sum   'Hf2 Zr2 Ti2 Nb2'
_cell_volume   343.58909187
_cell_formula_units_Z   2
loop_
 _symmetry_equiv_pos_site_id
 _symmetry_equiv_pos_as_xyz
  1  'x, y, z'
loop_
 _atom_site_type_symbol
 _atom_site_label
 _atom_site_symmetry_multiplicity
 _atom_site_fract_x
 _atom_site_fract_y
 _atom_site_fract_z
 _atom_site_occupancy
  Hf  Hf0  1  0.67950248  0.58502623  0.31711031  1
  Hf  Hf1  1  0.88810459  0.13882246  -0.00796449  1
  Zr  Zr2  1  0.49842892  -0.01331317  0.24153210  1
  Zr  Zr3  1  -0.11278295  0.53878481  0.11285235  1
  Ti  Ti4  1  0.09062051  0.44374602  0.32998950  1
  Ti  Ti5  1  0.33546082  0.04758468  0.01920032  1
  Nb  Nb6  1  0.44581078  0.61120215  0.09488192  1
  Nb  Nb7  1  0.06751932  0.10014238  0.20619794  1
