# generated using pymatgen
data_HfZrTiNb
_symmetry_space_group_name_H-M   'P 1'
_cell_length_a   11.78889659
_cell_length_b   11.54938216
_cell_length_c   12.09751642
_cell_angle_alpha   119.90603680
_cell_angle_beta   14.71605400
_cell_angle_gamma   118.55673105
_symmetry_Int_Tables_number   1
_chemical_formula_structural   HfZrTiNb
_chemical_formula_sum   'Hf2 Zr2 Ti2 Nb2'
_cell_volume   362.63822724
_cell_formula_units_Z   2
loop_
 _symmetry_equiv_pos_site_id
 _symmetry_equiv_pos_as_xyz
  1  'x, y, z'
loop_
 _atom_site_type_symbol
 _atom_site_label
 _atom_site_symmetry_multiplicity
 _atom_site_fract_x
 _atom_site_fract_y
 _atom_site_fract_z
 _atom_site_occupancy
  Hf  Hf0  1  0.30220772  0.47560755  0.23301934  1
  Hf  Hf1  1  0.33156194  0.84066377  0.36139297  1
  Zr  Zr2  1  0.65876866  0.31766531  0.62221960  1
  Zr  Zr3  1  -0.00791971  0.85356827  0.45498702  1
  Ti  Ti4  1  0.38901400  0.68953870  -0.16666831  1
  Ti  Ti5  1  0.94851078  0.66817209  0.80220665  1
  Nb  Nb6  1  0.65700368  0.64560602  0.81324208  1
  Nb  Nb7  1  0.05418623  0.50917829  0.19340063  1
