# generated using pymatgen
data_HfZrTiNb
_symmetry_space_group_name_H-M   'P 1'
_cell_length_a   15.04734582
_cell_length_b   12.65532204
_cell_length_c   15.54769742
_cell_angle_alpha   93.12512023
_cell_angle_beta   91.38357547
_cell_angle_gamma   128.86289331
_symmetry_Int_Tables_number   1
_chemical_formula_structural   HfZrTiNb
_chemical_formula_sum   'Hf2 Zr2 Ti2 Nb2'
_cell_volume   2295.45265890
_cell_formula_units_Z   2
loop_
 _symmetry_equiv_pos_site_id
 _symmetry_equiv_pos_as_xyz
  1  'x, y, z'
loop_
 _atom_site_type_symbol
 _atom_site_label
 _atom_site_symmetry_multiplicity
 _atom_site_fract_x
 _atom_site_fract_y
 _atom_site_fract_z
 _atom_site_occupancy
  Hf  Hf0  1  0.45184718  0.62525272  0.46185723  1
  Hf  Hf1  1  0.08862961  0.21050059  0.97443421  1
  Zr  Zr2  1  0.54132148  0.89339889  0.51517109  1
  Zr  Zr3  1  0.91137039  0.12283274  0.02556579  1
  Ti  Ti4  1  0.83167426  0.34775305  0.62553233  1
  Ti  Ti5  1  0.71330388  0.16725154  0.55068908  1
  Nb  Nb6  1  0.40818606  0.68668098  0.59415006  1
  Nb  Nb7  1  0.05744268  0.94255393  0.62500022  1
