# generated using pymatgen
data_HfZrTiNb
_symmetry_space_group_name_H-M   'P 1'
_cell_length_a   9.84588930
_cell_length_b   9.34332699
_cell_length_c   14.10316099
_cell_angle_alpha   134.78120208
_cell_angle_beta   51.74163113
_cell_angle_gamma   162.52539254
_symmetry_Int_Tables_number   1
_chemical_formula_structural   HfZrTiNb
_chemical_formula_sum   'Hf2 Zr2 Ti2 Nb2'
_cell_volume   267.94825806
_cell_formula_units_Z   2
loop_
 _symmetry_equiv_pos_site_id
 _symmetry_equiv_pos_as_xyz
  1  'x, y, z'
loop_
 _atom_site_type_symbol
 _atom_site_label
 _atom_site_symmetry_multiplicity
 _atom_site_fract_x
 _atom_site_fract_y
 _atom_site_fract_z
 _atom_site_occupancy
  Hf  Hf0  1  0.27669926  0.48306378  0.58421849  1
  Hf  Hf1  1  0.95424781  0.79213522  0.26540789  1
  Zr  Zr2  1  0.07853731  0.49484521  0.34186695  1
  Zr  Zr3  1  0.58512825  0.39928809  0.45591896  1
  Ti  Ti4  1  0.42153545  0.88530981  0.16895064  1
  Ti  Ti5  1  0.32977198  0.30472862  0.14589772  1
  Nb  Nb6  1  0.62921954  -0.14100634  0.41863027  1
  Nb  Nb7  1  0.78230370  0.89652227  1.05530906  1
