# generated using pymatgen
data_HfZrTiNb
_symmetry_space_group_name_H-M   'P 1'
_cell_length_a   14.67899880
_cell_length_b   14.20792528
_cell_length_c   13.57270956
_cell_angle_alpha   104.06064775
_cell_angle_beta   89.65665334
_cell_angle_gamma   116.82911410
_symmetry_Int_Tables_number   1
_chemical_formula_structural   HfZrTiNb
_chemical_formula_sum   'Hf2 Zr2 Ti2 Nb2'
_cell_volume   2432.67954689
_cell_formula_units_Z   2
loop_
 _symmetry_equiv_pos_site_id
 _symmetry_equiv_pos_as_xyz
  1  'x, y, z'
loop_
 _atom_site_type_symbol
 _atom_site_label
 _atom_site_symmetry_multiplicity
 _atom_site_fract_x
 _atom_site_fract_y
 _atom_site_fract_z
 _atom_site_occupancy
  Hf  Hf0  1  0.11098490  0.88897054  0.96810265  1
  Hf  Hf1  1  0.12743320  0.47007611  0.68696389  1
  Zr  Zr2  1  0.12317459  0.31131098  0.52105750  1
  Zr  Zr3  1  0.85292081  0.11345646  0.03585354  1
  Ti  Ti4  1  0.55776298  0.44192960  0.21825853  1
  Ti  Ti5  1  0.73739618  0.18348977  0.16095107  1
  Nb  Nb6  1  0.02788623  0.27227325  0.66610841  1
  Nb  Nb7  1  0.68466333  0.09627105  0.99270442  1
