# generated using pymatgen
data_HfZrTiNb
_symmetry_space_group_name_H-M   'P 1'
_cell_length_a   11.38767020
_cell_length_b   9.59958860
_cell_length_c   14.21536391
_cell_angle_alpha   127.05422124
_cell_angle_beta   92.95428373
_cell_angle_gamma   107.83123330
_symmetry_Int_Tables_number   1
_chemical_formula_structural   HfZrTiNb
_chemical_formula_sum   'Hf2 Zr2 Ti2 Nb2'
_cell_volume   1122.16925658
_cell_formula_units_Z   2
loop_
 _symmetry_equiv_pos_site_id
 _symmetry_equiv_pos_as_xyz
  1  'x, y, z'
loop_
 _atom_site_type_symbol
 _atom_site_label
 _atom_site_symmetry_multiplicity
 _atom_site_fract_x
 _atom_site_fract_y
 _atom_site_fract_z
 _atom_site_occupancy
  Hf  Hf0  1  0.32767820  0.05344677  0.31276449  1
  Hf  Hf1  1  0.15232541  0.82499113  0.35697809  1
  Zr  Zr2  1  0.91841918  0.52159204  0.97253023  1
  Zr  Zr3  1  0.89368208  0.78563072  0.23964555  1
  Ti  Ti4  1  0.19211502  0.64406290  0.11740888  1
  Ti  Ti5  1  0.12013497  0.12889371  0.39079566  1
  Nb  Nb6  1  -0.02623730  0.50059666  0.14136032  1
  Nb  Nb7  1  0.09232465  0.88167051  0.15471679  1
