# generated using pymatgen
data_HfZrTiNb
_symmetry_space_group_name_H-M   'P 1'
_cell_length_a   10.49106692
_cell_length_b   11.43382089
_cell_length_c   5.26411162
_cell_angle_alpha   66.20254579
_cell_angle_beta   86.98208971
_cell_angle_gamma   117.70050221
_symmetry_Int_Tables_number   1
_chemical_formula_structural   HfZrTiNb
_chemical_formula_sum   'Hf2 Zr2 Ti2 Nb2'
_cell_volume   488.53532330
_cell_formula_units_Z   2
loop_
 _symmetry_equiv_pos_site_id
 _symmetry_equiv_pos_as_xyz
  1  'x, y, z'
loop_
 _atom_site_type_symbol
 _atom_site_label
 _atom_site_symmetry_multiplicity
 _atom_site_fract_x
 _atom_site_fract_y
 _atom_site_fract_z
 _atom_site_occupancy
  Hf  Hf0  1  0.59268141  1.03305679  0.16945116  1
  Hf  Hf1  1  0.58257405  0.88150668  0.80588165  1
  Zr  Zr2  1  0.26146199  0.80529364  0.67038113  1
  Zr  Zr3  1  0.26219631  0.79578154  0.17878675  1
  Ti  Ti4  1  0.36817681  0.08528854  0.13197454  1
  Ti  Ti5  1  0.45032890  0.70667840  0.47136937  1
  Nb  Nb6  1  0.33578841  0.60647518  1.07087218  1
  Nb  Nb7  1  0.48012543  0.08591923  0.62888325  1
