# generated using pymatgen
data_HfZrTiNb
_symmetry_space_group_name_H-M   'P 1'
_cell_length_a   11.98904027
_cell_length_b   12.90350052
_cell_length_c   10.57768287
_cell_angle_alpha   77.72689723
_cell_angle_beta   89.79331376
_cell_angle_gamma   129.23426211
_symmetry_Int_Tables_number   1
_chemical_formula_structural   HfZrTiNb
_chemical_formula_sum   'Hf2 Zr2 Ti2 Nb2'
_cell_volume   1217.73406929
_cell_formula_units_Z   2
loop_
 _symmetry_equiv_pos_site_id
 _symmetry_equiv_pos_as_xyz
  1  'x, y, z'
loop_
 _atom_site_type_symbol
 _atom_site_label
 _atom_site_symmetry_multiplicity
 _atom_site_fract_x
 _atom_site_fract_y
 _atom_site_fract_z
 _atom_site_occupancy
  Hf  Hf0  1  0.09075847  0.94936555  1.01958032  1
  Hf  Hf1  1  0.98661515  0.08037705  0.85324108  1
  Zr  Zr2  1  0.78505649  0.83148998  0.06410752  1
  Zr  Zr3  1  0.20991932  0.18042296  0.14660138  1
  Ti  Ti4  1  0.16615151  0.32999823  -0.06509277  1
  Ti  Ti5  1  0.93543833  1.09693379  1.10473074  1
  Nb  Nb6  1  0.26903294  0.22636011  0.88192927  1
  Nb  Nb7  1  0.94780443  0.91427565  0.24490245  1
