# generated using pymatgen
data_HfZrTiNb
_symmetry_space_group_name_H-M   'P 1'
_cell_length_a   10.14161409
_cell_length_b   14.88196073
_cell_length_c   16.35129145
_cell_angle_alpha   87.55300883
_cell_angle_beta   102.74395715
_cell_angle_gamma   124.59747350
_symmetry_Int_Tables_number   1
_chemical_formula_structural   HfZrTiNb
_chemical_formula_sum   'Hf2 Zr2 Ti2 Nb2'
_cell_volume   1970.89460949
_cell_formula_units_Z   2
loop_
 _symmetry_equiv_pos_site_id
 _symmetry_equiv_pos_as_xyz
  1  'x, y, z'
loop_
 _atom_site_type_symbol
 _atom_site_label
 _atom_site_symmetry_multiplicity
 _atom_site_fract_x
 _atom_site_fract_y
 _atom_site_fract_z
 _atom_site_occupancy
  Hf  Hf0  1  0.70946726  0.48846367  0.48173108  1
  Hf  Hf1  1  0.48805609  0.53259842  0.51296952  1
  Zr  Zr2  1  0.50996287  0.60609006  0.95622201  1
  Zr  Zr3  1  0.84487833  0.47188201  0.64536843  1
  Ti  Ti4  1  0.30681806  0.51493682  0.06330200  1
  Ti  Ti5  1  0.52275581  0.39364612  0.61097755  1
  Nb  Nb6  1  0.76440030  0.61152201  0.62395342  1
  Nb  Nb7  1  0.57399573  0.66052645  0.10547600  1
