# generated using pymatgen
data_HfZrTiNb
_symmetry_space_group_name_H-M   'P 1'
_cell_length_a   11.08077683
_cell_length_b   2.95726273
_cell_length_c   7.39631283
_cell_angle_alpha   77.38178217
_cell_angle_beta   135.36338722
_cell_angle_gamma   90.86906645
_symmetry_Int_Tables_number   1
_chemical_formula_structural   HfZrTiNb
_chemical_formula_sum   'Hf2 Zr2 Ti2 Nb2'
_cell_volume   162.66153504
_cell_formula_units_Z   2
loop_
 _symmetry_equiv_pos_site_id
 _symmetry_equiv_pos_as_xyz
  1  'x, y, z'
loop_
 _atom_site_type_symbol
 _atom_site_label
 _atom_site_symmetry_multiplicity
 _atom_site_fract_x
 _atom_site_fract_y
 _atom_site_fract_z
 _atom_site_occupancy
  Hf  Hf0  1  0.76685330  0.02344664  0.31786309  1
  Hf  Hf1  1  0.88243506  0.35702842  0.83914920  1
  Zr  Zr2  1  1.14165783  0.96046733  -0.17197525  1
  Zr  Zr3  1  0.50904814  0.43687145  0.32783212  1
  Ti  Ti4  1  0.02862738  0.68782424  0.34369838  1
  Ti  Ti5  1  0.25321610  0.24583882  0.33098943  1
  Nb  Nb6  1  0.62858420  0.69872279  0.82164061  1
  Nb  Nb7  1  0.39502573  0.14535583  0.81840242  1
