# generated using pymatgen
data_HfZrTiNb
_symmetry_space_group_name_H-M   'P 1'
_cell_length_a   9.91471477
_cell_length_b   3.08273988
_cell_length_c   12.46137138
_cell_angle_alpha   91.97208511
_cell_angle_beta   64.39314798
_cell_angle_gamma   90.15352537
_symmetry_Int_Tables_number   1
_chemical_formula_structural   HfZrTiNb
_chemical_formula_sum   'Hf2 Zr2 Ti2 Nb2'
_cell_volume   343.23130920
_cell_formula_units_Z   2
loop_
 _symmetry_equiv_pos_site_id
 _symmetry_equiv_pos_as_xyz
  1  'x, y, z'
loop_
 _atom_site_type_symbol
 _atom_site_label
 _atom_site_symmetry_multiplicity
 _atom_site_fract_x
 _atom_site_fract_y
 _atom_site_fract_z
 _atom_site_occupancy
  Hf  Hf0  1  0.53797537  0.96914890  0.08357773  1
  Hf  Hf1  1  0.71293374  0.44705148  0.84744088  1
  Zr  Zr2  1  0.04541088  0.96740879  0.10032492  1
  Zr  Zr3  1  0.81376770  0.46505932  0.05423823  1
  Ti  Ti4  1  -0.01970217  0.94043975  0.84554840  1
  Ti  Ti5  1  0.28610557  0.47422694  0.10124130  1
  Nb  Nb6  1  0.19399681  0.44089630  0.88506271  1
  Nb  Nb7  1  0.42573652  -0.04511593  0.89636578  1
