# generated using pymatgen
data_HfZrTiNb
_symmetry_space_group_name_H-M   'P 1'
_cell_length_a   5.95530970
_cell_length_b   5.41621881
_cell_length_c   10.61943445
_cell_angle_alpha   95.58761493
_cell_angle_beta   151.46162697
_cell_angle_gamma   87.24064362
_symmetry_Int_Tables_number   1
_chemical_formula_structural   HfZrTiNb
_chemical_formula_sum   'Hf2 Zr2 Ti2 Nb2'
_cell_volume   162.36194449
_cell_formula_units_Z   2
loop_
 _symmetry_equiv_pos_site_id
 _symmetry_equiv_pos_as_xyz
  1  'x, y, z'
loop_
 _atom_site_type_symbol
 _atom_site_label
 _atom_site_symmetry_multiplicity
 _atom_site_fract_x
 _atom_site_fract_y
 _atom_site_fract_z
 _atom_site_occupancy
  Hf  Hf0  1  0.68661119  1.01982582  0.10504621  1
  Hf  Hf1  1  0.23380598  1.03744658  0.63473248  1
  Zr  Zr2  1  0.75111070  0.21521876  0.66418626  1
  Zr  Zr3  1  0.98504579  0.53431819  0.37448238  1
  Ti  Ti4  1  0.53076244  0.70882878  0.42433255  1
  Ti  Ti5  1  0.97767120  0.71539595  0.91015071  1
  Nb  Nb6  1  0.39931254  0.53873601  0.83534672  1
  Nb  Nb7  1  0.27090130  0.23400549  0.17932271  1
