# generated using pymatgen
data_HfZrTiNb
_symmetry_space_group_name_H-M   'P 1'
_cell_length_a   11.33173535
_cell_length_b   3.07365489
_cell_length_c   14.06377104
_cell_angle_alpha   92.00948593
_cell_angle_beta   95.97164240
_cell_angle_gamma   89.40053048
_symmetry_Int_Tables_number   1
_chemical_formula_structural   HfZrTiNb
_chemical_formula_sum   'Hf2 Zr2 Ti2 Nb2'
_cell_volume   486.86979881
_cell_formula_units_Z   2
loop_
 _symmetry_equiv_pos_site_id
 _symmetry_equiv_pos_as_xyz
  1  'x, y, z'
loop_
 _atom_site_type_symbol
 _atom_site_label
 _atom_site_symmetry_multiplicity
 _atom_site_fract_x
 _atom_site_fract_y
 _atom_site_fract_z
 _atom_site_occupancy
  Hf  Hf0  1  0.92756556  0.78356607  0.27116366  1
  Hf  Hf1  1  -0.07213453  0.86908440  0.48341721  1
  Zr  Zr2  1  0.38982855  0.30574437  0.40449293  1
  Zr  Zr3  1  0.08995762  0.33941143  0.62274005  1
  Ti  Ti4  1  0.24050492  0.83658500  0.51686886  1
  Ti  Ti5  1  0.08108347  0.25589755  0.16511394  1
  Nb  Nb6  1  1.10352161  0.32061811  0.38997292  1
  Nb  Nb7  1  0.23589718  0.78720525  0.27383040  1
