# generated using pymatgen
data_HfZrTiNb
_symmetry_space_group_name_H-M   'P 1'
_cell_length_a   12.62553767
_cell_length_b   11.36062398
_cell_length_c   12.36952787
_cell_angle_alpha   82.82869695
_cell_angle_beta   88.29155947
_cell_angle_gamma   159.51176990
_symmetry_Int_Tables_number   1
_chemical_formula_structural   HfZrTiNb
_chemical_formula_sum   'Hf2 Zr2 Ti2 Nb2'
_cell_volume   558.42492103
_cell_formula_units_Z   2
loop_
 _symmetry_equiv_pos_site_id
 _symmetry_equiv_pos_as_xyz
  1  'x, y, z'
loop_
 _atom_site_type_symbol
 _atom_site_label
 _atom_site_symmetry_multiplicity
 _atom_site_fract_x
 _atom_site_fract_y
 _atom_site_fract_z
 _atom_site_occupancy
  Hf  Hf0  1  0.39502426  0.78818208  0.59233420  1
  Hf  Hf1  1  0.64042197  0.02583083  0.81636076  1
  Zr  Zr2  1  0.08021562  0.29814621  0.82603301  1
  Zr  Zr3  1  0.78358780  0.00585791  0.64465701  1
  Ti  Ti4  1  0.78106775  0.44867927  0.75461930  1
  Ti  Ti5  1  0.18483223  0.70534794  0.80683420  1
  Nb  Nb6  1  0.45400343  0.12475291  0.59994750  1
  Nb  Nb7  1  0.95296139  0.49209176  0.58161405  1
