# generated using pymatgen
data_HfZrTiNb
_symmetry_space_group_name_H-M   'P 1'
_cell_length_a   13.60838475
_cell_length_b   9.87362259
_cell_length_c   10.31979015
_cell_angle_alpha   67.02534722
_cell_angle_beta   85.62485074
_cell_angle_gamma   134.33227788
_symmetry_Int_Tables_number   1
_chemical_formula_structural   HfZrTiNb
_chemical_formula_sum   'Hf2 Zr2 Ti2 Nb2'
_cell_volume   774.34853907
_cell_formula_units_Z   2
loop_
 _symmetry_equiv_pos_site_id
 _symmetry_equiv_pos_as_xyz
  1  'x, y, z'
loop_
 _atom_site_type_symbol
 _atom_site_label
 _atom_site_symmetry_multiplicity
 _atom_site_fract_x
 _atom_site_fract_y
 _atom_site_fract_z
 _atom_site_occupancy
  Hf  Hf0  1  0.13297168  0.26665769  0.94988604  1
  Hf  Hf1  1  0.80463590  0.78315127  0.09656203  1
  Zr  Zr2  1  0.88062056  0.18521602  0.91502916  1
  Zr  Zr3  1  0.59914997  0.76737468  0.23976869  1
  Ti  Ti4  1  0.89577408  0.10211082  0.22476881  1
  Ti  Ti5  1  0.95763833  0.87237294  0.28264613  1
  Nb  Nb6  1  0.67676527  0.62390563  0.41911836  1
  Nb  Nb7  1  0.10988755  0.51409763  0.93602078  1
