# generated using pymatgen
data_HfZrTiNb
_symmetry_space_group_name_H-M   'P 1'
_cell_length_a   12.95863684
_cell_length_b   11.04545864
_cell_length_c   10.90530815
_cell_angle_alpha   86.08990454
_cell_angle_beta   61.91216602
_cell_angle_gamma   116.21300674
_symmetry_Int_Tables_number   1
_chemical_formula_structural   HfZrTiNb
_chemical_formula_sum   'Hf2 Zr2 Ti2 Nb2'
_cell_volume   1157.82471105
_cell_formula_units_Z   2
loop_
 _symmetry_equiv_pos_site_id
 _symmetry_equiv_pos_as_xyz
  1  'x, y, z'
loop_
 _atom_site_type_symbol
 _atom_site_label
 _atom_site_symmetry_multiplicity
 _atom_site_fract_x
 _atom_site_fract_y
 _atom_site_fract_z
 _atom_site_occupancy
  Hf  Hf0  1  0.20727102  0.59140708  0.77846671  1
  Hf  Hf1  1  0.09310245  0.57090589  0.59817997  1
  Zr  Zr2  1  0.39323918  0.68726102  0.46599552  1
  Zr  Zr3  1  0.31114338  0.41056856  0.64617407  1
  Ti  Ti4  1  0.07227645  0.30613881  0.93857423  1
  Ti  Ti5  1  0.92566888  0.40820500  -0.09818127  1
  Nb  Nb6  1  0.23873477  0.44918634  0.44915409  1
  Nb  Nb7  1  1.03822940  0.29666174  0.72163667  1
