# generated using pymatgen
data_HfZrTiNb
_symmetry_space_group_name_H-M   'P 1'
_cell_length_a   15.47614395
_cell_length_b   15.65158593
_cell_length_c   16.83868570
_cell_angle_alpha   89.74720630
_cell_angle_beta   89.73348541
_cell_angle_gamma   119.37645062
_symmetry_Int_Tables_number   1
_chemical_formula_structural   HfZrTiNb
_chemical_formula_sum   'Hf2 Zr2 Ti2 Nb2'
_cell_volume   3554.16080098
_cell_formula_units_Z   2
loop_
 _symmetry_equiv_pos_site_id
 _symmetry_equiv_pos_as_xyz
  1  'x, y, z'
loop_
 _atom_site_type_symbol
 _atom_site_label
 _atom_site_symmetry_multiplicity
 _atom_site_fract_x
 _atom_site_fract_y
 _atom_site_fract_z
 _atom_site_occupancy
  Hf  Hf0  1  0.55555556  0.77777778  0.71810000  1
  Hf  Hf1  1  0.77083147  0.22916849  0.76159233  1
  Zr  Zr2  1  0.44444444  0.22222222  0.28190000  1
  Zr  Zr3  1  0.11111111  0.22222222  0.96810000  1
  Ti  Ti4  1  0.77777778  0.88888889  0.28190000  1
  Ti  Ti5  1  0.19645650  0.77838062  0.54641307  1
  Nb  Nb6  1  0.73105631  0.26894373  0.64530767  1
  Nb  Nb7  1  0.08320905  0.78095049  0.61048693  1
