# generated using pymatgen
data_HfZrTiNb
_symmetry_space_group_name_H-M   'P 1'
_cell_length_a   11.15335237
_cell_length_b   12.88796756
_cell_length_c   16.00516862
_cell_angle_alpha   79.89193304
_cell_angle_beta   100.18602781
_cell_angle_gamma   107.86382863
_symmetry_Int_Tables_number   1
_chemical_formula_structural   HfZrTiNb
_chemical_formula_sum   'Hf2 Zr2 Ti2 Nb2'
_cell_volume   2137.08543048
_cell_formula_units_Z   2
loop_
 _symmetry_equiv_pos_site_id
 _symmetry_equiv_pos_as_xyz
  1  'x, y, z'
loop_
 _atom_site_type_symbol
 _atom_site_label
 _atom_site_symmetry_multiplicity
 _atom_site_fract_x
 _atom_site_fract_y
 _atom_site_fract_z
 _atom_site_occupancy
  Hf  Hf0  1  0.52497441  0.05332980  0.59772647  1
  Hf  Hf1  1  0.88888889  0.77777778  0.53190000  1
  Zr  Zr2  1  0.23724354  0.24719010  0.98682471  1
  Zr  Zr3  1  1.03514453  0.07778757  0.04658825  1
  Ti  Ti4  1  0.11177746  0.55656310  0.28157533  1
  Ti  Ti5  1  0.47502559  0.94667020  0.71607353  1
  Nb  Nb6  1  0.26468163  1.05028165  0.06428919  1
  Nb  Nb7  1  0.24381729  0.17551313  0.15262252  1
