# generated using pymatgen
data_HfZrTiNb
_symmetry_space_group_name_H-M   'P 1'
_cell_length_a   13.06362339
_cell_length_b   13.86245671
_cell_length_c   16.70241158
_cell_angle_alpha   89.78529807
_cell_angle_beta   82.12246486
_cell_angle_gamma   128.75082023
_symmetry_Int_Tables_number   1
_chemical_formula_structural   HfZrTiNb
_chemical_formula_sum   'Hf2 Zr2 Ti2 Nb2'
_cell_volume   2320.88610140
_cell_formula_units_Z   2
loop_
 _symmetry_equiv_pos_site_id
 _symmetry_equiv_pos_as_xyz
  1  'x, y, z'
loop_
 _atom_site_type_symbol
 _atom_site_label
 _atom_site_symmetry_multiplicity
 _atom_site_fract_x
 _atom_site_fract_y
 _atom_site_fract_z
 _atom_site_occupancy
  Hf  Hf0  1  0.86785296  0.24592432  0.72892288  1
  Hf  Hf1  1  0.54524087  0.53322684  0.54250886  1
  Zr  Zr2  1  0.49727565  0.70944874  0.57236191  1
  Zr  Zr3  1  0.44405096  0.58944378  0.42491699  1
  Ti  Ti4  1  0.69199399  0.75716757  0.45619858  1
  Ti  Ti5  1  0.29075824  0.46033060  0.57772667  1
  Nb  Nb6  1  0.05360400  0.31368147  0.63616410  1
  Nb  Nb7  1  0.05744333  0.94255667  0.12500000  1
