# generated using pymatgen
data_HfZrTiNb
_symmetry_space_group_name_H-M   'P 1'
_cell_length_a   12.40721372
_cell_length_b   15.04965160
_cell_length_c   16.36841379
_cell_angle_alpha   90.38331781
_cell_angle_beta   99.13503192
_cell_angle_gamma   122.38488290
_symmetry_Int_Tables_number   1
_chemical_formula_structural   HfZrTiNb
_chemical_formula_sum   'Hf2 Zr2 Ti2 Nb2'
_cell_volume   2532.81601580
_cell_formula_units_Z   2
loop_
 _symmetry_equiv_pos_site_id
 _symmetry_equiv_pos_as_xyz
  1  'x, y, z'
loop_
 _atom_site_type_symbol
 _atom_site_label
 _atom_site_symmetry_multiplicity
 _atom_site_fract_x
 _atom_site_fract_y
 _atom_site_fract_z
 _atom_site_occupancy
  Hf  Hf0  1  0.13618010  0.41690561  0.52454370  1
  Hf  Hf1  1  0.12821061  0.58961142  0.46229378  1
  Zr  Zr2  1  0.55316474  0.13173702  0.72526208  1
  Zr  Zr3  1  0.39174562  0.19340483  0.76603580  1
  Ti  Ti4  1  0.88374376  0.12428116  0.02146648  1
  Ti  Ti5  1  0.92569742  0.43221899  0.52713382  1
  Nb  Nb6  1  0.61985013  0.27490505  0.82993224  1
  Nb  Nb7  1  0.97440649  0.39626703  0.39333210  1
