# generated using pymatgen
data_HfZrTiNb
_symmetry_space_group_name_H-M   'P 1'
_cell_length_a   8.49846097
_cell_length_b   12.86863865
_cell_length_c   5.33518432
_cell_angle_alpha   109.27252123
_cell_angle_beta   36.68156024
_cell_angle_gamma   123.24925714
_symmetry_Int_Tables_number   1
_chemical_formula_structural   HfZrTiNb
_chemical_formula_sum   'Hf2 Zr2 Ti2 Nb2'
_cell_volume   284.38208061
_cell_formula_units_Z   2
loop_
 _symmetry_equiv_pos_site_id
 _symmetry_equiv_pos_as_xyz
  1  'x, y, z'
loop_
 _atom_site_type_symbol
 _atom_site_label
 _atom_site_symmetry_multiplicity
 _atom_site_fract_x
 _atom_site_fract_y
 _atom_site_fract_z
 _atom_site_occupancy
  Hf  Hf0  1  0.32355660  0.09546066  0.77260734  1
  Hf  Hf1  1  0.99885760  -0.14461709  0.24762770  1
  Zr  Zr2  1  0.74018100  0.81780273  0.02425406  1
  Zr  Zr3  1  1.00902066  1.23039679  1.16035384  1
  Ti  Ti4  1  -0.09324721  0.07856027  0.75255808  1
  Ti  Ti5  1  0.33804057  0.87649933  0.32745020  1
  Nb  Nb6  1  0.65048099  -0.02329063  0.52801899  1
  Nb  Nb7  1  0.47755423  0.13040681  0.12332978  1
