# generated using pymatgen
data_HfZrTiNb
_symmetry_space_group_name_H-M   'P 1'
_cell_length_a   9.71702803
_cell_length_b   9.93287370
_cell_length_c   12.51447807
_cell_angle_alpha   109.86596007
_cell_angle_beta   89.75162822
_cell_angle_gamma   78.32463516
_symmetry_Int_Tables_number   1
_chemical_formula_structural   HfZrTiNb
_chemical_formula_sum   'Hf2 Zr2 Ti2 Nb2'
_cell_volume   1108.97875440
_cell_formula_units_Z   2
loop_
 _symmetry_equiv_pos_site_id
 _symmetry_equiv_pos_as_xyz
  1  'x, y, z'
loop_
 _atom_site_type_symbol
 _atom_site_label
 _atom_site_symmetry_multiplicity
 _atom_site_fract_x
 _atom_site_fract_y
 _atom_site_fract_z
 _atom_site_occupancy
  Hf  Hf0  1  0.61700525  0.14371933  0.24218341  1
  Hf  Hf1  1  0.84296986  1.05936249  0.87468636  1
  Zr  Zr2  1  0.00369286  1.00099977  1.05239830  1
  Zr  Zr3  1  0.72458096  -0.03807994  0.03260743  1
  Ti  Ti4  1  0.21343823  0.77489860  0.54029993  1
  Ti  Ti5  1  0.63667308  0.26238194  0.06697000  1
  Nb  Nb6  1  0.89491822  0.28659282  0.03932362  1
  Nb  Nb7  1  0.84449933  0.22668387  0.21533095  1
