# generated using pymatgen
data_HfZrTiNb
_symmetry_space_group_name_H-M   'P 1'
_cell_length_a   12.83843888
_cell_length_b   11.88187393
_cell_length_c   13.33480938
_cell_angle_alpha   78.00339881
_cell_angle_beta   102.61037294
_cell_angle_gamma   128.42356757
_symmetry_Int_Tables_number   1
_chemical_formula_structural   HfZrTiNb
_chemical_formula_sum   'Hf2 Zr2 Ti2 Nb2'
_cell_volume   1548.24571386
_cell_formula_units_Z   2
loop_
 _symmetry_equiv_pos_site_id
 _symmetry_equiv_pos_as_xyz
  1  'x, y, z'
loop_
 _atom_site_type_symbol
 _atom_site_label
 _atom_site_symmetry_multiplicity
 _atom_site_fract_x
 _atom_site_fract_y
 _atom_site_fract_z
 _atom_site_occupancy
  Hf  Hf0  1  0.09129333  0.52826808  0.36788284  1
  Hf  Hf1  1  0.15004583  0.33056151  0.38302773  1
  Zr  Zr2  1  0.23624460  0.77775957  0.21803256  1
  Zr  Zr3  1  0.31431386  0.79486033  0.44366315  1
  Ti  Ti4  1  0.49027158  -0.00741306  0.31237426  1
  Ti  Ti5  1  0.35577967  0.59596366  0.44368655  1
  Nb  Nb6  1  0.23391327  0.53637134  0.23310988  1
  Nb  Nb7  1  0.46147119  0.77696191  0.28442303  1
