# generated using pymatgen
data_HfZrTiNb
_symmetry_space_group_name_H-M   'P 1'
_cell_length_a   12.87065082
_cell_length_b   10.86606737
_cell_length_c   6.23043343
_cell_angle_alpha   99.98187415
_cell_angle_beta   81.59133402
_cell_angle_gamma   158.53728562
_symmetry_Int_Tables_number   1
_chemical_formula_structural   HfZrTiNb
_chemical_formula_sum   'Hf2 Zr2 Ti2 Nb2'
_cell_volume   313.72078189
_cell_formula_units_Z   2
loop_
 _symmetry_equiv_pos_site_id
 _symmetry_equiv_pos_as_xyz
  1  'x, y, z'
loop_
 _atom_site_type_symbol
 _atom_site_label
 _atom_site_symmetry_multiplicity
 _atom_site_fract_x
 _atom_site_fract_y
 _atom_site_fract_z
 _atom_site_occupancy
  Hf  Hf0  1  0.50077663  0.47070438  1.11520139  1
  Hf  Hf1  1  0.61952900  0.83334697  -0.06936362  1
  Zr  Zr2  1  0.49198313  0.45405270  0.60989966  1
  Zr  Zr3  1  0.14098221  0.39678515  0.21242901  1
  Ti  Ti4  1  0.60728274  0.80783730  0.43744567  1
  Ti  Ti5  1  0.13234564  0.36797540  0.68765448  1
  Nb  Nb6  1  0.02325720  0.04418849  0.37566026  1
  Nb  Nb7  1  1.03562347  0.06200294  0.88107314  1
