# generated using pymatgen
data_HfZrTiNb
_symmetry_space_group_name_H-M   'P 1'
_cell_length_a   13.24270596
_cell_length_b   10.93244369
_cell_length_c   15.94157968
_cell_angle_alpha   98.87117473
_cell_angle_beta   99.13242693
_cell_angle_gamma   122.03479385
_symmetry_Int_Tables_number   1
_chemical_formula_structural   HfZrTiNb
_chemical_formula_sum   'Hf2 Zr2 Ti2 Nb2'
_cell_volume   1851.68597467
_cell_formula_units_Z   2
loop_
 _symmetry_equiv_pos_site_id
 _symmetry_equiv_pos_as_xyz
  1  'x, y, z'
loop_
 _atom_site_type_symbol
 _atom_site_label
 _atom_site_symmetry_multiplicity
 _atom_site_fract_x
 _atom_site_fract_y
 _atom_site_fract_z
 _atom_site_occupancy
  Hf  Hf0  1  0.11425298  0.75309087  0.00139239  1
  Hf  Hf1  1  0.22222222  0.44444444  0.53190000  1
  Zr  Zr2  1  -0.06658405  0.91136686  0.97588735  1
  Zr  Zr3  1  0.20507302  0.07125449  0.99868771  1
  Ti  Ti4  1  0.10123227  -0.04881356  0.12339999  1
  Ti  Ti5  1  0.89752133  0.67864308  1.05560300  1
  Nb  Nb6  1  0.87108575  0.62485832  0.89091753  1
  Nb  Nb7  1  1.04597314  0.84104549  0.85841202  1
