# generated using pymatgen
data_HfZrTiNb
_symmetry_space_group_name_H-M   'P 1'
_cell_length_a   5.70857901
_cell_length_b   4.84274038
_cell_length_c   11.90404756
_cell_angle_alpha   88.80926344
_cell_angle_beta   100.62099415
_cell_angle_gamma   148.67951826
_symmetry_Int_Tables_number   1
_chemical_formula_structural   HfZrTiNb
_chemical_formula_sum   'Hf2 Zr2 Ti2 Nb2'
_cell_volume   162.01057775
_cell_formula_units_Z   2
loop_
 _symmetry_equiv_pos_site_id
 _symmetry_equiv_pos_as_xyz
  1  'x, y, z'
loop_
 _atom_site_type_symbol
 _atom_site_label
 _atom_site_symmetry_multiplicity
 _atom_site_fract_x
 _atom_site_fract_y
 _atom_site_fract_z
 _atom_site_occupancy
  Hf  Hf0  1  1.25130878  0.65367546  0.58427940  1
  Hf  Hf1  1  0.67403611  0.55544982  0.72662584  1
  Zr  Zr2  1  0.59933434  0.02213388  0.32945656  1
  Zr  Zr3  1  -0.11956046  0.80327257  0.20324613  1
  Ti  Ti4  1  0.55849106  0.47311457  0.46599304  1
  Ti  Ti5  1  1.00072214  0.40761945  0.06589828  1
  Nb  Nb6  1  0.26007392  1.15668975  -0.03292705  1
  Nb  Nb7  1  0.33114969  0.70582229  0.84362782  1
