# generated using pymatgen
data_HfZrTiNb
_symmetry_space_group_name_H-M   'P 1'
_cell_length_a   10.67413335
_cell_length_b   10.87579535
_cell_length_c   10.96671912
_cell_angle_alpha   151.58806621
_cell_angle_beta   78.23660017
_cell_angle_gamma   101.55243635
_symmetry_Int_Tables_number   1
_chemical_formula_structural   HfZrTiNb
_chemical_formula_sum   'Hf2 Zr2 Ti2 Nb2'
_cell_volume   592.43896064
_cell_formula_units_Z   2
loop_
 _symmetry_equiv_pos_site_id
 _symmetry_equiv_pos_as_xyz
  1  'x, y, z'
loop_
 _atom_site_type_symbol
 _atom_site_label
 _atom_site_symmetry_multiplicity
 _atom_site_fract_x
 _atom_site_fract_y
 _atom_site_fract_z
 _atom_site_occupancy
  Hf  Hf0  1  0.86265564  0.01005180  0.23796653  1
  Hf  Hf1  1  0.80118555  0.59366863  1.03728080  1
  Zr  Zr2  1  0.10371834  0.75639577  0.85965657  1
  Zr  Zr3  1  0.82896429  0.53665660  0.71264052  1
  Ti  Ti4  1  -0.01108798  0.29177803  0.64869486  1
  Ti  Ti5  1  0.05399861  0.77720326  0.14593757  1
  Nb  Nb6  1  0.16991233  0.19436588  0.37459152  1
  Nb  Nb7  1  1.02587437  0.33799227  0.36083163  1
