# generated using pymatgen
data_HfZrTiNb
_symmetry_space_group_name_H-M   'P 1'
_cell_length_a   14.47695533
_cell_length_b   11.55115148
_cell_length_c   13.80514560
_cell_angle_alpha   69.16649508
_cell_angle_beta   86.99647661
_cell_angle_gamma   128.72376434
_symmetry_Int_Tables_number   1
_chemical_formula_structural   HfZrTiNb
_chemical_formula_sum   'Hf2 Zr2 Ti2 Nb2'
_cell_volume   1559.12686539
_cell_formula_units_Z   2
loop_
 _symmetry_equiv_pos_site_id
 _symmetry_equiv_pos_as_xyz
  1  'x, y, z'
loop_
 _atom_site_type_symbol
 _atom_site_label
 _atom_site_symmetry_multiplicity
 _atom_site_fract_x
 _atom_site_fract_y
 _atom_site_fract_z
 _atom_site_occupancy
  Hf  Hf0  1  0.27828905  0.40919420  0.23116270  1
  Hf  Hf1  1  0.45552854  -0.01954822  0.10725877  1
  Zr  Zr2  1  0.23218663  0.61940884  0.23760952  1
  Zr  Zr3  1  0.50297790  0.92182264  0.92893589  1
  Ti  Ti4  1  0.27563147  0.82880712  0.02480961  1
  Ti  Ti5  1  0.25705340  0.57890019  1.04835164  1
  Nb  Nb6  1  0.46468199  0.63291017  0.02174776  1
  Nb  Nb7  1  0.47620767  0.75261504  0.15012411  1
