# generated using pymatgen
data_HfZrTiNb
_symmetry_space_group_name_H-M   'P 1'
_cell_length_a   5.52864647
_cell_length_b   10.40284431
_cell_length_c   5.52324382
_cell_angle_alpha   89.38810199
_cell_angle_beta   100.49623546
_cell_angle_gamma   110.90851226
_symmetry_Int_Tables_number   1
_chemical_formula_structural   HfZrTiNb
_chemical_formula_sum   'Hf2 Zr2 Ti2 Nb2'
_cell_volume   291.26794969
_cell_formula_units_Z   2
loop_
 _symmetry_equiv_pos_site_id
 _symmetry_equiv_pos_as_xyz
  1  'x, y, z'
loop_
 _atom_site_type_symbol
 _atom_site_label
 _atom_site_symmetry_multiplicity
 _atom_site_fract_x
 _atom_site_fract_y
 _atom_site_fract_z
 _atom_site_occupancy
  Hf  Hf0  1  0.91898950  0.63473300  0.18269408  1
  Hf  Hf1  1  0.27324764  0.60842561  0.74258759  1
  Zr  Zr2  1  0.29035404  0.90977165  0.02276935  1
  Zr  Zr3  1  0.93923264  0.93637071  0.45755671  1
  Ti  Ti4  1  0.45856932  0.66532079  0.25463187  1
  Ti  Ti5  1  0.74791371  0.87579838  0.95169535  1
  Nb  Nb6  1  0.38663907  -0.14160647  0.52338029  1
  Nb  Nb7  1  0.82405076  0.68351636  0.67848475  1
