# generated using pymatgen
data_HfZrTiNb
_symmetry_space_group_name_H-M   'P 1'
_cell_length_a   13.95485715
_cell_length_b   12.89194054
_cell_length_c   13.74093114
_cell_angle_alpha   107.36086659
_cell_angle_beta   92.36660869
_cell_angle_gamma   116.23843232
_symmetry_Int_Tables_number   1
_chemical_formula_structural   HfZrTiNb
_chemical_formula_sum   'Hf2 Zr2 Ti2 Nb2'
_cell_volume   2072.56489092
_cell_formula_units_Z   2
loop_
 _symmetry_equiv_pos_site_id
 _symmetry_equiv_pos_as_xyz
  1  'x, y, z'
loop_
 _atom_site_type_symbol
 _atom_site_label
 _atom_site_symmetry_multiplicity
 _atom_site_fract_x
 _atom_site_fract_y
 _atom_site_fract_z
 _atom_site_occupancy
  Hf  Hf0  1  0.44444444  0.22222222  0.46810000  1
  Hf  Hf1  1  0.22220554  0.44448947  0.21806220  1
  Zr  Zr2  1  0.89913182  0.66731873  0.75609268  1
  Zr  Zr3  1  0.12298402  0.73805338  0.81736363  1
  Ti  Ti4  1  0.96059976  0.50651714  0.80533747  1
  Ti  Ti5  1  1.01729867  0.84042618  -0.04949250  1
  Nb  Nb6  1  0.06946497  0.68441235  -0.01038903  1
  Nb  Nb7  1  0.86931856  0.61311941  0.93112555  1
