# generated using pymatgen
data_HfZrTiNb
_symmetry_space_group_name_H-M   'P 1'
_cell_length_a   14.60305713
_cell_length_b   14.96430132
_cell_length_c   11.87282292
_cell_angle_alpha   88.10567265
_cell_angle_beta   83.92422181
_cell_angle_gamma   127.09723826
_symmetry_Int_Tables_number   1
_chemical_formula_structural   HfZrTiNb
_chemical_formula_sum   'Hf2 Zr2 Ti2 Nb2'
_cell_volume   2042.37042841
_cell_formula_units_Z   2
loop_
 _symmetry_equiv_pos_site_id
 _symmetry_equiv_pos_as_xyz
  1  'x, y, z'
loop_
 _atom_site_type_symbol
 _atom_site_label
 _atom_site_symmetry_multiplicity
 _atom_site_fract_x
 _atom_site_fract_y
 _atom_site_fract_z
 _atom_site_occupancy
  Hf  Hf0  1  0.83080520  0.73351519  0.20571237  1
  Hf  Hf1  1  0.05685344  0.82067063  0.26553580  1
  Zr  Zr2  1  0.11076999  0.54071183  0.79083131  1
  Zr  Zr3  1  0.88619413  0.70545643  0.45319966  1
  Ti  Ti4  1  0.03722911  0.85002730  1.06125290  1
  Ti  Ti5  1  0.87878889  0.73555835  0.66769603  1
  Nb  Nb6  1  0.69733311  0.59526366  0.37596649  1
  Nb  Nb7  1  0.11502502  0.40579773  0.86600544  1
