# generated using pymatgen
data_HfZrTiNb
_symmetry_space_group_name_H-M   'P 1'
_cell_length_a   13.96381736
_cell_length_b   11.33239564
_cell_length_c   12.77984357
_cell_angle_alpha   76.55769228
_cell_angle_beta   85.28056289
_cell_angle_gamma   132.12605024
_symmetry_Int_Tables_number   1
_chemical_formula_structural   HfZrTiNb
_chemical_formula_sum   'Hf2 Zr2 Ti2 Nb2'
_cell_volume   1376.97626744
_cell_formula_units_Z   2
loop_
 _symmetry_equiv_pos_site_id
 _symmetry_equiv_pos_as_xyz
  1  'x, y, z'
loop_
 _atom_site_type_symbol
 _atom_site_label
 _atom_site_symmetry_multiplicity
 _atom_site_fract_x
 _atom_site_fract_y
 _atom_site_fract_z
 _atom_site_occupancy
  Hf  Hf0  1  0.27527996  0.83611534  0.52473942  1
  Hf  Hf1  1  0.69879044  0.10460631  0.50612785  1
  Zr  Zr2  1  0.22012825  0.62646369  0.75209635  1
  Zr  Zr3  1  0.48210488  0.74624148  0.64560592  1
  Ti  Ti4  1  0.46022954  -0.02387290  0.65183832  1
  Ti  Ti5  1  0.49441108  0.87478986  0.41840936  1
  Nb  Nb6  1  0.54405164  0.13560737  0.43248320  1
  Nb  Nb7  1  0.26567311  0.58138664  0.56869959  1
