# generated using pymatgen
data_HfZrTiNb
_symmetry_space_group_name_H-M   'P 1'
_cell_length_a   13.00152384
_cell_length_b   12.97146694
_cell_length_c   16.18199654
_cell_angle_alpha   86.48572375
_cell_angle_beta   93.51518702
_cell_angle_gamma   108.67626203
_symmetry_Int_Tables_number   1
_chemical_formula_structural   HfZrTiNb
_chemical_formula_sum   'Hf2 Zr2 Ti2 Nb2'
_cell_volume   2577.99968984
_cell_formula_units_Z   2
loop_
 _symmetry_equiv_pos_site_id
 _symmetry_equiv_pos_as_xyz
  1  'x, y, z'
loop_
 _atom_site_type_symbol
 _atom_site_label
 _atom_site_symmetry_multiplicity
 _atom_site_fract_x
 _atom_site_fract_y
 _atom_site_fract_z
 _atom_site_occupancy
  Hf  Hf0  1  0.78449476  0.46138697  0.96621227  1
  Hf  Hf1  1  0.01685277  0.22894762  0.97001356  1
  Zr  Zr2  1  0.86530237  0.80121739  0.46303816  1
  Zr  Zr3  1  0.86531914  0.30966541  0.96807417  1
  Ti  Ti4  1  0.80136430  0.86544928  0.35076184  1
  Ti  Ti5  1  0.22222222  0.77777778  0.21810000  1
  Nb  Nb6  1  0.57790313  0.25205645  0.37553577  1
  Nb  Nb7  1  0.47954020  0.35716689  0.37446423  1
