# generated using pymatgen
data_HfZrTiNb
_symmetry_space_group_name_H-M   'P 1'
_cell_length_a   7.37203457
_cell_length_b   5.90470902
_cell_length_c   5.01845556
_cell_angle_alpha   94.90760948
_cell_angle_beta   48.40322992
_cell_angle_gamma   96.63324771
_symmetry_Int_Tables_number   1
_chemical_formula_structural   HfZrTiNb
_chemical_formula_sum   'Hf2 Zr2 Ti2 Nb2'
_cell_volume   162.26099850
_cell_formula_units_Z   2
loop_
 _symmetry_equiv_pos_site_id
 _symmetry_equiv_pos_as_xyz
  1  'x, y, z'
loop_
 _atom_site_type_symbol
 _atom_site_label
 _atom_site_symmetry_multiplicity
 _atom_site_fract_x
 _atom_site_fract_y
 _atom_site_fract_z
 _atom_site_occupancy
  Hf  Hf0  1  0.55402869  0.78274162  0.45727558  1
  Hf  Hf1  1  1.04877107  0.50721555  0.92531417  1
  Zr  Zr2  1  0.34645873  0.46044718  0.12736172  1
  Zr  Zr3  1  -0.17020855  0.22205839  0.63117367  1
  Ti  Ti4  1  0.84687973  0.74127836  0.65725399  1
  Ti  Ti5  1  0.33035168  0.96658896  0.16721489  1
  Nb  Nb6  1  0.55056245  0.25986857  0.40513695  1
  Nb  Nb7  1  0.05248736  1.00613362  0.94306904  1
