# generated using pymatgen
data_HfZrTiNb
_symmetry_space_group_name_H-M   'P 1'
_cell_length_a   14.48373989
_cell_length_b   12.10376472
_cell_length_c   9.28206059
_cell_angle_alpha   122.05329799
_cell_angle_beta   79.88840146
_cell_angle_gamma   128.12906590
_symmetry_Int_Tables_number   1
_chemical_formula_structural   HfZrTiNb
_chemical_formula_sum   'Hf2 Zr2 Ti2 Nb2'
_cell_volume   1056.26069045
_cell_formula_units_Z   2
loop_
 _symmetry_equiv_pos_site_id
 _symmetry_equiv_pos_as_xyz
  1  'x, y, z'
loop_
 _atom_site_type_symbol
 _atom_site_label
 _atom_site_symmetry_multiplicity
 _atom_site_fract_x
 _atom_site_fract_y
 _atom_site_fract_z
 _atom_site_occupancy
  Hf  Hf0  1  0.54627385  0.10201121  0.23428688  1
  Hf  Hf1  1  0.59100812  1.10990383  0.52777319  1
  Zr  Zr2  1  0.70685477  0.41512653  0.53085336  1
  Zr  Zr3  1  0.74753566  0.14286161  0.25968293  1
  Ti  Ti4  1  0.77787305  0.41266954  0.81513819  1
  Ti  Ti5  1  0.90634862  0.67727027  -0.18903439  1
  Nb  Nb6  1  0.91404391  0.45081909  0.56270391  1
  Nb  Nb7  1  0.81006205  0.19500127  0.57239594  1
