# generated using pymatgen
data_HfZrTiNb
_symmetry_space_group_name_H-M   'P 1'
_cell_length_a   11.16293228
_cell_length_b   12.12905384
_cell_length_c   16.55658076
_cell_angle_alpha   90.73514641
_cell_angle_beta   80.95060077
_cell_angle_gamma   118.56324463
_symmetry_Int_Tables_number   1
_chemical_formula_structural   HfZrTiNb
_chemical_formula_sum   'Hf2 Zr2 Ti2 Nb2'
_cell_volume   1939.31509006
_cell_formula_units_Z   2
loop_
 _symmetry_equiv_pos_site_id
 _symmetry_equiv_pos_as_xyz
  1  'x, y, z'
loop_
 _atom_site_type_symbol
 _atom_site_label
 _atom_site_symmetry_multiplicity
 _atom_site_fract_x
 _atom_site_fract_y
 _atom_site_fract_z
 _atom_site_occupancy
  Hf  Hf0  1  0.35827506  0.21924209  0.51313302  1
  Hf  Hf1  1  0.11799022  0.76080261  0.07150723  1
  Zr  Zr2  1  0.06825705  0.61973193  0.93455507  1
  Zr  Zr3  1  0.84331481  0.56692968  1.04438643  1
  Ti  Ti4  1  0.01604272  0.81494103  0.93480096  1
  Ti  Ti5  1  0.43453168  0.45241284  0.47474728  1
  Nb  Nb6  1  0.90081095  0.79744688  0.07441319  1
  Nb  Nb7  1  0.15344194  1.04815849  0.57485683  1
