# generated using pymatgen
data_HfZrTiNb
_symmetry_space_group_name_H-M   'P 1'
_cell_length_a   13.90770676
_cell_length_b   13.37484146
_cell_length_c   16.16993567
_cell_angle_alpha   91.83156360
_cell_angle_beta   94.08644749
_cell_angle_gamma   124.60055165
_symmetry_Int_Tables_number   1
_chemical_formula_structural   HfZrTiNb
_chemical_formula_sum   'Hf2 Zr2 Ti2 Nb2'
_cell_volume   2459.91125638
_cell_formula_units_Z   2
loop_
 _symmetry_equiv_pos_site_id
 _symmetry_equiv_pos_as_xyz
  1  'x, y, z'
loop_
 _atom_site_type_symbol
 _atom_site_label
 _atom_site_symmetry_multiplicity
 _atom_site_fract_x
 _atom_site_fract_y
 _atom_site_fract_z
 _atom_site_occupancy
  Hf  Hf0  1  0.19693034  0.38538660  0.23649997  1
  Hf  Hf1  1  0.63679058  0.18967253  0.53355173  1
  Zr  Zr2  1  0.87134370  0.67607868  -0.01665805  1
  Zr  Zr3  1  0.55569576  0.78009599  0.71687428  1
  Ti  Ti4  1  0.80732528  0.36368818  0.53269544  1
  Ti  Ti5  1  1.00446312  0.15942067  0.25599598  1
  Nb  Nb6  1  0.18560765  0.22919496  0.31870405  1
  Nb  Nb7  1  0.79928691  0.49235240  0.92233660  1
