# generated using pymatgen
data_HfZrTiNb
_symmetry_space_group_name_H-M   'P 1'
_cell_length_a   12.52504551
_cell_length_b   13.83009548
_cell_length_c   14.48911750
_cell_angle_alpha   68.13346458
_cell_angle_beta   106.13649387
_cell_angle_gamma   121.24587293
_symmetry_Int_Tables_number   1
_chemical_formula_structural   HfZrTiNb
_chemical_formula_sum   'Hf2 Zr2 Ti2 Nb2'
_cell_volume   1980.01822038
_cell_formula_units_Z   2
loop_
 _symmetry_equiv_pos_site_id
 _symmetry_equiv_pos_as_xyz
  1  'x, y, z'
loop_
 _atom_site_type_symbol
 _atom_site_label
 _atom_site_symmetry_multiplicity
 _atom_site_fract_x
 _atom_site_fract_y
 _atom_site_fract_z
 _atom_site_occupancy
  Hf  Hf0  1  0.76135610  0.40363145  0.44676997  1
  Hf  Hf1  1  0.59596780  0.43071538  0.29435259  1
  Zr  Zr2  1  0.24519869  0.72224244  0.77664664  1
  Zr  Zr3  1  0.52215754  0.28131028  0.46645960  1
  Ti  Ti4  1  0.47491721  0.83593840  0.87247956  1
  Ti  Ti5  1  0.32235602  0.62136094  -0.02525239  1
  Nb  Nb6  1  0.26154843  0.52832473  0.82784096  1
  Nb  Nb7  1  0.47938931  0.67458859  0.84070306  1
