# generated using pymatgen
data_HfZrTiNb
_symmetry_space_group_name_H-M   'P 1'
_cell_length_a   14.01840928
_cell_length_b   15.04243285
_cell_length_c   16.87658772
_cell_angle_alpha   90.66612580
_cell_angle_beta   91.49630732
_cell_angle_gamma   122.74251976
_symmetry_Int_Tables_number   1
_chemical_formula_structural   HfZrTiNb
_chemical_formula_sum   'Hf2 Zr2 Ti2 Nb2'
_cell_volume   2990.90218452
_cell_formula_units_Z   2
loop_
 _symmetry_equiv_pos_site_id
 _symmetry_equiv_pos_as_xyz
  1  'x, y, z'
loop_
 _atom_site_type_symbol
 _atom_site_label
 _atom_site_symmetry_multiplicity
 _atom_site_fract_x
 _atom_site_fract_y
 _atom_site_fract_z
 _atom_site_occupancy
  Hf  Hf0  1  0.22263216  0.44538274  0.53173342  1
  Hf  Hf1  1  0.14057752  0.11408703  0.21896949  1
  Zr  Zr2  1  0.44403450  0.88795059  0.46826658  1
  Zr  Zr3  1  0.97053359  0.10813519  0.21723051  1
  Ti  Ti4  1  0.77777778  0.55555556  0.46810000  1
  Ti  Ti5  1  0.84596733  0.40847534  0.00770620  1
  Nb  Nb6  1  0.71614853  0.32105438  0.89743876  1
  Nb  Nb7  1  0.87855302  0.48514139  0.87675504  1
