# generated using pymatgen
data_HfZrTiNb
_symmetry_space_group_name_H-M   'P 1'
_cell_length_a   15.36270835
_cell_length_b   14.44632263
_cell_length_c   14.90910035
_cell_angle_alpha   96.75869302
_cell_angle_beta   88.44815487
_cell_angle_gamma   118.28356841
_symmetry_Int_Tables_number   1
_chemical_formula_structural   HfZrTiNb
_chemical_formula_sum   'Hf2 Zr2 Ti2 Nb2'
_cell_volume   2892.00744521
_cell_formula_units_Z   2
loop_
 _symmetry_equiv_pos_site_id
 _symmetry_equiv_pos_as_xyz
  1  'x, y, z'
loop_
 _atom_site_type_symbol
 _atom_site_label
 _atom_site_symmetry_multiplicity
 _atom_site_fract_x
 _atom_site_fract_y
 _atom_site_fract_z
 _atom_site_occupancy
  Hf  Hf0  1  0.79037503  0.59751106  1.00054383  1
  Hf  Hf1  1  0.44989951  0.54919547  0.71757982  1
  Zr  Zr2  1  0.88521997  0.51097692  0.06175489  1
  Zr  Zr3  1  0.88278358  0.11328566  0.52894390  1
  Ti  Ti4  1  0.87996056  0.66928980  0.15580127  1
  Ti  Ti5  1  0.45355074  0.54803283  0.53391658  1
  Nb  Nb6  1  0.61532864  0.21627212  0.37795610  1
  Nb  Nb7  1  0.37621530  0.62310616  0.62350360  1
