# generated using pymatgen
data_HfZrTiNb
_symmetry_space_group_name_H-M   'P 1'
_cell_length_a   14.30207307
_cell_length_b   11.14424169
_cell_length_c   14.85300338
_cell_angle_alpha   76.47757986
_cell_angle_beta   92.03757329
_cell_angle_gamma   120.36676443
_symmetry_Int_Tables_number   1
_chemical_formula_structural   HfZrTiNb
_chemical_formula_sum   'Hf2 Zr2 Ti2 Nb2'
_cell_volume   1976.28676375
_cell_formula_units_Z   2
loop_
 _symmetry_equiv_pos_site_id
 _symmetry_equiv_pos_as_xyz
  1  'x, y, z'
loop_
 _atom_site_type_symbol
 _atom_site_label
 _atom_site_symmetry_multiplicity
 _atom_site_fract_x
 _atom_site_fract_y
 _atom_site_fract_z
 _atom_site_occupancy
  Hf  Hf0  1  0.22947614  0.12052060  0.71552006  1
  Hf  Hf1  1  0.34488943  0.37441343  0.12999503  1
  Zr  Zr2  1  0.10385719  0.87947940  0.78447994  1
  Zr  Zr3  1  0.88888889  0.44444444  0.53190000  1
  Ti  Ti4  1  0.12962358  0.19734272  0.22432522  1
  Ti  Ti5  1  0.42487423  0.64340962  0.05461916  1
  Nb  Nb6  1  0.27983360  0.15131700  0.28738043  1
  Nb  Nb7  1  0.20400472  1.07796166  0.14938017  1
