# generated using pymatgen
data_HfZrTiNb
_symmetry_space_group_name_H-M   'P 1'
_cell_length_a   15.09868407
_cell_length_b   13.39576011
_cell_length_c   17.09799432
_cell_angle_alpha   90.29441276
_cell_angle_beta   90.46246065
_cell_angle_gamma   124.27833024
_symmetry_Int_Tables_number   1
_chemical_formula_structural   HfZrTiNb
_chemical_formula_sum   'Hf2 Zr2 Ti2 Nb2'
_cell_volume   2857.27062768
_cell_formula_units_Z   2
loop_
 _symmetry_equiv_pos_site_id
 _symmetry_equiv_pos_as_xyz
  1  'x, y, z'
loop_
 _atom_site_type_symbol
 _atom_site_label
 _atom_site_symmetry_multiplicity
 _atom_site_fract_x
 _atom_site_fract_y
 _atom_site_fract_z
 _atom_site_occupancy
  Hf  Hf0  1  0.88891333  0.44488391  0.21781196  1
  Hf  Hf1  1  0.55555556  0.77777778  0.21810000  1
  Zr  Zr2  1  0.21481190  0.32845996  0.03276700  1
  Zr  Zr3  1  0.13196708  0.11170163  0.03248816  1
  Ti  Ti4  1  0.98652991  0.89273227  0.03073288  1
  Ti  Ti5  1  0.53570695  0.09035538  0.70717480  1
  Nb  Nb6  1  0.55178000  0.60922333  0.62500000  1
  Nb  Nb7  1  0.41062528  0.96331240  0.63592520  1
