# generated using pymatgen
data_HfZrTiNb
_symmetry_space_group_name_H-M   'P 1'
_cell_length_a   12.54352191
_cell_length_b   10.78710442
_cell_length_c   16.20494173
_cell_angle_alpha   103.17334932
_cell_angle_beta   87.19719243
_cell_angle_gamma   134.01829553
_symmetry_Int_Tables_number   1
_chemical_formula_structural   HfZrTiNb
_chemical_formula_sum   'Hf2 Zr2 Ti2 Nb2'
_cell_volume   1516.41235880
_cell_formula_units_Z   2
loop_
 _symmetry_equiv_pos_site_id
 _symmetry_equiv_pos_as_xyz
  1  'x, y, z'
loop_
 _atom_site_type_symbol
 _atom_site_label
 _atom_site_symmetry_multiplicity
 _atom_site_fract_x
 _atom_site_fract_y
 _atom_site_fract_z
 _atom_site_occupancy
  Hf  Hf0  1  0.81636438  0.06590905  0.01389693  1
  Hf  Hf1  1  0.56547700  0.00404962  0.06485838  1
  Zr  Zr2  1  0.45249532  0.89064395  0.47653523  1
  Zr  Zr3  1  0.73798649  0.21972320  -0.05289313  1
  Ti  Ti4  1  0.53421491  0.73067346  0.95737619  1
  Ti  Ti5  1  0.70226979  0.94029320  0.84420858  1
  Nb  Nb6  1  0.26783912  0.72235494  0.36656477  1
  Nb  Nb7  1  0.47513297  0.87457258  0.89325305  1
