# generated using pymatgen
data_HfZrTiNb
_symmetry_space_group_name_H-M   'P 1'
_cell_length_a   11.14303454
_cell_length_b   13.24929024
_cell_length_c   11.91710696
_cell_angle_alpha   83.40889723
_cell_angle_beta   115.75228924
_cell_angle_gamma   131.16440144
_symmetry_Int_Tables_number   1
_chemical_formula_structural   HfZrTiNb
_chemical_formula_sum   'Hf2 Zr2 Ti2 Nb2'
_cell_volume   1154.32188635
_cell_formula_units_Z   2
loop_
 _symmetry_equiv_pos_site_id
 _symmetry_equiv_pos_as_xyz
  1  'x, y, z'
loop_
 _atom_site_type_symbol
 _atom_site_label
 _atom_site_symmetry_multiplicity
 _atom_site_fract_x
 _atom_site_fract_y
 _atom_site_fract_z
 _atom_site_occupancy
  Hf  Hf0  1  0.65624900  0.71012042  0.91786002  1
  Hf  Hf1  1  0.27297323  0.52435764  -0.11119362  1
  Zr  Zr2  1  0.12378616  0.29963756  0.68586314  1
  Zr  Zr3  1  0.15063107  0.43445259  0.48043775  1
  Ti  Ti4  1  0.46894222  0.50591229  0.68237349  1
  Ti  Ti5  1  1.01985984  0.44685230  0.62714704  1
  Nb  Nb6  1  0.36394109  0.63305983  0.69650894  1
  Nb  Nb7  1  0.44928075  0.44560737  0.89340323  1
