# generated using pymatgen
data_HfZrTiNb
_symmetry_space_group_name_H-M   'P 1'
_cell_length_a   11.22809158
_cell_length_b   15.76395705
_cell_length_c   9.04829874
_cell_angle_alpha   91.64416164
_cell_angle_beta   119.82448471
_cell_angle_gamma   130.16133200
_symmetry_Int_Tables_number   1
_chemical_formula_structural   HfZrTiNb
_chemical_formula_sum   'Hf2 Zr2 Ti2 Nb2'
_cell_volume   902.37749123
_cell_formula_units_Z   2
loop_
 _symmetry_equiv_pos_site_id
 _symmetry_equiv_pos_as_xyz
  1  'x, y, z'
loop_
 _atom_site_type_symbol
 _atom_site_label
 _atom_site_symmetry_multiplicity
 _atom_site_fract_x
 _atom_site_fract_y
 _atom_site_fract_z
 _atom_site_occupancy
  Hf  Hf0  1  0.89652405  0.70904157  0.89914244  1
  Hf  Hf1  1  0.30164894  0.90984222  0.29928677  1
  Zr  Zr2  1  0.66293583  0.44555453  0.77276960  1
  Zr  Zr3  1  0.00142976  0.63909908  0.19861999  1
  Ti  Ti4  1  0.96911804  0.60740330  0.74141041  1
  Ti  Ti5  1  0.26216648  0.87296286  -0.03349073  1
  Nb  Nb6  1  0.99659110  0.50621713  0.97462833  1
  Nb  Nb7  1  0.29281135  0.75432378  0.14763319  1
