# generated using pymatgen
data_HfZrTiNb
_symmetry_space_group_name_H-M   'P 1'
_cell_length_a   14.36208462
_cell_length_b   12.13800789
_cell_length_c   14.35102851
_cell_angle_alpha   102.14234386
_cell_angle_beta   103.98912268
_cell_angle_gamma   127.97286615
_symmetry_Int_Tables_number   1
_chemical_formula_structural   HfZrTiNb
_chemical_formula_sum   'Hf2 Zr2 Ti2 Nb2'
_cell_volume   1689.70342343
_cell_formula_units_Z   2
loop_
 _symmetry_equiv_pos_site_id
 _symmetry_equiv_pos_as_xyz
  1  'x, y, z'
loop_
 _atom_site_type_symbol
 _atom_site_label
 _atom_site_symmetry_multiplicity
 _atom_site_fract_x
 _atom_site_fract_y
 _atom_site_fract_z
 _atom_site_occupancy
  Hf  Hf0  1  0.44427346  -0.07384123  0.52010628  1
  Hf  Hf1  1  0.53293192  0.47303114  -0.02582658  1
  Zr  Zr2  1  0.46706808  0.52696886  0.83962658  1
  Zr  Zr3  1  0.28018460  0.57073318  0.25000888  1
  Ti  Ti4  1  0.68724300  0.16825851  0.69435327  1
  Ti  Ti5  1  0.15706690  0.65227969  0.34916046  1
  Nb  Nb6  1  0.30573421  0.62024430  0.44145134  1
  Nb  Nb7  1  0.34394450  0.83255222  0.30871977  1
