# generated using pymatgen
data_HfZrTiNb
_symmetry_space_group_name_H-M   'P 1'
_cell_length_a   5.64055602
_cell_length_b   8.84447052
_cell_length_c   5.92656742
_cell_angle_alpha   140.54623293
_cell_angle_beta   98.17116938
_cell_angle_gamma   101.62083413
_symmetry_Int_Tables_number   1
_chemical_formula_structural   HfZrTiNb
_chemical_formula_sum   'Hf2 Zr2 Ti2 Nb2'
_cell_volume   161.62088831
_cell_formula_units_Z   2
loop_
 _symmetry_equiv_pos_site_id
 _symmetry_equiv_pos_as_xyz
  1  'x, y, z'
loop_
 _atom_site_type_symbol
 _atom_site_label
 _atom_site_symmetry_multiplicity
 _atom_site_fract_x
 _atom_site_fract_y
 _atom_site_fract_z
 _atom_site_occupancy
  Hf  Hf0  1  0.23752214  0.85154944  0.07527232  1
  Hf  Hf1  1  0.67699480  0.28298820  0.96239690  1
  Zr  Zr2  1  0.71747117  0.33505346  0.51401089  1
  Zr  Zr3  1  0.72822110  0.81726860  0.30218554  1
  Ti  Ti4  1  0.19479954  0.28937501  0.21061260  1
  Ti  Ti5  1  0.71613692  0.82611976  0.80314644  1
  Nb  Nb6  1  0.19422924  0.32675100  0.76748489  1
  Nb  Nb7  1  0.20129174  0.77655788  0.49249043  1
