# generated using pymatgen
data_HfZrTiNb
_symmetry_space_group_name_H-M   'P 1'
_cell_length_a   13.47165250
_cell_length_b   14.26936512
_cell_length_c   15.86468507
_cell_angle_alpha   79.88455930
_cell_angle_beta   104.17919302
_cell_angle_gamma   115.33470194
_symmetry_Int_Tables_number   1
_chemical_formula_structural   HfZrTiNb
_chemical_formula_sum   'Hf2 Zr2 Ti2 Nb2'
_cell_volume   2663.67418085
_cell_formula_units_Z   2
loop_
 _symmetry_equiv_pos_site_id
 _symmetry_equiv_pos_as_xyz
  1  'x, y, z'
loop_
 _atom_site_type_symbol
 _atom_site_label
 _atom_site_symmetry_multiplicity
 _atom_site_fract_x
 _atom_site_fract_y
 _atom_site_fract_z
 _atom_site_occupancy
  Hf  Hf0  1  0.44444444  0.88888889  0.28190000  1
  Hf  Hf1  1  0.13390298  0.24157462  0.47788814  1
  Zr  Zr2  1  0.56760869  0.44353084  0.03881149  1
  Zr  Zr3  1  0.12606581  0.58564293  0.77321306  1
  Ti  Ti4  1  0.20726752  0.74769041  0.72678694  1
  Ti  Ti5  1  0.90186225  0.37173063  0.26571449  1
  Nb  Nb6  1  0.98609391  0.29020068  0.36116405  1
  Nb  Nb7  1  0.29942107  0.25841101  0.57452183  1
