# generated using pymatgen
data_HfZrTiNb
_symmetry_space_group_name_H-M   'P 1'
_cell_length_a   13.79186251
_cell_length_b   12.91012036
_cell_length_c   11.33732100
_cell_angle_alpha   123.13126847
_cell_angle_beta   83.94929830
_cell_angle_gamma   119.95084637
_symmetry_Int_Tables_number   1
_chemical_formula_structural   HfZrTiNb
_chemical_formula_sum   'Hf2 Zr2 Ti2 Nb2'
_cell_volume   1425.16862189
_cell_formula_units_Z   2
loop_
 _symmetry_equiv_pos_site_id
 _symmetry_equiv_pos_as_xyz
  1  'x, y, z'
loop_
 _atom_site_type_symbol
 _atom_site_label
 _atom_site_symmetry_multiplicity
 _atom_site_fract_x
 _atom_site_fract_y
 _atom_site_fract_z
 _atom_site_occupancy
  Hf  Hf0  1  0.20979923  0.26303640  0.22825573  1
  Hf  Hf1  1  0.21291561  0.55598633  0.15562214  1
  Zr  Zr2  1  0.40059548  0.50652481  0.22713477  1
  Zr  Zr3  1  0.03070913  0.27883514  1.13013249  1
  Ti  Ti4  1  0.37894965  0.73985303  0.40777446  1
  Ti  Ti5  1  0.89625356  0.44903971  0.71447652  1
  Nb  Nb6  1  0.21096615  0.50982108  0.36908967  1
  Nb  Nb7  1  0.21159120  0.30612683  1.01751421  1
