# generated using pymatgen
data_HfZrTiNb
_symmetry_space_group_name_H-M   'P 1'
_cell_length_a   9.48018377
_cell_length_b   2.95070177
_cell_length_c   12.59455542
_cell_angle_alpha   105.45705108
_cell_angle_beta   125.56572983
_cell_angle_gamma   94.12531237
_symmetry_Int_Tables_number   1
_chemical_formula_structural   HfZrTiNb
_chemical_formula_sum   'Hf2 Zr2 Ti2 Nb2'
_cell_volume   264.39449678
_cell_formula_units_Z   2
loop_
 _symmetry_equiv_pos_site_id
 _symmetry_equiv_pos_as_xyz
  1  'x, y, z'
loop_
 _atom_site_type_symbol
 _atom_site_label
 _atom_site_symmetry_multiplicity
 _atom_site_fract_x
 _atom_site_fract_y
 _atom_site_fract_z
 _atom_site_occupancy
  Hf  Hf0  1  0.49811714  0.90734820  0.47421401  1
  Hf  Hf1  1  0.88492944  0.98021624  0.39295575  1
  Zr  Zr2  1  1.17228620  0.88270044  0.19370775  1
  Zr  Zr3  1  0.84815014  0.65699330  0.59261278  1
  Ti  Ti4  1  0.56993973  0.59582251  1.10191783  1
  Ti  Ti5  1  0.18198417  0.56330450  0.42742671  1
  Nb  Nb6  1  0.52941941  0.26155423  0.27561873  1
  Nb  Nb7  1  0.86695376  0.25562056  0.16394647  1
