# generated using pymatgen
data_HfZrTiNb
_symmetry_space_group_name_H-M   'P 1'
_cell_length_a   11.95744635
_cell_length_b   14.70329043
_cell_length_c   12.91531215
_cell_angle_alpha   98.32922479
_cell_angle_beta   54.15971907
_cell_angle_gamma   125.45935779
_symmetry_Int_Tables_number   1
_chemical_formula_structural   HfZrTiNb
_chemical_formula_sum   'Hf2 Zr2 Ti2 Nb2'
_cell_volume   1432.58732703
_cell_formula_units_Z   2
loop_
 _symmetry_equiv_pos_site_id
 _symmetry_equiv_pos_as_xyz
  1  'x, y, z'
loop_
 _atom_site_type_symbol
 _atom_site_label
 _atom_site_symmetry_multiplicity
 _atom_site_fract_x
 _atom_site_fract_y
 _atom_site_fract_z
 _atom_site_occupancy
  Hf  Hf0  1  0.11111111  0.55555556  0.96810000  1
  Hf  Hf1  1  0.34590024  0.34446179  0.10569222  1
  Zr  Zr2  1  0.28836774  0.18931083  0.27363344  1
  Zr  Zr3  1  1.03484526  0.13196817  0.15961609  1
  Ti  Ti4  1  1.04036412  0.20317561  0.35617917  1
  Ti  Ti5  1  0.29060713  0.13061094  1.07329697  1
  Nb  Nb6  1  0.21639909  0.87871311  0.57229813  1
  Nb  Nb7  1  0.27785310  0.78842621  0.42738399  1
