# generated using pymatgen
data_HfZrTiNb
_symmetry_space_group_name_H-M   'P 1'
_cell_length_a   12.84079834
_cell_length_b   12.57809401
_cell_length_c   15.70123245
_cell_angle_alpha   105.16886844
_cell_angle_beta   91.87507178
_cell_angle_gamma   130.74507874
_symmetry_Int_Tables_number   1
_chemical_formula_structural   HfZrTiNb
_chemical_formula_sum   'Hf2 Zr2 Ti2 Nb2'
_cell_volume   1781.08553696
_cell_formula_units_Z   2
loop_
 _symmetry_equiv_pos_site_id
 _symmetry_equiv_pos_as_xyz
  1  'x, y, z'
loop_
 _atom_site_type_symbol
 _atom_site_label
 _atom_site_symmetry_multiplicity
 _atom_site_fract_x
 _atom_site_fract_y
 _atom_site_fract_z
 _atom_site_occupancy
  Hf  Hf0  1  0.92267211  0.41652604  0.66292592  1
  Hf  Hf1  1  0.17208133  0.49514076  0.61614824  1
  Zr  Zr2  1  0.20657837  0.69289768  0.77643939  1
  Zr  Zr3  1  0.11111111  0.22222222  0.96810000  1
  Ti  Ti4  1  0.26718567  0.76492655  0.61785670  1
  Ti  Ti5  1  0.99988136  0.50191211  0.51078847  1
  Nb  Nb6  1  0.04385149  0.68778135  0.66029890  1
  Nb  Nb7  1  0.05819189  0.78169995  0.12364238  1
