# generated using pymatgen
data_HfZrTiNb
_symmetry_space_group_name_H-M   'P 1'
_cell_length_a   13.56854449
_cell_length_b   13.38367300
_cell_length_c   14.69108453
_cell_angle_alpha   89.50892817
_cell_angle_beta   94.49908001
_cell_angle_gamma   127.71132004
_symmetry_Int_Tables_number   1
_chemical_formula_structural   HfZrTiNb
_chemical_formula_sum   'Hf2 Zr2 Ti2 Nb2'
_cell_volume   2101.41606490
_cell_formula_units_Z   2
loop_
 _symmetry_equiv_pos_site_id
 _symmetry_equiv_pos_as_xyz
  1  'x, y, z'
loop_
 _atom_site_type_symbol
 _atom_site_label
 _atom_site_symmetry_multiplicity
 _atom_site_fract_x
 _atom_site_fract_y
 _atom_site_fract_z
 _atom_site_occupancy
  Hf  Hf0  1  0.80450794  0.09330402  0.10076720  1
  Hf  Hf1  1  0.22222222  0.44444444  0.53190000  1
  Zr  Zr2  1  0.60829193  0.12566732  0.08192799  1
  Zr  Zr3  1  0.77777778  0.55555556  0.78190000  1
  Ti  Ti4  1  0.82252707  0.28546339  0.18966216  1
  Ti  Ti5  1  0.22436898  0.11075794  0.21600418  1
  Nb  Nb6  1  0.70351159  0.08180541  0.26548375  1
  Nb  Nb7  1  0.56467804  0.91977634  0.14615472  1
