# generated using pymatgen
data_HfZrTiNb
_symmetry_space_group_name_H-M   'P 1'
_cell_length_a   15.46699857
_cell_length_b   15.48663816
_cell_length_c   17.04898045
_cell_angle_alpha   88.93684788
_cell_angle_beta   90.03565075
_cell_angle_gamma   119.89754127
_symmetry_Int_Tables_number   1
_chemical_formula_structural   HfZrTiNb
_chemical_formula_sum   'Hf2 Zr2 Ti2 Nb2'
_cell_volume   3539.51226462
_cell_formula_units_Z   2
loop_
 _symmetry_equiv_pos_site_id
 _symmetry_equiv_pos_as_xyz
  1  'x, y, z'
loop_
 _atom_site_type_symbol
 _atom_site_label
 _atom_site_symmetry_multiplicity
 _atom_site_fract_x
 _atom_site_fract_y
 _atom_site_fract_z
 _atom_site_occupancy
  Hf  Hf0  1  0.20763364  0.12564757  0.52354857  1
  Hf  Hf1  1  0.55555556  0.11111111  0.71810000  1
  Zr  Zr2  1  0.12569969  0.20768576  0.47645143  1
  Zr  Zr3  1  0.42370026  0.53533738  0.79445540  1
  Ti  Ti4  1  0.77573804  0.88684946  0.78191403  1
  Ti  Ti5  1  0.11002350  0.88915611  0.96886619  1
  Nb  Nb6  1  0.29867392  0.41303428  0.86243057  1
  Nb  Nb7  1  0.88620094  0.94228945  0.12423381  1
