# generated using pymatgen
data_HfZrTiNb
_symmetry_space_group_name_H-M   'P 1'
_cell_length_a   11.74313275
_cell_length_b   12.22357109
_cell_length_c   15.95962828
_cell_angle_alpha   77.70501501
_cell_angle_beta   93.92453901
_cell_angle_gamma   122.38212577
_symmetry_Int_Tables_number   1
_chemical_formula_structural   HfZrTiNb
_chemical_formula_sum   'Hf2 Zr2 Ti2 Nb2'
_cell_volume   1887.38613550
_cell_formula_units_Z   2
loop_
 _symmetry_equiv_pos_site_id
 _symmetry_equiv_pos_as_xyz
  1  'x, y, z'
loop_
 _atom_site_type_symbol
 _atom_site_label
 _atom_site_symmetry_multiplicity
 _atom_site_fract_x
 _atom_site_fract_y
 _atom_site_fract_z
 _atom_site_occupancy
  Hf  Hf0  1  0.38004458  0.78564134  0.79636242  1
  Hf  Hf1  1  0.78695537  0.04594502  0.79564029  1
  Zr  Zr2  1  0.44552927  0.55896663  0.47228649  1
  Zr  Zr3  1  0.57306675  0.03770316  0.69069089  1
  Ti  Ti4  1  0.61131484  0.82871933  0.72929322  1
  Ti  Ti5  1  0.58921433  0.80280987  0.90134522  1
  Nb  Nb6  1  0.94314654  0.55178206  0.37512667  1
  Nb  Nb7  1  0.55584165  -0.00234408  0.86165480  1
