# generated using pymatgen
data_HfZrTiNb
_symmetry_space_group_name_H-M   'P 1'
_cell_length_a   10.97405170
_cell_length_b   13.81309197
_cell_length_c   11.01084150
_cell_angle_alpha   99.63911274
_cell_angle_beta   93.55228050
_cell_angle_gamma   126.88807828
_symmetry_Int_Tables_number   1
_chemical_formula_structural   HfZrTiNb
_chemical_formula_sum   'Hf2 Zr2 Ti2 Nb2'
_cell_volume   1287.86407030
_cell_formula_units_Z   2
loop_
 _symmetry_equiv_pos_site_id
 _symmetry_equiv_pos_as_xyz
  1  'x, y, z'
loop_
 _atom_site_type_symbol
 _atom_site_label
 _atom_site_symmetry_multiplicity
 _atom_site_fract_x
 _atom_site_fract_y
 _atom_site_fract_z
 _atom_site_occupancy
  Hf  Hf0  1  0.70558807  0.34967271  0.14052867  1
  Hf  Hf1  1  0.52724613  0.42577789  0.10243654  1
  Zr  Zr2  1  0.45559775  0.22831287  0.24795578  1
  Zr  Zr3  1  0.22774979  0.21347077  0.12073813  1
  Ti  Ti4  1  0.42361207  0.17177717  0.98422126  1
  Ti  Ti5  1  0.28492860  0.24700839  0.89099013  1
  Nb  Nb6  1  0.72828370  0.70529253  0.62488384  1
  Nb  Nb7  1  0.76188055  0.87713433  0.63824565  1
