# generated using pymatgen
data_HfZrTiNb
_symmetry_space_group_name_H-M   'P 1'
_cell_length_a   13.53498592
_cell_length_b   14.82463346
_cell_length_c   9.98834382
_cell_angle_alpha   83.07202247
_cell_angle_beta   56.49176871
_cell_angle_gamma   123.25182788
_symmetry_Int_Tables_number   1
_chemical_formula_structural   HfZrTiNb
_chemical_formula_sum   'Hf2 Zr2 Ti2 Nb2'
_cell_volume   1110.47079968
_cell_formula_units_Z   2
loop_
 _symmetry_equiv_pos_site_id
 _symmetry_equiv_pos_as_xyz
  1  'x, y, z'
loop_
 _atom_site_type_symbol
 _atom_site_label
 _atom_site_symmetry_multiplicity
 _atom_site_fract_x
 _atom_site_fract_y
 _atom_site_fract_z
 _atom_site_occupancy
  Hf  Hf0  1  0.19725953  0.07021877  0.06389390  1
  Hf  Hf1  1  0.50951359  0.24625445  0.63456439  1
  Zr  Zr2  1  0.49468146  0.34855304  0.87266358  1
  Zr  Zr3  1  0.76035495  0.53574070  0.44104604  1
  Ti  Ti4  1  0.44745316  0.46038879  0.69052168  1
  Ti  Ti5  1  0.21545586  0.19586477  0.80259603  1
  Nb  Nb6  1  0.53035844  0.40896215  0.43470216  1
  Nb  Nb7  1  0.17825635  0.23968068  0.06001224  1
