# generated using pymatgen
data_HfZrTiNb
_symmetry_space_group_name_H-M   'P 1'
_cell_length_a   14.48634730
_cell_length_b   14.64413006
_cell_length_c   4.72150797
_cell_angle_alpha   114.39490808
_cell_angle_beta   81.18013855
_cell_angle_gamma   138.32234920
_symmetry_Int_Tables_number   1
_chemical_formula_structural   HfZrTiNb
_chemical_formula_sum   'Hf2 Zr2 Ti2 Nb2'
_cell_volume   586.30773847
_cell_formula_units_Z   2
loop_
 _symmetry_equiv_pos_site_id
 _symmetry_equiv_pos_as_xyz
  1  'x, y, z'
loop_
 _atom_site_type_symbol
 _atom_site_label
 _atom_site_symmetry_multiplicity
 _atom_site_fract_x
 _atom_site_fract_y
 _atom_site_fract_z
 _atom_site_occupancy
  Hf  Hf0  1  0.10372286  0.90599201  0.04421612  1
  Hf  Hf1  1  0.79212073  0.55095721  0.68591556  1
  Zr  Zr2  1  -0.04302681  0.84941543  0.54311691  1
  Zr  Zr3  1  0.92602639  0.58275133  0.16209110  1
  Ti  Ti4  1  0.68687127  0.55937693  0.25713400  1
  Ti  Ti5  1  0.79235361  0.75248799  -0.01175888  1
  Nb  Nb6  1  0.09914653  0.70055111  0.73957307  1
  Nb  Nb7  1  0.19834097  -0.12375423  0.45731211  1
