# generated using pymatgen
data_HfZrTiNb
_symmetry_space_group_name_H-M   'P 1'
_cell_length_a   11.15325093
_cell_length_b   10.26390208
_cell_length_c   9.53015038
_cell_angle_alpha   33.23000543
_cell_angle_beta   117.70715620
_cell_angle_gamma   116.89968623
_symmetry_Int_Tables_number   1
_chemical_formula_structural   HfZrTiNb
_chemical_formula_sum   'Hf2 Zr2 Ti2 Nb2'
_cell_volume   524.74743691
_cell_formula_units_Z   2
loop_
 _symmetry_equiv_pos_site_id
 _symmetry_equiv_pos_as_xyz
  1  'x, y, z'
loop_
 _atom_site_type_symbol
 _atom_site_label
 _atom_site_symmetry_multiplicity
 _atom_site_fract_x
 _atom_site_fract_y
 _atom_site_fract_z
 _atom_site_occupancy
  Hf  Hf0  1  0.20640156  0.26293286  0.86707792  1
  Hf  Hf1  1  0.95547770  0.49785195  0.60728826  1
  Zr  Zr2  1  0.79707692  0.64853908  0.13020929  1
  Zr  Zr3  1  0.80023954  0.14287734  0.64091396  1
  Ti  Ti4  1  1.04306558  0.93066670  -0.10060288  1
  Ti  Ti5  1  0.19063893  0.76907559  0.34854223  1
  Nb  Nb6  1  1.03549635  0.43533663  0.41852235  1
  Nb  Nb7  1  -0.03217214  -0.01683796  1.08804887  1
