# generated using pymatgen
data_HfZrTiNb
_symmetry_space_group_name_H-M   'P 1'
_cell_length_a   10.81926241
_cell_length_b   13.06231988
_cell_length_c   9.61948610
_cell_angle_alpha   113.70239279
_cell_angle_beta   93.85010642
_cell_angle_gamma   118.85287420
_symmetry_Int_Tables_number   1
_chemical_formula_structural   HfZrTiNb
_chemical_formula_sum   'Hf2 Zr2 Ti2 Nb2'
_cell_volume   1030.85334294
_cell_formula_units_Z   2
loop_
 _symmetry_equiv_pos_site_id
 _symmetry_equiv_pos_as_xyz
  1  'x, y, z'
loop_
 _atom_site_type_symbol
 _atom_site_label
 _atom_site_symmetry_multiplicity
 _atom_site_fract_x
 _atom_site_fract_y
 _atom_site_fract_z
 _atom_site_occupancy
  Hf  Hf0  1  0.48462836  0.62171345  0.06979725  1
  Hf  Hf1  1  1.04074787  0.21220462  0.63526481  1
  Zr  Zr2  1  0.23677182  0.41782038  0.56481605  1
  Zr  Zr3  1  0.52503499  0.50275590  0.76400490  1
  Ti  Ti4  1  0.19206642  0.48730365  0.86878940  1
  Ti  Ti5  1  0.42359070  0.67159133  0.83686591  1
  Nb  Nb6  1  0.28804676  0.23390991  0.57480248  1
  Nb  Nb7  1  0.31100086  0.35081299  0.87185919  1
