# generated using pymatgen
data_HfZrTiNb
_symmetry_space_group_name_H-M   'P 1'
_cell_length_a   9.52771564
_cell_length_b   12.14447722
_cell_length_c   10.87312754
_cell_angle_alpha   125.19170955
_cell_angle_beta   34.75490173
_cell_angle_gamma   151.61241184
_symmetry_Int_Tables_number   1
_chemical_formula_structural   HfZrTiNb
_chemical_formula_sum   'Hf2 Zr2 Ti2 Nb2'
_cell_volume   286.88986410
_cell_formula_units_Z   2
loop_
 _symmetry_equiv_pos_site_id
 _symmetry_equiv_pos_as_xyz
  1  'x, y, z'
loop_
 _atom_site_type_symbol
 _atom_site_label
 _atom_site_symmetry_multiplicity
 _atom_site_fract_x
 _atom_site_fract_y
 _atom_site_fract_z
 _atom_site_occupancy
  Hf  Hf0  1  0.23897441  0.86593919  0.88180646  1
  Hf  Hf1  1  0.81203699  0.39600760  0.84797664  1
  Zr  Zr2  1  0.69378851  0.81682594  0.10566141  1
  Zr  Zr3  1  0.18457282  0.31209456  0.10868518  1
  Ti  Ti4  1  0.22266276  0.82326030  0.60614911  1
  Ti  Ti5  1  0.78005637  0.88503211  0.34993915  1
  Nb  Nb6  1  1.21550149  0.35237291  0.37353377  1
  Nb  Nb7  1  0.73751999  0.33002077  0.60384828  1
