# generated using pymatgen
data_HfZrTiNb
_symmetry_space_group_name_H-M   'P 1'
_cell_length_a   13.20387785
_cell_length_b   14.38514209
_cell_length_c   15.43433454
_cell_angle_alpha   97.81829614
_cell_angle_beta   91.34840462
_cell_angle_gamma   137.84488635
_symmetry_Int_Tables_number   1
_chemical_formula_structural   HfZrTiNb
_chemical_formula_sum   'Hf2 Zr2 Ti2 Nb2'
_cell_volume   1914.81308599
_cell_formula_units_Z   2
loop_
 _symmetry_equiv_pos_site_id
 _symmetry_equiv_pos_as_xyz
  1  'x, y, z'
loop_
 _atom_site_type_symbol
 _atom_site_label
 _atom_site_symmetry_multiplicity
 _atom_site_fract_x
 _atom_site_fract_y
 _atom_site_fract_z
 _atom_site_occupancy
  Hf  Hf0  1  0.89931006  0.49240211  -0.02846498  1
  Hf  Hf1  1  0.86736537  0.06286309  0.50938330  1
  Zr  Zr2  1  0.06128649  0.04533496  0.50025207  1
  Zr  Zr3  1  0.81438367  0.25280963  0.97049464  1
  Ti  Ti4  1  0.88739704  0.34658588  0.81665891  1
  Ti  Ti5  1  0.11146703  0.46380578  0.96635803  1
  Nb  Nb6  1  0.12487351  0.60540599  0.88514867  1
  Nb  Nb7  1  0.78569683  0.84567920  0.44396937  1
