# generated using pymatgen
data_HfZrTiNb
_symmetry_space_group_name_H-M   'P 1'
_cell_length_a   9.51300050
_cell_length_b   5.04989038
_cell_length_c   10.55776609
_cell_angle_alpha   83.23214682
_cell_angle_beta   118.11459059
_cell_angle_gamma   84.60114699
_symmetry_Int_Tables_number   1
_chemical_formula_structural   HfZrTiNb
_chemical_formula_sum   'Hf2 Zr2 Ti2 Nb2'
_cell_volume   437.69889584
_cell_formula_units_Z   2
loop_
 _symmetry_equiv_pos_site_id
 _symmetry_equiv_pos_as_xyz
  1  'x, y, z'
loop_
 _atom_site_type_symbol
 _atom_site_label
 _atom_site_symmetry_multiplicity
 _atom_site_fract_x
 _atom_site_fract_y
 _atom_site_fract_z
 _atom_site_occupancy
  Hf  Hf0  1  0.90431359  0.20229770  0.59180285  1
  Hf  Hf1  1  0.69798088  0.68049535  0.35944845  1
  Zr  Zr2  1  0.04562851  0.95386995  0.25442463  1
  Zr  Zr3  1  0.04080674  0.72009433  0.53588546  1
  Ti  Ti4  1  0.70322671  0.99643373  1.07824520  1
  Ti  Ti5  1  1.11980017  0.24827412  0.47253657  1
  Nb  Nb6  1  0.88358974  0.52825936  0.21130921  1
  Nb  Nb7  1  0.76565701  0.16461213  0.31014762  1
