# generated using pymatgen
data_HfZrTiNb
_symmetry_space_group_name_H-M   'P 1'
_cell_length_a   10.19826295
_cell_length_b   11.53384678
_cell_length_c   11.67815102
_cell_angle_alpha   67.52694639
_cell_angle_beta   94.97800398
_cell_angle_gamma   109.63584544
_symmetry_Int_Tables_number   1
_chemical_formula_structural   HfZrTiNb
_chemical_formula_sum   'Hf2 Zr2 Ti2 Nb2'
_cell_volume   1194.14306981
_cell_formula_units_Z   2
loop_
 _symmetry_equiv_pos_site_id
 _symmetry_equiv_pos_as_xyz
  1  'x, y, z'
loop_
 _atom_site_type_symbol
 _atom_site_label
 _atom_site_symmetry_multiplicity
 _atom_site_fract_x
 _atom_site_fract_y
 _atom_site_fract_z
 _atom_site_occupancy
  Hf  Hf0  1  0.25104589  0.35772223  0.33515907  1
  Hf  Hf1  1  0.26820893  0.76424600  1.01907597  1
  Zr  Zr2  1  0.05635924  0.50181676  0.26635631  1
  Zr  Zr3  1  0.20912114  0.49279871  0.08180681  1
  Ti  Ti4  1  0.26377344  0.53890708  0.43755670  1
  Ti  Ti5  1  1.03560084  0.74121090  0.12889778  1
  Nb  Nb6  1  0.39381081  0.62467628  0.21859451  1
  Nb  Nb7  1  0.24996524  0.75639979  0.26255286  1
