# generated using pymatgen
data_HfZrTiNb
_symmetry_space_group_name_H-M   'P 1'
_cell_length_a   14.39877249
_cell_length_b   14.26689227
_cell_length_c   15.63517133
_cell_angle_alpha   89.28114221
_cell_angle_beta   93.95204085
_cell_angle_gamma   115.89049083
_symmetry_Int_Tables_number   1
_chemical_formula_structural   HfZrTiNb
_chemical_formula_sum   'Hf2 Zr2 Ti2 Nb2'
_cell_volume   2882.07032218
_cell_formula_units_Z   2
loop_
 _symmetry_equiv_pos_site_id
 _symmetry_equiv_pos_as_xyz
  1  'x, y, z'
loop_
 _atom_site_type_symbol
 _atom_site_label
 _atom_site_symmetry_multiplicity
 _atom_site_fract_x
 _atom_site_fract_y
 _atom_site_fract_z
 _atom_site_occupancy
  Hf  Hf0  1  0.55555556  0.77777778  0.21810000  1
  Hf  Hf1  1  0.04813610  0.19632301  0.70568380  1
  Zr  Zr2  1  0.88888889  0.44444444  0.03190000  1
  Zr  Zr3  1  0.44733058  0.22449419  0.28297291  1
  Ti  Ti4  1  0.82177941  0.50039716  0.44268177  1
  Ti  Ti5  1  0.95600051  0.17731001  0.58482046  1
  Nb  Nb6  1  0.27589000  0.88511333  0.87500000  1
  Nb  Nb7  1  0.89153231  0.40336342  0.42264106  1
