# generated using pymatgen
data_HfZrTiNb
_symmetry_space_group_name_H-M   'P 1'
_cell_length_a   11.99457176
_cell_length_b   12.21989444
_cell_length_c   13.30867606
_cell_angle_alpha   102.64862104
_cell_angle_beta   76.83165103
_cell_angle_gamma   166.78086786
_symmetry_Int_Tables_number   1
_chemical_formula_structural   HfZrTiNb
_chemical_formula_sum   'Hf2 Zr2 Ti2 Nb2'
_cell_volume   434.31061097
_cell_formula_units_Z   2
loop_
 _symmetry_equiv_pos_site_id
 _symmetry_equiv_pos_as_xyz
  1  'x, y, z'
loop_
 _atom_site_type_symbol
 _atom_site_label
 _atom_site_symmetry_multiplicity
 _atom_site_fract_x
 _atom_site_fract_y
 _atom_site_fract_z
 _atom_site_occupancy
  Hf  Hf0  1  -0.12696172  0.35487697  0.96632447  1
  Hf  Hf1  1  0.22011046  0.82083893  0.81630931  1
  Zr  Zr2  1  0.56604968  0.32626803  -0.01650849  1
  Zr  Zr3  1  1.01949536  0.42926650  0.34477376  1
  Ti  Ti4  1  0.41688425  0.84694149  0.15258987  1
  Ti  Ti5  1  -0.31310322  0.29797164  0.29565195  1
  Nb  Nb6  1  0.21836232  0.27597900  0.62544872  1
  Nb  Nb7  1  0.16394176  0.81641188  0.12921042  1
