# generated using pymatgen
data_HfZrTiNb
_symmetry_space_group_name_H-M   'P 1'
_cell_length_a   15.70889211
_cell_length_b   15.33884421
_cell_length_c   17.03753529
_cell_angle_alpha   90.41736443
_cell_angle_beta   89.44467866
_cell_angle_gamma   120.10107599
_symmetry_Int_Tables_number   1
_chemical_formula_structural   HfZrTiNb
_chemical_formula_sum   'Hf2 Zr2 Ti2 Nb2'
_cell_volume   3551.48722038
_cell_formula_units_Z   2
loop_
 _symmetry_equiv_pos_site_id
 _symmetry_equiv_pos_as_xyz
  1  'x, y, z'
loop_
 _atom_site_type_symbol
 _atom_site_label
 _atom_site_symmetry_multiplicity
 _atom_site_fract_x
 _atom_site_fract_y
 _atom_site_fract_z
 _atom_site_occupancy
  Hf  Hf0  1  0.44492158  0.57709710  0.29380782  1
  Hf  Hf1  1  0.54121799  0.08252167  0.72638334  1
  Zr  Zr2  1  0.88888889  0.77777778  0.71810000  1
  Zr  Zr3  1  0.45878201  0.91747833  0.77361666  1
  Ti  Ti4  1  0.11161291  0.22174224  0.46698384  1
  Ti  Ti5  1  0.22171924  0.11158949  0.21921682  1
  Nb  Nb6  1  0.44774286  0.70256846  0.36309218  1
  Nb  Nb7  1  0.94255785  0.72411160  0.37499933  1
