# generated using pymatgen
data_HfZrTiNb
_symmetry_space_group_name_H-M   'P 1'
_cell_length_a   15.00664737
_cell_length_b   13.47360574
_cell_length_c   13.60141785
_cell_angle_alpha   97.88563281
_cell_angle_beta   75.07766560
_cell_angle_gamma   129.04826887
_symmetry_Int_Tables_number   1
_chemical_formula_structural   HfZrTiNb
_chemical_formula_sum   'Hf2 Zr2 Ti2 Nb2'
_cell_volume   2062.61022140
_cell_formula_units_Z   2
loop_
 _symmetry_equiv_pos_site_id
 _symmetry_equiv_pos_as_xyz
  1  'x, y, z'
loop_
 _atom_site_type_symbol
 _atom_site_label
 _atom_site_symmetry_multiplicity
 _atom_site_fract_x
 _atom_site_fract_y
 _atom_site_fract_z
 _atom_site_occupancy
  Hf  Hf0  1  0.12265523  0.43307789  0.04353325  1
  Hf  Hf1  1  0.09334234  0.21202422  1.08018924  1
  Zr  Zr2  1  0.19074466  0.04613056  0.55082613  1
  Zr  Zr3  1  0.09003178  0.38259136  0.23838939  1
  Ti  Ti4  1  0.44369196  0.88763636  0.78256975  1
  Ti  Ti5  1  0.90120188  0.21828662  0.08950317  1
  Nb  Nb6  1  0.90830468  0.14604905  0.23646502  1
  Nb  Nb7  1  0.08902411  0.84653394  0.60612405  1
