# generated using pymatgen
data_HfZrTiNb
_symmetry_space_group_name_H-M   'P 1'
_cell_length_a   10.14150959
_cell_length_b   11.90386120
_cell_length_c   15.05357187
_cell_angle_alpha   106.85410416
_cell_angle_beta   79.00746499
_cell_angle_gamma   118.56898428
_symmetry_Int_Tables_number   1
_chemical_formula_structural   HfZrTiNb
_chemical_formula_sum   'Hf2 Zr2 Ti2 Nb2'
_cell_volume   1524.55617835
_cell_formula_units_Z   2
loop_
 _symmetry_equiv_pos_site_id
 _symmetry_equiv_pos_as_xyz
  1  'x, y, z'
loop_
 _atom_site_type_symbol
 _atom_site_label
 _atom_site_symmetry_multiplicity
 _atom_site_fract_x
 _atom_site_fract_y
 _atom_site_fract_z
 _atom_site_occupancy
  Hf  Hf0  1  0.66505390  0.66422448  0.49974236  1
  Hf  Hf1  1  0.89214319  0.84490705  0.38966547  1
  Zr  Zr2  1  0.44444444  0.22222222  0.78190000  1
  Zr  Zr3  1  0.75814248  0.46388125  0.41643052  1
  Ti  Ti4  1  -0.02642196  0.61238895  0.29472020  1
  Ti  Ti5  1  0.70167713  0.58990998  0.31226033  1
  Nb  Nb6  1  0.95899593  0.71255120  0.49102305  1
  Nb  Nb7  1  0.15774490  -0.16752845  0.37805807  1
