# generated using pymatgen
data_HfZrTiNb
_symmetry_space_group_name_H-M   'P 1'
_cell_length_a   14.92598854
_cell_length_b   7.88365280
_cell_length_c   6.21182497
_cell_angle_alpha   38.61204163
_cell_angle_beta   114.27813495
_cell_angle_gamma   132.09879777
_symmetry_Int_Tables_number   1
_chemical_formula_structural   HfZrTiNb
_chemical_formula_sum   'Hf2 Zr2 Ti2 Nb2'
_cell_volume   328.28090628
_cell_formula_units_Z   2
loop_
 _symmetry_equiv_pos_site_id
 _symmetry_equiv_pos_as_xyz
  1  'x, y, z'
loop_
 _atom_site_type_symbol
 _atom_site_label
 _atom_site_symmetry_multiplicity
 _atom_site_fract_x
 _atom_site_fract_y
 _atom_site_fract_z
 _atom_site_occupancy
  Hf  Hf0  1  0.29719081  1.02455753  0.78528426  1
  Hf  Hf1  1  0.30088571  0.52853797  0.01859571  1
  Zr  Zr2  1  0.05757141  0.15175976  0.41938911  1
  Zr  Zr3  1  1.06374266  0.65790564  0.65003128  1
  Ti  Ti4  1  0.07534288  0.67958794  0.15365633  1
  Ti  Ti5  1  0.28578641  0.00048106  0.28337730  1
  Nb  Nb6  1  0.08076646  0.18192990  0.90281381  1
  Nb  Nb7  1  0.27938254  0.49557466  0.53685222  1
