# generated using pymatgen
data_HfZrTiNb
_symmetry_space_group_name_H-M   'P 1'
_cell_length_a   12.79424691
_cell_length_b   12.59441495
_cell_length_c   16.70207793
_cell_angle_alpha   94.86449558
_cell_angle_beta   84.05249599
_cell_angle_gamma   167.59250725
_symmetry_Int_Tables_number   1
_chemical_formula_structural   HfZrTiNb
_chemical_formula_sum   'Hf2 Zr2 Ti2 Nb2'
_cell_volume   573.45418700
_cell_formula_units_Z   2
loop_
 _symmetry_equiv_pos_site_id
 _symmetry_equiv_pos_as_xyz
  1  'x, y, z'
loop_
 _atom_site_type_symbol
 _atom_site_label
 _atom_site_symmetry_multiplicity
 _atom_site_fract_x
 _atom_site_fract_y
 _atom_site_fract_z
 _atom_site_occupancy
  Hf  Hf0  1  0.11111111  0.88888889  0.78190000  1
  Hf  Hf1  1  0.27837711  0.60821521  0.30402136  1
  Zr  Zr2  1  0.66838025  0.21502840  0.35345213  1
  Zr  Zr3  1  0.73720953  0.19973692  0.18117249  1
  Ti  Ti4  1  0.92870452  0.16694806  0.15924682  1
  Ti  Ti5  1  0.32622454  0.43891303  0.27194336  1
  Nb  Nb6  1  1.11110973  0.50671505  0.46721426  1
  Nb  Nb7  1  0.72399656  0.91811111  0.41724958  1
