# generated using pymatgen
data_HfZrTiNb
_symmetry_space_group_name_H-M   'P 1'
_cell_length_a   12.28780697
_cell_length_b   3.04880212
_cell_length_c   11.53184298
_cell_angle_alpha   99.38758472
_cell_angle_beta   107.75309822
_cell_angle_gamma   92.75175879
_symmetry_Int_Tables_number   1
_chemical_formula_structural   HfZrTiNb
_chemical_formula_sum   'Hf2 Zr2 Ti2 Nb2'
_cell_volume   403.73288557
_cell_formula_units_Z   2
loop_
 _symmetry_equiv_pos_site_id
 _symmetry_equiv_pos_as_xyz
  1  'x, y, z'
loop_
 _atom_site_type_symbol
 _atom_site_label
 _atom_site_symmetry_multiplicity
 _atom_site_fract_x
 _atom_site_fract_y
 _atom_site_fract_z
 _atom_site_occupancy
  Hf  Hf0  1  0.24230607  0.71626290  0.04366578  1
  Hf  Hf1  1  0.09305773  1.04289283  0.82524269  1
  Zr  Zr2  1  0.96524517  0.77506636  0.25951962  1
  Zr  Zr3  1  0.69919843  0.47633009  0.84507735  1
  Ti  Ti4  1  0.82881921  0.11651357  0.05684372  1
  Ti  Ti5  1  0.11669832  0.25096319  0.16813097  1
  Nb  Nb6  1  0.85551048  0.92180112  0.76233174  1
  Nb  Nb7  1  0.97694239  0.58905883  0.97538810  1
