# generated using pymatgen
data_HfZrTiNb
_symmetry_space_group_name_H-M   'P 1'
_cell_length_a   10.41387135
_cell_length_b   9.69826708
_cell_length_c   10.27069644
_cell_angle_alpha   30.81613069
_cell_angle_beta   149.64168961
_cell_angle_gamma   135.54133704
_symmetry_Int_Tables_number   1
_chemical_formula_structural   HfZrTiNb
_chemical_formula_sum   'Hf2 Zr2 Ti2 Nb2'
_cell_volume   267.07315417
_cell_formula_units_Z   2
loop_
 _symmetry_equiv_pos_site_id
 _symmetry_equiv_pos_as_xyz
  1  'x, y, z'
loop_
 _atom_site_type_symbol
 _atom_site_label
 _atom_site_symmetry_multiplicity
 _atom_site_fract_x
 _atom_site_fract_y
 _atom_site_fract_z
 _atom_site_occupancy
  Hf  Hf0  1  0.80076488  0.64949043  0.41364918  1
  Hf  Hf1  1  0.96619613  0.25647802  0.13855617  1
  Zr  Zr2  1  0.30673444  0.61650353  0.93062596  1
  Zr  Zr3  1  -0.09176239  -0.14623470  0.61938689  1
  Ti  Ti4  1  0.07854998  0.06272568  0.15667643  1
  Ti  Ti5  1  0.42580512  0.57733531  0.36229141  1
  Nb  Nb6  1  0.41183163  0.08040760  0.83987687  1
  Nb  Nb7  1  0.54632459  1.12551637  0.66133712  1
