# generated using pymatgen
data_HfZrTiNb
_symmetry_space_group_name_H-M   'P 1'
_cell_length_a   10.37345687
_cell_length_b   11.94819084
_cell_length_c   4.53738465
_cell_angle_alpha   66.82666970
_cell_angle_beta   106.22220132
_cell_angle_gamma   122.99474615
_symmetry_Int_Tables_number   1
_chemical_formula_structural   HfZrTiNb
_chemical_formula_sum   'Hf2 Zr2 Ti2 Nb2'
_cell_volume   432.07836295
_cell_formula_units_Z   2
loop_
 _symmetry_equiv_pos_site_id
 _symmetry_equiv_pos_as_xyz
  1  'x, y, z'
loop_
 _atom_site_type_symbol
 _atom_site_label
 _atom_site_symmetry_multiplicity
 _atom_site_fract_x
 _atom_site_fract_y
 _atom_site_fract_z
 _atom_site_occupancy
  Hf  Hf0  1  0.91694395  0.74198038  0.49870726  1
  Hf  Hf1  1  0.11904039  0.88235652  -0.02331491  1
  Zr  Zr2  1  0.15428830  1.06032711  0.32495799  1
  Zr  Zr3  1  -0.03573067  0.05533556  0.71776256  1
  Ti  Ti4  1  0.60636887  0.86199153  0.68588269  1
  Ti  Ti5  1  0.57441327  0.67956705  0.34250396  1
  Nb  Nb6  1  0.76023619  -0.26729242  0.91399124  1
  Nb  Nb7  1  0.79332861  0.93584204  0.23090921  1
