# generated using pymatgen
data_HfZrTiNb
_symmetry_space_group_name_H-M   'P 1'
_cell_length_a   3.09886573
_cell_length_b   9.04556634
_cell_length_c   7.52503345
_cell_angle_alpha   97.43301760
_cell_angle_beta   89.97054428
_cell_angle_gamma   87.34583534
_symmetry_Int_Tables_number   1
_chemical_formula_structural   HfZrTiNb
_chemical_formula_sum   'Hf2 Zr2 Ti2 Nb2'
_cell_volume   208.93276669
_cell_formula_units_Z   2
loop_
 _symmetry_equiv_pos_site_id
 _symmetry_equiv_pos_as_xyz
  1  'x, y, z'
loop_
 _atom_site_type_symbol
 _atom_site_label
 _atom_site_symmetry_multiplicity
 _atom_site_fract_x
 _atom_site_fract_y
 _atom_site_fract_z
 _atom_site_occupancy
  Hf  Hf0  1  1.04989585  0.14342041  0.29457523  1
  Hf  Hf1  1  0.59392183  0.84813789  1.16157455  1
  Zr  Zr2  1  0.49071713  0.28498237  -0.00693277  1
  Zr  Zr3  1  0.13606910  -0.42190304  -0.03261099  1
  Ti  Ti4  1  1.08982302  0.86745049  0.49252163  1
  Ti  Ti5  1  0.53096300  0.11851910  0.62997467  1
  Nb  Nb6  1  1.04664122  1.00301379  0.89936084  1
  Nb  Nb7  1  0.61752443  0.76182678  0.74773685  1
