# generated using pymatgen
data_HfZrTiNb
_symmetry_space_group_name_H-M   'P 1'
_cell_length_a   14.96340731
_cell_length_b   14.22171677
_cell_length_c   15.39839972
_cell_angle_alpha   95.47397612
_cell_angle_beta   88.21277789
_cell_angle_gamma   128.37753634
_symmetry_Int_Tables_number   1
_chemical_formula_structural   HfZrTiNb
_chemical_formula_sum   'Hf2 Zr2 Ti2 Nb2'
_cell_volume   2555.48708582
_cell_formula_units_Z   2
loop_
 _symmetry_equiv_pos_site_id
 _symmetry_equiv_pos_as_xyz
  1  'x, y, z'
loop_
 _atom_site_type_symbol
 _atom_site_label
 _atom_site_symmetry_multiplicity
 _atom_site_fract_x
 _atom_site_fract_y
 _atom_site_fract_z
 _atom_site_occupancy
  Hf  Hf0  1  0.35619369  0.14340904  0.91640283  1
  Hf  Hf1  1  0.19936186  0.96770207  0.83359717  1
  Zr  Zr2  1  0.65600468  0.91003386  0.18846041  1
  Zr  Zr3  1  0.74969380  0.12539398  0.24135797  1
  Ti  Ti4  1  0.81652375  0.07568327  0.10208162  1
  Ti  Ti5  1  0.22754540  0.45580974  0.73376081  1
  Nb  Nb6  1  0.27063382  0.54052672  0.85930178  1
  Nb  Nb7  1  0.55171300  0.94244465  0.62503741  1
