# generated using pymatgen
data_HfZrTiNb
_symmetry_space_group_name_H-M   'P 1'
_cell_length_a   13.29914527
_cell_length_b   12.46727199
_cell_length_c   15.89948167
_cell_angle_alpha   91.48853388
_cell_angle_beta   102.40848151
_cell_angle_gamma   120.20509487
_symmetry_Int_Tables_number   1
_chemical_formula_structural   HfZrTiNb
_chemical_formula_sum   'Hf2 Zr2 Ti2 Nb2'
_cell_volume   2196.80769715
_cell_formula_units_Z   2
loop_
 _symmetry_equiv_pos_site_id
 _symmetry_equiv_pos_as_xyz
  1  'x, y, z'
loop_
 _atom_site_type_symbol
 _atom_site_label
 _atom_site_symmetry_multiplicity
 _atom_site_fract_x
 _atom_site_fract_y
 _atom_site_fract_z
 _atom_site_occupancy
  Hf  Hf0  1  0.44702706  0.47783667  0.96956187  1
  Hf  Hf1  1  0.47087625  0.53356811  0.48306160  1
  Zr  Zr2  1  0.21873726  0.29202686  0.34189608  1
  Zr  Zr3  1  0.84634306  0.77074295  0.69407163  1
  Ti  Ti4  1  0.40039157  0.29497861  0.44373966  1
  Ti  Ti5  1  0.44186182  0.29994111  0.96663813  1
  Nb  Nb6  1  0.28256866  0.50804649  0.37863240  1
  Nb  Nb7  1  0.66997208  0.71174808  0.59479863  1
