# generated using pymatgen
data_HfZrTiNb
_symmetry_space_group_name_H-M   'P 1'
_cell_length_a   15.04317291
_cell_length_b   14.59350937
_cell_length_c   15.00772236
_cell_angle_alpha   89.30113667
_cell_angle_beta   87.57779988
_cell_angle_gamma   126.36846997
_symmetry_Int_Tables_number   1
_chemical_formula_structural   HfZrTiNb
_chemical_formula_sum   'Hf2 Zr2 Ti2 Nb2'
_cell_volume   2647.73317714
_cell_formula_units_Z   2
loop_
 _symmetry_equiv_pos_site_id
 _symmetry_equiv_pos_as_xyz
  1  'x, y, z'
loop_
 _atom_site_type_symbol
 _atom_site_label
 _atom_site_symmetry_multiplicity
 _atom_site_fract_x
 _atom_site_fract_y
 _atom_site_fract_z
 _atom_site_occupancy
  Hf  Hf0  1  0.58219507  0.07455639  -0.00302763  1
  Hf  Hf1  1  0.22222222  0.77777778  0.71810000  1
  Zr  Zr2  1  0.70817859  0.17666116  0.86107818  1
  Zr  Zr3  1  0.17966026  0.27501323  0.50666562  1
  Ti  Ti4  1  0.10988748  0.22228037  0.96758263  1
  Ti  Ti5  1  0.53543677  0.06681274  0.18547773  1
  Nb  Nb6  1  0.32222752  0.39542899  0.58643438  1
  Nb  Nb7  1  0.45507877  0.90790933  0.11388909  1
