# generated using pymatgen
data_HfZrTiNb
_symmetry_space_group_name_H-M   'P 1'
_cell_length_a   12.28799680
_cell_length_b   5.16125910
_cell_length_c   11.01196379
_cell_angle_alpha   84.06712145
_cell_angle_beta   69.20099798
_cell_angle_gamma   109.63000401
_symmetry_Int_Tables_number   1
_chemical_formula_structural   HfZrTiNb
_chemical_formula_sum   'Hf2 Zr2 Ti2 Nb2'
_cell_volume   594.95238277
_cell_formula_units_Z   2
loop_
 _symmetry_equiv_pos_site_id
 _symmetry_equiv_pos_as_xyz
  1  'x, y, z'
loop_
 _atom_site_type_symbol
 _atom_site_label
 _atom_site_symmetry_multiplicity
 _atom_site_fract_x
 _atom_site_fract_y
 _atom_site_fract_z
 _atom_site_occupancy
  Hf  Hf0  1  0.68657643  0.11589291  0.54355623  1
  Hf  Hf1  1  0.93174301  0.36714051  0.30341762  1
  Zr  Zr2  1  0.48681584  0.98976145  0.43622368  1
  Zr  Zr3  1  0.54288651  0.49863357  0.53511957  1
  Ti  Ti4  1  0.71819662  0.44775734  0.26509342  1
  Ti  Ti5  1  0.94523377  0.91121583  0.18452282  1
  Nb  Nb6  1  0.70787774  -0.06519733  0.28692910  1
  Nb  Nb7  1  0.81589120  0.73857128  0.44513758  1
