# generated using pymatgen
data_HfZrTiNb
_symmetry_space_group_name_H-M   'P 1'
_cell_length_a   14.68539279
_cell_length_b   14.20735970
_cell_length_c   15.72548989
_cell_angle_alpha   100.67356007
_cell_angle_beta   84.22795219
_cell_angle_gamma   123.35568433
_symmetry_Int_Tables_number   1
_chemical_formula_structural   HfZrTiNb
_chemical_formula_sum   'Hf2 Zr2 Ti2 Nb2'
_cell_volume   2693.09386037
_cell_formula_units_Z   2
loop_
 _symmetry_equiv_pos_site_id
 _symmetry_equiv_pos_as_xyz
  1  'x, y, z'
loop_
 _atom_site_type_symbol
 _atom_site_label
 _atom_site_symmetry_multiplicity
 _atom_site_fract_x
 _atom_site_fract_y
 _atom_site_fract_z
 _atom_site_occupancy
  Hf  Hf0  1  0.55555872  0.44444768  0.71810109  1
  Hf  Hf1  1  0.53146596  0.30892887  0.27828938  1
  Zr  Zr2  1  0.75998064  0.12177378  0.69603831  1
  Zr  Zr3  1  0.75358003  0.96792758  0.55744672  1
  Ti  Ti4  1  0.69075626  0.46884891  0.28551062  1
  Ti  Ti5  1  0.22222222  0.44444444  0.03190000  1
  Nb  Nb6  1  0.94255351  0.88511009  0.87499891  1
  Nb  Nb7  1  0.59377489  0.96396642  0.62151497  1
