# generated using pymatgen
data_HfZrTiNb
_symmetry_space_group_name_H-M   'P 1'
_cell_length_a   13.47141749
_cell_length_b   14.36225358
_cell_length_c   14.64566296
_cell_angle_alpha   76.16701273
_cell_angle_beta   99.09274504
_cell_angle_gamma   116.44043124
_symmetry_Int_Tables_number   1
_chemical_formula_structural   HfZrTiNb
_chemical_formula_sum   'Hf2 Zr2 Ti2 Nb2'
_cell_volume   2459.31020234
_cell_formula_units_Z   2
loop_
 _symmetry_equiv_pos_site_id
 _symmetry_equiv_pos_as_xyz
  1  'x, y, z'
loop_
 _atom_site_type_symbol
 _atom_site_label
 _atom_site_symmetry_multiplicity
 _atom_site_fract_x
 _atom_site_fract_y
 _atom_site_fract_z
 _atom_site_occupancy
  Hf  Hf0  1  0.53531054  0.52507339  1.00725368  1
  Hf  Hf1  1  0.81116701  0.91131133  0.27009753  1
  Zr  Zr2  1  0.74188231  0.56893796  0.95076554  1
  Zr  Zr3  1  0.84677859  0.03559667  0.11474749  1
  Ti  Ti4  1  0.83718296  0.80014992  0.45339196  1
  Ti  Ti5  1  0.22203807  0.77767411  0.03187812  1
  Nb  Nb6  1  0.66965033  0.75482986  0.38246302  1
  Nb  Nb7  1  0.66932351  0.46542343  0.10320266  1
