# generated using pymatgen
data_HfZrTiNb
_symmetry_space_group_name_H-M   'P 1'
_cell_length_a   5.06269211
_cell_length_b   10.21022575
_cell_length_c   9.53742593
_cell_angle_alpha   139.67413842
_cell_angle_beta   73.05269603
_cell_angle_gamma   116.98205616
_symmetry_Int_Tables_number   1
_chemical_formula_structural   HfZrTiNb
_chemical_formula_sum   'Hf2 Zr2 Ti2 Nb2'
_cell_volume   283.04207684
_cell_formula_units_Z   2
loop_
 _symmetry_equiv_pos_site_id
 _symmetry_equiv_pos_as_xyz
  1  'x, y, z'
loop_
 _atom_site_type_symbol
 _atom_site_label
 _atom_site_symmetry_multiplicity
 _atom_site_fract_x
 _atom_site_fract_y
 _atom_site_fract_z
 _atom_site_occupancy
  Hf  Hf0  1  0.49116252  0.52111073  0.40401495  1
  Hf  Hf1  1  0.10937647  0.30367688  0.98478335  1
  Zr  Zr2  1  0.46418783  1.06488719  0.91766777  1
  Zr  Zr3  1  0.21356163  0.72850260  0.42293113  1
  Ti  Ti4  1  0.55363259  0.16958833  0.69266767  1
  Ti  Ti5  1  0.74698494  0.55142502  0.12156032  1
  Nb  Nb6  1  0.87176671  0.86804853  0.77853360  1
  Nb  Nb7  1  0.88266065  0.95376404  0.55024122  1
