# generated using pymatgen
data_HfZrTiNb
_symmetry_space_group_name_H-M   'P 1'
_cell_length_a   3.08298796
_cell_length_b   11.24180764
_cell_length_c   15.47442246
_cell_angle_alpha   99.84697029
_cell_angle_beta   94.45525329
_cell_angle_gamma   85.05590856
_symmetry_Int_Tables_number   1
_chemical_formula_structural   HfZrTiNb
_chemical_formula_sum   'Hf2 Zr2 Ti2 Nb2'
_cell_volume   525.36757114
_cell_formula_units_Z   2
loop_
 _symmetry_equiv_pos_site_id
 _symmetry_equiv_pos_as_xyz
  1  'x, y, z'
loop_
 _atom_site_type_symbol
 _atom_site_label
 _atom_site_symmetry_multiplicity
 _atom_site_fract_x
 _atom_site_fract_y
 _atom_site_fract_z
 _atom_site_occupancy
  Hf  Hf0  1  0.35011953  0.58426343  0.00552752  1
  Hf  Hf1  1  0.45624908  0.16760001  1.03877636  1
  Zr  Zr2  1  0.05774729  0.20251956  0.20575326  1
  Zr  Zr3  1  0.42544753  0.64638183  0.31575634  1
  Ti  Ti4  1  0.90873545  0.36882811  0.00287514  1
  Ti  Ti5  1  0.00296536  0.43126439  0.30371339  1
  Nb  Nb6  1  0.88547475  0.62871191  0.16004904  1
  Nb  Nb7  1  0.46881655  0.41487515  0.15374892  1
