# generated using pymatgen
data_HfZrTiNb
_symmetry_space_group_name_H-M   'P 1'
_cell_length_a   7.40580488
_cell_length_b   8.45681781
_cell_length_c   14.18705186
_cell_angle_alpha   95.87928468
_cell_angle_beta   78.40873841
_cell_angle_gamma   160.15271558
_symmetry_Int_Tables_number   1
_chemical_formula_structural   HfZrTiNb
_chemical_formula_sum   'Hf2 Zr2 Ti2 Nb2'
_cell_volume   285.33181838
_cell_formula_units_Z   2
loop_
 _symmetry_equiv_pos_site_id
 _symmetry_equiv_pos_as_xyz
  1  'x, y, z'
loop_
 _atom_site_type_symbol
 _atom_site_label
 _atom_site_symmetry_multiplicity
 _atom_site_fract_x
 _atom_site_fract_y
 _atom_site_fract_z
 _atom_site_occupancy
  Hf  Hf0  1  0.01790407  0.68498303  0.90867421  1
  Hf  Hf1  1  0.53258635  0.22637110  0.57472387  1
  Zr  Zr2  1  1.01279271  0.94085417  1.08151149  1
  Zr  Zr3  1  0.52529423  0.61773699  0.62991114  1
  Ti  Ti4  1  0.34995674  0.44370700  -0.05361904  1
  Ti  Ti5  1  0.22178856  0.70886236  0.69987420  1
  Nb  Nb6  1  0.26491706  0.13895519  0.77134493  1
  Nb  Nb7  1  0.68020805  0.95508901  0.82377917  1
