# generated using pymatgen
data_HfZrTiNb
_symmetry_space_group_name_H-M   'P 1'
_cell_length_a   13.70189084
_cell_length_b   10.87131043
_cell_length_c   14.31415134
_cell_angle_alpha   106.20604565
_cell_angle_beta   71.81089671
_cell_angle_gamma   107.73645853
_symmetry_Int_Tables_number   1
_chemical_formula_structural   HfZrTiNb
_chemical_formula_sum   'Hf2 Zr2 Ti2 Nb2'
_cell_volume   1889.06494977
_cell_formula_units_Z   2
loop_
 _symmetry_equiv_pos_site_id
 _symmetry_equiv_pos_as_xyz
  1  'x, y, z'
loop_
 _atom_site_type_symbol
 _atom_site_label
 _atom_site_symmetry_multiplicity
 _atom_site_fract_x
 _atom_site_fract_y
 _atom_site_fract_z
 _atom_site_occupancy
  Hf  Hf0  1  0.22741452  0.54623581  0.03011513  1
  Hf  Hf1  1  0.24157687  0.79031450  0.06941644  1
  Zr  Zr2  1  0.88045943  0.09068874  0.63717441  1
  Zr  Zr3  1  0.82344213  0.92829829  0.77532777  1
  Ti  Ti4  1  0.19787919  -0.00355685  0.18133568  1
  Ti  Ti5  1  0.77742057  0.82993721  0.59126296  1
  Nb  Nb6  1  0.68345676  -0.01370313  0.71693486  1
  Nb  Nb7  1  0.39057275  0.27622987  0.62603275  1
