# generated using pymatgen
data_HfZrTiNb
_symmetry_space_group_name_H-M   'P 1'
_cell_length_a   3.01140018
_cell_length_b   8.55399246
_cell_length_c   13.16649072
_cell_angle_alpha   75.99362243
_cell_angle_beta   78.24684215
_cell_angle_gamma   98.21458387
_symmetry_Int_Tables_number   1
_chemical_formula_structural   HfZrTiNb
_chemical_formula_sum   'Hf2 Zr2 Ti2 Nb2'
_cell_volume   315.51677815
_cell_formula_units_Z   2
loop_
 _symmetry_equiv_pos_site_id
 _symmetry_equiv_pos_as_xyz
  1  'x, y, z'
loop_
 _atom_site_type_symbol
 _atom_site_label
 _atom_site_symmetry_multiplicity
 _atom_site_fract_x
 _atom_site_fract_y
 _atom_site_fract_z
 _atom_site_occupancy
  Hf  Hf0  1  0.25011439  0.33840322  0.03413988  1
  Hf  Hf1  1  0.76477337  0.78873177  0.28284630  1
  Zr  Zr2  1  0.71308991  0.52048027  0.17151561  1
  Zr  Zr3  1  0.42269842  0.44684197  0.41726997  1
  Ti  Ti4  1  0.68347820  0.14568934  0.51894060  1
  Ti  Ti5  1  0.20650303  -0.04701418  0.41937295  1
  Nb  Nb6  1  0.94403663  0.22317172  0.30235432  1
  Nb  Nb7  1  0.51719383  1.08180813  0.16736033  1
