# generated using pymatgen
data_HfZrTiNb
_symmetry_space_group_name_H-M   'P 1'
_cell_length_a   11.39595040
_cell_length_b   12.70854669
_cell_length_c   5.26799356
_cell_angle_alpha   78.52414034
_cell_angle_beta   94.80971663
_cell_angle_gamma   135.12514630
_symmetry_Int_Tables_number   1
_chemical_formula_structural   HfZrTiNb
_chemical_formula_sum   'Hf2 Zr2 Ti2 Nb2'
_cell_volume   525.73610340
_cell_formula_units_Z   2
loop_
 _symmetry_equiv_pos_site_id
 _symmetry_equiv_pos_as_xyz
  1  'x, y, z'
loop_
 _atom_site_type_symbol
 _atom_site_label
 _atom_site_symmetry_multiplicity
 _atom_site_fract_x
 _atom_site_fract_y
 _atom_site_fract_z
 _atom_site_occupancy
  Hf  Hf0  1  0.48083665  0.37092839  0.90920595  1
  Hf  Hf1  1  0.46258234  0.37821528  0.40107453  1
  Zr  Zr2  1  0.62765090  0.69174481  0.54599831  1
  Zr  Zr3  1  0.27720805  0.41439613  0.64921980  1
  Ti  Ti4  1  0.43454310  0.56351079  0.06832342  1
  Ti  Ti5  1  0.80035970  0.60583433  0.62264656  1
  Nb  Nb6  1  -0.24858112  0.68987874  0.06900088  1
  Nb  Nb7  1  0.77462369  0.50393817  0.17073054  1
