# generated using pymatgen
data_HfZrTiNb
_symmetry_space_group_name_H-M   'P 1'
_cell_length_a   13.28582831
_cell_length_b   10.65593400
_cell_length_c   9.38055292
_cell_angle_alpha   107.66211215
_cell_angle_beta   49.68437406
_cell_angle_gamma   124.56826428
_symmetry_Int_Tables_number   1
_chemical_formula_structural   HfZrTiNb
_chemical_formula_sum   'Hf2 Zr2 Ti2 Nb2'
_cell_volume   829.53584001
_cell_formula_units_Z   2
loop_
 _symmetry_equiv_pos_site_id
 _symmetry_equiv_pos_as_xyz
  1  'x, y, z'
loop_
 _atom_site_type_symbol
 _atom_site_label
 _atom_site_symmetry_multiplicity
 _atom_site_fract_x
 _atom_site_fract_y
 _atom_site_fract_z
 _atom_site_occupancy
  Hf  Hf0  1  0.90841062  0.12655321  0.50710658  1
  Hf  Hf1  1  0.94824484  0.39010845  0.38626157  1
  Zr  Zr2  1  0.26002233  0.62984875  0.55035600  1
  Zr  Zr3  1  0.27857777  0.58186081  0.21553403  1
  Ti  Ti4  1  0.20607798  0.34961354  0.40484917  1
  Ti  Ti5  1  0.14335679  0.27464869  1.16241751  1
  Nb  Nb6  1  -0.03208406  0.39007056  0.66842082  1
  Nb  Nb7  1  0.06894707  0.64807262  0.54125433  1
