# generated using pymatgen
data_HfZrTiNb
_symmetry_space_group_name_H-M   'P 1'
_cell_length_a   5.17175136
_cell_length_b   12.41443597
_cell_length_c   10.63302651
_cell_angle_alpha   71.50613300
_cell_angle_beta   82.07740940
_cell_angle_gamma   125.83175988
_symmetry_Int_Tables_number   1
_chemical_formula_structural   HfZrTiNb
_chemical_formula_sum   'Hf2 Zr2 Ti2 Nb2'
_cell_volume   476.16713557
_cell_formula_units_Z   2
loop_
 _symmetry_equiv_pos_site_id
 _symmetry_equiv_pos_as_xyz
  1  'x, y, z'
loop_
 _atom_site_type_symbol
 _atom_site_label
 _atom_site_symmetry_multiplicity
 _atom_site_fract_x
 _atom_site_fract_y
 _atom_site_fract_z
 _atom_site_occupancy
  Hf  Hf0  1  1.00741574  0.75912107  0.23142984  1
  Hf  Hf1  1  0.94216347  0.89983872  0.40957528  1
  Zr  Zr2  1  0.20506831  0.72673675  0.48097496  1
  Zr  Zr3  1  0.31803782  1.12737872  0.09885136  1
  Ti  Ti4  1  0.75078084  0.06309321  -0.01163500  1
  Ti  Ti5  1  0.13242877  -0.03533765  0.95097314  1
  Nb  Nb6  1  -0.35621060  0.02968222  0.26368212  1
  Nb  Nb7  1  0.60953893  0.82026359  0.19854831  1
