# generated using pymatgen
data_HfZrTiNb
_symmetry_space_group_name_H-M   'P 1'
_cell_length_a   12.48440761
_cell_length_b   13.65653106
_cell_length_c   13.35600024
_cell_angle_alpha   88.54030729
_cell_angle_beta   90.86475586
_cell_angle_gamma   135.70628666
_symmetry_Int_Tables_number   1
_chemical_formula_structural   HfZrTiNb
_chemical_formula_sum   'Hf2 Zr2 Ti2 Nb2'
_cell_volume   1589.66020900
_cell_formula_units_Z   2
loop_
 _symmetry_equiv_pos_site_id
 _symmetry_equiv_pos_as_xyz
  1  'x, y, z'
loop_
 _atom_site_type_symbol
 _atom_site_label
 _atom_site_symmetry_multiplicity
 _atom_site_fract_x
 _atom_site_fract_y
 _atom_site_fract_z
 _atom_site_occupancy
  Hf  Hf0  1  -0.03890233  0.76971474  0.71746083  1
  Hf  Hf1  1  0.87498598  0.99054690  0.19373196  1
  Zr  Zr2  1  0.71610884  0.55279045  0.63840018  1
  Zr  Zr3  1  0.75959701  0.53443215  0.84626831  1
  Ti  Ti4  1  0.12030969  0.12242485  0.32261723  1
  Ti  Ti5  1  0.08354362  0.27376949  0.21615653  1
  Nb  Nb6  1  0.92493626  0.11514654  0.36059428  1
  Nb  Nb7  1  0.73175093  0.48017155  0.01857069  1
