# generated using pymatgen
data_HfZrTiNb
_symmetry_space_group_name_H-M   'P 1'
_cell_length_a   12.44388779
_cell_length_b   12.96663094
_cell_length_c   15.50604302
_cell_angle_alpha   87.14991211
_cell_angle_beta   87.98568227
_cell_angle_gamma   131.31482401
_symmetry_Int_Tables_number   1
_chemical_formula_structural   HfZrTiNb
_chemical_formula_sum   'Hf2 Zr2 Ti2 Nb2'
_cell_volume   1869.17615626
_cell_formula_units_Z   2
loop_
 _symmetry_equiv_pos_site_id
 _symmetry_equiv_pos_as_xyz
  1  'x, y, z'
loop_
 _atom_site_type_symbol
 _atom_site_label
 _atom_site_symmetry_multiplicity
 _atom_site_fract_x
 _atom_site_fract_y
 _atom_site_fract_z
 _atom_site_occupancy
  Hf  Hf0  1  0.58259477  1.03510742  0.71908073  1
  Hf  Hf1  1  0.13840090  0.45385077  0.15697293  1
  Zr  Zr2  1  0.82655577  0.00090147  0.55231844  1
  Zr  Zr3  1  0.65718496  0.86756755  0.71656522  1
  Ti  Ti4  1  0.97271021  0.43503811  0.09302707  1
  Ti  Ti5  1  0.54665824  0.89655552  0.57557411  1
  Nb  Nb6  1  -0.13723155  0.14743528  0.68817837  1
  Nb  Nb7  1  0.75023558  0.15976832  0.56208313  1
