# generated using pymatgen
data_HfZrTiNb
_symmetry_space_group_name_H-M   'P 1'
_cell_length_a   12.49551825
_cell_length_b   11.11707906
_cell_length_c   13.41407885
_cell_angle_alpha   97.61674776
_cell_angle_beta   84.58805710
_cell_angle_gamma   157.42370940
_symmetry_Int_Tables_number   1
_chemical_formula_structural   HfZrTiNb
_chemical_formula_sum   'Hf2 Zr2 Ti2 Nb2'
_cell_volume   707.13931423
_cell_formula_units_Z   2
loop_
 _symmetry_equiv_pos_site_id
 _symmetry_equiv_pos_as_xyz
  1  'x, y, z'
loop_
 _atom_site_type_symbol
 _atom_site_label
 _atom_site_symmetry_multiplicity
 _atom_site_fract_x
 _atom_site_fract_y
 _atom_site_fract_z
 _atom_site_occupancy
  Hf  Hf0  1  0.20845000  0.98430169  0.80214303  1
  Hf  Hf1  1  0.44444444  0.55555556  0.46810000  1
  Zr  Zr2  1  0.42301878  0.85979411  0.94798800  1
  Zr  Zr3  1  0.61979294  0.23505336  -0.21960474  1
  Ti  Ti4  1  0.84628144  0.65240602  -0.06012428  1
  Ti  Ti5  1  0.37421121  0.07622770  0.99076801  1
  Nb  Nb6  1  0.88698853  0.47237984  0.99841289  1
  Nb  Nb7  1  0.08570154  0.60872618  0.82231708  1
