# generated using pymatgen
data_HfZrTiNb
_symmetry_space_group_name_H-M   'P 1'
_cell_length_a   13.16558392
_cell_length_b   15.13901526
_cell_length_c   15.83499411
_cell_angle_alpha   93.12142032
_cell_angle_beta   79.49629506
_cell_angle_gamma   133.15186150
_symmetry_Int_Tables_number   1
_chemical_formula_structural   HfZrTiNb
_chemical_formula_sum   'Hf2 Zr2 Ti2 Nb2'
_cell_volume   2253.07851962
_cell_formula_units_Z   2
loop_
 _symmetry_equiv_pos_site_id
 _symmetry_equiv_pos_as_xyz
  1  'x, y, z'
loop_
 _atom_site_type_symbol
 _atom_site_label
 _atom_site_symmetry_multiplicity
 _atom_site_fract_x
 _atom_site_fract_y
 _atom_site_fract_z
 _atom_site_occupancy
  Hf  Hf0  1  0.55369687  0.94508426  0.37021034  1
  Hf  Hf1  1  0.65785956  0.84468121  0.26385959  1
  Zr  Zr2  1  0.55505522  0.46593674  0.54363765  1
  Zr  Zr3  1  -0.07176209  0.08133032  0.29292919  1
  Ti  Ti4  1  0.74448949  0.06369527  0.22554014  1
  Ti  Ti5  1  0.77777778  0.55555556  0.96810000  1
  Nb  Nb6  1  0.55382777  0.60056223  0.60484959  1
  Nb  Nb7  1  0.72339208  0.93749107  0.41707351  1
