# generated using pymatgen
data_HfZrTiNb
_symmetry_space_group_name_H-M   'P 1'
_cell_length_a   5.69926179
_cell_length_b   5.35483485
_cell_length_c   6.14786460
_cell_angle_alpha   91.08896232
_cell_angle_beta   102.24535295
_cell_angle_gamma   116.05477294
_symmetry_Int_Tables_number   1
_chemical_formula_structural   HfZrTiNb
_chemical_formula_sum   'Hf2 Zr2 Ti2 Nb2'
_cell_volume   163.37203174
_cell_formula_units_Z   2
loop_
 _symmetry_equiv_pos_site_id
 _symmetry_equiv_pos_as_xyz
  1  'x, y, z'
loop_
 _atom_site_type_symbol
 _atom_site_label
 _atom_site_symmetry_multiplicity
 _atom_site_fract_x
 _atom_site_fract_y
 _atom_site_fract_z
 _atom_site_occupancy
  Hf  Hf0  1  0.70848462  0.39428009  0.48892356  1
  Hf  Hf1  1  0.24864005  0.79984336  0.35209354  1
  Zr  Zr2  1  0.19393220  0.27894060  0.61230848  1
  Zr  Zr3  1  0.15636077  0.77005326  0.86899251  1
  Ti  Ti4  1  0.69167023  0.31712998  1.01173016  1
  Ti  Ti5  1  0.69146034  0.88464724  -0.26971545  1
  Nb  Nb6  1  0.19749398  0.27475409  0.11829809  1
  Nb  Nb7  1  0.71740553  0.83590693  1.19496913  1
