# generated using pymatgen
data_HfZrTiNb
_symmetry_space_group_name_H-M   'P 1'
_cell_length_a   12.96755694
_cell_length_b   3.02611839
_cell_length_c   11.67581918
_cell_angle_alpha   91.19699657
_cell_angle_beta   92.31307397
_cell_angle_gamma   91.36255044
_symmetry_Int_Tables_number   1
_chemical_formula_structural   HfZrTiNb
_chemical_formula_sum   'Hf2 Zr2 Ti2 Nb2'
_cell_volume   457.56278980
_cell_formula_units_Z   2
loop_
 _symmetry_equiv_pos_site_id
 _symmetry_equiv_pos_as_xyz
  1  'x, y, z'
loop_
 _atom_site_type_symbol
 _atom_site_label
 _atom_site_symmetry_multiplicity
 _atom_site_fract_x
 _atom_site_fract_y
 _atom_site_fract_z
 _atom_site_occupancy
  Hf  Hf0  1  0.18343411  0.44656614  0.11179745  1
  Hf  Hf1  1  0.55747528  0.47899757  1.06224463  1
  Zr  Zr2  1  0.53698968  0.98564847  0.28746445  1
  Zr  Zr3  1  0.51014795  0.95836827  0.84008488  1
  Ti  Ti4  1  0.16247796  0.91886041  0.90401196  1
  Ti  Ti5  1  0.37249017  -0.03513101  1.07540633  1
  Nb  Nb6  1  0.35181994  0.47105308  0.26911457  1
  Nb  Nb7  1  0.33271598  0.44607927  0.88607573  1
