# generated using pymatgen
data_HfZrTiNb
_symmetry_space_group_name_H-M   'P 1'
_cell_length_a   10.87530505
_cell_length_b   12.56089906
_cell_length_c   16.23828938
_cell_angle_alpha   101.96820904
_cell_angle_beta   77.36195584
_cell_angle_gamma   107.40468722
_symmetry_Int_Tables_number   1
_chemical_formula_structural   HfZrTiNb
_chemical_formula_sum   'Hf2 Zr2 Ti2 Nb2'
_cell_volume   2041.23292489
_cell_formula_units_Z   2
loop_
 _symmetry_equiv_pos_site_id
 _symmetry_equiv_pos_as_xyz
  1  'x, y, z'
loop_
 _atom_site_type_symbol
 _atom_site_label
 _atom_site_symmetry_multiplicity
 _atom_site_fract_x
 _atom_site_fract_y
 _atom_site_fract_z
 _atom_site_occupancy
  Hf  Hf0  1  0.44451843  0.22231431  0.46805474  1
  Hf  Hf1  1  0.38310246  0.79811560  0.79672313  1
  Zr  Zr2  1  0.21104060  0.89100733  0.93430913  1
  Zr  Zr3  1  0.07261242  0.63260396  0.30370090  1
  Ti  Ti4  1  0.81693095  0.59548183  0.29413994  1
  Ti  Ti5  1  0.22248384  0.91133728  0.76762530  1
  Nb  Nb6  1  0.94182820  0.76804657  0.34100442  1
  Nb  Nb7  1  0.40937089  0.01253868  0.84444244  1
