# generated using pymatgen
data_HfZrTiNb
_symmetry_space_group_name_H-M   'P 1'
_cell_length_a   14.01368332
_cell_length_b   13.10119817
_cell_length_c   15.52276105
_cell_angle_alpha   88.87711681
_cell_angle_beta   99.80731258
_cell_angle_gamma   118.41912897
_symmetry_Int_Tables_number   1
_chemical_formula_structural   HfZrTiNb
_chemical_formula_sum   'Hf2 Zr2 Ti2 Nb2'
_cell_volume   2463.62352979
_cell_formula_units_Z   2
loop_
 _symmetry_equiv_pos_site_id
 _symmetry_equiv_pos_as_xyz
  1  'x, y, z'
loop_
 _atom_site_type_symbol
 _atom_site_label
 _atom_site_symmetry_multiplicity
 _atom_site_fract_x
 _atom_site_fract_y
 _atom_site_fract_z
 _atom_site_occupancy
  Hf  Hf0  1  0.18574652  0.89166147  0.53861306  1
  Hf  Hf1  1  0.54982541  0.44387693  0.03544384  1
  Zr  Zr2  1  0.33759396  0.88888618  0.68302284  1
  Zr  Zr3  1  0.22793682  0.44496545  0.21454801  1
  Ti  Ti4  1  0.18751298  -0.03922192  0.70608830  1
  Ti  Ti5  1  0.77777778  0.22222222  0.46810000  1
  Nb  Nb6  1  0.05745888  0.94260317  0.12500815  1
  Nb  Nb7  1  0.12436764  0.75678648  0.66537581  1
