# generated using pymatgen
data_HfZrTiNb
_symmetry_space_group_name_H-M   'P 1'
_cell_length_a   11.00388794
_cell_length_b   10.28842909
_cell_length_c   8.16412978
_cell_angle_alpha   103.04300446
_cell_angle_beta   114.61825546
_cell_angle_gamma   138.99311247
_symmetry_Int_Tables_number   1
_chemical_formula_structural   HfZrTiNb
_chemical_formula_sum   'Hf2 Zr2 Ti2 Nb2'
_cell_volume   234.15482540
_cell_formula_units_Z   2
loop_
 _symmetry_equiv_pos_site_id
 _symmetry_equiv_pos_as_xyz
  1  'x, y, z'
loop_
 _atom_site_type_symbol
 _atom_site_label
 _atom_site_symmetry_multiplicity
 _atom_site_fract_x
 _atom_site_fract_y
 _atom_site_fract_z
 _atom_site_occupancy
  Hf  Hf0  1  0.71498151  0.02327547  0.40759379  1
  Hf  Hf1  1  0.74666362  0.68592614  0.84284779  1
  Zr  Zr2  1  0.15934341  0.62195629  0.27076422  1
  Zr  Zr3  1  0.39980233  1.44743605  0.90678467  1
  Ti  Ti4  1  0.03829835  0.21902792  0.30003466  1
  Ti  Ti5  1  0.38250981  0.77872891  0.78483368  1
  Nb  Nb6  1  0.88265280  0.10443037  0.86257800  1
  Nb  Nb7  1  0.56086146  0.56743881  0.37456325  1
