# generated using pymatgen
data_HfZrTiNb
_symmetry_space_group_name_H-M   'P 1'
_cell_length_a   5.67382141
_cell_length_b   5.56796667
_cell_length_c   8.00972232
_cell_angle_alpha   128.90123807
_cell_angle_beta   64.60486452
_cell_angle_gamma   90.06821157
_symmetry_Int_Tables_number   1
_chemical_formula_structural   HfZrTiNb
_chemical_formula_sum   'Hf2 Zr2 Ti2 Nb2'
_cell_volume   164.44926452
_cell_formula_units_Z   2
loop_
 _symmetry_equiv_pos_site_id
 _symmetry_equiv_pos_as_xyz
  1  'x, y, z'
loop_
 _atom_site_type_symbol
 _atom_site_label
 _atom_site_symmetry_multiplicity
 _atom_site_fract_x
 _atom_site_fract_y
 _atom_site_fract_z
 _atom_site_occupancy
  Hf  Hf0  1  0.70813529  0.46787685  0.50109452  1
  Hf  Hf1  1  0.14065460  0.16156339  -0.04824595  1
  Zr  Zr2  1  0.58348185  0.98608753  0.05146107  1
  Zr  Zr3  1  0.65505483  0.38940490  0.92999245  1
  Ti  Ti4  1  0.52763860  -0.05510081  0.46011546  1
  Ti  Ti5  1  0.14007651  0.67648800  -0.03053023  1
  Nb  Nb6  1  1.17284503  0.49584007  0.53804086  1
  Nb  Nb7  1  1.06833772  0.87028897  0.41187182  1
