# generated using pymatgen
data_HfZrTiNb
_symmetry_space_group_name_H-M   'P 1'
_cell_length_a   13.86873707
_cell_length_b   13.11474554
_cell_length_c   13.82507159
_cell_angle_alpha   86.94902540
_cell_angle_beta   101.55647117
_cell_angle_gamma   119.95668269
_symmetry_Int_Tables_number   1
_chemical_formula_structural   HfZrTiNb
_chemical_formula_sum   'Hf2 Zr2 Ti2 Nb2'
_cell_volume   2131.21961428
_cell_formula_units_Z   2
loop_
 _symmetry_equiv_pos_site_id
 _symmetry_equiv_pos_as_xyz
  1  'x, y, z'
loop_
 _atom_site_type_symbol
 _atom_site_label
 _atom_site_symmetry_multiplicity
 _atom_site_fract_x
 _atom_site_fract_y
 _atom_site_fract_z
 _atom_site_occupancy
  Hf  Hf0  1  0.49360042  0.21095199  0.77814796  1
  Hf  Hf1  1  1.00992410  0.16073502  0.15457054  1
  Zr  Zr2  1  0.10430092  0.23677529  0.35305520  1
  Zr  Zr3  1  0.87042198  0.08509914  0.29415197  1
  Ti  Ti4  1  0.45939600  1.00357942  0.79153899  1
  Ti  Ti5  1  0.66094632  0.45184514  0.79913569  1
  Nb  Nb6  1  0.50094392  0.39106678  0.85187736  1
  Nb  Nb7  1  0.01912856  0.01927831  0.29132229  1
