# generated using pymatgen
data_HfZrTiNb
_symmetry_space_group_name_H-M   'P 1'
_cell_length_a   15.76620000
_cell_length_b   15.27046749
_cell_length_c   15.46243482
_cell_angle_alpha   97.12504667
_cell_angle_beta   89.99999998
_cell_angle_gamma   121.07982173
_symmetry_Int_Tables_number   1
_chemical_formula_structural   HfZrTiNb
_chemical_formula_sum   'Hf2 Zr2 Ti2 Nb2'
_cell_volume   3154.68333209
_cell_formula_units_Z   2
loop_
 _symmetry_equiv_pos_site_id
 _symmetry_equiv_pos_as_xyz
  1  'x, y, z'
loop_
 _atom_site_type_symbol
 _atom_site_label
 _atom_site_symmetry_multiplicity
 _atom_site_fract_x
 _atom_site_fract_y
 _atom_site_fract_z
 _atom_site_occupancy
  Hf  Hf0  1  0.55555556  0.44444444  0.03190000  1
  Hf  Hf1  1  0.79452410  0.25571487  0.31100015  1
  Zr  Zr2  1  0.77777778  0.88888889  0.78190000  1
  Zr  Zr3  1  0.85542888  0.37752442  0.45508813  1
  Ti  Ti4  1  0.22222222  0.77777778  0.03190000  1
  Ti  Ti5  1  0.44444444  0.88888889  0.46810000  1
  Nb  Nb6  1  0.39077667  0.44822000  0.62500000  1
  Nb  Nb7  1  0.74082369  0.14831404  0.17271172  1
