# generated using pymatgen
data_HfZrTiNb
_symmetry_space_group_name_H-M   'P 1'
_cell_length_a   11.50205108
_cell_length_b   10.74702596
_cell_length_c   10.22300351
_cell_angle_alpha   151.44791164
_cell_angle_beta   58.16836368
_cell_angle_gamma   119.24904431
_symmetry_Int_Tables_number   1
_chemical_formula_structural   HfZrTiNb
_chemical_formula_sum   'Hf2 Zr2 Ti2 Nb2'
_cell_volume   512.15384582
_cell_formula_units_Z   2
loop_
 _symmetry_equiv_pos_site_id
 _symmetry_equiv_pos_as_xyz
  1  'x, y, z'
loop_
 _atom_site_type_symbol
 _atom_site_label
 _atom_site_symmetry_multiplicity
 _atom_site_fract_x
 _atom_site_fract_y
 _atom_site_fract_z
 _atom_site_occupancy
  Hf  Hf0  1  0.42759025  0.97319581  0.57858102  1
  Hf  Hf1  1  0.32524276  0.43991354  0.24500676  1
  Zr  Zr2  1  0.58043876  0.64705854  0.43166668  1
  Zr  Zr3  1  0.57919444  0.51203176  -0.02519909  1
  Ti  Ti4  1  0.79647667  0.50798960  1.00900949  1
  Ti  Ti5  1  0.32622471  -0.08587699  0.84188724  1
  Nb  Nb6  1  0.72425437  0.00927262  0.46612443  1
  Nb  Nb7  1  0.57768693  0.16496955  -0.10567652  1
