# generated using pymatgen
data_HfZrTiNb
_symmetry_space_group_name_H-M   'P 1'
_cell_length_a   8.16283114
_cell_length_b   6.22884867
_cell_length_c   5.48589955
_cell_angle_alpha   119.25655234
_cell_angle_beta   108.71496667
_cell_angle_gamma   115.44973032
_symmetry_Int_Tables_number   1
_chemical_formula_structural   HfZrTiNb
_chemical_formula_sum   'Hf2 Zr2 Ti2 Nb2'
_cell_volume   162.34930980
_cell_formula_units_Z   2
loop_
 _symmetry_equiv_pos_site_id
 _symmetry_equiv_pos_as_xyz
  1  'x, y, z'
loop_
 _atom_site_type_symbol
 _atom_site_label
 _atom_site_symmetry_multiplicity
 _atom_site_fract_x
 _atom_site_fract_y
 _atom_site_fract_z
 _atom_site_occupancy
  Hf  Hf0  1  0.25936410  0.64856247  0.32470260  1
  Hf  Hf1  1  -0.01954004  0.70224467  0.91737861  1
  Zr  Zr2  1  0.48326093  0.40747357  0.62067569  1
  Zr  Zr3  1  0.75171621  -0.06359597  0.61012021  1
  Ti  Ti4  1  0.78103525  0.45506537  0.19334844  1
  Ti  Ti5  1  -0.02302251  0.20328590  0.38900191  1
  Nb  Nb6  1  0.45343420  0.88796479  0.03938261  1
  Nb  Nb7  1  0.25630852  1.14977590  0.84158991  1
