# generated using pymatgen
data_HfZrTiNb
_symmetry_space_group_name_H-M   'P 1'
_cell_length_a   9.69744232
_cell_length_b   11.31166652
_cell_length_c   14.70028125
_cell_angle_alpha   81.86554296
_cell_angle_beta   98.74227572
_cell_angle_gamma   152.47637187
_symmetry_Int_Tables_number   1
_chemical_formula_structural   HfZrTiNb
_chemical_formula_sum   'Hf2 Zr2 Ti2 Nb2'
_cell_volume   736.43919333
_cell_formula_units_Z   2
loop_
 _symmetry_equiv_pos_site_id
 _symmetry_equiv_pos_as_xyz
  1  'x, y, z'
loop_
 _atom_site_type_symbol
 _atom_site_label
 _atom_site_symmetry_multiplicity
 _atom_site_fract_x
 _atom_site_fract_y
 _atom_site_fract_z
 _atom_site_occupancy
  Hf  Hf0  1  -0.20730633  0.72337762  0.61555430  1
  Hf  Hf1  1  0.91431329  0.52137385  0.67362515  1
  Zr  Zr2  1  0.38787126  0.02398284  0.56645437  1
  Zr  Zr3  1  0.31171746  0.00403797  0.77254431  1
  Ti  Ti4  1  0.76976446  0.53551508  0.49001303  1
  Ti  Ti5  1  0.16950350  0.06539458  0.46189766  1
  Nb  Nb6  1  1.34746278  1.22972922  0.63360973  1
  Nb  Nb7  1  0.68989912  0.50203662  0.78630144  1
