# generated using pymatgen
data_HfZrTiNb
_symmetry_space_group_name_H-M   'P 1'
_cell_length_a   14.92990574
_cell_length_b   13.94632201
_cell_length_c   16.03212575
_cell_angle_alpha   82.51321841
_cell_angle_beta   93.65482605
_cell_angle_gamma   122.89041555
_symmetry_Int_Tables_number   1
_chemical_formula_structural   HfZrTiNb
_chemical_formula_sum   'Hf2 Zr2 Ti2 Nb2'
_cell_volume   2779.09829649
_cell_formula_units_Z   2
loop_
 _symmetry_equiv_pos_site_id
 _symmetry_equiv_pos_as_xyz
  1  'x, y, z'
loop_
 _atom_site_type_symbol
 _atom_site_label
 _atom_site_symmetry_multiplicity
 _atom_site_fract_x
 _atom_site_fract_y
 _atom_site_fract_z
 _atom_site_occupancy
  Hf  Hf0  1  0.13459416  0.39200229  0.00734829  1
  Hf  Hf1  1  0.93978238  0.17813274  0.00930508  1
  Zr  Zr2  1  0.79184077  0.58488885  0.24341246  1
  Zr  Zr3  1  0.84686693  0.71258147  0.08410097  1
  Ti  Ti4  1  0.77777778  0.88888889  0.46810000  1
  Ti  Ti5  1  0.22222222  0.11111111  0.71810000  1
  Nb  Nb6  1  0.75273771  0.50521894  0.11068837  1
  Nb  Nb7  1  0.97862250  0.35506127  0.92274484  1
