# generated using pymatgen
data_HfZrTiNb
_symmetry_space_group_name_H-M   'P 1'
_cell_length_a   10.84760017
_cell_length_b   11.39010011
_cell_length_c   15.42442180
_cell_angle_alpha   96.96369040
_cell_angle_beta   92.57660243
_cell_angle_gamma   156.56669069
_symmetry_Int_Tables_number   1
_chemical_formula_structural   HfZrTiNb
_chemical_formula_sum   'Hf2 Zr2 Ti2 Nb2'
_cell_volume   690.89982826
_cell_formula_units_Z   2
loop_
 _symmetry_equiv_pos_site_id
 _symmetry_equiv_pos_as_xyz
  1  'x, y, z'
loop_
 _atom_site_type_symbol
 _atom_site_label
 _atom_site_symmetry_multiplicity
 _atom_site_fract_x
 _atom_site_fract_y
 _atom_site_fract_z
 _atom_site_occupancy
  Hf  Hf0  1  0.54242668  0.53001025  0.76401913  1
  Hf  Hf1  1  0.89101291  0.85730732  0.64632253  1
  Zr  Zr2  1  0.16904345  0.21281786  0.89124081  1
  Zr  Zr3  1  0.78676544  0.46968183  0.76504126  1
  Ti  Ti4  1  0.41584304  0.24339708  0.59310579  1
  Ti  Ti5  1  -0.11678924  0.74386446  0.93307013  1
  Nb  Nb6  1  0.09413020  0.80165648  0.64559110  1
  Nb  Nb7  1  0.27878641  0.09137250  0.82540925  1
