# generated using pymatgen
data_HfZrTiNb
_symmetry_space_group_name_H-M   'P 1'
_cell_length_a   13.49643557
_cell_length_b   13.11443872
_cell_length_c   11.55926192
_cell_angle_alpha   88.08918193
_cell_angle_beta   83.43869025
_cell_angle_gamma   113.75224175
_symmetry_Int_Tables_number   1
_chemical_formula_structural   HfZrTiNb
_chemical_formula_sum   'Hf2 Zr2 Ti2 Nb2'
_cell_volume   1853.29989462
_cell_formula_units_Z   2
loop_
 _symmetry_equiv_pos_site_id
 _symmetry_equiv_pos_as_xyz
  1  'x, y, z'
loop_
 _atom_site_type_symbol
 _atom_site_label
 _atom_site_symmetry_multiplicity
 _atom_site_fract_x
 _atom_site_fract_y
 _atom_site_fract_z
 _atom_site_occupancy
  Hf  Hf0  1  0.43558494  1.01707455  0.45174507  1
  Hf  Hf1  1  0.34582207  0.81815800  0.33511909  1
  Zr  Zr2  1  0.26021929  0.08558545  0.47155249  1
  Zr  Zr3  1  0.72252127  0.74794911  0.83103494  1
  Ti  Ti4  1  0.75475979  0.57430046  0.80798204  1
  Ti  Ti5  1  0.63383007  0.56663932  -0.04331698  1
  Nb  Nb6  1  0.21492696  0.86952361  0.48883287  1
  Nb  Nb7  1  0.29145117  0.98366062  0.28465048  1
