# generated using pymatgen
data_HfZrTiNb
_symmetry_space_group_name_H-M   'P 1'
_cell_length_a   14.70179993
_cell_length_b   10.01123336
_cell_length_c   10.15255799
_cell_angle_alpha   40.55408557
_cell_angle_beta   115.73907478
_cell_angle_gamma   121.83720678
_symmetry_Int_Tables_number   1
_chemical_formula_structural   HfZrTiNb
_chemical_formula_sum   'Hf2 Zr2 Ti2 Nb2'
_cell_volume   823.84876989
_cell_formula_units_Z   2
loop_
 _symmetry_equiv_pos_site_id
 _symmetry_equiv_pos_as_xyz
  1  'x, y, z'
loop_
 _atom_site_type_symbol
 _atom_site_label
 _atom_site_symmetry_multiplicity
 _atom_site_fract_x
 _atom_site_fract_y
 _atom_site_fract_z
 _atom_site_occupancy
  Hf  Hf0  1  0.48509799  0.63714286  0.49520469  1
  Hf  Hf1  1  0.47645004  0.22734849  0.67755093  1
  Zr  Zr2  1  0.46910946  0.83031578  1.08242839  1
  Zr  Zr3  1  0.45728158  0.40415784  0.27791749  1
  Ti  Ti4  1  0.61716913  0.63034665  0.37793373  1
  Ti  Ti5  1  0.88490088  0.45641688  0.03835677  1
  Nb  Nb6  1  0.88075825  0.59171907  0.11782927  1
  Nb  Nb7  1  0.33468043  0.44477464  0.36897872  1
