# generated using pymatgen
data_HfZrTiNb
_symmetry_space_group_name_H-M   'P 1'
_cell_length_a   5.04144551
_cell_length_b   5.06658230
_cell_length_c   13.55088497
_cell_angle_alpha   96.20176227
_cell_angle_beta   83.36050129
_cell_angle_gamma   116.17623587
_symmetry_Int_Tables_number   1
_chemical_formula_structural   HfZrTiNb
_chemical_formula_sum   'Hf2 Zr2 Ti2 Nb2'
_cell_volume   307.91510546
_cell_formula_units_Z   2
loop_
 _symmetry_equiv_pos_site_id
 _symmetry_equiv_pos_as_xyz
  1  'x, y, z'
loop_
 _atom_site_type_symbol
 _atom_site_label
 _atom_site_symmetry_multiplicity
 _atom_site_fract_x
 _atom_site_fract_y
 _atom_site_fract_z
 _atom_site_occupancy
  Hf  Hf0  1  0.22460864  0.93095398  1.06650684  1
  Hf  Hf1  1  1.25307200  0.32436618  0.27208414  1
  Zr  Zr2  1  0.73748422  0.03406218  0.91690728  1
  Zr  Zr3  1  -0.08474408  0.66960513  0.28122724  1
  Ti  Ti4  1  0.57757242  0.99065313  0.26415775  1
  Ti  Ti5  1  -0.08892579  0.29750693  0.10436924  1
  Nb  Nb6  1  0.58023754  0.62318363  0.09954462  1
  Nb  Nb7  1  0.35625062  0.40178329  0.93140287  1
