# generated using pymatgen
data_HfZrTiNb
_symmetry_space_group_name_H-M   'P 1'
_cell_length_a   12.30871351
_cell_length_b   11.14038839
_cell_length_c   11.50435554
_cell_angle_alpha   15.33319934
_cell_angle_beta   121.75752976
_cell_angle_gamma   120.73700738
_symmetry_Int_Tables_number   1
_chemical_formula_structural   HfZrTiNb
_chemical_formula_sum   'Hf2 Zr2 Ti2 Nb2'
_cell_volume   354.64988839
_cell_formula_units_Z   2
loop_
 _symmetry_equiv_pos_site_id
 _symmetry_equiv_pos_as_xyz
  1  'x, y, z'
loop_
 _atom_site_type_symbol
 _atom_site_label
 _atom_site_symmetry_multiplicity
 _atom_site_fract_x
 _atom_site_fract_y
 _atom_site_fract_z
 _atom_site_occupancy
  Hf  Hf0  1  0.84400281  0.60576774  0.14025067  1
  Hf  Hf1  1  0.54129463  0.40015371  0.98602879  1
  Zr  Zr2  1  0.84231251  0.30827495  0.66920463  1
  Zr  Zr3  1  0.38144924  0.29052736  0.42379338  1
  Ti  Ti4  1  0.77021478  0.90459131  0.59547648  1
  Ti  Ti5  1  0.61327915  0.10970846  0.53062706  1
  Nb  Nb6  1  0.39271432  0.58265767  -0.07750203  1
  Nb  Nb7  1  0.61473257  0.79831876  1.04592098  1
