# generated using pymatgen
data_HfZrTiNb
_symmetry_space_group_name_H-M   'P 1'
_cell_length_a   12.76982077
_cell_length_b   7.78005708
_cell_length_c   4.75704784
_cell_angle_alpha   128.63458626
_cell_angle_beta   81.49974336
_cell_angle_gamma   121.45957956
_symmetry_Int_Tables_number   1
_chemical_formula_structural   HfZrTiNb
_chemical_formula_sum   'Hf2 Zr2 Ti2 Nb2'
_cell_volume   303.46337716
_cell_formula_units_Z   2
loop_
 _symmetry_equiv_pos_site_id
 _symmetry_equiv_pos_as_xyz
  1  'x, y, z'
loop_
 _atom_site_type_symbol
 _atom_site_label
 _atom_site_symmetry_multiplicity
 _atom_site_fract_x
 _atom_site_fract_y
 _atom_site_fract_z
 _atom_site_occupancy
  Hf  Hf0  1  0.50142161  -0.10565036  0.00549930  1
  Hf  Hf1  1  0.25327215  0.41405221  0.63201193  1
  Zr  Zr2  1  0.19109245  1.05528359  0.80366237  1
  Zr  Zr3  1  0.13631974  0.48208219  0.23818986  1
  Ti  Ti4  1  0.43467362  0.53478075  1.16607797  1
  Ti  Ti5  1  0.21392923  0.82598521  1.05617551  1
  Nb  Nb6  1  0.44074775  0.29414705  0.42769760  1
  Nb  Nb7  1  0.38409901  0.94376380  0.60688547  1
