# generated using pymatgen
data_HfZrTiNb
_symmetry_space_group_name_H-M   'P 1'
_cell_length_a   12.60148922
_cell_length_b   4.39554885
_cell_length_c   11.72977100
_cell_angle_alpha   109.44184765
_cell_angle_beta   70.24931740
_cell_angle_gamma   107.77420074
_symmetry_Int_Tables_number   1
_chemical_formula_structural   HfZrTiNb
_chemical_formula_sum   'Hf2 Zr2 Ti2 Nb2'
_cell_volume   562.85943239
_cell_formula_units_Z   2
loop_
 _symmetry_equiv_pos_site_id
 _symmetry_equiv_pos_as_xyz
  1  'x, y, z'
loop_
 _atom_site_type_symbol
 _atom_site_label
 _atom_site_symmetry_multiplicity
 _atom_site_fract_x
 _atom_site_fract_y
 _atom_site_fract_z
 _atom_site_occupancy
  Hf  Hf0  1  0.43447377  0.37316198  0.58856081  1
  Hf  Hf1  1  0.01508011  0.92337497  0.49797633  1
  Zr  Zr2  1  0.30842904  0.88473284  0.73893877  1
  Zr  Zr3  1  0.36735733  0.69218681  0.45603873  1
  Ti  Ti4  1  0.25477130  0.05423530  0.41168361  1
  Ti  Ti5  1  0.18925051  0.23127703  0.67534501  1
  Nb  Nb6  1  0.11487457  0.59498690  0.59266243  1
  Nb  Nb7  1  0.14343332  0.40704746  0.35259432  1
