# generated using pymatgen
data_HfZrTiNb
_symmetry_space_group_name_H-M   'P 1'
_cell_length_a   13.93144727
_cell_length_b   10.66432456
_cell_length_c   11.68562258
_cell_angle_alpha   111.23730978
_cell_angle_beta   74.30112837
_cell_angle_gamma   123.96195238
_symmetry_Int_Tables_number   1
_chemical_formula_structural   HfZrTiNb
_chemical_formula_sum   'Hf2 Zr2 Ti2 Nb2'
_cell_volume   1336.93189977
_cell_formula_units_Z   2
loop_
 _symmetry_equiv_pos_site_id
 _symmetry_equiv_pos_as_xyz
  1  'x, y, z'
loop_
 _atom_site_type_symbol
 _atom_site_label
 _atom_site_symmetry_multiplicity
 _atom_site_fract_x
 _atom_site_fract_y
 _atom_site_fract_z
 _atom_site_occupancy
  Hf  Hf0  1  0.82084871  0.76047793  -0.05263088  1
  Hf  Hf1  1  0.62195548  0.59168879  0.12649986  1
  Zr  Zr2  1  0.56888628  0.27058939  -0.01835118  1
  Zr  Zr3  1  0.79882409  0.49309931  1.03781100  1
  Ti  Ti4  1  0.84835017  0.78894979  0.17544017  1
  Ti  Ti5  1  0.63248296  0.23591210  0.73828588  1
  Nb  Nb6  1  0.61523194  0.48963793  0.87355580  1
  Nb  Nb7  1  0.80997927  0.48075590  0.80558933  1
