# generated using pymatgen
data_HfZrTiNb
_symmetry_space_group_name_H-M   'P 1'
_cell_length_a   12.80186726
_cell_length_b   14.10700416
_cell_length_c   16.67965636
_cell_angle_alpha   91.20906700
_cell_angle_beta   84.51829042
_cell_angle_gamma   135.96509001
_symmetry_Int_Tables_number   1
_chemical_formula_structural   HfZrTiNb
_chemical_formula_sum   'Hf2 Zr2 Ti2 Nb2'
_cell_volume   2079.31629351
_cell_formula_units_Z   2
loop_
 _symmetry_equiv_pos_site_id
 _symmetry_equiv_pos_as_xyz
  1  'x, y, z'
loop_
 _atom_site_type_symbol
 _atom_site_label
 _atom_site_symmetry_multiplicity
 _atom_site_fract_x
 _atom_site_fract_y
 _atom_site_fract_z
 _atom_site_occupancy
  Hf  Hf0  1  0.61954313  0.62247815  0.41173670  1
  Hf  Hf1  1  0.88178847  0.10100965  0.72011270  1
  Zr  Zr2  1  0.83101697  0.66656243  0.48965687  1
  Zr  Zr3  1  0.78487879  0.89898728  0.77988300  1
  Ti  Ti4  1  0.11111111  0.55555556  0.96810000  1
  Ti  Ti5  1  0.81234392  0.62587506  0.32141916  1
  Nb  Nb6  1  0.89318387  0.85922694  0.37062534  1
  Nb  Nb7  1  0.06235819  -0.16491617  0.37466622  1
