# generated using pymatgen
data_HfZrTiNb
_symmetry_space_group_name_H-M   'P 1'
_cell_length_a   5.33465155
_cell_length_b   9.23562803
_cell_length_c   8.80756844
_cell_angle_alpha   70.16085773
_cell_angle_beta   124.35811584
_cell_angle_gamma   149.28097370
_symmetry_Int_Tables_number   1
_chemical_formula_structural   HfZrTiNb
_chemical_formula_sum   'Hf2 Zr2 Ti2 Nb2'
_cell_volume   171.70888830
_cell_formula_units_Z   2
loop_
 _symmetry_equiv_pos_site_id
 _symmetry_equiv_pos_as_xyz
  1  'x, y, z'
loop_
 _atom_site_type_symbol
 _atom_site_label
 _atom_site_symmetry_multiplicity
 _atom_site_fract_x
 _atom_site_fract_y
 _atom_site_fract_z
 _atom_site_occupancy
  Hf  Hf0  1  0.77665389  0.47613206  0.13949068  1
  Hf  Hf1  1  0.69484980  0.09913760  0.38851080  1
  Zr  Zr2  1  -0.34907087  0.59854968  0.36157466  1
  Zr  Zr3  1  0.41284134  0.01330661  0.98136446  1
  Ti  Ti4  1  0.91208570  0.51400254  0.77766802  1
  Ti  Ti5  1  0.22041397  0.11993559  0.38286691  1
  Nb  Nb6  1  0.86079009  1.16822678  0.74668449  1
  Nb  Nb7  1  0.58632274  0.73481911  0.59943999  1
