# generated using pymatgen
data_HfZrTiNb
_symmetry_space_group_name_H-M   'P 1'
_cell_length_a   5.73229454
_cell_length_b   5.31937853
_cell_length_c   13.81082178
_cell_angle_alpha   102.68686110
_cell_angle_beta   95.18010496
_cell_angle_gamma   92.33414136
_symmetry_Int_Tables_number   1
_chemical_formula_structural   HfZrTiNb
_chemical_formula_sum   'Hf2 Zr2 Ti2 Nb2'
_cell_volume   408.36777343
_cell_formula_units_Z   2
loop_
 _symmetry_equiv_pos_site_id
 _symmetry_equiv_pos_as_xyz
  1  'x, y, z'
loop_
 _atom_site_type_symbol
 _atom_site_label
 _atom_site_symmetry_multiplicity
 _atom_site_fract_x
 _atom_site_fract_y
 _atom_site_fract_z
 _atom_site_occupancy
  Hf  Hf0  1  0.60863579  0.02701934  0.61375135  1
  Hf  Hf1  1  0.16293152  0.44353449  0.82330039  1
  Zr  Zr2  1  0.87888841  0.92347513  0.81628600  1
  Zr  Zr3  1  0.90417449  0.54436473  0.61998054  1
  Ti  Ti4  1  0.39572932  0.54244409  0.63583601  1
  Ti  Ti5  1  0.38735737  0.93391295  0.80349310  1
  Nb  Nb6  1  0.12427857  0.07067034  0.64784915  1
  Nb  Nb7  1  0.64911562  0.40346781  0.78950346  1
