# generated using pymatgen
data_HfZrTiNb
_symmetry_space_group_name_H-M   'P 1'
_cell_length_a   14.97811351
_cell_length_b   9.25484050
_cell_length_c   12.32925540
_cell_angle_alpha   90.66307030
_cell_angle_beta   110.40199132
_cell_angle_gamma   130.17206842
_symmetry_Int_Tables_number   1
_chemical_formula_structural   HfZrTiNb
_chemical_formula_sum   'Hf2 Zr2 Ti2 Nb2'
_cell_volume   1155.37112048
_cell_formula_units_Z   2
loop_
 _symmetry_equiv_pos_site_id
 _symmetry_equiv_pos_as_xyz
  1  'x, y, z'
loop_
 _atom_site_type_symbol
 _atom_site_label
 _atom_site_symmetry_multiplicity
 _atom_site_fract_x
 _atom_site_fract_y
 _atom_site_fract_z
 _atom_site_occupancy
  Hf  Hf0  1  0.40521261  0.22904698  -0.11033111  1
  Hf  Hf1  1  0.28898940  0.85371787  0.77042663  1
  Zr  Zr2  1  0.42381889  0.20627883  0.67389597  1
  Zr  Zr3  1  0.18653502  0.07673202  0.68536694  1
  Ti  Ti4  1  0.28124251  0.81471818  0.54196423  1
  Ti  Ti5  1  0.88888889  0.11111111  0.03190000  1
  Nb  Nb6  1  0.17896732  -0.04253435  0.46752425  1
  Nb  Nb7  1  0.07423092  0.70103713  0.56685307  1
