# generated using pymatgen
data_HfZrTiNb
_symmetry_space_group_name_H-M   'P 1'
_cell_length_a   5.60280519
_cell_length_b   7.38193929
_cell_length_c   11.95620574
_cell_angle_alpha   69.46891107
_cell_angle_beta   105.24835819
_cell_angle_gamma   139.84664218
_symmetry_Int_Tables_number   1
_chemical_formula_structural   HfZrTiNb
_chemical_formula_sum   'Hf2 Zr2 Ti2 Nb2'
_cell_volume   298.60884637
_cell_formula_units_Z   2
loop_
 _symmetry_equiv_pos_site_id
 _symmetry_equiv_pos_as_xyz
  1  'x, y, z'
loop_
 _atom_site_type_symbol
 _atom_site_label
 _atom_site_symmetry_multiplicity
 _atom_site_fract_x
 _atom_site_fract_y
 _atom_site_fract_z
 _atom_site_occupancy
  Hf  Hf0  1  -0.02888066  0.41715194  0.56234408  1
  Hf  Hf1  1  -0.12642403  0.24622581  0.81174271  1
  Zr  Zr2  1  0.75859301  0.95575447  0.50335487  1
  Zr  Zr3  1  0.27786094  0.01451787  0.41228361  1
  Ti  Ti4  1  1.16048740  0.83446163  0.66636602  1
  Ti  Ti5  1  0.52950303  0.48921792  0.46579185  1
  Nb  Nb6  1  0.64099626  0.78767461  0.74720259  1
  Nb  Nb7  1  0.39708739  0.31243907  0.70331429  1
