# generated using pymatgen
data_HfZrTiNb
_symmetry_space_group_name_H-M   'P 1'
_cell_length_a   10.34916908
_cell_length_b   10.17471576
_cell_length_c   12.93383098
_cell_angle_alpha   119.68298210
_cell_angle_beta   57.65209191
_cell_angle_gamma   113.94560190
_symmetry_Int_Tables_number   1
_chemical_formula_structural   HfZrTiNb
_chemical_formula_sum   'Hf2 Zr2 Ti2 Nb2'
_cell_volume   981.00406042
_cell_formula_units_Z   2
loop_
 _symmetry_equiv_pos_site_id
 _symmetry_equiv_pos_as_xyz
  1  'x, y, z'
loop_
 _atom_site_type_symbol
 _atom_site_label
 _atom_site_symmetry_multiplicity
 _atom_site_fract_x
 _atom_site_fract_y
 _atom_site_fract_z
 _atom_site_occupancy
  Hf  Hf0  1  0.45540641  0.62907057  0.57895997  1
  Hf  Hf1  1  0.76979616  0.65789393  0.53783790  1
  Zr  Zr2  1  0.64686877  0.43250107  0.34292552  1
  Zr  Zr3  1  0.62696476  0.14775608  0.35589364  1
  Ti  Ti4  1  0.40996719  0.33723988  0.55868930  1
  Ti  Ti5  1  0.49103146  0.59034650  0.75235092  1
  Nb  Nb6  1  0.87493544  0.37965221  0.35559500  1
  Nb  Nb7  1  0.66381093  0.38109531  0.58154774  1
