# generated using pymatgen
data_HfZrTiNb
_symmetry_space_group_name_H-M   'P 1'
_cell_length_a   11.67600006
_cell_length_b   12.55035730
_cell_length_c   16.91050072
_cell_angle_alpha   88.55899484
_cell_angle_beta   86.97765949
_cell_angle_gamma   136.15407946
_symmetry_Int_Tables_number   1
_chemical_formula_structural   HfZrTiNb
_chemical_formula_sum   'Hf2 Zr2 Ti2 Nb2'
_cell_volume   1707.03403531
_cell_formula_units_Z   2
loop_
 _symmetry_equiv_pos_site_id
 _symmetry_equiv_pos_as_xyz
  1  'x, y, z'
loop_
 _atom_site_type_symbol
 _atom_site_label
 _atom_site_symmetry_multiplicity
 _atom_site_fract_x
 _atom_site_fract_y
 _atom_site_fract_z
 _atom_site_occupancy
  Hf  Hf0  1  0.86953892  0.30345174  0.38727318  1
  Hf  Hf1  1  0.39058463  0.10121070  0.92090307  1
  Zr  Zr2  1  0.06211701  0.38767222  0.52078139  1
  Zr  Zr3  1  0.76370942  0.43982873  0.45042813  1
  Ti  Ti4  1  0.97439334  0.53759861  0.57352727  1
  Ti  Ti5  1  0.74416999  0.24706596  0.54399623  1
  Nb  Nb6  1  0.08418501  0.58627340  0.43089938  1
  Nb  Nb7  1  0.16874502  0.84511861  0.92219136  1
