# generated using pymatgen
data_HfZrTiNb
_symmetry_space_group_name_H-M   'P 1'
_cell_length_a   13.28997635
_cell_length_b   9.84188880
_cell_length_c   14.73645700
_cell_angle_alpha   97.56459605
_cell_angle_beta   85.78160776
_cell_angle_gamma   123.56593495
_symmetry_Int_Tables_number   1
_chemical_formula_structural   HfZrTiNb
_chemical_formula_sum   'Hf2 Zr2 Ti2 Nb2'
_cell_volume   1592.11618594
_cell_formula_units_Z   2
loop_
 _symmetry_equiv_pos_site_id
 _symmetry_equiv_pos_as_xyz
  1  'x, y, z'
loop_
 _atom_site_type_symbol
 _atom_site_label
 _atom_site_symmetry_multiplicity
 _atom_site_fract_x
 _atom_site_fract_y
 _atom_site_fract_z
 _atom_site_occupancy
  Hf  Hf0  1  0.59212047  0.65679510  0.11172403  1
  Hf  Hf1  1  0.41835138  0.72594754  0.09533486  1
  Zr  Zr2  1  0.60037448  -0.06430342  0.21504231  1
  Zr  Zr3  1  0.64297682  0.74806879  0.29929343  1
  Ti  Ti4  1  0.41295597  0.60019966  0.24665811  1
  Ti  Ti5  1  0.10809452  0.89826808  0.89949193  1
  Nb  Nb6  1  0.03968502  0.85457460  0.74407037  1
  Nb  Nb7  1  0.96321912  0.63034185  0.82458496  1
