# generated using pymatgen
data_HfZrTiNb
_symmetry_space_group_name_H-M   'P 1'
_cell_length_a   11.15394419
_cell_length_b   12.40760309
_cell_length_c   12.79027155
_cell_angle_alpha   92.79612388
_cell_angle_beta   50.51774372
_cell_angle_gamma   115.69354577
_symmetry_Int_Tables_number   1
_chemical_formula_structural   HfZrTiNb
_chemical_formula_sum   'Hf2 Zr2 Ti2 Nb2'
_cell_volume   1163.76384971
_cell_formula_units_Z   2
loop_
 _symmetry_equiv_pos_site_id
 _symmetry_equiv_pos_as_xyz
  1  'x, y, z'
loop_
 _atom_site_type_symbol
 _atom_site_label
 _atom_site_symmetry_multiplicity
 _atom_site_fract_x
 _atom_site_fract_y
 _atom_site_fract_z
 _atom_site_occupancy
  Hf  Hf0  1  0.83224016  0.80486753  0.52815490  1
  Hf  Hf1  1  0.22924245  0.71964705  -0.02844448  1
  Zr  Zr2  1  0.56080069  0.93932875  0.90820430  1
  Zr  Zr3  1  0.77079357  0.79846161  0.77882437  1
  Ti  Ti4  1  0.87469249  0.01722885  0.61869007  1
  Ti  Ti5  1  0.47411573  0.62019708  0.79536378  1
  Nb  Nb6  1  0.56317980  0.85239195  0.70209015  1
  Nb  Nb7  1  0.41526956  0.68854608  0.01091690  1
