# generated using pymatgen
data_HfZrTiNb
_symmetry_space_group_name_H-M   'P 1'
_cell_length_a   12.57223626
_cell_length_b   12.21851298
_cell_length_c   16.69033861
_cell_angle_alpha   84.54684842
_cell_angle_beta   89.70281874
_cell_angle_gamma   111.02729685
_symmetry_Int_Tables_number   1
_chemical_formula_structural   HfZrTiNb
_chemical_formula_sum   'Hf2 Zr2 Ti2 Nb2'
_cell_volume   2380.18003771
_cell_formula_units_Z   2
loop_
 _symmetry_equiv_pos_site_id
 _symmetry_equiv_pos_as_xyz
  1  'x, y, z'
loop_
 _atom_site_type_symbol
 _atom_site_label
 _atom_site_symmetry_multiplicity
 _atom_site_fract_x
 _atom_site_fract_y
 _atom_site_fract_z
 _atom_site_occupancy
  Hf  Hf0  1  0.94743313  0.90150332  0.01672385  1
  Hf  Hf1  1  0.13940568  0.88314895  0.98116534  1
  Zr  Zr2  1  0.55553923  0.44443144  0.21804601  1
  Zr  Zr3  1  0.33591790  0.88224594  0.97293455  1
  Ti  Ti4  1  0.93110658  0.11279684  -0.02277781  1
  Ti  Ti5  1  0.88888889  0.11111111  0.53190000  1
  Nb  Nb6  1  0.92203620  0.27777357  0.92694970  1
  Nb  Nb7  1  0.44822684  0.39076439  0.87505836  1
