# generated using pymatgen
data_HfZrTiNb
_symmetry_space_group_name_H-M   'P 1'
_cell_length_a   9.18987343
_cell_length_b   2.95407137
_cell_length_c   16.62774778
_cell_angle_alpha   81.01745342
_cell_angle_beta   141.54031116
_cell_angle_gamma   103.02137368
_symmetry_Int_Tables_number   1
_chemical_formula_structural   HfZrTiNb
_chemical_formula_sum   'Hf2 Zr2 Ti2 Nb2'
_cell_volume   273.38319467
_cell_formula_units_Z   2
loop_
 _symmetry_equiv_pos_site_id
 _symmetry_equiv_pos_as_xyz
  1  'x, y, z'
loop_
 _atom_site_type_symbol
 _atom_site_label
 _atom_site_symmetry_multiplicity
 _atom_site_fract_x
 _atom_site_fract_y
 _atom_site_fract_z
 _atom_site_occupancy
  Hf  Hf0  1  -0.06054068  0.93411095  0.83385474  1
  Hf  Hf1  1  0.53568517  0.89923499  0.55064782  1
  Zr  Zr2  1  1.06725844  0.81954782  0.42866918  1
  Zr  Zr3  1  0.48625163  0.25643703  0.70368346  1
  Ti  Ti4  1  0.98321063  0.57215396  0.69682513  1
  Ti  Ti5  1  0.02496207  0.19977404  0.56965406  1
  Nb  Nb6  1  0.60640468  0.54795936  0.42263520  1
  Nb  Nb7  1  0.63643364  0.15778299  0.29403041  1
