# generated using pymatgen
data_HfZrTiNb
_symmetry_space_group_name_H-M   'P 1'
_cell_length_a   10.90258853
_cell_length_b   9.71337341
_cell_length_c   10.50185351
_cell_angle_alpha   98.16910119
_cell_angle_beta   79.44272351
_cell_angle_gamma   155.56687825
_symmetry_Int_Tables_number   1
_chemical_formula_structural   HfZrTiNb
_chemical_formula_sum   'Hf2 Zr2 Ti2 Nb2'
_cell_volume   451.39869332
_cell_formula_units_Z   2
loop_
 _symmetry_equiv_pos_site_id
 _symmetry_equiv_pos_as_xyz
  1  'x, y, z'
loop_
 _atom_site_type_symbol
 _atom_site_label
 _atom_site_symmetry_multiplicity
 _atom_site_fract_x
 _atom_site_fract_y
 _atom_site_fract_z
 _atom_site_occupancy
  Hf  Hf0  1  0.06883222  0.09762235  1.01735443  1
  Hf  Hf1  1  0.73190220  0.91379451  0.56996187  1
  Zr  Zr2  1  1.12172595  0.95523072  0.77152325  1
  Zr  Zr3  1  0.17162569  0.34816577  0.76147703  1
  Ti  Ti4  1  0.57246620  0.43799673  0.93954099  1
  Ti  Ti5  1  0.61717484  0.76060705  -0.09052306  1
  Nb  Nb6  1  0.66381435  0.61684493  0.68489372  1
  Nb  Nb7  1  0.21346187  0.20307126  0.53197177  1
