# generated using pymatgen
data_HfZrTiNb
_symmetry_space_group_name_H-M   'P 1'
_cell_length_a   10.54785606
_cell_length_b   12.50750308
_cell_length_c   11.83965900
_cell_angle_alpha   100.79177212
_cell_angle_beta   79.72624859
_cell_angle_gamma   127.37691704
_symmetry_Int_Tables_number   1
_chemical_formula_structural   HfZrTiNb
_chemical_formula_sum   'Hf2 Zr2 Ti2 Nb2'
_cell_volume   1215.09177347
_cell_formula_units_Z   2
loop_
 _symmetry_equiv_pos_site_id
 _symmetry_equiv_pos_as_xyz
  1  'x, y, z'
loop_
 _atom_site_type_symbol
 _atom_site_label
 _atom_site_symmetry_multiplicity
 _atom_site_fract_x
 _atom_site_fract_y
 _atom_site_fract_z
 _atom_site_occupancy
  Hf  Hf0  1  0.08081305  0.87634858  0.43846719  1
  Hf  Hf1  1  0.23690674  -0.00109884  0.66961394  1
  Zr  Zr2  1  0.39966387  0.84522747  0.62889138  1
  Zr  Zr3  1  0.07950206  0.71343520  0.75692911  1
  Ti  Ti4  1  0.11584171  0.69036995  0.50965355  1
  Ti  Ti5  1  0.34257739  0.95101514  0.83531699  1
  Nb  Nb6  1  0.36135674  -0.06157370  0.46526870  1
  Nb  Nb7  1  0.93889399  0.76405397  0.63205914  1
