# generated using pymatgen
data_HfZrTiNb
_symmetry_space_group_name_H-M   'P 1'
_cell_length_a   7.27837037
_cell_length_b   9.53298224
_cell_length_c   5.79908198
_cell_angle_alpha   85.49974524
_cell_angle_beta   76.87077493
_cell_angle_gamma   149.24989459
_symmetry_Int_Tables_number   1
_chemical_formula_structural   HfZrTiNb
_chemical_formula_sum   'Hf2 Zr2 Ti2 Nb2'
_cell_volume   167.37462893
_cell_formula_units_Z   2
loop_
 _symmetry_equiv_pos_site_id
 _symmetry_equiv_pos_as_xyz
  1  'x, y, z'
loop_
 _atom_site_type_symbol
 _atom_site_label
 _atom_site_symmetry_multiplicity
 _atom_site_fract_x
 _atom_site_fract_y
 _atom_site_fract_z
 _atom_site_occupancy
  Hf  Hf0  1  0.71797878  0.26740254  0.75674769  1
  Hf  Hf1  1  0.20734013  0.56939938  1.09451832  1
  Zr  Zr2  1  0.16585781  0.07050474  0.55342704  1
  Zr  Zr3  1  0.07890696  1.07743787  1.06545456  1
  Ti  Ti4  1  1.11587075  0.79069428  0.36394316  1
  Ti  Ti5  1  0.27411985  0.42020667  0.63495882  1
  Nb  Nb6  1  0.89586557  0.63971314  -0.04191855  1
  Nb  Nb7  1  0.59772792  0.93864362  0.50906900  1
