# generated using pymatgen
data_HfZrTiNb
_symmetry_space_group_name_H-M   'P 1'
_cell_length_a   12.28931772
_cell_length_b   10.98683250
_cell_length_c   12.32440132
_cell_angle_alpha   118.72343805
_cell_angle_beta   71.02289824
_cell_angle_gamma   154.85401981
_symmetry_Int_Tables_number   1
_chemical_formula_structural   HfZrTiNb
_chemical_formula_sum   'Hf2 Zr2 Ti2 Nb2'
_cell_volume   592.53557127
_cell_formula_units_Z   2
loop_
 _symmetry_equiv_pos_site_id
 _symmetry_equiv_pos_as_xyz
  1  'x, y, z'
loop_
 _atom_site_type_symbol
 _atom_site_label
 _atom_site_symmetry_multiplicity
 _atom_site_fract_x
 _atom_site_fract_y
 _atom_site_fract_z
 _atom_site_occupancy
  Hf  Hf0  1  -0.01643629  0.36506747  0.76661288  1
  Hf  Hf1  1  0.34535470  0.29593737  0.58993200  1
  Zr  Zr2  1  0.49062593  0.73831946  0.80323989  1
  Zr  Zr3  1  1.06547630  0.20795193  0.49584960  1
  Ti  Ti4  1  0.76484045  0.66933803  0.47010389  1
  Ti  Ti5  1  0.41789569  0.81897342  0.67179897  1
  Nb  Nb6  1  0.93880672  1.03313818  0.71746098  1
  Nb  Nb7  1  0.59888427  0.76016304  0.54880178  1
