# generated using pymatgen
data_HfZrTiNb
_symmetry_space_group_name_H-M   'P 1'
_cell_length_a   7.34782391
_cell_length_b   5.02939415
_cell_length_c   7.64141427
_cell_angle_alpha   40.50915076
_cell_angle_beta   89.90140202
_cell_angle_gamma   107.33473634
_symmetry_Int_Tables_number   1
_chemical_formula_structural   HfZrTiNb
_chemical_formula_sum   'Hf2 Zr2 Ti2 Nb2'
_cell_volume   162.80456663
_cell_formula_units_Z   2
loop_
 _symmetry_equiv_pos_site_id
 _symmetry_equiv_pos_as_xyz
  1  'x, y, z'
loop_
 _atom_site_type_symbol
 _atom_site_label
 _atom_site_symmetry_multiplicity
 _atom_site_fract_x
 _atom_site_fract_y
 _atom_site_fract_z
 _atom_site_occupancy
  Hf  Hf0  1  0.32890945  0.78282243  0.16920873  1
  Hf  Hf1  1  0.80379041  0.22244557  0.46237600  1
  Zr  Zr2  1  0.82437671  0.30135039  0.88456418  1
  Zr  Zr3  1  0.07964713  0.10580626  0.23881377  1
  Ti  Ti4  1  0.55295847  0.48642270  0.55201507  1
  Ti  Ti5  1  0.07207127  0.00697163  0.80657165  1
  Nb  Nb6  1  0.56911923  0.44244235  0.10034092  1
  Nb  Nb7  1  0.32845849  0.77040089  0.65850966  1
