# generated using pymatgen
data_HfZrTiNb
_symmetry_space_group_name_H-M   'P 1'
_cell_length_a   12.57154087
_cell_length_b   12.39647683
_cell_length_c   10.96131392
_cell_angle_alpha   84.31112302
_cell_angle_beta   96.03989341
_cell_angle_gamma   156.45625208
_symmetry_Int_Tables_number   1
_chemical_formula_structural   HfZrTiNb
_chemical_formula_sum   'Hf2 Zr2 Ti2 Nb2'
_cell_volume   678.55274405
_cell_formula_units_Z   2
loop_
 _symmetry_equiv_pos_site_id
 _symmetry_equiv_pos_as_xyz
  1  'x, y, z'
loop_
 _atom_site_type_symbol
 _atom_site_label
 _atom_site_symmetry_multiplicity
 _atom_site_fract_x
 _atom_site_fract_y
 _atom_site_fract_z
 _atom_site_occupancy
  Hf  Hf0  1  0.76286099  0.15385844  0.28939959  1
  Hf  Hf1  1  0.66691406  0.30018246  0.29782719  1
  Zr  Zr2  1  0.80250135  0.15148777  1.03308133  1
  Zr  Zr3  1  0.14228677  0.86173574  0.18629742  1
  Ti  Ti4  1  0.43069312  0.97124660  1.07089498  1
  Ti  Ti5  1  0.92132425  0.47897188  0.08221696  1
  Nb  Nb6  1  0.27707693  0.62640455  0.16102361  1
  Nb  Nb7  1  0.21856476  0.72822696  0.31545892  1
