# generated using pymatgen
data_HfZrTiNb
_symmetry_space_group_name_H-M   'P 1'
_cell_length_a   15.01040537
_cell_length_b   15.31983526
_cell_length_c   14.93182143
_cell_angle_alpha   92.62621705
_cell_angle_beta   84.16832083
_cell_angle_gamma   124.57672718
_symmetry_Int_Tables_number   1
_chemical_formula_structural   HfZrTiNb
_chemical_formula_sum   'Hf2 Zr2 Ti2 Nb2'
_cell_volume   2812.24978428
_cell_formula_units_Z   2
loop_
 _symmetry_equiv_pos_site_id
 _symmetry_equiv_pos_as_xyz
  1  'x, y, z'
loop_
 _atom_site_type_symbol
 _atom_site_label
 _atom_site_symmetry_multiplicity
 _atom_site_fract_x
 _atom_site_fract_y
 _atom_site_fract_z
 _atom_site_occupancy
  Hf  Hf0  1  0.78900028  0.56130248  0.98462157  1
  Hf  Hf1  1  0.17968659  0.97553057  0.50617398  1
  Zr  Zr2  1  0.72039884  0.86044232  0.34561159  1
  Zr  Zr3  1  0.36315991  0.15560986  0.50129478  1
  Ti  Ti4  1  0.23493127  0.09108178  0.64683124  1
  Ti  Ti5  1  0.61293450  0.80622435  0.46818841  1
  Nb  Nb6  1  0.94209637  0.39175470  0.37393466  1
  Nb  Nb7  1  0.87435113  0.60249837  0.10954378  1
