# generated using pymatgen
data_HfZrTiNb
_symmetry_space_group_name_H-M   'P 1'
_cell_length_a   5.69447879
_cell_length_b   5.75757148
_cell_length_c   5.84223051
_cell_angle_alpha   60.89043887
_cell_angle_beta   98.36293020
_cell_angle_gamma   88.14763731
_symmetry_Int_Tables_number   1
_chemical_formula_structural   HfZrTiNb
_chemical_formula_sum   'Hf2 Zr2 Ti2 Nb2'
_cell_volume   164.39062873
_cell_formula_units_Z   2
loop_
 _symmetry_equiv_pos_site_id
 _symmetry_equiv_pos_as_xyz
  1  'x, y, z'
loop_
 _atom_site_type_symbol
 _atom_site_label
 _atom_site_symmetry_multiplicity
 _atom_site_fract_x
 _atom_site_fract_y
 _atom_site_fract_z
 _atom_site_occupancy
  Hf  Hf0  1  0.14966037  0.06487753  0.04692037  1
  Hf  Hf1  1  0.38759862  0.54943422  1.07570799  1
  Zr  Zr2  1  0.88879596  1.14412017  0.50309838  1
  Zr  Zr3  1  0.40482334  0.01422444  0.56374365  1
  Ti  Ti4  1  0.86439893  0.62646491  0.99837503  1
  Ti  Ti5  1  0.85192747  0.61133805  0.52867255  1
  Nb  Nb6  1  0.35651497  0.52163585  0.56517298  1
  Nb  Nb7  1  0.65561146  0.08090370  0.03210904  1
