# generated using pymatgen
data_HfZrTiNb
_symmetry_space_group_name_H-M   'P 1'
_cell_length_a   14.62638635
_cell_length_b   15.37417891
_cell_length_c   12.77216060
_cell_angle_alpha   84.45672996
_cell_angle_beta   97.86191893
_cell_angle_gamma   115.83791644
_symmetry_Int_Tables_number   1
_chemical_formula_structural   HfZrTiNb
_chemical_formula_sum   'Hf2 Zr2 Ti2 Nb2'
_cell_volume   2558.43999913
_cell_formula_units_Z   2
loop_
 _symmetry_equiv_pos_site_id
 _symmetry_equiv_pos_as_xyz
  1  'x, y, z'
loop_
 _atom_site_type_symbol
 _atom_site_label
 _atom_site_symmetry_multiplicity
 _atom_site_fract_x
 _atom_site_fract_y
 _atom_site_fract_z
 _atom_site_occupancy
  Hf  Hf0  1  0.23898902  0.45999837  0.32923079  1
  Hf  Hf1  1  0.15894171  0.34036594  0.51409001  1
  Zr  Zr2  1  0.23747400  0.50526333  0.64308343  1
  Zr  Zr3  1  0.11332641  0.50071329  0.45108223  1
  Ti  Ti4  1  0.77777778  0.88888889  0.46810000  1
  Ti  Ti5  1  0.90962638  0.44805211  0.04409705  1
  Nb  Nb6  1  0.35736808  0.46834208  0.52137862  1
  Nb  Nb7  1  0.31760774  0.61059822  0.46513787  1
