# generated using pymatgen
data_HfZrTiNb
_symmetry_space_group_name_H-M   'P 1'
_cell_length_a   8.05114814
_cell_length_b   3.07176181
_cell_length_c   8.54963833
_cell_angle_alpha   60.36835274
_cell_angle_beta   65.25148122
_cell_angle_gamma   79.17878444
_symmetry_Int_Tables_number   1
_chemical_formula_structural   HfZrTiNb
_chemical_formula_sum   'Hf2 Zr2 Ti2 Nb2'
_cell_volume   166.86078483
_cell_formula_units_Z   2
loop_
 _symmetry_equiv_pos_site_id
 _symmetry_equiv_pos_as_xyz
  1  'x, y, z'
loop_
 _atom_site_type_symbol
 _atom_site_label
 _atom_site_symmetry_multiplicity
 _atom_site_fract_x
 _atom_site_fract_y
 _atom_site_fract_z
 _atom_site_occupancy
  Hf  Hf0  1  0.80374344  0.54523633  0.52016976  1
  Hf  Hf1  1  0.15580561  0.41006345  1.01034564  1
  Zr  Zr2  1  0.81900231  -0.04344354  0.00968239  1
  Zr  Zr3  1  0.22361890  0.55188949  0.32733526  1
  Ti  Ti4  1  0.53718632  1.00557751  0.31444898  1
  Ti  Ti5  1  0.52556149  0.86971535  0.93144397  1
  Nb  Nb6  1  0.41496256  1.10659011  0.64524873  1
  Nb  Nb7  1  0.07567493  0.66548242  0.67752527  1
