# generated using pymatgen
data_HfZrTiNb
_symmetry_space_group_name_H-M   'P 1'
_cell_length_a   13.67365212
_cell_length_b   13.81979397
_cell_length_c   11.93943900
_cell_angle_alpha   110.28058934
_cell_angle_beta   84.12204922
_cell_angle_gamma   123.50586306
_symmetry_Int_Tables_number   1
_chemical_formula_structural   HfZrTiNb
_chemical_formula_sum   'Hf2 Zr2 Ti2 Nb2'
_cell_volume   1753.18339498
_cell_formula_units_Z   2
loop_
 _symmetry_equiv_pos_site_id
 _symmetry_equiv_pos_as_xyz
  1  'x, y, z'
loop_
 _atom_site_type_symbol
 _atom_site_label
 _atom_site_symmetry_multiplicity
 _atom_site_fract_x
 _atom_site_fract_y
 _atom_site_fract_z
 _atom_site_occupancy
  Hf  Hf0  1  0.18772004  0.38291818  0.24505698  1
  Hf  Hf1  1  0.53922917  0.16656479  0.55821062  1
  Zr  Zr2  1  0.66267043  0.42920294  0.63798650  1
  Zr  Zr3  1  0.53308117  0.28664291  0.41273360  1
  Ti  Ti4  1  0.97373701  0.16868003  0.23450286  1
  Ti  Ti5  1  0.02245565  0.26342876  1.05035718  1
  Nb  Nb6  1  0.43467765  0.28300734  0.61117773  1
  Nb  Nb7  1  0.97976223  0.35288838  0.24997453  1
