# generated using pymatgen
data_HfZrTiNb
_symmetry_space_group_name_H-M   'P 1'
_cell_length_a   14.42168769
_cell_length_b   14.19001331
_cell_length_c   13.96990516
_cell_angle_alpha   99.22402346
_cell_angle_beta   95.71069693
_cell_angle_gamma   123.32572054
_symmetry_Int_Tables_number   1
_chemical_formula_structural   HfZrTiNb
_chemical_formula_sum   'Hf2 Zr2 Ti2 Nb2'
_cell_volume   2296.07281146
_cell_formula_units_Z   2
loop_
 _symmetry_equiv_pos_site_id
 _symmetry_equiv_pos_as_xyz
  1  'x, y, z'
loop_
 _atom_site_type_symbol
 _atom_site_label
 _atom_site_symmetry_multiplicity
 _atom_site_fract_x
 _atom_site_fract_y
 _atom_site_fract_z
 _atom_site_occupancy
  Hf  Hf0  1  0.84327813  0.01386363  0.72164822  1
  Hf  Hf1  1  0.52083515  0.37709434  0.45297723  1
  Zr  Zr2  1  0.30096872  0.20658217  0.16518800  1
  Zr  Zr3  1  0.83428045  0.82718192  0.71574347  1
  Ti  Ti4  1  0.45192560  0.21264299  0.29144205  1
  Ti  Ti5  1  0.65413997  0.82298430  0.71590453  1
  Nb  Nb6  1  0.39075253  0.78230403  0.12515244  1
  Nb  Nb7  1  0.39837169  0.37412106  0.31194405  1
