# generated using pymatgen
data_HfZrTiNb
_symmetry_space_group_name_H-M   'P 1'
_cell_length_a   13.48079746
_cell_length_b   14.42359275
_cell_length_c   14.01317661
_cell_angle_alpha   81.23303751
_cell_angle_beta   96.32582575
_cell_angle_gamma   113.43337318
_symmetry_Int_Tables_number   1
_chemical_formula_structural   HfZrTiNb
_chemical_formula_sum   'Hf2 Zr2 Ti2 Nb2'
_cell_volume   2467.11186262
_cell_formula_units_Z   2
loop_
 _symmetry_equiv_pos_site_id
 _symmetry_equiv_pos_as_xyz
  1  'x, y, z'
loop_
 _atom_site_type_symbol
 _atom_site_label
 _atom_site_symmetry_multiplicity
 _atom_site_fract_x
 _atom_site_fract_y
 _atom_site_fract_z
 _atom_site_occupancy
  Hf  Hf0  1  0.55337420  0.45149089  0.61321663  1
  Hf  Hf1  1  0.09215723  0.19653343  1.03137746  1
  Zr  Zr2  1  0.25930267  0.74008463  0.05225406  1
  Zr  Zr3  1  0.46227287  0.53630864  0.48087335  1
  Ti  Ti4  1  0.98518735  0.12954109  0.18171277  1
  Ti  Ti5  1  0.14487765  0.11836992  0.19120977  1
  Nb  Nb6  1  0.35438697  0.64629767  0.10749056  1
  Nb  Nb7  1  0.59288550  0.40359595  0.77806541  1
