# generated using pymatgen
data_HfZrTiNb
_symmetry_space_group_name_H-M   'P 1'
_cell_length_a   5.51444608
_cell_length_b   5.56137296
_cell_length_c   7.60999316
_cell_angle_alpha   134.78197006
_cell_angle_beta   83.02911375
_cell_angle_gamma   97.12510660
_symmetry_Int_Tables_number   1
_chemical_formula_structural   HfZrTiNb
_chemical_formula_sum   'Hf2 Zr2 Ti2 Nb2'
_cell_volume   164.18231281
_cell_formula_units_Z   2
loop_
 _symmetry_equiv_pos_site_id
 _symmetry_equiv_pos_as_xyz
  1  'x, y, z'
loop_
 _atom_site_type_symbol
 _atom_site_label
 _atom_site_symmetry_multiplicity
 _atom_site_fract_x
 _atom_site_fract_y
 _atom_site_fract_z
 _atom_site_occupancy
  Hf  Hf0  1  0.14958703  -0.11508585  0.63073505  1
  Hf  Hf1  1  0.23691370  0.38930480  0.63652467  1
  Zr  Zr2  1  0.25068064  0.12970404  0.12255026  1
  Zr  Zr3  1  0.45968131  0.66047895  0.14991112  1
  Ti  Ti4  1  -0.25038427  0.32842974  0.35823805  1
  Ti  Ti5  1  0.75425383  0.75900082  0.85279334  1
  Nb  Nb6  1  0.67892161  1.04910972  0.63354090  1
  Nb  Nb7  1  -0.05365607  0.58438667  0.11570660  1
