# generated using pymatgen
data_HfZrTiNb
_symmetry_space_group_name_H-M   'P 1'
_cell_length_a   11.35159394
_cell_length_b   4.76640755
_cell_length_c   6.71588818
_cell_angle_alpha   71.73847425
_cell_angle_beta   103.65638008
_cell_angle_gamma   116.96839824
_symmetry_Int_Tables_number   1
_chemical_formula_structural   HfZrTiNb
_chemical_formula_sum   'Hf2 Zr2 Ti2 Nb2'
_cell_volume   305.64468448
_cell_formula_units_Z   2
loop_
 _symmetry_equiv_pos_site_id
 _symmetry_equiv_pos_as_xyz
  1  'x, y, z'
loop_
 _atom_site_type_symbol
 _atom_site_label
 _atom_site_symmetry_multiplicity
 _atom_site_fract_x
 _atom_site_fract_y
 _atom_site_fract_z
 _atom_site_occupancy
  Hf  Hf0  1  0.34792102  0.11047056  0.13903723  1
  Hf  Hf1  1  0.13222572  0.71172273  0.48902838  1
  Zr  Zr2  1  0.06467583  0.86549735  0.96074779  1
  Zr  Zr3  1  0.42766955  0.59534399  0.36849247  1
  Ti  Ti4  1  0.41864313  -0.02700717  0.62362050  1
  Ti  Ti5  1  0.26450912  0.25402855  0.68520773  1
  Nb  Nb6  1  0.13916888  0.31665666  0.25399108  1
  Nb  Nb7  1  1.25507893  0.61773177  0.91607482  1
