# generated using pymatgen
data_HfZrTiNb
_symmetry_space_group_name_H-M   'P 1'
_cell_length_a   12.60866636
_cell_length_b   12.44254264
_cell_length_c   15.38861945
_cell_angle_alpha   80.88576318
_cell_angle_beta   97.15837353
_cell_angle_gamma   104.37228435
_symmetry_Int_Tables_number   1
_chemical_formula_structural   HfZrTiNb
_chemical_formula_sum   'Hf2 Zr2 Ti2 Nb2'
_cell_volume   2299.94239134
_cell_formula_units_Z   2
loop_
 _symmetry_equiv_pos_site_id
 _symmetry_equiv_pos_as_xyz
  1  'x, y, z'
loop_
 _atom_site_type_symbol
 _atom_site_label
 _atom_site_symmetry_multiplicity
 _atom_site_fract_x
 _atom_site_fract_y
 _atom_site_fract_z
 _atom_site_occupancy
  Hf  Hf0  1  0.24220658  0.51572129  0.22257434  1
  Hf  Hf1  1  0.15393673  0.43178163  0.06256635  1
  Zr  Zr2  1  0.07181388  0.31359022  0.21726661  1
  Zr  Zr3  1  0.19113561  0.79917536  0.65989239  1
  Ti  Ti4  1  0.04773556  0.48632760  0.29857657  1
  Ti  Ti5  1  0.14219772  0.86749131  0.52630761  1
  Nb  Nb6  1  1.03608724  0.52846925  0.13781613  1
  Nb  Nb7  1  0.72411000  0.11488667  0.62500000  1
