# generated using pymatgen
data_HfZrTiNb
_symmetry_space_group_name_H-M   'P 1'
_cell_length_a   14.60548670
_cell_length_b   15.26597067
_cell_length_c   14.19623108
_cell_angle_alpha   87.14711979
_cell_angle_beta   89.11335839
_cell_angle_gamma   127.39202617
_symmetry_Int_Tables_number   1
_chemical_formula_structural   HfZrTiNb
_chemical_formula_sum   'Hf2 Zr2 Ti2 Nb2'
_cell_volume   2507.53477920
_cell_formula_units_Z   2
loop_
 _symmetry_equiv_pos_site_id
 _symmetry_equiv_pos_as_xyz
  1  'x, y, z'
loop_
 _atom_site_type_symbol
 _atom_site_label
 _atom_site_symmetry_multiplicity
 _atom_site_fract_x
 _atom_site_fract_y
 _atom_site_fract_z
 _atom_site_occupancy
  Hf  Hf0  1  0.22394017  0.44753082  0.12600896  1
  Hf  Hf1  1  0.50880886  0.94228916  0.50511825  1
  Zr  Zr2  1  0.79645764  0.67459020  0.59727112  1
  Zr  Zr3  1  0.61545299  0.51057367  0.68157590  1
  Ti  Ti4  1  0.81031160  0.59261391  0.75305298  1
  Ti  Ti5  1  0.37506594  0.52265575  0.26519581  1
  Nb  Nb6  1  0.18254722  0.42059010  0.29759523  1
  Nb  Nb7  1  0.65974558  0.06148640  0.58798175  1
