# generated using pymatgen
data_HfZrTiNb
_symmetry_space_group_name_H-M   'P 1'
_cell_length_a   11.38350279
_cell_length_b   11.57563910
_cell_length_c   11.50279721
_cell_angle_alpha   86.88558733
_cell_angle_beta   91.22515571
_cell_angle_gamma   165.54121814
_symmetry_Int_Tables_number   1
_chemical_formula_structural   HfZrTiNb
_chemical_formula_sum   'Hf2 Zr2 Ti2 Nb2'
_cell_volume   374.91986078
_cell_formula_units_Z   2
loop_
 _symmetry_equiv_pos_site_id
 _symmetry_equiv_pos_as_xyz
  1  'x, y, z'
loop_
 _atom_site_type_symbol
 _atom_site_label
 _atom_site_symmetry_multiplicity
 _atom_site_fract_x
 _atom_site_fract_y
 _atom_site_fract_z
 _atom_site_occupancy
  Hf  Hf0  1  0.79176078  0.94687768  0.88251648  1
  Hf  Hf1  1  0.50152049  0.71062468  0.64524830  1
  Zr  Zr2  1  0.14292648  0.17562677  0.48765313  1
  Zr  Zr3  1  1.05595983  0.80486560  0.78848773  1
  Ti  Ti4  1  0.73993914  0.56583160  0.57087165  1
  Ti  Ti5  1  0.43695678  0.16037372  0.00758898  1
  Nb  Nb6  1  0.60608417  0.53693157  -0.04529195  1
  Nb  Nb7  1  0.33407566  0.31731506  0.72672568  1
