# generated using pymatgen
data_HfZrTiNb
_symmetry_space_group_name_H-M   'P 1'
_cell_length_a   11.75035831
_cell_length_b   13.98271657
_cell_length_c   3.02965094
_cell_angle_alpha   81.89998940
_cell_angle_beta   90.31413900
_cell_angle_gamma   126.91281205
_symmetry_Int_Tables_number   1
_chemical_formula_structural   HfZrTiNb
_chemical_formula_sum   'Hf2 Zr2 Ti2 Nb2'
_cell_volume   392.05326266
_cell_formula_units_Z   2
loop_
 _symmetry_equiv_pos_site_id
 _symmetry_equiv_pos_as_xyz
  1  'x, y, z'
loop_
 _atom_site_type_symbol
 _atom_site_label
 _atom_site_symmetry_multiplicity
 _atom_site_fract_x
 _atom_site_fract_y
 _atom_site_fract_z
 _atom_site_occupancy
  Hf  Hf0  1  0.73360520  0.57411549  0.89800253  1
  Hf  Hf1  1  0.15915468  0.27764679  0.62114001  1
  Zr  Zr2  1  0.19935633  0.50928957  0.36323336  1
  Zr  Zr3  1  0.62324022  0.69134052  0.29208074  1
  Ti  Ti4  1  0.29787695  0.20253195  0.13470488  1
  Ti  Ti5  1  0.39560765  0.48289829  0.94988971  1
  Nb  Nb6  1  0.50171120  0.38898783  0.50091380  1
  Nb  Nb7  1  0.42655661  0.70841063  0.74003495  1
