# generated using pymatgen
data_HfZrTiNb
_symmetry_space_group_name_H-M   'P 1'
_cell_length_a   15.54579072
_cell_length_b   15.10116563
_cell_length_c   16.66649628
_cell_angle_alpha   94.27986355
_cell_angle_beta   92.10237106
_cell_angle_gamma   124.71466694
_symmetry_Int_Tables_number   1
_chemical_formula_structural   HfZrTiNb
_chemical_formula_sum   'Hf2 Zr2 Ti2 Nb2'
_cell_volume   3192.19814229
_cell_formula_units_Z   2
loop_
 _symmetry_equiv_pos_site_id
 _symmetry_equiv_pos_as_xyz
  1  'x, y, z'
loop_
 _atom_site_type_symbol
 _atom_site_label
 _atom_site_symmetry_multiplicity
 _atom_site_fract_x
 _atom_site_fract_y
 _atom_site_fract_z
 _atom_site_occupancy
  Hf  Hf0  1  0.44491223  0.88601568  0.96644585  1
  Hf  Hf1  1  0.88888889  0.44444444  0.03190000  1
  Zr  Zr2  1  0.44397665  0.55842877  0.78355415  1
  Zr  Zr3  1  0.44444444  0.55555556  0.28190000  1
  Ti  Ti4  1  0.87171532  0.35384967  0.52076489  1
  Ti  Ti5  1  0.22222222  0.11111111  0.53190000  1
  Nb  Nb6  1  0.02376111  0.39559961  0.60611452  1
  Nb  Nb7  1  -0.00281199  0.53021627  0.59122059  1
