# generated using pymatgen
data_HfZrTiNb
_symmetry_space_group_name_H-M   'P 1'
_cell_length_a   13.14018664
_cell_length_b   13.87823678
_cell_length_c   13.52729576
_cell_angle_alpha   89.11719032
_cell_angle_beta   87.36612961
_cell_angle_gamma   113.85930271
_symmetry_Int_Tables_number   1
_chemical_formula_structural   HfZrTiNb
_chemical_formula_sum   'Hf2 Zr2 Ti2 Nb2'
_cell_volume   2252.11365265
_cell_formula_units_Z   2
loop_
 _symmetry_equiv_pos_site_id
 _symmetry_equiv_pos_as_xyz
  1  'x, y, z'
loop_
 _atom_site_type_symbol
 _atom_site_label
 _atom_site_symmetry_multiplicity
 _atom_site_fract_x
 _atom_site_fract_y
 _atom_site_fract_z
 _atom_site_occupancy
  Hf  Hf0  1  0.38331880  0.90587472  0.79822917  1
  Hf  Hf1  1  0.18779237  0.92745766  0.83827830  1
  Zr  Zr2  1  0.52949268  0.47150405  0.46960168  1
  Zr  Zr3  1  0.13580557  0.95275710  0.20149848  1
  Ti  Ti4  1  0.21096183  0.03064720  0.00924333  1
  Ti  Ti5  1  0.47050732  0.52849595  0.34419832  1
  Nb  Nb6  1  0.38726779  0.05104118  0.90441176  1
  Nb  Nb7  1  0.08940585  0.08232992  0.12593895  1
