# generated using pymatgen
data_HfZrTiNb
_symmetry_space_group_name_H-M   'P 1'
_cell_length_a   11.37819558
_cell_length_b   10.93614411
_cell_length_c   5.28363873
_cell_angle_alpha   90.60456486
_cell_angle_beta   87.05909991
_cell_angle_gamma   149.73794582
_symmetry_Int_Tables_number   1
_chemical_formula_structural   HfZrTiNb
_chemical_formula_sum   'Hf2 Zr2 Ti2 Nb2'
_cell_volume   330.15001452
_cell_formula_units_Z   2
loop_
 _symmetry_equiv_pos_site_id
 _symmetry_equiv_pos_as_xyz
  1  'x, y, z'
loop_
 _atom_site_type_symbol
 _atom_site_label
 _atom_site_symmetry_multiplicity
 _atom_site_fract_x
 _atom_site_fract_y
 _atom_site_fract_z
 _atom_site_occupancy
  Hf  Hf0  1  0.20270945  0.65070182  0.69529762  1
  Hf  Hf1  1  0.70348134  0.14505005  0.68917896  1
  Zr  Zr2  1  0.90442699  0.10937890  -0.06440445  1
  Zr  Zr3  1  0.16775104  0.37458286  0.42903820  1
  Ti  Ti4  1  -0.04660921  0.38326783  0.19076012  1
  Ti  Ti5  1  0.65276041  0.87194722  0.43546248  1
  Nb  Nb6  1  0.40678979  0.63488409  0.92962888  1
  Nb  Nb7  1  0.45313464  0.88007947  0.19503820  1
