# generated using pymatgen
data_HfZrTiNb
_symmetry_space_group_name_H-M   'P 1'
_cell_length_a   15.70465362
_cell_length_b   15.28616327
_cell_length_c   15.42400472
_cell_angle_alpha   85.69082412
_cell_angle_beta   90.99919353
_cell_angle_gamma   120.76303405
_symmetry_Int_Tables_number   1
_chemical_formula_structural   HfZrTiNb
_chemical_formula_sum   'Hf2 Zr2 Ti2 Nb2'
_cell_volume   3171.78665667
_cell_formula_units_Z   2
loop_
 _symmetry_equiv_pos_site_id
 _symmetry_equiv_pos_as_xyz
  1  'x, y, z'
loop_
 _atom_site_type_symbol
 _atom_site_label
 _atom_site_symmetry_multiplicity
 _atom_site_fract_x
 _atom_site_fract_y
 _atom_site_fract_z
 _atom_site_occupancy
  Hf  Hf0  1  0.44446844  0.55557953  0.46808923  1
  Hf  Hf1  1  0.80919117  0.94946758  0.71121316  1
  Zr  Zr2  1  0.77777778  0.55555556  0.96810000  1
  Zr  Zr3  1  0.22222222  0.44444444  0.03190000  1
  Ti  Ti4  1  0.85034243  0.03729257  0.58506045  1
  Ti  Ti5  1  0.77613914  0.91087334  0.27383806  1
  Nb  Nb6  1  0.21844667  0.94255667  0.12500000  1
  Nb  Nb7  1  0.73285771  0.93378810  0.15059909  1
