# generated using pymatgen
data_HfZrTiNb
_symmetry_space_group_name_H-M   'P 1'
_cell_length_a   14.23296211
_cell_length_b   14.23036750
_cell_length_c   15.46887454
_cell_angle_alpha   94.45336952
_cell_angle_beta   85.50829726
_cell_angle_gamma   118.99187933
_symmetry_Int_Tables_number   1
_chemical_formula_structural   HfZrTiNb
_chemical_formula_sum   'Hf2 Zr2 Ti2 Nb2'
_cell_volume   2729.21196847
_cell_formula_units_Z   2
loop_
 _symmetry_equiv_pos_site_id
 _symmetry_equiv_pos_as_xyz
  1  'x, y, z'
loop_
 _atom_site_type_symbol
 _atom_site_label
 _atom_site_symmetry_multiplicity
 _atom_site_fract_x
 _atom_site_fract_y
 _atom_site_fract_z
 _atom_site_occupancy
  Hf  Hf0  1  0.22222222  0.44444444  0.71810000  1
  Hf  Hf1  1  0.48540517  0.83011707  0.09657620  1
  Zr  Zr2  1  0.55555556  0.11111111  0.71810000  1
  Zr  Zr3  1  0.51535551  0.00362685  0.18312782  1
  Ti  Ti4  1  0.33058612  0.83484962  0.18923695  1
  Ti  Ti5  1  0.77777778  0.55555556  0.96810000  1
  Nb  Nb6  1  0.10266294  0.06972623  0.31230766  1
  Nb  Nb7  1  0.07165360  0.10067690  0.18685137  1
