# generated using pymatgen
data_HfZrTiNb
_symmetry_space_group_name_H-M   'P 1'
_cell_length_a   10.99939228
_cell_length_b   10.75501969
_cell_length_c   13.98557719
_cell_angle_alpha   83.87889382
_cell_angle_beta   118.18094244
_cell_angle_gamma   124.22290124
_symmetry_Int_Tables_number   1
_chemical_formula_structural   HfZrTiNb
_chemical_formula_sum   'Hf2 Zr2 Ti2 Nb2'
_cell_volume   1176.81500589
_cell_formula_units_Z   2
loop_
 _symmetry_equiv_pos_site_id
 _symmetry_equiv_pos_as_xyz
  1  'x, y, z'
loop_
 _atom_site_type_symbol
 _atom_site_label
 _atom_site_symmetry_multiplicity
 _atom_site_fract_x
 _atom_site_fract_y
 _atom_site_fract_z
 _atom_site_occupancy
  Hf  Hf0  1  0.49916214  0.75153496  0.23490419  1
  Hf  Hf1  1  0.79711840  0.73368247  0.27626400  1
  Zr  Zr2  1  0.45693719  0.46518832  0.17039572  1
  Zr  Zr3  1  0.60816476  0.58199651  0.39988997  1
  Ti  Ti4  1  0.25690086  0.53757963  1.04200809  1
  Ti  Ti5  1  0.67821832  0.86222269  0.46544538  1
  Nb  Nb6  1  -0.07314850  0.85605115  0.49694746  1
  Nb  Nb7  1  0.83786572  -0.01047794  0.35034520  1
