# generated using pymatgen
data_HfZrTiNb
_symmetry_space_group_name_H-M   'P 1'
_cell_length_a   2.87365752
_cell_length_b   11.66715930
_cell_length_c   16.41894325
_cell_angle_alpha   78.01065544
_cell_angle_beta   83.73882261
_cell_angle_gamma   88.55756543
_symmetry_Int_Tables_number   1
_chemical_formula_structural   HfZrTiNb
_chemical_formula_sum   'Hf2 Zr2 Ti2 Nb2'
_cell_volume   535.26290603
_cell_formula_units_Z   2
loop_
 _symmetry_equiv_pos_site_id
 _symmetry_equiv_pos_as_xyz
  1  'x, y, z'
loop_
 _atom_site_type_symbol
 _atom_site_label
 _atom_site_symmetry_multiplicity
 _atom_site_fract_x
 _atom_site_fract_y
 _atom_site_fract_z
 _atom_site_occupancy
  Hf  Hf0  1  0.93658789  0.76703045  0.70969308  1
  Hf  Hf1  1  0.39700016  0.56688401  0.79298206  1
  Zr  Zr2  1  0.53906693  0.62923641  0.26552482  1
  Zr  Zr3  1  0.09297543  0.14088212  0.22168499  1
  Ti  Ti4  1  1.00366792  0.41889836  0.32825055  1
  Ti  Ti5  1  0.10863698  0.56349768  0.13507335  1
  Nb  Nb6  1  0.62062176  0.36726166  0.19453695  1
  Nb  Nb7  1  0.47377293  0.21297595  0.35225419  1
