# generated using pymatgen
data_HfZrTiNb
_symmetry_space_group_name_H-M   'P 1'
_cell_length_a   11.03728387
_cell_length_b   13.75916595
_cell_length_c   9.06265930
_cell_angle_alpha   55.42040096
_cell_angle_beta   103.05477681
_cell_angle_gamma   136.67110737
_symmetry_Int_Tables_number   1
_chemical_formula_structural   HfZrTiNb
_chemical_formula_sum   'Hf2 Zr2 Ti2 Nb2'
_cell_volume   733.73878325
_cell_formula_units_Z   2
loop_
 _symmetry_equiv_pos_site_id
 _symmetry_equiv_pos_as_xyz
  1  'x, y, z'
loop_
 _atom_site_type_symbol
 _atom_site_label
 _atom_site_symmetry_multiplicity
 _atom_site_fract_x
 _atom_site_fract_y
 _atom_site_fract_z
 _atom_site_occupancy
  Hf  Hf0  1  0.87096638  0.55960417  0.71680795  1
  Hf  Hf1  1  0.13193308  0.94880803  0.41259155  1
  Zr  Zr2  1  0.86323080  0.90273368  1.18853139  1
  Zr  Zr3  1  0.63990951  0.50499331  0.45132638  1
  Ti  Ti4  1  0.88073108  0.48136968  0.49647088  1
  Ti  Ti5  1  0.00886058  -0.20290954  0.22572389  1
  Nb  Nb6  1  0.75100256  0.70153480  0.55339657  1
  Nb  Nb7  1  0.18292381  0.76298144  0.45515141  1
