# generated using pymatgen
data_HfZrTiNb
_symmetry_space_group_name_H-M   'P 1'
_cell_length_a   11.54596088
_cell_length_b   9.70270911
_cell_length_c   10.22674840
_cell_angle_alpha   100.71503681
_cell_angle_beta   101.16533588
_cell_angle_gamma   110.04102039
_symmetry_Int_Tables_number   1
_chemical_formula_structural   HfZrTiNb
_chemical_formula_sum   'Hf2 Zr2 Ti2 Nb2'
_cell_volume   1015.59969535
_cell_formula_units_Z   2
loop_
 _symmetry_equiv_pos_site_id
 _symmetry_equiv_pos_as_xyz
  1  'x, y, z'
loop_
 _atom_site_type_symbol
 _atom_site_label
 _atom_site_symmetry_multiplicity
 _atom_site_fract_x
 _atom_site_fract_y
 _atom_site_fract_z
 _atom_site_occupancy
  Hf  Hf0  1  0.32727932  0.64588571  0.15829612  1
  Hf  Hf1  1  0.17804825  0.35626211  0.95124602  1
  Zr  Zr2  1  0.56250235  0.71947781  0.09761139  1
  Zr  Zr3  1  0.32570974  0.63262637  0.87814450  1
  Ti  Ti4  1  0.25263266  0.33498558  0.71128225  1
  Ti  Ti5  1  0.33220986  0.19261341  0.89771741  1
  Nb  Nb6  1  0.47720800  0.46377716  -0.12080088  1
  Nb  Nb7  1  0.42574758  0.42837406  0.11270319  1
