# generated using pymatgen
data_HfZrTiNb
_symmetry_space_group_name_H-M   'P 1'
_cell_length_a   5.65977794
_cell_length_b   10.01353104
_cell_length_c   5.24508914
_cell_angle_alpha   130.98187796
_cell_angle_beta   92.33532839
_cell_angle_gamma   119.17776047
_symmetry_Int_Tables_number   1
_chemical_formula_structural   HfZrTiNb
_chemical_formula_sum   'Hf2 Zr2 Ti2 Nb2'
_cell_volume   164.03548519
_cell_formula_units_Z   2
loop_
 _symmetry_equiv_pos_site_id
 _symmetry_equiv_pos_as_xyz
  1  'x, y, z'
loop_
 _atom_site_type_symbol
 _atom_site_label
 _atom_site_symmetry_multiplicity
 _atom_site_fract_x
 _atom_site_fract_y
 _atom_site_fract_z
 _atom_site_occupancy
  Hf  Hf0  1  -0.07904500  0.52709494  0.15361637  1
  Hf  Hf1  1  0.28830638  0.18040193  0.42774028  1
  Zr  Zr2  1  0.51822967  0.87916506  0.11261969  1
  Zr  Zr3  1  0.40512052  1.05080909  0.79347913  1
  Ti  Ti4  1  0.26436703  0.38379312  1.10119973  1
  Ti  Ti5  1  0.98240250  0.35093033  0.47300456  1
  Nb  Nb6  1  0.77885287  0.87535795  0.58920350  1
  Nb  Nb7  1  0.79187378  0.64133647  0.78533675  1
