# generated using pymatgen
data_HfZrTiNb
_symmetry_space_group_name_H-M   'P 1'
_cell_length_a   13.49546104
_cell_length_b   14.86688467
_cell_length_c   16.10751491
_cell_angle_alpha   89.67054556
_cell_angle_beta   95.50458361
_cell_angle_gamma   116.19843983
_symmetry_Int_Tables_number   1
_chemical_formula_structural   HfZrTiNb
_chemical_formula_sum   'Hf2 Zr2 Ti2 Nb2'
_cell_volume   2883.94690153
_cell_formula_units_Z   2
loop_
 _symmetry_equiv_pos_site_id
 _symmetry_equiv_pos_as_xyz
  1  'x, y, z'
loop_
 _atom_site_type_symbol
 _atom_site_label
 _atom_site_symmetry_multiplicity
 _atom_site_fract_x
 _atom_site_fract_y
 _atom_site_fract_z
 _atom_site_occupancy
  Hf  Hf0  1  0.38222136  0.53490088  0.48433852  1
  Hf  Hf1  1  0.52521965  0.47234737  0.51824923  1
  Zr  Zr2  1  0.05598231  0.19293839  0.71851986  1
  Zr  Zr3  1  0.94401769  0.14039494  0.59528014  1
  Ti  Ti4  1  0.55555556  0.44444444  0.03190000  1
  Ti  Ti5  1  0.20757426  0.55516056  0.46782775  1
  Nb  Nb6  1  0.38687251  0.93570343  0.62268451  1
  Nb  Nb7  1  0.39077667  0.78155333  0.12500000  1
