# generated using pymatgen
data_HfZrTiNb
_symmetry_space_group_name_H-M   'P 1'
_cell_length_a   5.84303660
_cell_length_b   5.28479003
_cell_length_c   12.04011756
_cell_angle_alpha   80.03317351
_cell_angle_beta   62.83240116
_cell_angle_gamma   94.55094611
_symmetry_Int_Tables_number   1
_chemical_formula_structural   HfZrTiNb
_chemical_formula_sum   'Hf2 Zr2 Ti2 Nb2'
_cell_volume   320.41449369
_cell_formula_units_Z   2
loop_
 _symmetry_equiv_pos_site_id
 _symmetry_equiv_pos_as_xyz
  1  'x, y, z'
loop_
 _atom_site_type_symbol
 _atom_site_label
 _atom_site_symmetry_multiplicity
 _atom_site_fract_x
 _atom_site_fract_y
 _atom_site_fract_z
 _atom_site_occupancy
  Hf  Hf0  1  0.21633304  0.09206712  0.74324415  1
  Hf  Hf1  1  0.71539599  0.09334389  0.74404280  1
  Zr  Zr2  1  1.05331117  0.70517075  0.99292448  1
  Zr  Zr3  1  0.32729326  0.21290057  0.99058308  1
  Ti  Ti4  1  0.43655227  0.58638580  0.76382042  1
  Ti  Ti5  1  0.58456209  0.71963064  -0.02513119  1
  Nb  Nb6  1  0.83891700  0.22352364  -0.03311683  1
  Nb  Nb7  1  -0.05747817  0.58542425  0.75983306  1
