# generated using pymatgen
data_HfZrTiNb
_symmetry_space_group_name_H-M   'P 1'
_cell_length_a   11.72454986
_cell_length_b   10.73996182
_cell_length_c   10.00084777
_cell_angle_alpha   77.56769063
_cell_angle_beta   85.38162801
_cell_angle_gamma   115.13958017
_symmetry_Int_Tables_number   1
_chemical_formula_structural   HfZrTiNb
_chemical_formula_sum   'Hf2 Zr2 Ti2 Nb2'
_cell_volume   1092.02937754
_cell_formula_units_Z   2
loop_
 _symmetry_equiv_pos_site_id
 _symmetry_equiv_pos_as_xyz
  1  'x, y, z'
loop_
 _atom_site_type_symbol
 _atom_site_label
 _atom_site_symmetry_multiplicity
 _atom_site_fract_x
 _atom_site_fract_y
 _atom_site_fract_z
 _atom_site_occupancy
  Hf  Hf0  1  0.13015329  0.54133478  1.17008041  1
  Hf  Hf1  1  0.20692311  0.55924130  0.44890053  1
  Zr  Zr2  1  0.43305987  0.83929663  0.34672284  1
  Zr  Zr3  1  0.38958607  0.62464353  0.20986887  1
  Ti  Ti4  1  0.97560670  0.54554912  0.39884366  1
  Ti  Ti5  1  0.18041801  0.80682587  0.40167619  1
  Nb  Nb6  1  0.05770264  0.75900579  0.19385984  1
  Nb  Nb7  1  0.29699251  0.82599075  0.14384766  1
