# generated using pymatgen
data_HfZrTiNb
_symmetry_space_group_name_H-M   'P 1'
_cell_length_a   12.11124135
_cell_length_b   5.25809449
_cell_length_c   11.59995457
_cell_angle_alpha   78.38247650
_cell_angle_beta   84.34015844
_cell_angle_gamma   103.88072198
_symmetry_Int_Tables_number   1
_chemical_formula_structural   HfZrTiNb
_chemical_formula_sum   'Hf2 Zr2 Ti2 Nb2'
_cell_volume   694.00866807
_cell_formula_units_Z   2
loop_
 _symmetry_equiv_pos_site_id
 _symmetry_equiv_pos_as_xyz
  1  'x, y, z'
loop_
 _atom_site_type_symbol
 _atom_site_label
 _atom_site_symmetry_multiplicity
 _atom_site_fract_x
 _atom_site_fract_y
 _atom_site_fract_z
 _atom_site_occupancy
  Hf  Hf0  1  0.17128914  0.40487041  0.13765529  1
  Hf  Hf1  1  0.91578976  0.24261610  0.17227683  1
  Zr  Zr2  1  0.83836794  0.75961937  0.04704419  1
  Zr  Zr3  1  0.07207598  0.68255479  0.92656916  1
  Ti  Ti4  1  1.05471445  0.15782508  -0.04032183  1
  Ti  Ti5  1  0.02780531  0.79407152  0.18826463  1
  Nb  Nb6  1  0.85402616  0.31674395  0.95406080  1
  Nb  Nb7  1  0.22693462  0.97503212  0.05585095  1
