# generated using pymatgen
data_HfZrTiNb
_symmetry_space_group_name_H-M   'P 1'
_cell_length_a   11.85005816
_cell_length_b   14.53816286
_cell_length_c   12.90411035
_cell_angle_alpha   81.51898177
_cell_angle_beta   101.41805815
_cell_angle_gamma   110.82499503
_symmetry_Int_Tables_number   1
_chemical_formula_structural   HfZrTiNb
_chemical_formula_sum   'Hf2 Zr2 Ti2 Nb2'
_cell_volume   2029.51343693
_cell_formula_units_Z   2
loop_
 _symmetry_equiv_pos_site_id
 _symmetry_equiv_pos_as_xyz
  1  'x, y, z'
loop_
 _atom_site_type_symbol
 _atom_site_label
 _atom_site_symmetry_multiplicity
 _atom_site_fract_x
 _atom_site_fract_y
 _atom_site_fract_z
 _atom_site_occupancy
  Hf  Hf0  1  0.50736364  0.43595562  0.50414870  1
  Hf  Hf1  1  0.11100410  0.02285662  0.82215949  1
  Zr  Zr2  1  0.22222222  0.77777778  0.53190000  1
  Zr  Zr3  1  1.01170612  0.16865062  0.81961582  1
  Ti  Ti4  1  0.95909207  0.02207743  -0.02575658  1
  Ti  Ti5  1  0.20009995  0.17448213  -0.02411243  1
  Nb  Nb6  1  0.15876664  0.99893431  0.03309370  1
  Nb  Nb7  1  0.32408192  0.39926549  0.40275130  1
