# generated using pymatgen
data_HfZrTiNb
_symmetry_space_group_name_H-M   'P 1'
_cell_length_a   12.36442923
_cell_length_b   11.41269449
_cell_length_c   9.65611979
_cell_angle_alpha   88.66827100
_cell_angle_beta   96.77235840
_cell_angle_gamma   153.60390483
_symmetry_Int_Tables_number   1
_chemical_formula_structural   HfZrTiNb
_chemical_formula_sum   'Hf2 Zr2 Ti2 Nb2'
_cell_volume   590.97679422
_cell_formula_units_Z   2
loop_
 _symmetry_equiv_pos_site_id
 _symmetry_equiv_pos_as_xyz
  1  'x, y, z'
loop_
 _atom_site_type_symbol
 _atom_site_label
 _atom_site_symmetry_multiplicity
 _atom_site_fract_x
 _atom_site_fract_y
 _atom_site_fract_z
 _atom_site_occupancy
  Hf  Hf0  1  0.35792382  0.97823964  0.30456494  1
  Hf  Hf1  1  0.84157653  0.44409172  0.53317385  1
  Zr  Zr2  1  0.53231556  0.37867705  0.47182499  1
  Zr  Zr3  1  0.60875751  0.45582437  0.18177862  1
  Ti  Ti4  1  0.11975137  -0.04776515  0.18006166  1
  Ti  Ti5  1  0.84623996  0.47636678  0.24802216  1
  Nb  Nb6  1  0.33766215  -0.01384701  0.58484790  1
  Nb  Nb7  1  1.02243977  0.83407593  0.43192588  1
