# generated using pymatgen
data_HfZrTiNb
_symmetry_space_group_name_H-M   'P 1'
_cell_length_a   15.34885986
_cell_length_b   15.52489977
_cell_length_c   15.79982111
_cell_angle_alpha   88.96264362
_cell_angle_beta   86.05934521
_cell_angle_gamma   120.34037724
_symmetry_Int_Tables_number   1
_chemical_formula_structural   HfZrTiNb
_chemical_formula_sum   'Hf2 Zr2 Ti2 Nb2'
_cell_volume   3235.49837893
_cell_formula_units_Z   2
loop_
 _symmetry_equiv_pos_site_id
 _symmetry_equiv_pos_as_xyz
  1  'x, y, z'
loop_
 _atom_site_type_symbol
 _atom_site_label
 _atom_site_symmetry_multiplicity
 _atom_site_fract_x
 _atom_site_fract_y
 _atom_site_fract_z
 _atom_site_occupancy
  Hf  Hf0  1  0.28308298  0.47381440  0.46595002  1
  Hf  Hf1  1  0.22240813  0.77801586  0.19896172  1
  Zr  Zr2  1  0.22203631  0.77753970  0.05103828  1
  Zr  Zr3  1  0.11111111  0.22222222  0.96810000  1
  Ti  Ti4  1  0.38358368  0.52618560  0.34784998  1
  Ti  Ti5  1  0.77835397  0.91416368  0.45426714  1
  Nb  Nb6  1  0.60922333  0.72411000  0.87500000  1
  Nb  Nb7  1  0.78097714  0.03216854  0.38883286  1
