# generated using pymatgen
data_HfZrTiNb
_symmetry_space_group_name_H-M   'P 1'
_cell_length_a   14.94064757
_cell_length_b   14.03902092
_cell_length_c   13.68009873
_cell_angle_alpha   108.25207666
_cell_angle_beta   86.21017129
_cell_angle_gamma   128.63409855
_symmetry_Int_Tables_number   1
_chemical_formula_structural   HfZrTiNb
_chemical_formula_sum   'Hf2 Zr2 Ti2 Nb2'
_cell_volume   2096.02212822
_cell_formula_units_Z   2
loop_
 _symmetry_equiv_pos_site_id
 _symmetry_equiv_pos_as_xyz
  1  'x, y, z'
loop_
 _atom_site_type_symbol
 _atom_site_label
 _atom_site_symmetry_multiplicity
 _atom_site_fract_x
 _atom_site_fract_y
 _atom_site_fract_z
 _atom_site_occupancy
  Hf  Hf0  1  0.91226188  1.04873896  1.02836523  1
  Hf  Hf1  1  0.20481931  0.74276395  -0.00813226  1
  Zr  Zr2  1  0.12851402  0.59056939  0.82193226  1
  Zr  Zr3  1  0.89973169  0.11788855  0.22309646  1
  Ti  Ti4  1  0.39473200  0.27294334  0.39973602  1
  Ti  Ti5  1  0.07905801  0.27680485  0.15426903  1
  Nb  Nb6  1  0.42252037  0.26046854  0.56620788  1
  Nb  Nb7  1  0.40658272  0.41393243  0.56452539  1
