# generated using pymatgen
data_HfZrTiNb
_symmetry_space_group_name_H-M   'P 1'
_cell_length_a   13.07647458
_cell_length_b   12.70382724
_cell_length_c   13.61033808
_cell_angle_alpha   99.44348885
_cell_angle_beta   70.79324221
_cell_angle_gamma   114.01283962
_symmetry_Int_Tables_number   1
_chemical_formula_structural   HfZrTiNb
_chemical_formula_sum   'Hf2 Zr2 Ti2 Nb2'
_cell_volume   1949.13506379
_cell_formula_units_Z   2
loop_
 _symmetry_equiv_pos_site_id
 _symmetry_equiv_pos_as_xyz
  1  'x, y, z'
loop_
 _atom_site_type_symbol
 _atom_site_label
 _atom_site_symmetry_multiplicity
 _atom_site_fract_x
 _atom_site_fract_y
 _atom_site_fract_z
 _atom_site_occupancy
  Hf  Hf0  1  0.86046019  0.00209582  0.76312068  1
  Hf  Hf1  1  0.84809530  0.56787025  0.37362185  1
  Zr  Zr2  1  0.85105167  0.38597180  0.48346876  1
  Zr  Zr3  1  0.44536968  0.89032335  0.46773456  1
  Ti  Ti4  1  0.65197671  0.40604303  0.48574781  1
  Ti  Ti5  1  0.74687272  0.32527321  0.30918026  1
  Nb  Nb6  1  -0.04147830  0.42829391  0.28714677  1
  Nb  Nb7  1  0.80998203  0.83312529  0.82997932  1
