# generated using pymatgen
data_HfZrTiNb
_symmetry_space_group_name_H-M   'P 1'
_cell_length_a   5.88441579
_cell_length_b   6.68305531
_cell_length_c   8.31388604
_cell_angle_alpha   132.64468196
_cell_angle_beta   42.26297759
_cell_angle_gamma   119.50750351
_symmetry_Int_Tables_number   1
_chemical_formula_structural   HfZrTiNb
_chemical_formula_sum   'Hf2 Zr2 Ti2 Nb2'
_cell_volume   161.71540599
_cell_formula_units_Z   2
loop_
 _symmetry_equiv_pos_site_id
 _symmetry_equiv_pos_as_xyz
  1  'x, y, z'
loop_
 _atom_site_type_symbol
 _atom_site_label
 _atom_site_symmetry_multiplicity
 _atom_site_fract_x
 _atom_site_fract_y
 _atom_site_fract_z
 _atom_site_occupancy
  Hf  Hf0  1  0.43561860  -0.39449218  0.02909992  1
  Hf  Hf1  1  0.56530463  0.60144416  0.54628680  1
  Zr  Zr2  1  1.03351224  1.11366209  1.08598518  1
  Zr  Zr3  1  0.91433034  0.57481535  1.03113959  1
  Ti  Ti4  1  0.08631116  0.60216558  0.53612768  1
  Ti  Ti5  1  0.58356140  1.07845984  1.02172873  1
  Nb  Nb6  1  -0.09563723  1.11280448  0.54563251  1
  Nb  Nb7  1  0.36966330  0.09646956  0.57639959  1
