# generated using pymatgen
data_HfZrTiNb
_symmetry_space_group_name_H-M   'P 1'
_cell_length_a   14.15189647
_cell_length_b   13.09941414
_cell_length_c   2.94360456
_cell_angle_alpha   95.79291167
_cell_angle_beta   89.05287777
_cell_angle_gamma   156.22727535
_symmetry_Int_Tables_number   1
_chemical_formula_structural   HfZrTiNb
_chemical_formula_sum   'Hf2 Zr2 Ti2 Nb2'
_cell_volume   214.90095992
_cell_formula_units_Z   2
loop_
 _symmetry_equiv_pos_site_id
 _symmetry_equiv_pos_as_xyz
  1  'x, y, z'
loop_
 _atom_site_type_symbol
 _atom_site_label
 _atom_site_symmetry_multiplicity
 _atom_site_fract_x
 _atom_site_fract_y
 _atom_site_fract_z
 _atom_site_occupancy
  Hf  Hf0  1  0.82960680  0.57766594  0.43504974  1
  Hf  Hf1  1  0.09261162  0.64584202  0.43445582  1
  Zr  Zr2  1  0.11158670  0.31030870  0.62297477  1
  Zr  Zr3  1  0.32833567  0.06893967  0.11971297  1
  Ti  Ti4  1  0.59319399  0.81481612  0.40694765  1
  Ti  Ti5  1  0.36022428  0.74660876  0.95056355  1
  Nb  Nb6  1  0.60809802  0.16786652  0.67817332  1
  Nb  Nb7  1  0.85412069  0.22350780  0.10212216  1
