# generated using pymatgen
data_HfZrTiNb
_symmetry_space_group_name_H-M   'P 1'
_cell_length_a   14.40291963
_cell_length_b   8.94078419
_cell_length_c   15.47158066
_cell_angle_alpha   74.65206592
_cell_angle_beta   80.93798671
_cell_angle_gamma   134.03224346
_symmetry_Int_Tables_number   1
_chemical_formula_structural   HfZrTiNb
_chemical_formula_sum   'Hf2 Zr2 Ti2 Nb2'
_cell_volume   1202.14006404
_cell_formula_units_Z   2
loop_
 _symmetry_equiv_pos_site_id
 _symmetry_equiv_pos_as_xyz
  1  'x, y, z'
loop_
 _atom_site_type_symbol
 _atom_site_label
 _atom_site_symmetry_multiplicity
 _atom_site_fract_x
 _atom_site_fract_y
 _atom_site_fract_z
 _atom_site_occupancy
  Hf  Hf0  1  0.62003947  0.40994159  0.06552366  1
  Hf  Hf1  1  0.71371657  0.46738137  0.86046113  1
  Zr  Zr2  1  0.31847849  0.90980305  0.21763224  1
  Zr  Zr3  1  0.20147568  0.87010787  0.07110716  1
  Ti  Ti4  1  0.46173702  0.03271678  0.02656655  1
  Ti  Ti5  1  0.43368463  0.20415163  0.87297083  1
  Nb  Nb6  1  0.35756192  0.24169687  0.09821740  1
  Nb  Nb7  1  0.55997288  0.53086749  0.91512103  1
