# generated using pymatgen
data_HfZrTiNb
_symmetry_space_group_name_H-M   'P 1'
_cell_length_a   14.61382440
_cell_length_b   15.00936333
_cell_length_c   14.53437433
_cell_angle_alpha   87.06921175
_cell_angle_beta   100.50845132
_cell_angle_gamma   126.31723107
_symmetry_Int_Tables_number   1
_chemical_formula_structural   HfZrTiNb
_chemical_formula_sum   'Hf2 Zr2 Ti2 Nb2'
_cell_volume   2519.15376143
_cell_formula_units_Z   2
loop_
 _symmetry_equiv_pos_site_id
 _symmetry_equiv_pos_as_xyz
  1  'x, y, z'
loop_
 _atom_site_type_symbol
 _atom_site_label
 _atom_site_symmetry_multiplicity
 _atom_site_fract_x
 _atom_site_fract_y
 _atom_site_fract_z
 _atom_site_occupancy
  Hf  Hf0  1  0.30115392  0.49610822  0.74945740  1
  Hf  Hf1  1  0.47371249  0.61013179  0.89548290  1
  Zr  Zr2  1  0.22624603  0.44802138  0.57988913  1
  Zr  Zr3  1  0.66555422  0.77907194  0.96137058  1
  Ti  Ti4  1  0.11111111  0.88888889  0.78190000  1
  Ti  Ti5  1  0.22223499  0.77779255  0.21810585  1
  Nb  Nb6  1  0.69714095  0.14532097  0.56411868  1
  Nb  Nb7  1  0.63617961  0.18799760  0.43587547  1
