# generated using pymatgen
data_HfZrTiNb
_symmetry_space_group_name_H-M   'P 1'
_cell_length_a   12.83307369
_cell_length_b   13.33876205
_cell_length_c   5.55348502
_cell_angle_alpha   97.44169281
_cell_angle_beta   97.38181714
_cell_angle_gamma   127.03353829
_symmetry_Int_Tables_number   1
_chemical_formula_structural   HfZrTiNb
_chemical_formula_sum   'Hf2 Zr2 Ti2 Nb2'
_cell_volume   726.42697543
_cell_formula_units_Z   2
loop_
 _symmetry_equiv_pos_site_id
 _symmetry_equiv_pos_as_xyz
  1  'x, y, z'
loop_
 _atom_site_type_symbol
 _atom_site_label
 _atom_site_symmetry_multiplicity
 _atom_site_fract_x
 _atom_site_fract_y
 _atom_site_fract_z
 _atom_site_occupancy
  Hf  Hf0  1  0.21982037  0.55428628  0.56543845  1
  Hf  Hf1  1  0.03120087  0.58068853  0.74054368  1
  Zr  Zr2  1  1.02375963  0.56700443  0.22699241  1
  Zr  Zr3  1  0.42992886  0.81294078  0.83068202  1
  Ti  Ti4  1  0.15243343  0.48496271  1.00134912  1
  Ti  Ti5  1  0.23235373  0.80722958  0.53657551  1
  Nb  Nb6  1  0.23678254  0.81262160  0.03696645  1
  Nb  Nb7  1  0.34416279  0.72115055  0.24765237  1
