# generated using pymatgen
data_HfZrTiNb
_symmetry_space_group_name_H-M   'P 1'
_cell_length_a   4.83734942
_cell_length_b   7.75374954
_cell_length_c   7.80310678
_cell_angle_alpha   126.25552353
_cell_angle_beta   109.45054762
_cell_angle_gamma   108.95631475
_symmetry_Int_Tables_number   1
_chemical_formula_structural   HfZrTiNb
_chemical_formula_sum   'Hf2 Zr2 Ti2 Nb2'
_cell_volume   161.87587280
_cell_formula_units_Z   2
loop_
 _symmetry_equiv_pos_site_id
 _symmetry_equiv_pos_as_xyz
  1  'x, y, z'
loop_
 _atom_site_type_symbol
 _atom_site_label
 _atom_site_symmetry_multiplicity
 _atom_site_fract_x
 _atom_site_fract_y
 _atom_site_fract_z
 _atom_site_occupancy
  Hf  Hf0  1  0.19438393  0.45453626  0.51676739  1
  Hf  Hf1  1  0.72489893  0.60979210  0.39885463  1
  Zr  Zr2  1  0.74297831  0.36697061  0.69543824  1
  Zr  Zr3  1  0.21356782  0.97840694  0.03329919  1
  Ti  Ti4  1  0.73980697  0.83440565  0.16407232  1
  Ti  Ti5  1  0.75976226  0.13565990  0.92970407  1
  Nb  Nb6  1  0.24762794  -0.25861526  0.30060611  1
  Nb  Nb7  1  0.21219494  0.21595266  0.77505806  1
