# generated using pymatgen
data_HfZrTiNb
_symmetry_space_group_name_H-M   'P 1'
_cell_length_a   14.51353775
_cell_length_b   12.35505730
_cell_length_c   11.51624666
_cell_angle_alpha   70.92088081
_cell_angle_beta   96.06660675
_cell_angle_gamma   134.97405185
_symmetry_Int_Tables_number   1
_chemical_formula_structural   HfZrTiNb
_chemical_formula_sum   'Hf2 Zr2 Ti2 Nb2'
_cell_volume   1356.13708777
_cell_formula_units_Z   2
loop_
 _symmetry_equiv_pos_site_id
 _symmetry_equiv_pos_as_xyz
  1  'x, y, z'
loop_
 _atom_site_type_symbol
 _atom_site_label
 _atom_site_symmetry_multiplicity
 _atom_site_fract_x
 _atom_site_fract_y
 _atom_site_fract_z
 _atom_site_occupancy
  Hf  Hf0  1  0.47494794  0.75844884  0.16041917  1
  Hf  Hf1  1  0.56505463  0.76841435  -0.05203127  1
  Zr  Zr2  1  0.71811951  0.28939990  -0.02869925  1
  Zr  Zr3  1  0.50462630  0.97006100  0.88992392  1
  Ti  Ti4  1  0.78761515  0.27948207  0.77191153  1
  Ti  Ti5  1  0.72828435  0.05785292  1.00901086  1
  Nb  Nb6  1  0.51615306  1.00688851  0.11715491  1
  Nb  Nb7  1  0.70897462  0.03800686  0.75991014  1
