# generated using pymatgen
data_HfZrTiNb
_symmetry_space_group_name_H-M   'P 1'
_cell_length_a   13.36825396
_cell_length_b   11.40681740
_cell_length_c   9.93732961
_cell_angle_alpha   121.11703593
_cell_angle_beta   106.93953178
_cell_angle_gamma   127.79749218
_symmetry_Int_Tables_number   1
_chemical_formula_structural   HfZrTiNb
_chemical_formula_sum   'Hf2 Zr2 Ti2 Nb2'
_cell_volume   449.16896769
_cell_formula_units_Z   2
loop_
 _symmetry_equiv_pos_site_id
 _symmetry_equiv_pos_as_xyz
  1  'x, y, z'
loop_
 _atom_site_type_symbol
 _atom_site_label
 _atom_site_symmetry_multiplicity
 _atom_site_fract_x
 _atom_site_fract_y
 _atom_site_fract_z
 _atom_site_occupancy
  Hf  Hf0  1  0.54730860  0.50028561  0.69984688  1
  Hf  Hf1  1  0.17051602  0.26058782  0.59597811  1
  Zr  Zr2  1  1.18299646  0.92843428  0.42632662  1
  Zr  Zr3  1  0.63385600  0.68925286  0.16499209  1
  Ti  Ti4  1  0.80879417  0.04733193  0.20544866  1
  Ti  Ti5  1  0.72374741  0.52840801  0.04804213  1
  Nb  Nb6  1  0.17395309  0.28742133  0.34840773  1
  Nb  Nb7  1  0.93115828  0.75827818  0.01095776  1
