# generated using pymatgen
data_HfZrTiNb
_symmetry_space_group_name_H-M   'P 1'
_cell_length_a   12.26617016
_cell_length_b   14.32033626
_cell_length_c   15.98243816
_cell_angle_alpha   84.49395999
_cell_angle_beta   95.93882625
_cell_angle_gamma   112.73622754
_symmetry_Int_Tables_number   1
_chemical_formula_structural   HfZrTiNb
_chemical_formula_sum   'Hf2 Zr2 Ti2 Nb2'
_cell_volume   2570.56018653
_cell_formula_units_Z   2
loop_
 _symmetry_equiv_pos_site_id
 _symmetry_equiv_pos_as_xyz
  1  'x, y, z'
loop_
 _atom_site_type_symbol
 _atom_site_label
 _atom_site_symmetry_multiplicity
 _atom_site_fract_x
 _atom_site_fract_y
 _atom_site_fract_z
 _atom_site_occupancy
  Hf  Hf0  1  0.82131747  0.85724610  0.86200019  1
  Hf  Hf1  1  0.96648615  0.81584677  -0.03707348  1
  Zr  Zr2  1  0.17275846  0.80517879  0.00243239  1
  Zr  Zr3  1  0.11111111  0.55555556  0.46810000  1
  Ti  Ti4  1  0.37277124  0.85506168  0.98644091  1
  Ti  Ti5  1  0.55555556  0.44444444  0.53190000  1
  Nb  Nb6  1  0.57687291  0.92255561  0.37483702  1
  Nb  Nb7  1  0.48057042  0.02000105  0.37516298  1
