# generated using pymatgen
data_HfZrTiNb
_symmetry_space_group_name_H-M   'P 1'
_cell_length_a   6.64583993
_cell_length_b   9.86488144
_cell_length_c   5.02607248
_cell_angle_alpha   135.03260748
_cell_angle_beta   48.44714513
_cell_angle_gamma   130.02884172
_symmetry_Int_Tables_number   1
_chemical_formula_structural   HfZrTiNb
_chemical_formula_sum   'Hf2 Zr2 Ti2 Nb2'
_cell_volume   164.57713064
_cell_formula_units_Z   2
loop_
 _symmetry_equiv_pos_site_id
 _symmetry_equiv_pos_as_xyz
  1  'x, y, z'
loop_
 _atom_site_type_symbol
 _atom_site_label
 _atom_site_symmetry_multiplicity
 _atom_site_fract_x
 _atom_site_fract_y
 _atom_site_fract_z
 _atom_site_occupancy
  Hf  Hf0  1  0.61182773  1.13119383  0.47417719  1
  Hf  Hf1  1  0.72733161  0.42319766  0.28476118  1
  Zr  Zr2  1  0.77906214  -0.27883005  0.16321678  1
  Zr  Zr3  1  0.23798026  0.39232387  0.17589959  1
  Ti  Ti4  1  0.39722883  -0.05646680  -0.09314630  1
  Ti  Ti5  1  0.34785078  0.64948462  0.93237248  1
  Nb  Nb6  1  0.07227377  0.17193331  0.53697419  1
  Nb  Nb7  1  0.99499933  -0.09572756  0.71194489  1
