# generated using pymatgen
data_HfZrTiNb
_symmetry_space_group_name_H-M   'P 1'
_cell_length_a   11.48800779
_cell_length_b   11.38610641
_cell_length_c   11.05205954
_cell_angle_alpha   64.37373890
_cell_angle_beta   94.24705381
_cell_angle_gamma   132.66042573
_symmetry_Int_Tables_number   1
_chemical_formula_structural   HfZrTiNb
_chemical_formula_sum   'Hf2 Zr2 Ti2 Nb2'
_cell_volume   904.72510608
_cell_formula_units_Z   2
loop_
 _symmetry_equiv_pos_site_id
 _symmetry_equiv_pos_as_xyz
  1  'x, y, z'
loop_
 _atom_site_type_symbol
 _atom_site_label
 _atom_site_symmetry_multiplicity
 _atom_site_fract_x
 _atom_site_fract_y
 _atom_site_fract_z
 _atom_site_occupancy
  Hf  Hf0  1  0.62792454  0.94801102  0.51324902  1
  Hf  Hf1  1  -0.02125741  0.31052978  0.40380718  1
  Zr  Zr2  1  0.89123167  0.08190317  0.30601135  1
  Zr  Zr3  1  0.54728538  0.66947692  0.80348880  1
  Ti  Ti4  1  -0.13290906  0.81970959  0.78048445  1
  Ti  Ti5  1  1.05786513  0.11072595  0.51038651  1
  Nb  Nb6  1  0.74968787  0.79181967  0.56851454  1
  Nb  Nb7  1  0.83572743  0.04560168  0.67785815  1
