# generated using pymatgen
data_HfZrTiNb
_symmetry_space_group_name_H-M   'P 1'
_cell_length_a   9.81703534
_cell_length_b   11.80881033
_cell_length_c   13.42500705
_cell_angle_alpha   62.57423355
_cell_angle_beta   116.09668557
_cell_angle_gamma   159.21931689
_symmetry_Int_Tables_number   1
_chemical_formula_structural   HfZrTiNb
_chemical_formula_sum   'Hf2 Zr2 Ti2 Nb2'
_cell_volume   489.90109958
_cell_formula_units_Z   2
loop_
 _symmetry_equiv_pos_site_id
 _symmetry_equiv_pos_as_xyz
  1  'x, y, z'
loop_
 _atom_site_type_symbol
 _atom_site_label
 _atom_site_symmetry_multiplicity
 _atom_site_fract_x
 _atom_site_fract_y
 _atom_site_fract_z
 _atom_site_occupancy
  Hf  Hf0  1  0.35857013  0.91643173  -0.09613648  1
  Hf  Hf1  1  0.81909843  0.03312559  0.02308153  1
  Zr  Zr2  1  0.33666163  0.04229624  0.62038789  1
  Zr  Zr3  1  0.98067929  0.39280269  0.05619208  1
  Ti  Ti4  1  0.83850305  0.47155894  0.76935907  1
  Ti  Ti5  1  0.18645034  0.67901699  0.62338060  1
  Nb  Nb6  1  0.75236461  0.14171699  0.75471744  1
  Nb  Nb7  1  0.28322807  0.59516523  0.87661789  1
