# generated using pymatgen
data_HfZrTiNb
_symmetry_space_group_name_H-M   'P 1'
_cell_length_a   9.21288044
_cell_length_b   9.83291086
_cell_length_c   8.22471012
_cell_angle_alpha   65.57065775
_cell_angle_beta   88.23878671
_cell_angle_gamma   146.00652587
_symmetry_Int_Tables_number   1
_chemical_formula_structural   HfZrTiNb
_chemical_formula_sum   'Hf2 Zr2 Ti2 Nb2'
_cell_volume   257.59318337
_cell_formula_units_Z   2
loop_
 _symmetry_equiv_pos_site_id
 _symmetry_equiv_pos_as_xyz
  1  'x, y, z'
loop_
 _atom_site_type_symbol
 _atom_site_label
 _atom_site_symmetry_multiplicity
 _atom_site_fract_x
 _atom_site_fract_y
 _atom_site_fract_z
 _atom_site_occupancy
  Hf  Hf0  1  0.75398968  0.78506018  0.41348175  1
  Hf  Hf1  1  0.51080914  0.31686223  0.13813403  1
  Zr  Zr2  1  0.76855042  0.88634228  0.98062041  1
  Zr  Zr3  1  0.65852862  0.37284192  0.48563924  1
  Ti  Ti4  1  1.14833759  1.13149595  0.54847243  1
  Ti  Ti5  1  0.41578361  0.51102064  0.86456953  1
  Nb  Nb6  1  0.18017608  0.02774081  0.94882841  1
  Nb  Nb7  1  -0.09529070  -0.36092181  0.68405418  1
