# generated using pymatgen
data_HfZrTiNb
_symmetry_space_group_name_H-M   'P 1'
_cell_length_a   12.55492389
_cell_length_b   11.41670142
_cell_length_c   14.36679601
_cell_angle_alpha   96.47742936
_cell_angle_beta   107.26437896
_cell_angle_gamma   121.51875553
_symmetry_Int_Tables_number   1
_chemical_formula_structural   HfZrTiNb
_chemical_formula_sum   'Hf2 Zr2 Ti2 Nb2'
_cell_volume   1582.95589382
_cell_formula_units_Z   2
loop_
 _symmetry_equiv_pos_site_id
 _symmetry_equiv_pos_as_xyz
  1  'x, y, z'
loop_
 _atom_site_type_symbol
 _atom_site_label
 _atom_site_symmetry_multiplicity
 _atom_site_fract_x
 _atom_site_fract_y
 _atom_site_fract_z
 _atom_site_occupancy
  Hf  Hf0  1  0.38201864  0.20401590  0.57802977  1
  Hf  Hf1  1  0.30169297  0.80530428  0.59786471  1
  Zr  Zr2  1  0.54670399  0.45428672  0.22259796  1
  Zr  Zr3  1  0.18521499  -0.03450547  0.63638850  1
  Ti  Ti4  1  0.45345558  0.54583021  0.27745168  1
  Ti  Ti5  1  0.46227711  1.02378089  0.52170769  1
  Nb  Nb6  1  0.46070873  1.08663306  0.70476514  1
  Nb  Nb7  1  1.20792797  0.91465441  0.46119456  1
