# generated using pymatgen
data_HfZrTiNb
_symmetry_space_group_name_H-M   'P 1'
_cell_length_a   13.92056479
_cell_length_b   14.62146327
_cell_length_c   16.19581838
_cell_angle_alpha   83.96113177
_cell_angle_beta   96.34887665
_cell_angle_gamma   122.04268192
_symmetry_Int_Tables_number   1
_chemical_formula_structural   HfZrTiNb
_chemical_formula_sum   'Hf2 Zr2 Ti2 Nb2'
_cell_volume   2772.89538000
_cell_formula_units_Z   2
loop_
 _symmetry_equiv_pos_site_id
 _symmetry_equiv_pos_as_xyz
  1  'x, y, z'
loop_
 _atom_site_type_symbol
 _atom_site_label
 _atom_site_symmetry_multiplicity
 _atom_site_fract_x
 _atom_site_fract_y
 _atom_site_fract_z
 _atom_site_occupancy
  Hf  Hf0  1  0.77777628  0.22157352  0.28224808  1
  Hf  Hf1  1  0.86139029  0.93331212  0.97924577  1
  Zr  Zr2  1  0.07796063  0.02697885  0.01762679  1
  Zr  Zr3  1  0.94953797  0.81748681  0.03502744  1
  Ti  Ti4  1  0.57149387  0.75644904  0.54437311  1
  Ti  Ti5  1  0.78239171  0.86748068  0.48900072  1
  Nb  Nb6  1  0.69157394  0.67196739  0.55169453  1
  Nb  Nb7  1  0.62120865  0.70475158  0.41458357  1
