# generated using pymatgen
data_HfZrTiNb
_symmetry_space_group_name_H-M   'P 1'
_cell_length_a   5.35428227
_cell_length_b   9.75216355
_cell_length_c   7.36882191
_cell_angle_alpha   38.51036410
_cell_angle_beta   137.36261902
_cell_angle_gamma   126.42162256
_symmetry_Int_Tables_number   1
_chemical_formula_structural   HfZrTiNb
_chemical_formula_sum   'Hf2 Zr2 Ti2 Nb2'
_cell_volume   162.13113433
_cell_formula_units_Z   2
loop_
 _symmetry_equiv_pos_site_id
 _symmetry_equiv_pos_as_xyz
  1  'x, y, z'
loop_
 _atom_site_type_symbol
 _atom_site_label
 _atom_site_symmetry_multiplicity
 _atom_site_fract_x
 _atom_site_fract_y
 _atom_site_fract_z
 _atom_site_occupancy
  Hf  Hf0  1  0.69466431  0.03804958  0.25263148  1
  Hf  Hf1  1  0.51756943  0.51821499  0.27695701  1
  Zr  Zr2  1  0.21648111  0.29708790  0.99294924  1
  Zr  Zr3  1  0.50326277  0.01360248  0.75180538  1
  Ti  Ti4  1  0.02547313  0.75069426  0.04923165  1
  Ti  Ti5  1  0.22446962  0.77787281  0.52250452  1
  Nb  Nb6  1  0.71487214  0.55598627  0.74499422  1
  Nb  Nb7  1  0.04576415  0.26693838  0.53132649  1
