# generated using pymatgen
data_HfZrTiNb
_symmetry_space_group_name_H-M   'P 1'
_cell_length_a   14.17174771
_cell_length_b   15.12469855
_cell_length_c   14.04518906
_cell_angle_alpha   88.63649690
_cell_angle_beta   93.29092150
_cell_angle_gamma   116.13922892
_symmetry_Int_Tables_number   1
_chemical_formula_structural   HfZrTiNb
_chemical_formula_sum   'Hf2 Zr2 Ti2 Nb2'
_cell_volume   2698.13841823
_cell_formula_units_Z   2
loop_
 _symmetry_equiv_pos_site_id
 _symmetry_equiv_pos_as_xyz
  1  'x, y, z'
loop_
 _atom_site_type_symbol
 _atom_site_label
 _atom_site_symmetry_multiplicity
 _atom_site_fract_x
 _atom_site_fract_y
 _atom_site_fract_z
 _atom_site_occupancy
  Hf  Hf0  1  0.21070330  0.12252012  0.72473510  1
  Hf  Hf1  1  0.55041349  0.76199507  0.77185108  1
  Zr  Zr2  1  0.12261700  0.21080318  0.77526766  1
  Zr  Zr3  1  0.77777778  0.22222222  0.28190000  1
  Ti  Ti4  1  0.48612305  0.87480002  0.87857470  1
  Ti  Ti5  1  0.69424721  0.91324067  0.88326031  1
  Nb  Nb6  1  0.05744333  0.60922333  0.62500000  1
  Nb  Nb7  1  0.59878706  0.94808650  0.74561114  1
