# generated using pymatgen
data_HfZrTiNb
_symmetry_space_group_name_H-M   'P 1'
_cell_length_a   11.05395418
_cell_length_b   4.35558770
_cell_length_c   12.88570717
_cell_angle_alpha   85.46713829
_cell_angle_beta   76.55618963
_cell_angle_gamma   107.90239281
_symmetry_Int_Tables_number   1
_chemical_formula_structural   HfZrTiNb
_chemical_formula_sum   'Hf2 Zr2 Ti2 Nb2'
_cell_volume   566.54323503
_cell_formula_units_Z   2
loop_
 _symmetry_equiv_pos_site_id
 _symmetry_equiv_pos_as_xyz
  1  'x, y, z'
loop_
 _atom_site_type_symbol
 _atom_site_label
 _atom_site_symmetry_multiplicity
 _atom_site_fract_x
 _atom_site_fract_y
 _atom_site_fract_z
 _atom_site_occupancy
  Hf  Hf0  1  0.31190272  0.43463477  1.04458805  1
  Hf  Hf1  1  0.28108555  0.87346040  0.19776496  1
  Zr  Zr2  1  0.35513050  0.87743335  0.43220954  1
  Zr  Zr3  1  0.56933910  0.55947657  0.36134555  1
  Ti  Ti4  1  0.55239720  0.07259084  0.22839560  1
  Ti  Ti5  1  0.50171985  1.09002132  1.00509251  1
  Nb  Nb6  1  0.53777862  0.58805009  0.11556718  1
  Nb  Nb7  1  0.33509089  0.39322155  0.30123659  1
