# generated using pymatgen
data_HfZrTiNb
_symmetry_space_group_name_H-M   'P 1'
_cell_length_a   7.16056640
_cell_length_b   8.43688237
_cell_length_c   10.09703969
_cell_angle_alpha   72.96106107
_cell_angle_beta   99.53742238
_cell_angle_gamma   139.27838283
_symmetry_Int_Tables_number   1
_chemical_formula_structural   HfZrTiNb
_chemical_formula_sum   'Hf2 Zr2 Ti2 Nb2'
_cell_volume   378.92318545
_cell_formula_units_Z   2
loop_
 _symmetry_equiv_pos_site_id
 _symmetry_equiv_pos_as_xyz
  1  'x, y, z'
loop_
 _atom_site_type_symbol
 _atom_site_label
 _atom_site_symmetry_multiplicity
 _atom_site_fract_x
 _atom_site_fract_y
 _atom_site_fract_z
 _atom_site_occupancy
  Hf  Hf0  1  -0.02343144  0.61290210  1.09953502  1
  Hf  Hf1  1  0.95054552  0.92058169  0.14980464  1
  Zr  Zr2  1  0.05195266  0.46630954  0.91528641  1
  Zr  Zr3  1  0.44050667  0.46509733  0.03388789  1
  Ti  Ti4  1  0.61329218  0.94457544  -0.04122646  1
  Ti  Ti5  1  0.94582244  0.22368073  0.21184418  1
  Nb  Nb6  1  0.42159774  0.70365692  0.22362247  1
  Nb  Nb7  1  0.48860310  0.10764070  0.09344586  1
