# generated using pymatgen
data_HfZrTiNb
_symmetry_space_group_name_H-M   'P 1'
_cell_length_a   5.83909058
_cell_length_b   5.47341603
_cell_length_c   7.31846052
_cell_angle_alpha   110.99044548
_cell_angle_beta   106.49082383
_cell_angle_gamma   117.51353233
_symmetry_Int_Tables_number   1
_chemical_formula_structural   HfZrTiNb
_chemical_formula_sum   'Hf2 Zr2 Ti2 Nb2'
_cell_volume   162.68071012
_cell_formula_units_Z   2
loop_
 _symmetry_equiv_pos_site_id
 _symmetry_equiv_pos_as_xyz
  1  'x, y, z'
loop_
 _atom_site_type_symbol
 _atom_site_label
 _atom_site_symmetry_multiplicity
 _atom_site_fract_x
 _atom_site_fract_y
 _atom_site_fract_z
 _atom_site_occupancy
  Hf  Hf0  1  0.62264140  0.19338535  0.18573023  1
  Hf  Hf1  1  -0.01530167  0.98567409  0.02570902  1
  Zr  Zr2  1  0.93721012  -0.03327080  0.46998237  1
  Zr  Zr3  1  0.78157844  0.29236419  0.82276279  1
  Ti  Ti4  1  0.41583115  0.48299245  0.97017455  1
  Ti  Ti5  1  0.47978729  0.47769362  0.52830575  1
  Nb  Nb6  1  1.14231775  0.67114772  0.67340387  1
  Nb  Nb7  1  0.29882663  0.76145894  0.32393141  1
