# generated using pymatgen
data_HfZrTiNb
_symmetry_space_group_name_H-M   'P 1'
_cell_length_a   11.64585738
_cell_length_b   11.26963039
_cell_length_c   4.35066972
_cell_angle_alpha   70.43340562
_cell_angle_beta   106.36848705
_cell_angle_gamma   122.95290246
_symmetry_Int_Tables_number   1
_chemical_formula_structural   HfZrTiNb
_chemical_formula_sum   'Hf2 Zr2 Ti2 Nb2'
_cell_volume   447.86922333
_cell_formula_units_Z   2
loop_
 _symmetry_equiv_pos_site_id
 _symmetry_equiv_pos_as_xyz
  1  'x, y, z'
loop_
 _atom_site_type_symbol
 _atom_site_label
 _atom_site_symmetry_multiplicity
 _atom_site_fract_x
 _atom_site_fract_y
 _atom_site_fract_z
 _atom_site_occupancy
  Hf  Hf0  1  0.98308710  0.16045599  0.76532500  1
  Hf  Hf1  1  0.56562202  0.00086535  0.09931683  1
  Zr  Zr2  1  0.12960483  0.35602885  0.20461016  1
  Zr  Zr3  1  0.02375810  0.46127068  0.55100702  1
  Ti  Ti4  1  0.85888851  0.30717449  0.05283881  1
  Ti  Ti5  1  0.72188159  0.17735948  0.55938125  1
  Nb  Nb6  1  0.67013183  0.90154855  0.76068082  1
  Nb  Nb7  1  0.82480380  0.02984883  0.25684010  1
