# generated using pymatgen
data_HfZrTiNb
_symmetry_space_group_name_H-M   'P 1'
_cell_length_a   8.79038352
_cell_length_b   5.78108983
_cell_length_c   11.54532573
_cell_angle_alpha   120.01629956
_cell_angle_beta   33.36967272
_cell_angle_gamma   103.79215068
_symmetry_Int_Tables_number   1
_chemical_formula_structural   HfZrTiNb
_chemical_formula_sum   'Hf2 Zr2 Ti2 Nb2'
_cell_volume   258.85636201
_cell_formula_units_Z   2
loop_
 _symmetry_equiv_pos_site_id
 _symmetry_equiv_pos_as_xyz
  1  'x, y, z'
loop_
 _atom_site_type_symbol
 _atom_site_label
 _atom_site_symmetry_multiplicity
 _atom_site_fract_x
 _atom_site_fract_y
 _atom_site_fract_z
 _atom_site_occupancy
  Hf  Hf0  1  0.64631454  0.10617988  0.81004246  1
  Hf  Hf1  1  0.47621693  0.68510293  0.92263581  1
  Zr  Zr2  1  0.51162361  0.55199282  0.60466585  1
  Zr  Zr3  1  1.04099923  0.24755501  0.40849174  1
  Ti  Ti4  1  0.07841713  0.62592724  0.31258241  1
  Ti  Ti5  1  -0.03812255  0.60133949  0.14626180  1
  Nb  Nb6  1  0.54071388  1.09668449  0.63240822  1
  Nb  Nb7  1  0.06961946  0.08144262  0.09911171  1
