# generated using pymatgen
data_HfZrTiNb
_symmetry_space_group_name_H-M   'P 1'
_cell_length_a   12.46965714
_cell_length_b   15.05570402
_cell_length_c   16.16944577
_cell_angle_alpha   88.71924849
_cell_angle_beta   77.99141056
_cell_angle_gamma   129.17638518
_symmetry_Int_Tables_number   1
_chemical_formula_structural   HfZrTiNb
_chemical_formula_sum   'Hf2 Zr2 Ti2 Nb2'
_cell_volume   2253.91011904
_cell_formula_units_Z   2
loop_
 _symmetry_equiv_pos_site_id
 _symmetry_equiv_pos_as_xyz
  1  'x, y, z'
loop_
 _atom_site_type_symbol
 _atom_site_label
 _atom_site_symmetry_multiplicity
 _atom_site_fract_x
 _atom_site_fract_y
 _atom_site_fract_z
 _atom_site_occupancy
  Hf  Hf0  1  0.36135314  0.15879726  1.00581814  1
  Hf  Hf1  1  0.74195713  0.88681219  0.66243367  1
  Zr  Zr2  1  0.88515361  0.10143761  0.69922136  1
  Zr  Zr3  1  0.77777778  0.55555556  0.46810000  1
  Ti  Ti4  1  0.03147451  0.04330856  0.60369312  1
  Ti  Ti5  1  0.89697030  0.07955275  0.53465185  1
  Nb  Nb6  1  0.14053463  1.00598163  0.08728186  1
  Nb  Nb7  1  0.21844667  0.60922333  0.12500000  1
