# generated using pymatgen
data_HfZrTiNb
_symmetry_space_group_name_H-M   'P 1'
_cell_length_a   12.33070136
_cell_length_b   12.34564706
_cell_length_c   14.53553336
_cell_angle_alpha   84.56987816
_cell_angle_beta   106.16345740
_cell_angle_gamma   124.70820754
_symmetry_Int_Tables_number   1
_chemical_formula_structural   HfZrTiNb
_chemical_formula_sum   'Hf2 Zr2 Ti2 Nb2'
_cell_volume   1741.38987716
_cell_formula_units_Z   2
loop_
 _symmetry_equiv_pos_site_id
 _symmetry_equiv_pos_as_xyz
  1  'x, y, z'
loop_
 _atom_site_type_symbol
 _atom_site_label
 _atom_site_symmetry_multiplicity
 _atom_site_fract_x
 _atom_site_fract_y
 _atom_site_fract_z
 _atom_site_occupancy
  Hf  Hf0  1  0.89864348  0.04463611  0.23834767  1
  Hf  Hf1  1  -0.02980265  0.51726417  0.96123767  1
  Zr  Zr2  1  0.83094836  0.79835003  0.31267708  1
  Zr  Zr3  1  0.16311478  0.13154367  0.19973805  1
  Ti  Ti4  1  0.14726945  0.21310298  0.36070773  1
  Ti  Ti5  1  0.10620620  -0.01592816  0.36403344  1
  Nb  Nb6  1  0.75005555  0.42932609  0.88210578  1
  Nb  Nb7  1  0.96123480  0.88170512  0.18115259  1
