# generated using pymatgen
data_HfZrTiNb
_symmetry_space_group_name_H-M   'P 1'
_cell_length_a   14.91301919
_cell_length_b   15.26444584
_cell_length_c   16.19121221
_cell_angle_alpha   87.62049718
_cell_angle_beta   93.22378266
_cell_angle_gamma   117.36708514
_symmetry_Int_Tables_number   1
_chemical_formula_structural   HfZrTiNb
_chemical_formula_sum   'Hf2 Zr2 Ti2 Nb2'
_cell_volume   3267.55016819
_cell_formula_units_Z   2
loop_
 _symmetry_equiv_pos_site_id
 _symmetry_equiv_pos_as_xyz
  1  'x, y, z'
loop_
 _atom_site_type_symbol
 _atom_site_label
 _atom_site_symmetry_multiplicity
 _atom_site_fract_x
 _atom_site_fract_y
 _atom_site_fract_z
 _atom_site_occupancy
  Hf  Hf0  1  0.44444444  0.88888889  0.78190000  1
  Hf  Hf1  1  0.79147742  0.54193088  0.77405095  1
  Zr  Zr2  1  0.22222222  0.77777778  0.21810000  1
  Zr  Zr3  1  0.87518925  0.45806912  0.72594905  1
  Ti  Ti4  1  0.73618052  0.23001518  0.26212874  1
  Ti  Ti5  1  0.77777778  0.88888889  0.46810000  1
  Nb  Nb6  1  0.59677275  0.22824468  0.33088329  1
  Nb  Nb7  1  0.60582783  0.25829903  0.18888796  1
