# generated using pymatgen
data_HfZrTiNb
_symmetry_space_group_name_H-M   'P 1'
_cell_length_a   5.27983919
_cell_length_b   8.08347061
_cell_length_c   10.24259786
_cell_angle_alpha   91.08338533
_cell_angle_beta   91.29868684
_cell_angle_gamma   134.29127813
_symmetry_Int_Tables_number   1
_chemical_formula_structural   HfZrTiNb
_chemical_formula_sum   'Hf2 Zr2 Ti2 Nb2'
_cell_volume   312.46116080
_cell_formula_units_Z   2
loop_
 _symmetry_equiv_pos_site_id
 _symmetry_equiv_pos_as_xyz
  1  'x, y, z'
loop_
 _atom_site_type_symbol
 _atom_site_label
 _atom_site_symmetry_multiplicity
 _atom_site_fract_x
 _atom_site_fract_y
 _atom_site_fract_z
 _atom_site_occupancy
  Hf  Hf0  1  0.15426915  0.59423086  0.63655532  1
  Hf  Hf1  1  0.23276090  0.43687582  -0.11212777  1
  Zr  Zr2  1  0.67720813  0.10596209  0.61855689  1
  Zr  Zr3  1  0.89841103  0.83255437  0.61779305  1
  Ti  Ti4  1  -0.01954906  -0.31027673  0.86584778  1
  Ti  Ti5  1  0.47461969  0.17360435  0.86190427  1
  Nb  Nb6  1  0.73616595  0.93793173  0.85215341  1
  Nb  Nb7  1  0.40166979  0.34022863  0.65931706  1
