# generated using pymatgen
data_HfZrTiNb
_symmetry_space_group_name_H-M   'P 1'
_cell_length_a   4.91681237
_cell_length_b   5.38251931
_cell_length_c   8.16940737
_cell_angle_alpha   88.07344681
_cell_angle_beta   114.84836198
_cell_angle_gamma   118.20992779
_symmetry_Int_Tables_number   1
_chemical_formula_structural   HfZrTiNb
_chemical_formula_sum   'Hf2 Zr2 Ti2 Nb2'
_cell_volume   169.16255166
_cell_formula_units_Z   2
loop_
 _symmetry_equiv_pos_site_id
 _symmetry_equiv_pos_as_xyz
  1  'x, y, z'
loop_
 _atom_site_type_symbol
 _atom_site_label
 _atom_site_symmetry_multiplicity
 _atom_site_fract_x
 _atom_site_fract_y
 _atom_site_fract_z
 _atom_site_occupancy
  Hf  Hf0  1  0.25864956  0.69595221  -0.08336717  1
  Hf  Hf1  1  0.47479041  0.56804418  0.53291273  1
  Zr  Zr2  1  0.99090969  0.73724680  0.24131635  1
  Zr  Zr3  1  -0.03515043  0.06716247  0.93967371  1
  Ti  Ti4  1  0.81344491  0.24288901  0.58286444  1
  Ti  Ti5  1  0.56830631  1.35525421  0.88479446  1
  Nb  Nb6  1  0.70582684  0.12401998  0.24730302  1
  Nb  Nb7  1  0.16577937  0.93354113  0.59070241  1
