# generated using pymatgen
data_HfZrTiNb
_symmetry_space_group_name_H-M   'P 1'
_cell_length_a   5.23945476
_cell_length_b   11.74677439
_cell_length_c   8.17612173
_cell_angle_alpha   103.07167152
_cell_angle_beta   45.83314961
_cell_angle_gamma   116.24014255
_symmetry_Int_Tables_number   1
_chemical_formula_structural   HfZrTiNb
_chemical_formula_sum   'Hf2 Zr2 Ti2 Nb2'
_cell_volume   321.13129769
_cell_formula_units_Z   2
loop_
 _symmetry_equiv_pos_site_id
 _symmetry_equiv_pos_as_xyz
  1  'x, y, z'
loop_
 _atom_site_type_symbol
 _atom_site_label
 _atom_site_symmetry_multiplicity
 _atom_site_fract_x
 _atom_site_fract_y
 _atom_site_fract_z
 _atom_site_occupancy
  Hf  Hf0  1  0.79041188  0.27456578  0.75711650  1
  Hf  Hf1  1  0.03990330  0.27788217  1.00867848  1
  Zr  Zr2  1  0.82718440  0.52989566  0.27237330  1
  Zr  Zr3  1  0.27139776  0.26952549  0.26951669  1
  Ti  Ti4  1  0.02910532  0.50890474  0.54757501  1
  Ti  Ti5  1  0.28411504  0.50625486  0.78337370  1
  Nb  Nb6  1  0.51865346  0.49585550  0.04575351  1
  Nb  Nb7  1  0.57633779  0.30567026  0.50181280  1
