# generated using pymatgen
data_HfZrTiNb
_symmetry_space_group_name_H-M   'P 1'
_cell_length_a   7.79922199
_cell_length_b   7.75267939
_cell_length_c   5.80972946
_cell_angle_alpha   70.88681646
_cell_angle_beta   131.14411236
_cell_angle_gamma   139.06614099
_symmetry_Int_Tables_number   1
_chemical_formula_structural   HfZrTiNb
_chemical_formula_sum   'Hf2 Zr2 Ti2 Nb2'
_cell_volume   162.75643172
_cell_formula_units_Z   2
loop_
 _symmetry_equiv_pos_site_id
 _symmetry_equiv_pos_as_xyz
  1  'x, y, z'
loop_
 _atom_site_type_symbol
 _atom_site_label
 _atom_site_symmetry_multiplicity
 _atom_site_fract_x
 _atom_site_fract_y
 _atom_site_fract_z
 _atom_site_occupancy
  Hf  Hf0  1  0.99143636  0.93165408  0.61809855  1
  Hf  Hf1  1  0.83551186  0.42148555  0.40005962  1
  Zr  Zr2  1  0.25270683  0.42084489  0.42446361  1
  Zr  Zr3  1  0.38887683  0.83939060  1.07048068  1
  Ti  Ti4  1  1.08106807  0.91611376  0.19100307  1
  Ti  Ti5  1  0.37278297  0.44605678  0.02230869  1
  Nb  Nb6  1  -0.36873581  -0.04338184  0.73960902  1
  Nb  Nb7  1  0.66857512  0.35127733  0.78397676  1
