# generated using pymatgen
data_HfZrTiNb
_symmetry_space_group_name_H-M   'P 1'
_cell_length_a   11.37180795
_cell_length_b   12.79459279
_cell_length_c   13.36849666
_cell_angle_alpha   80.30016757
_cell_angle_beta   97.24470307
_cell_angle_gamma   129.28041004
_symmetry_Int_Tables_number   1
_chemical_formula_structural   HfZrTiNb
_chemical_formula_sum   'Hf2 Zr2 Ti2 Nb2'
_cell_volume   1483.60025190
_cell_formula_units_Z   2
loop_
 _symmetry_equiv_pos_site_id
 _symmetry_equiv_pos_as_xyz
  1  'x, y, z'
loop_
 _atom_site_type_symbol
 _atom_site_label
 _atom_site_symmetry_multiplicity
 _atom_site_fract_x
 _atom_site_fract_y
 _atom_site_fract_z
 _atom_site_occupancy
  Hf  Hf0  1  1.03732073  0.55252386  0.00670343  1
  Hf  Hf1  1  0.44444444  0.22222222  0.28190000  1
  Zr  Zr2  1  0.83953254  0.43449711  0.83450440  1
  Zr  Zr3  1  0.99907809  0.59303225  0.64942703  1
  Ti  Ti4  1  0.97176478  0.32482480  -0.05275463  1
  Ti  Ti5  1  0.04808413  0.42366312  0.75238963  1
  Nb  Nb6  1  0.23683006  0.54994708  0.90219407  1
  Nb  Nb7  1  0.14705522  0.68084288  0.81703607  1
