# generated using pymatgen
data_HfZrTiNb
_symmetry_space_group_name_H-M   'P 1'
_cell_length_a   10.54054936
_cell_length_b   11.65079843
_cell_length_c   9.93742581
_cell_angle_alpha   58.95210714
_cell_angle_beta   112.70529201
_cell_angle_gamma   123.75603165
_symmetry_Int_Tables_number   1
_chemical_formula_structural   HfZrTiNb
_chemical_formula_sum   'Hf2 Zr2 Ti2 Nb2'
_cell_volume   860.76549121
_cell_formula_units_Z   2
loop_
 _symmetry_equiv_pos_site_id
 _symmetry_equiv_pos_as_xyz
  1  'x, y, z'
loop_
 _atom_site_type_symbol
 _atom_site_label
 _atom_site_symmetry_multiplicity
 _atom_site_fract_x
 _atom_site_fract_y
 _atom_site_fract_z
 _atom_site_occupancy
  Hf  Hf0  1  0.63427585  0.35140907  0.69250776  1
  Hf  Hf1  1  0.94279210  0.41195492  0.57440942  1
  Zr  Zr2  1  0.75509925  0.12186907  0.79700391  1
  Zr  Zr3  1  0.97019986  0.42084218  -0.12895798  1
  Ti  Ti4  1  0.62370840  0.24276268  0.48616059  1
  Ti  Ti5  1  -0.09590574  0.63150944  0.58281188  1
  Nb  Nb6  1  0.72653677  0.51896649  0.38328544  1
  Nb  Nb7  1  0.72673464  1.18957506  -0.00962100  1
