# generated using pymatgen
data_HfZrTiNb
_symmetry_space_group_name_H-M   'P 1'
_cell_length_a   11.50170438
_cell_length_b   12.99243445
_cell_length_c   4.74511156
_cell_angle_alpha   81.66052041
_cell_angle_beta   82.40255757
_cell_angle_gamma   121.35551453
_symmetry_Int_Tables_number   1
_chemical_formula_structural   HfZrTiNb
_chemical_formula_sum   'Hf2 Zr2 Ti2 Nb2'
_cell_volume   580.74439368
_cell_formula_units_Z   2
loop_
 _symmetry_equiv_pos_site_id
 _symmetry_equiv_pos_as_xyz
  1  'x, y, z'
loop_
 _atom_site_type_symbol
 _atom_site_label
 _atom_site_symmetry_multiplicity
 _atom_site_fract_x
 _atom_site_fract_y
 _atom_site_fract_z
 _atom_site_occupancy
  Hf  Hf0  1  0.85129521  0.53129027  -0.04668761  1
  Hf  Hf1  1  0.44236001  0.31531846  0.67897069  1
  Zr  Zr2  1  0.57719064  0.29206104  0.13927389  1
  Zr  Zr3  1  0.74234359  0.32110931  0.58086071  1
  Ti  Ti4  1  0.56129933  0.50359760  0.06652939  1
  Ti  Ti5  1  -0.01678487  0.55271015  0.40236853  1
  Nb  Nb6  1  0.50670360  0.55750134  0.55927821  1
  Nb  Nb7  1  0.71881807  0.53185963  0.49700621  1
