# generated using pymatgen
data_HfZrTiNb
_symmetry_space_group_name_H-M   'P 1'
_cell_length_a   10.56859480
_cell_length_b   9.82966285
_cell_length_c   9.24125224
_cell_angle_alpha   77.58250785
_cell_angle_beta   79.59090647
_cell_angle_gamma   103.02934174
_symmetry_Int_Tables_number   1
_chemical_formula_structural   HfZrTiNb
_chemical_formula_sum   'Hf2 Zr2 Ti2 Nb2'
_cell_volume   886.54949865
_cell_formula_units_Z   2
loop_
 _symmetry_equiv_pos_site_id
 _symmetry_equiv_pos_as_xyz
  1  'x, y, z'
loop_
 _atom_site_type_symbol
 _atom_site_label
 _atom_site_symmetry_multiplicity
 _atom_site_fract_x
 _atom_site_fract_y
 _atom_site_fract_z
 _atom_site_occupancy
  Hf  Hf0  1  1.04281919  1.13036141  0.97257650  1
  Hf  Hf1  1  0.83532486  0.19469358  0.80806447  1
  Zr  Zr2  1  0.07059587  0.03534438  0.68237789  1
  Zr  Zr3  1  0.78709309  0.91711345  0.76135902  1
  Ti  Ti4  1  0.76787514  -0.02286653  0.08157695  1
  Ti  Ti5  1  0.69500768  0.71698914  0.04162226  1
  Nb  Nb6  1  -0.06010129  0.84480822  -0.03017907  1
  Nb  Nb7  1  0.08738325  0.30221858  0.68260199  1
