# generated using pymatgen
data_Ba16.56Sr5.04La8.64Pr41.76Mn72O216
_symmetry_space_group_name_H-M   'P 1'
_cell_length_a   16.47753000
_cell_length_b   15.52046000
_cell_length_c   16.58277000
_cell_angle_alpha   90.00000000
_cell_angle_beta   90.00000000
_cell_angle_gamma   90.00000000
_symmetry_Int_Tables_number   1
_chemical_formula_structural   Ba16.56Sr5.04La8.64Pr41.76Mn72O216
_chemical_formula_sum   'Ba16.56 Sr5.04 La8.64 Pr41.76 Mn72 O216'
_cell_volume   4240.85845108
_cell_formula_units_Z   1
loop_
 _symmetry_equiv_pos_site_id
 _symmetry_equiv_pos_as_xyz
  1  'x, y, z'
loop_
 _atom_site_type_symbol
 _atom_site_label
 _atom_site_symmetry_multiplicity
 _atom_site_fract_x
 _atom_site_fract_y
 _atom_site_fract_z
 _atom_site_occupancy
  Ba  Sr  1  0.00000000  0.62500000  0.33276667  1.0
  Ba  Sr  1  0.33333333  0.37500000  0.66723333  1.0
  Ba  Sr  1  0.50000000  0.87500000  0.49943333  1.0
  Ba  Sr  1  0.00000000  0.37500000  0.33390000  1.0
  Ba  Sr  1  0.16666667  0.87500000  0.16610000  1.0
  Ba  Sr  1  0.83333333  0.37500000  0.83276667  1.0
  Ba  Sr  1  0.33333333  0.62500000  0.33276667  1.0
  Ba  Sr  1  0.66666667  0.87500000  0.00056667  1.0
  Ba  Sr  1  0.16666667  0.87500000  0.49943333  1.0
  Ba  Sr  1  0.16666667  0.62500000  0.50056667  1.0
  Ba  Sr  1  0.33333333  0.62500000  0.66610000  1.0
  Ba  Sr  1  0.66666667  0.37500000  0.33390000  1.0
  Ba  Sr  1  0.50000000  0.87500000  0.83276667  1.0
  Ba  Sr  1  0.66666667  0.87500000  0.66723333  1.0
  Ba  Sr  1  0.33333333  0.37500000  0.33390000  1.0
  Ba  Sr  1  0.83333333  0.87500000  0.49943333  1.0
  Ba  Sr  1  0.00000000  0.37500000  0.66723333  1.0
  Sr  Sr  1  0.66666667  0.62500000  0.99943333  1.0
  Sr  Sr  1  0.83333333  0.12500000  0.50056667  1.0
  Sr  Sr  1  0.83333333  0.37500000  0.49943333  1.0
  Sr  Sr  1  0.50000000  0.62500000  0.16723333  1.0
  Sr  Sr  1  0.16666667  0.12500000  0.16723333  1.0
  La  Sr  1  0.50000000  0.37500000  0.49943333  1.0
  La  Sr  1  0.66666667  0.62500000  0.66610000  1.0
  La  Sr  1  0.33333333  0.37500000  0.00056667  1.0
  La  Sr  1  0.66666667  0.62500000  0.33276667  1.0
  La  Sr  1  0.83333333  0.37500000  0.16610000  1.0
  La  Sr  1  0.00000000  0.62500000  0.99943333  1.0
  La  Sr  1  0.00000000  0.87500000  0.33390000  1.0
  La  Sr  1  0.83333333  0.62500000  0.50056667  1.0
  Pr  Sr  1  0.50000000  0.12500000  0.83390000  1.0
  Pr  Sr  1  0.66666667  0.12500000  0.33276667  1.0
  Pr  Sr  1  0.33333333  0.12500000  0.33276667  1.0
  Pr  Sr  1  0.66666667  0.87500000  0.33390000  1.0
  Pr  Sr  1  0.33333333  0.12500000  0.99943333  1.0
  Pr  Sr  1  0.83333333  0.87500000  0.16610000  1.0
  Pr  Sr  1  0.66666667  0.37500000  0.00056667  1.0
  Pr  Sr  1  0.00000000  0.87500000  0.66723333  1.0
  Pr  Sr  1  0.83333333  0.62500000  0.16723333  1.0
  Pr  Sr  1  0.16666667  0.37500000  0.83276667  1.0
  Pr  Sr  1  0.83333333  0.87500000  0.83276667  1.0
  Pr  Sr  1  0.83333333  0.12500000  0.16723333  1.0
  Pr  Sr  1  0.50000000  0.62500000  0.50056667  1.0
  Pr  Sr  1  0.66666667  0.37500000  0.66723333  1.0
  Pr  Sr  1  0.00000000  0.37500000  0.00056667  1.0
  Pr  Sr  1  0.83333333  0.62500000  0.83390000  1.0
  Pr  Sr  1  0.66666667  0.12500000  0.99943333  1.0
  Pr  Sr  1  0.33333333  0.87500000  0.66723333  1.0
  Pr  Sr  1  0.00000000  0.12500000  0.66610000  1.0
  Pr  Sr  1  0.33333333  0.87500000  0.33390000  1.0
  Pr  Sr  1  0.00000000  0.62500000  0.66610000  1.0
  Pr  Sr  1  0.50000000  0.62500000  0.83390000  1.0
  Pr  Sr  1  0.00000000  0.12500000  0.99943333  1.0
  Pr  Sr  1  0.50000000  0.37500000  0.16610000  1.0
  Pr  Sr  1  0.16666667  0.37500000  0.16610000  1.0
  Pr  Sr  1  0.50000000  0.12500000  0.50056667  1.0
  Pr  Sr  1  0.50000000  0.12500000  0.16723333  1.0
  Pr  Sr  1  0.00000000  0.12500000  0.33276667  1.0
  Pr  Sr  1  0.66666667  0.12500000  0.66610000  1.0
  Pr  Sr  1  0.16666667  0.87500000  0.83276667  1.0
  Pr  Sr  1  0.16666667  0.12500000  0.83390000  1.0
  Pr  Sr  1  0.33333333  0.62500000  0.99943333  1.0
  Pr  Sr  1  0.00000000  0.87500000  0.00056667  1.0
  Pr  Sr  1  0.33333333  0.87500000  0.00056667  1.0
  Pr  Sr  1  0.33333333  0.12500000  0.66610000  1.0
  Pr  Sr  1  0.50000000  0.87500000  0.16610000  1.0
  Pr  Sr  1  0.16666667  0.62500000  0.83390000  1.0
  Pr  Sr  1  0.16666667  0.37500000  0.49943333  1.0
  Pr  Sr  1  0.16666667  0.12500000  0.50056667  1.0
  Pr  Sr  1  0.16666667  0.62500000  0.16723333  1.0
  Pr  Sr  1  0.50000000  0.37500000  0.83276667  1.0
  Pr  Sr  1  0.83333333  0.12500000  0.83390000  1.0
  Mn  Mn288  1  0.00000000  0.00000000  0.16666667  1.0
  Mn  Mn289  1  0.00000000  0.00000000  0.50000000  1.0
  Mn  Mn290  1  0.00000000  0.00000000  0.83333333  1.0
  Mn  Mn291  1  0.00000000  0.50000000  0.16666667  1.0
  Mn  Mn292  1  0.00000000  0.50000000  0.50000000  1.0
  Mn  Mn293  1  0.00000000  0.50000000  0.83333333  1.0
  Mn  Mn294  1  0.33333333  0.00000000  0.16666667  1.0
  Mn  Mn295  1  0.33333333  0.00000000  0.50000000  1.0
  Mn  Mn296  1  0.33333333  0.00000000  0.83333333  1.0
  Mn  Mn297  1  0.33333333  0.50000000  0.16666667  1.0
  Mn  Mn298  1  0.33333333  0.50000000  0.50000000  1.0
  Mn  Mn299  1  0.33333333  0.50000000  0.83333333  1.0
  Mn  Mn300  1  0.66666667  0.00000000  0.16666667  1.0
  Mn  Mn301  1  0.66666667  0.00000000  0.50000000  1.0
  Mn  Mn302  1  0.66666667  0.00000000  0.83333333  1.0
  Mn  Mn303  1  0.66666667  0.50000000  0.16666667  1.0
  Mn  Mn304  1  0.66666667  0.50000000  0.50000000  1.0
  Mn  Mn305  1  0.66666667  0.50000000  0.83333333  1.0
  Mn  Mn306  1  0.00000000  0.25000000  0.16666667  1.0
  Mn  Mn307  1  0.00000000  0.25000000  0.50000000  1.0
  Mn  Mn308  1  0.00000000  0.25000000  0.83333333  1.0
  Mn  Mn309  1  0.00000000  0.75000000  0.16666667  1.0
  Mn  Mn310  1  0.00000000  0.75000000  0.50000000  1.0
  Mn  Mn311  1  0.00000000  0.75000000  0.83333333  1.0
  Mn  Mn312  1  0.33333333  0.25000000  0.16666667  1.0
  Mn  Mn313  1  0.33333333  0.25000000  0.50000000  1.0
  Mn  Mn314  1  0.33333333  0.25000000  0.83333333  1.0
  Mn  Mn315  1  0.33333333  0.75000000  0.16666667  1.0
  Mn  Mn316  1  0.33333333  0.75000000  0.50000000  1.0
  Mn  Mn317  1  0.33333333  0.75000000  0.83333333  1.0
  Mn  Mn318  1  0.66666667  0.25000000  0.16666667  1.0
  Mn  Mn319  1  0.66666667  0.25000000  0.50000000  1.0
  Mn  Mn320  1  0.66666667  0.25000000  0.83333333  1.0
  Mn  Mn321  1  0.66666667  0.75000000  0.16666667  1.0
  Mn  Mn322  1  0.66666667  0.75000000  0.50000000  1.0
  Mn  Mn323  1  0.66666667  0.75000000  0.83333333  1.0
  Mn  Mn324  1  0.16666667  0.25000000  0.00000000  1.0
  Mn  Mn325  1  0.16666667  0.25000000  0.33333333  1.0
  Mn  Mn326  1  0.16666667  0.25000000  0.66666667  1.0
  Mn  Mn327  1  0.16666667  0.75000000  0.00000000  1.0
  Mn  Mn328  1  0.16666667  0.75000000  0.33333333  1.0
  Mn  Mn329  1  0.16666667  0.75000000  0.66666667  1.0
  Mn  Mn330  1  0.50000000  0.25000000  0.00000000  1.0
  Mn  Mn331  1  0.50000000  0.25000000  0.33333333  1.0
  Mn  Mn332  1  0.50000000  0.25000000  0.66666667  1.0
  Mn  Mn333  1  0.50000000  0.75000000  0.00000000  1.0
  Mn  Mn334  1  0.50000000  0.75000000  0.33333333  1.0
  Mn  Mn335  1  0.50000000  0.75000000  0.66666667  1.0
  Mn  Mn336  1  0.83333333  0.25000000  0.00000000  1.0
  Mn  Mn337  1  0.83333333  0.25000000  0.33333333  1.0
  Mn  Mn338  1  0.83333333  0.25000000  0.66666667  1.0
  Mn  Mn339  1  0.83333333  0.75000000  0.00000000  1.0
  Mn  Mn340  1  0.83333333  0.75000000  0.33333333  1.0
  Mn  Mn341  1  0.83333333  0.75000000  0.66666667  1.0
  Mn  Mn342  1  0.16666667  0.00000000  0.00000000  1.0
  Mn  Mn343  1  0.16666667  0.00000000  0.33333333  1.0
  Mn  Mn344  1  0.16666667  0.00000000  0.66666667  1.0
  Mn  Mn345  1  0.16666667  0.50000000  0.00000000  1.0
  Mn  Mn346  1  0.16666667  0.50000000  0.33333333  1.0
  Mn  Mn347  1  0.16666667  0.50000000  0.66666667  1.0
  Mn  Mn348  1  0.50000000  0.00000000  0.00000000  1.0
  Mn  Mn349  1  0.50000000  0.00000000  0.33333333  1.0
  Mn  Mn350  1  0.50000000  0.00000000  0.66666667  1.0
  Mn  Mn351  1  0.50000000  0.50000000  0.00000000  1.0
  Mn  Mn352  1  0.50000000  0.50000000  0.33333333  1.0
  Mn  Mn353  1  0.50000000  0.50000000  0.66666667  1.0
  Mn  Mn354  1  0.83333333  0.00000000  0.00000000  1.0
  Mn  Mn355  1  0.83333333  0.00000000  0.33333333  1.0
  Mn  Mn356  1  0.83333333  0.00000000  0.66666667  1.0
  Mn  Mn357  1  0.83333333  0.50000000  0.00000000  1.0
  Mn  Mn358  1  0.83333333  0.50000000  0.33333333  1.0
  Mn  Mn359  1  0.83333333  0.50000000  0.66666667  1.0
  O  O1  1  0.16666667  0.12500000  0.01666667  1.0
  O  O1  1  0.16666667  0.12500000  0.35000000  1.0
  O  O1  1  0.16666667  0.12500000  0.68333333  1.0
  O  O1  1  0.16666667  0.62500000  0.01666667  1.0
  O  O1  1  0.16666667  0.62500000  0.35000000  1.0
  O  O1  1  0.16666667  0.62500000  0.68333333  1.0
  O  O1  1  0.50000000  0.12500000  0.01666667  1.0
  O  O1  1  0.50000000  0.12500000  0.35000000  1.0
  O  O1  1  0.50000000  0.12500000  0.68333333  1.0
  O  O1  1  0.50000000  0.62500000  0.01666667  1.0
  O  O1  1  0.50000000  0.62500000  0.35000000  1.0
  O  O1  1  0.50000000  0.62500000  0.68333333  1.0
  O  O1  1  0.83333333  0.12500000  0.01666667  1.0
  O  O1  1  0.83333333  0.12500000  0.35000000  1.0
  O  O1  1  0.83333333  0.12500000  0.68333333  1.0
  O  O1  1  0.83333333  0.62500000  0.01666667  1.0
  O  O1  1  0.83333333  0.62500000  0.35000000  1.0
  O  O1  1  0.83333333  0.62500000  0.68333333  1.0
  O  O1  1  0.16666667  0.37500000  0.31666667  1.0
  O  O1  1  0.16666667  0.37500000  0.65000000  1.0
  O  O1  1  0.16666667  0.37500000  0.98333333  1.0
  O  O1  1  0.16666667  0.87500000  0.31666667  1.0
  O  O1  1  0.16666667  0.87500000  0.65000000  1.0
  O  O1  1  0.16666667  0.87500000  0.98333333  1.0
  O  O1  1  0.50000000  0.37500000  0.31666667  1.0
  O  O1  1  0.50000000  0.37500000  0.65000000  1.0
  O  O1  1  0.50000000  0.37500000  0.98333333  1.0
  O  O1  1  0.50000000  0.87500000  0.31666667  1.0
  O  O1  1  0.50000000  0.87500000  0.65000000  1.0
  O  O1  1  0.50000000  0.87500000  0.98333333  1.0
  O  O1  1  0.83333333  0.37500000  0.31666667  1.0
  O  O1  1  0.83333333  0.37500000  0.65000000  1.0
  O  O1  1  0.83333333  0.37500000  0.98333333  1.0
  O  O1  1  0.83333333  0.87500000  0.31666667  1.0
  O  O1  1  0.83333333  0.87500000  0.65000000  1.0
  O  O1  1  0.83333333  0.87500000  0.98333333  1.0
  O  O1  1  0.00000000  0.37500000  0.18333333  1.0
  O  O1  1  0.00000000  0.37500000  0.51666667  1.0
  O  O1  1  0.00000000  0.37500000  0.85000000  1.0
  O  O1  1  0.00000000  0.87500000  0.18333333  1.0
  O  O1  1  0.00000000  0.87500000  0.51666667  1.0
  O  O1  1  0.00000000  0.87500000  0.85000000  1.0
  O  O1  1  0.33333333  0.37500000  0.18333333  1.0
  O  O1  1  0.33333333  0.37500000  0.51666667  1.0
  O  O1  1  0.33333333  0.37500000  0.85000000  1.0
  O  O1  1  0.33333333  0.87500000  0.18333333  1.0
  O  O1  1  0.33333333  0.87500000  0.51666667  1.0
  O  O1  1  0.33333333  0.87500000  0.85000000  1.0
  O  O1  1  0.66666667  0.37500000  0.18333333  1.0
  O  O1  1  0.66666667  0.37500000  0.51666667  1.0
  O  O1  1  0.66666667  0.37500000  0.85000000  1.0
  O  O1  1  0.66666667  0.87500000  0.18333333  1.0
  O  O1  1  0.66666667  0.87500000  0.51666667  1.0
  O  O1  1  0.66666667  0.87500000  0.85000000  1.0
  O  O1  1  0.00000000  0.12500000  0.15000000  1.0
  O  O1  1  0.00000000  0.12500000  0.48333333  1.0
  O  O1  1  0.00000000  0.12500000  0.81666667  1.0
  O  O1  1  0.00000000  0.62500000  0.15000000  1.0
  O  O1  1  0.00000000  0.62500000  0.48333333  1.0
  O  O1  1  0.00000000  0.62500000  0.81666667  1.0
  O  O1  1  0.33333333  0.12500000  0.15000000  1.0
  O  O1  1  0.33333333  0.12500000  0.48333333  1.0
  O  O1  1  0.33333333  0.12500000  0.81666667  1.0
  O  O1  1  0.33333333  0.62500000  0.15000000  1.0
  O  O1  1  0.33333333  0.62500000  0.48333333  1.0
  O  O1  1  0.33333333  0.62500000  0.81666667  1.0
  O  O1  1  0.66666667  0.12500000  0.15000000  1.0
  O  O1  1  0.66666667  0.12500000  0.48333333  1.0
  O  O1  1  0.66666667  0.12500000  0.81666667  1.0
  O  O1  1  0.66666667  0.62500000  0.15000000  1.0
  O  O1  1  0.66666667  0.62500000  0.48333333  1.0
  O  O1  1  0.66666667  0.62500000  0.81666667  1.0
  O  O2  1  0.08333333  0.01550000  0.25000000  1.0
  O  O2  1  0.08333333  0.01550000  0.58333333  1.0
  O  O2  1  0.08333333  0.01550000  0.91666667  1.0
  O  O2  1  0.08333333  0.51550000  0.25000000  1.0
  O  O2  1  0.08333333  0.51550000  0.58333333  1.0
  O  O2  1  0.08333333  0.51550000  0.91666667  1.0
  O  O2  1  0.41666667  0.01550000  0.25000000  1.0
  O  O2  1  0.41666667  0.01550000  0.58333333  1.0
  O  O2  1  0.41666667  0.01550000  0.91666667  1.0
  O  O2  1  0.41666667  0.51550000  0.25000000  1.0
  O  O2  1  0.41666667  0.51550000  0.58333333  1.0
  O  O2  1  0.41666667  0.51550000  0.91666667  1.0
  O  O2  1  0.75000000  0.01550000  0.25000000  1.0
  O  O2  1  0.75000000  0.01550000  0.58333333  1.0
  O  O2  1  0.75000000  0.01550000  0.91666667  1.0
  O  O2  1  0.75000000  0.51550000  0.25000000  1.0
  O  O2  1  0.75000000  0.51550000  0.58333333  1.0
  O  O2  1  0.75000000  0.51550000  0.91666667  1.0
  O  O2  1  0.25000000  0.23450000  0.25000000  1.0
  O  O2  1  0.25000000  0.23450000  0.58333333  1.0
  O  O2  1  0.25000000  0.23450000  0.91666667  1.0
  O  O2  1  0.25000000  0.73450000  0.25000000  1.0
  O  O2  1  0.25000000  0.73450000  0.58333333  1.0
  O  O2  1  0.25000000  0.73450000  0.91666667  1.0
  O  O2  1  0.58333333  0.23450000  0.25000000  1.0
  O  O2  1  0.58333333  0.23450000  0.58333333  1.0
  O  O2  1  0.58333333  0.23450000  0.91666667  1.0
  O  O2  1  0.58333333  0.73450000  0.25000000  1.0
  O  O2  1  0.58333333  0.73450000  0.58333333  1.0
  O  O2  1  0.58333333  0.73450000  0.91666667  1.0
  O  O2  1  0.91666667  0.23450000  0.25000000  1.0
  O  O2  1  0.91666667  0.23450000  0.58333333  1.0
  O  O2  1  0.91666667  0.23450000  0.91666667  1.0
  O  O2  1  0.91666667  0.73450000  0.25000000  1.0
  O  O2  1  0.91666667  0.73450000  0.58333333  1.0
  O  O2  1  0.91666667  0.73450000  0.91666667  1.0
  O  O2  1  0.08333333  0.48450000  0.08333333  1.0
  O  O2  1  0.08333333  0.48450000  0.41666667  1.0
  O  O2  1  0.08333333  0.48450000  0.75000000  1.0
  O  O2  1  0.08333333  0.98450000  0.08333333  1.0
  O  O2  1  0.08333333  0.98450000  0.41666667  1.0
  O  O2  1  0.08333333  0.98450000  0.75000000  1.0
  O  O2  1  0.41666667  0.48450000  0.08333333  1.0
  O  O2  1  0.41666667  0.48450000  0.41666667  1.0
  O  O2  1  0.41666667  0.48450000  0.75000000  1.0
  O  O2  1  0.41666667  0.98450000  0.08333333  1.0
  O  O2  1  0.41666667  0.98450000  0.41666667  1.0
  O  O2  1  0.41666667  0.98450000  0.75000000  1.0
  O  O2  1  0.75000000  0.48450000  0.08333333  1.0
  O  O2  1  0.75000000  0.48450000  0.41666667  1.0
  O  O2  1  0.75000000  0.48450000  0.75000000  1.0
  O  O2  1  0.75000000  0.98450000  0.08333333  1.0
  O  O2  1  0.75000000  0.98450000  0.41666667  1.0
  O  O2  1  0.75000000  0.98450000  0.75000000  1.0
  O  O2  1  0.25000000  0.26550000  0.08333333  1.0
  O  O2  1  0.25000000  0.26550000  0.41666667  1.0
  O  O2  1  0.25000000  0.26550000  0.75000000  1.0
  O  O2  1  0.25000000  0.76550000  0.08333333  1.0
  O  O2  1  0.25000000  0.76550000  0.41666667  1.0
  O  O2  1  0.25000000  0.76550000  0.75000000  1.0
  O  O2  1  0.58333333  0.26550000  0.08333333  1.0
  O  O2  1  0.58333333  0.26550000  0.41666667  1.0
  O  O2  1  0.58333333  0.26550000  0.75000000  1.0
  O  O2  1  0.58333333  0.76550000  0.08333333  1.0
  O  O2  1  0.58333333  0.76550000  0.41666667  1.0
  O  O2  1  0.58333333  0.76550000  0.75000000  1.0
  O  O2  1  0.91666667  0.26550000  0.08333333  1.0
  O  O2  1  0.91666667  0.26550000  0.41666667  1.0
  O  O2  1  0.91666667  0.26550000  0.75000000  1.0
  O  O2  1  0.91666667  0.76550000  0.08333333  1.0
  O  O2  1  0.91666667  0.76550000  0.41666667  1.0
  O  O2  1  0.91666667  0.76550000  0.75000000  1.0
  O  O2  1  0.25000000  0.48450000  0.08333333  1.0
  O  O2  1  0.25000000  0.48450000  0.41666667  1.0
  O  O2  1  0.25000000  0.48450000  0.75000000  1.0
  O  O2  1  0.25000000  0.98450000  0.08333333  1.0
  O  O2  1  0.25000000  0.98450000  0.41666667  1.0
  O  O2  1  0.25000000  0.98450000  0.75000000  1.0
  O  O2  1  0.58333333  0.48450000  0.08333333  1.0
  O  O2  1  0.58333333  0.48450000  0.41666667  1.0
  O  O2  1  0.58333333  0.48450000  0.75000000  1.0
  O  O2  1  0.58333333  0.98450000  0.08333333  1.0
  O  O2  1  0.58333333  0.98450000  0.41666667  1.0
  O  O2  1  0.58333333  0.98450000  0.75000000  1.0
  O  O2  1  0.91666667  0.48450000  0.08333333  1.0
  O  O2  1  0.91666667  0.48450000  0.41666667  1.0
  O  O2  1  0.91666667  0.48450000  0.75000000  1.0
  O  O2  1  0.91666667  0.98450000  0.08333333  1.0
  O  O2  1  0.91666667  0.98450000  0.41666667  1.0
  O  O2  1  0.91666667  0.98450000  0.75000000  1.0
  O  O2  1  0.08333333  0.26550000  0.08333333  1.0
  O  O2  1  0.08333333  0.26550000  0.41666667  1.0
  O  O2  1  0.08333333  0.26550000  0.75000000  1.0
  O  O2  1  0.08333333  0.76550000  0.08333333  1.0
  O  O2  1  0.08333333  0.76550000  0.41666667  1.0
  O  O2  1  0.08333333  0.76550000  0.75000000  1.0
  O  O2  1  0.41666667  0.26550000  0.08333333  1.0
  O  O2  1  0.41666667  0.26550000  0.41666667  1.0
  O  O2  1  0.41666667  0.26550000  0.75000000  1.0
  O  O2  1  0.41666667  0.76550000  0.08333333  1.0
  O  O2  1  0.41666667  0.76550000  0.41666667  1.0
  O  O2  1  0.41666667  0.76550000  0.75000000  1.0
  O  O2  1  0.75000000  0.26550000  0.08333333  1.0
  O  O2  1  0.75000000  0.26550000  0.41666667  1.0
  O  O2  1  0.75000000  0.26550000  0.75000000  1.0
  O  O2  1  0.75000000  0.76550000  0.08333333  1.0
  O  O2  1  0.75000000  0.76550000  0.41666667  1.0
  O  O2  1  0.75000000  0.76550000  0.75000000  1.0
  O  O2  1  0.25000000  0.01550000  0.25000000  1.0
  O  O2  1  0.25000000  0.01550000  0.58333333  1.0
  O  O2  1  0.25000000  0.01550000  0.91666667  1.0
  O  O2  1  0.25000000  0.51550000  0.25000000  1.0
  O  O2  1  0.25000000  0.51550000  0.58333333  1.0
  O  O2  1  0.25000000  0.51550000  0.91666667  1.0
  O  O2  1  0.58333333  0.01550000  0.25000000  1.0
  O  O2  1  0.58333333  0.01550000  0.58333333  1.0
  O  O2  1  0.58333333  0.01550000  0.91666667  1.0
  O  O2  1  0.58333333  0.51550000  0.25000000  1.0
  O  O2  1  0.58333333  0.51550000  0.58333333  1.0
  O  O2  1  0.58333333  0.51550000  0.91666667  1.0
  O  O2  1  0.91666667  0.01550000  0.25000000  1.0
  O  O2  1  0.91666667  0.01550000  0.58333333  1.0
  O  O2  1  0.91666667  0.01550000  0.91666667  1.0
  O  O2  1  0.91666667  0.51550000  0.25000000  1.0
  O  O2  1  0.91666667  0.51550000  0.58333333  1.0
  O  O2  1  0.91666667  0.51550000  0.91666667  1.0
  O  O2  1  0.08333333  0.23450000  0.25000000  1.0
  O  O2  1  0.08333333  0.23450000  0.58333333  1.0
  O  O2  1  0.08333333  0.23450000  0.91666667  1.0
  O  O2  1  0.08333333  0.73450000  0.25000000  1.0
  O  O2  1  0.08333333  0.73450000  0.58333333  1.0
  O  O2  1  0.08333333  0.73450000  0.91666667  1.0
  O  O2  1  0.41666667  0.23450000  0.25000000  1.0
  O  O2  1  0.41666667  0.23450000  0.58333333  1.0
  O  O2  1  0.41666667  0.23450000  0.91666667  1.0
  O  O2  1  0.41666667  0.73450000  0.25000000  1.0
  O  O2  1  0.41666667  0.73450000  0.58333333  1.0
  O  O2  1  0.41666667  0.73450000  0.91666667  1.0
  O  O2  1  0.75000000  0.23450000  0.25000000  1.0
  O  O2  1  0.75000000  0.23450000  0.58333333  1.0
  O  O2  1  0.75000000  0.23450000  0.91666667  1.0
  O  O2  1  0.75000000  0.73450000  0.25000000  1.0
  O  O2  1  0.75000000  0.73450000  0.58333333  1.0
  O  O2  1  0.75000000  0.73450000  0.91666667  1.0
