# generated using pymatgen
data_BaYFeCuO5
_symmetry_space_group_name_H-M   'P 1'
_cell_length_a   15.46800000
_cell_length_b   15.46800000
_cell_length_c   15.31200000
_cell_angle_alpha   90.00000000
_cell_angle_beta   90.00000000
_cell_angle_gamma   90.00000000
_symmetry_Int_Tables_number   1
_chemical_formula_structural   BaYFeCuO5
_chemical_formula_sum   'Ba32 Y32 Fe32.0 Cu32 O160'
_cell_volume   3663.53417549
_cell_formula_units_Z   32
loop_
 _symmetry_equiv_pos_site_id
 _symmetry_equiv_pos_as_xyz
  1  'x, y, z'
loop_
 _atom_type_symbol
 _atom_type_oxidation_number
  Ba2+  2.0
  Y3+  3.0
  Fe3+  3.0
  Cu2+  2.0
  O2-  -2.0
loop_
 _atom_site_type_symbol
 _atom_site_label
 _atom_site_symmetry_multiplicity
 _atom_site_fract_x
 _atom_site_fract_y
 _atom_site_fract_z
 _atom_site_occupancy
  Ba2+  Ba1  1  0.00000000  0.00000000  0.01130000  1.0
  Ba2+  Ba1  1  0.00000000  0.00000000  0.51130000  1.0
  Ba2+  Ba1  1  0.00000000  0.25000000  0.01130000  1.0
  Ba2+  Ba1  1  0.00000000  0.25000000  0.51130000  1.0
  Ba2+  Ba1  1  0.00000000  0.50000000  0.01130000  1.0
  Ba2+  Ba1  1  0.00000000  0.50000000  0.51130000  1.0
  Ba2+  Ba1  1  0.00000000  0.75000000  0.01130000  1.0
  Ba2+  Ba1  1  0.00000000  0.75000000  0.51130000  1.0
  Ba2+  Ba1  1  0.25000000  0.00000000  0.01130000  1.0
  Ba2+  Ba1  1  0.25000000  0.00000000  0.51130000  1.0
  Ba2+  Ba1  1  0.25000000  0.25000000  0.01130000  1.0
  Ba2+  Ba1  1  0.25000000  0.25000000  0.51130000  1.0
  Ba2+  Ba1  1  0.25000000  0.50000000  0.01130000  1.0
  Ba2+  Ba1  1  0.25000000  0.50000000  0.51130000  1.0
  Ba2+  Ba1  1  0.25000000  0.75000000  0.01130000  1.0
  Ba2+  Ba1  1  0.25000000  0.75000000  0.51130000  1.0
  Ba2+  Ba1  1  0.50000000  0.00000000  0.01130000  1.0
  Ba2+  Ba1  1  0.50000000  0.00000000  0.51130000  1.0
  Ba2+  Ba1  1  0.50000000  0.25000000  0.01130000  1.0
  Ba2+  Ba1  1  0.50000000  0.25000000  0.51130000  1.0
  Ba2+  Ba1  1  0.50000000  0.50000000  0.01130000  1.0
  Ba2+  Ba1  1  0.50000000  0.50000000  0.51130000  1.0
  Ba2+  Ba1  1  0.50000000  0.75000000  0.01130000  1.0
  Ba2+  Ba1  1  0.50000000  0.75000000  0.51130000  1.0
  Ba2+  Ba1  1  0.75000000  0.00000000  0.01130000  1.0
  Ba2+  Ba1  1  0.75000000  0.00000000  0.51130000  1.0
  Ba2+  Ba1  1  0.75000000  0.25000000  0.01130000  1.0
  Ba2+  Ba1  1  0.75000000  0.25000000  0.51130000  1.0
  Ba2+  Ba1  1  0.75000000  0.50000000  0.01130000  1.0
  Ba2+  Ba1  1  0.75000000  0.50000000  0.51130000  1.0
  Ba2+  Ba1  1  0.75000000  0.75000000  0.01130000  1.0
  Ba2+  Ba1  1  0.75000000  0.75000000  0.51130000  1.0
  Y3+  Y1  1  0.00000000  0.00000000  0.25560000  1.0
  Y3+  Y1  1  0.00000000  0.00000000  0.75560000  1.0
  Y3+  Y1  1  0.00000000  0.25000000  0.25560000  1.0
  Y3+  Y1  1  0.00000000  0.25000000  0.75560000  1.0
  Y3+  Y1  1  0.00000000  0.50000000  0.25560000  1.0
  Y3+  Y1  1  0.00000000  0.50000000  0.75560000  1.0
  Y3+  Y1  1  0.00000000  0.75000000  0.25560000  1.0
  Y3+  Y1  1  0.00000000  0.75000000  0.75560000  1.0
  Y3+  Y1  1  0.25000000  0.00000000  0.25560000  1.0
  Y3+  Y1  1  0.25000000  0.00000000  0.75560000  1.0
  Y3+  Y1  1  0.25000000  0.25000000  0.25560000  1.0
  Y3+  Y1  1  0.25000000  0.25000000  0.75560000  1.0
  Y3+  Y1  1  0.25000000  0.50000000  0.25560000  1.0
  Y3+  Y1  1  0.25000000  0.50000000  0.75560000  1.0
  Y3+  Y1  1  0.25000000  0.75000000  0.25560000  1.0
  Y3+  Y1  1  0.25000000  0.75000000  0.75560000  1.0
  Y3+  Y1  1  0.50000000  0.00000000  0.25560000  1.0
  Y3+  Y1  1  0.50000000  0.00000000  0.75560000  1.0
  Y3+  Y1  1  0.50000000  0.25000000  0.25560000  1.0
  Y3+  Y1  1  0.50000000  0.25000000  0.75560000  1.0
  Y3+  Y1  1  0.50000000  0.50000000  0.25560000  1.0
  Y3+  Y1  1  0.50000000  0.50000000  0.75560000  1.0
  Y3+  Y1  1  0.50000000  0.75000000  0.25560000  1.0
  Y3+  Y1  1  0.50000000  0.75000000  0.75560000  1.0
  Y3+  Y1  1  0.75000000  0.00000000  0.25560000  1.0
  Y3+  Y1  1  0.75000000  0.00000000  0.75560000  1.0
  Y3+  Y1  1  0.75000000  0.25000000  0.25560000  1.0
  Y3+  Y1  1  0.75000000  0.25000000  0.75560000  1.0
  Y3+  Y1  1  0.75000000  0.50000000  0.25560000  1.0
  Y3+  Y1  1  0.75000000  0.50000000  0.75560000  1.0
  Y3+  Y1  1  0.75000000  0.75000000  0.25560000  1.0
  Y3+  Y1  1  0.75000000  0.75000000  0.75560000  1.0
  Fe3+  Fe2  1  0.87500000  0.37500000  0.36935000  1.0
  Fe3+  Fe2  1  0.37500000  0.87500000  0.36935000  1.0
  Fe3+  Fe2  1  0.37500000  0.62500000  0.36935000  1.0
  Fe3+  Fe2  1  0.87500000  0.87500000  0.86935000  1.0
  Fe3+  Fe2  1  0.37500000  0.37500000  0.86935000  1.0
  Fe3+  Fe2  1  0.62500000  0.62500000  0.86935000  1.0
  Fe3+  Fe2  1  0.37500000  0.12500000  0.36935000  1.0
  Fe3+  Fe2  1  0.87500000  0.62500000  0.86935000  1.0
  Fe3+  Fe2  1  0.62500000  0.62500000  0.36935000  1.0
  Fe3+  Fe2  1  0.62500000  0.12500000  0.86935000  1.0
  Fe3+  Fe2  1  0.87500000  0.87500000  0.36935000  1.0
  Fe3+  Fe2  1  0.62500000  0.87500000  0.36935000  1.0
  Fe3+  Fe2  1  0.12500000  0.37500000  0.86935000  1.0
  Fe3+  Fe2  1  0.12500000  0.87500000  0.36935000  1.0
  Fe3+  Fe2  1  0.12500000  0.62500000  0.36935000  1.0
  Fe3+  Fe2  1  0.87500000  0.12500000  0.36935000  1.0
  Fe3+  Fe2  1  0.87500000  0.62500000  0.36935000  1.0
  Fe3+  Fe2  1  0.62500000  0.37500000  0.36935000  1.0
  Fe3+  Fe2  1  0.62500000  0.37500000  0.86935000  1.0
  Fe3+  Fe2  1  0.12500000  0.87500000  0.86935000  1.0
  Cu2+  Fe2  1  0.87500000  0.37500000  0.86935000  1.0
  Cu2+  Fe2  1  0.12500000  0.12500000  0.86935000  1.0
  Cu2+  Fe2  1  0.12500000  0.37500000  0.36935000  1.0
  Cu2+  Fe2  1  0.62500000  0.87500000  0.86935000  1.0
  Cu2+  Fe2  1  0.37500000  0.12500000  0.86935000  1.0
  Cu2+  Fe2  1  0.12500000  0.62500000  0.86935000  1.0
  Cu2+  Fe2  1  0.37500000  0.37500000  0.36935000  1.0
  Cu2+  Fe2  1  0.87500000  0.12500000  0.86935000  1.0
  Cu2+  Fe2  1  0.62500000  0.12500000  0.36935000  1.0
  Cu2+  Fe2  1  0.12500000  0.12500000  0.36935000  1.0
  Cu2+  Fe2  1  0.37500000  0.87500000  0.86935000  1.0
  Cu2+  Fe2  1  0.37500000  0.62500000  0.86935000  1.0
  Fe3+  Fe1  1  0.37500000  0.87500000  0.63690000  1.0
  Fe3+  Fe1  1  0.62500000  0.62500000  0.13690000  1.0
  Fe3+  Fe1  1  0.37500000  0.37500000  0.13690000  1.0
  Fe3+  Fe1  1  0.12500000  0.87500000  0.63690000  1.0
  Fe3+  Fe1  1  0.12500000  0.12500000  0.63690000  1.0
  Fe3+  Fe1  1  0.37500000  0.87500000  0.13690000  1.0
  Fe3+  Fe1  1  0.12500000  0.37500000  0.63690000  1.0
  Fe3+  Fe1  1  0.87500000  0.12500000  0.63690000  1.0
  Fe3+  Fe1  1  0.87500000  0.62500000  0.63690000  1.0
  Fe3+  Fe1  1  0.87500000  0.37500000  0.13690000  1.0
  Fe3+  Fe1  1  0.87500000  0.87500000  0.13690000  1.0
  Fe3+  Fe1  1  0.87500000  0.87500000  0.63690000  1.0
  Cu2+  Fe1  1  0.62500000  0.37500000  0.63690000  1.0
  Cu2+  Fe1  1  0.62500000  0.37500000  0.13690000  1.0
  Cu2+  Fe1  1  0.62500000  0.12500000  0.13690000  1.0
  Cu2+  Fe1  1  0.87500000  0.12500000  0.13690000  1.0
  Cu2+  Fe1  1  0.87500000  0.62500000  0.13690000  1.0
  Cu2+  Fe1  1  0.12500000  0.12500000  0.13690000  1.0
  Cu2+  Fe1  1  0.12500000  0.37500000  0.13690000  1.0
  Cu2+  Fe1  1  0.12500000  0.87500000  0.13690000  1.0
  Cu2+  Fe1  1  0.12500000  0.62500000  0.13690000  1.0
  Cu2+  Fe1  1  0.62500000  0.12500000  0.63690000  1.0
  Cu2+  Fe1  1  0.37500000  0.37500000  0.63690000  1.0
  Cu2+  Fe1  1  0.62500000  0.87500000  0.63690000  1.0
  Cu2+  Fe1  1  0.62500000  0.87500000  0.13690000  1.0
  Cu2+  Fe1  1  0.37500000  0.62500000  0.63690000  1.0
  Cu2+  Fe1  1  0.87500000  0.37500000  0.63690000  1.0
  Cu2+  Fe1  1  0.37500000  0.12500000  0.63690000  1.0
  Cu2+  Fe1  1  0.12500000  0.62500000  0.63690000  1.0
  Cu2+  Fe1  1  0.62500000  0.62500000  0.63690000  1.0
  Cu2+  Fe1  1  0.37500000  0.62500000  0.13690000  1.0
  Cu2+  Fe1  1  0.37500000  0.12500000  0.13690000  1.0
  O2-  O1  1  0.12500000  0.12500000  0.00745000  1.0
  O2-  O1  1  0.12500000  0.12500000  0.50745000  1.0
  O2-  O1  1  0.12500000  0.37500000  0.00745000  1.0
  O2-  O1  1  0.12500000  0.37500000  0.50745000  1.0
  O2-  O1  1  0.12500000  0.62500000  0.00745000  1.0
  O2-  O1  1  0.12500000  0.62500000  0.50745000  1.0
  O2-  O1  1  0.12500000  0.87500000  0.00745000  1.0
  O2-  O1  1  0.12500000  0.87500000  0.50745000  1.0
  O2-  O1  1  0.37500000  0.12500000  0.00745000  1.0
  O2-  O1  1  0.37500000  0.12500000  0.50745000  1.0
  O2-  O1  1  0.37500000  0.37500000  0.00745000  1.0
  O2-  O1  1  0.37500000  0.37500000  0.50745000  1.0
  O2-  O1  1  0.37500000  0.62500000  0.00745000  1.0
  O2-  O1  1  0.37500000  0.62500000  0.50745000  1.0
  O2-  O1  1  0.37500000  0.87500000  0.00745000  1.0
  O2-  O1  1  0.37500000  0.87500000  0.50745000  1.0
  O2-  O1  1  0.62500000  0.12500000  0.00745000  1.0
  O2-  O1  1  0.62500000  0.12500000  0.50745000  1.0
  O2-  O1  1  0.62500000  0.37500000  0.00745000  1.0
  O2-  O1  1  0.62500000  0.37500000  0.50745000  1.0
  O2-  O1  1  0.62500000  0.62500000  0.00745000  1.0
  O2-  O1  1  0.62500000  0.62500000  0.50745000  1.0
  O2-  O1  1  0.62500000  0.87500000  0.00745000  1.0
  O2-  O1  1  0.62500000  0.87500000  0.50745000  1.0
  O2-  O1  1  0.87500000  0.12500000  0.00745000  1.0
  O2-  O1  1  0.87500000  0.12500000  0.50745000  1.0
  O2-  O1  1  0.87500000  0.37500000  0.00745000  1.0
  O2-  O1  1  0.87500000  0.37500000  0.50745000  1.0
  O2-  O1  1  0.87500000  0.62500000  0.00745000  1.0
  O2-  O1  1  0.87500000  0.62500000  0.50745000  1.0
  O2-  O1  1  0.87500000  0.87500000  0.00745000  1.0
  O2-  O1  1  0.87500000  0.87500000  0.50745000  1.0
  O2-  O2  1  0.12500000  0.00000000  0.16655000  1.0
  O2-  O2  1  0.12500000  0.00000000  0.66655000  1.0
  O2-  O2  1  0.12500000  0.25000000  0.16655000  1.0
  O2-  O2  1  0.12500000  0.25000000  0.66655000  1.0
  O2-  O2  1  0.12500000  0.50000000  0.16655000  1.0
  O2-  O2  1  0.12500000  0.50000000  0.66655000  1.0
  O2-  O2  1  0.12500000  0.75000000  0.16655000  1.0
  O2-  O2  1  0.12500000  0.75000000  0.66655000  1.0
  O2-  O2  1  0.37500000  0.00000000  0.16655000  1.0
  O2-  O2  1  0.37500000  0.00000000  0.66655000  1.0
  O2-  O2  1  0.37500000  0.25000000  0.16655000  1.0
  O2-  O2  1  0.37500000  0.25000000  0.66655000  1.0
  O2-  O2  1  0.37500000  0.50000000  0.16655000  1.0
  O2-  O2  1  0.37500000  0.50000000  0.66655000  1.0
  O2-  O2  1  0.37500000  0.75000000  0.16655000  1.0
  O2-  O2  1  0.37500000  0.75000000  0.66655000  1.0
  O2-  O2  1  0.62500000  0.00000000  0.16655000  1.0
  O2-  O2  1  0.62500000  0.00000000  0.66655000  1.0
  O2-  O2  1  0.62500000  0.25000000  0.16655000  1.0
  O2-  O2  1  0.62500000  0.25000000  0.66655000  1.0
  O2-  O2  1  0.62500000  0.50000000  0.16655000  1.0
  O2-  O2  1  0.62500000  0.50000000  0.66655000  1.0
  O2-  O2  1  0.62500000  0.75000000  0.16655000  1.0
  O2-  O2  1  0.62500000  0.75000000  0.66655000  1.0
  O2-  O2  1  0.87500000  0.00000000  0.16655000  1.0
  O2-  O2  1  0.87500000  0.00000000  0.66655000  1.0
  O2-  O2  1  0.87500000  0.25000000  0.16655000  1.0
  O2-  O2  1  0.87500000  0.25000000  0.66655000  1.0
  O2-  O2  1  0.87500000  0.50000000  0.16655000  1.0
  O2-  O2  1  0.87500000  0.50000000  0.66655000  1.0
  O2-  O2  1  0.87500000  0.75000000  0.16655000  1.0
  O2-  O2  1  0.87500000  0.75000000  0.66655000  1.0
  O2-  O2  1  0.00000000  0.12500000  0.16655000  1.0
  O2-  O2  1  0.00000000  0.12500000  0.66655000  1.0
  O2-  O2  1  0.00000000  0.37500000  0.16655000  1.0
  O2-  O2  1  0.00000000  0.37500000  0.66655000  1.0
  O2-  O2  1  0.00000000  0.62500000  0.16655000  1.0
  O2-  O2  1  0.00000000  0.62500000  0.66655000  1.0
  O2-  O2  1  0.00000000  0.87500000  0.16655000  1.0
  O2-  O2  1  0.00000000  0.87500000  0.66655000  1.0
  O2-  O2  1  0.25000000  0.12500000  0.16655000  1.0
  O2-  O2  1  0.25000000  0.12500000  0.66655000  1.0
  O2-  O2  1  0.25000000  0.37500000  0.16655000  1.0
  O2-  O2  1  0.25000000  0.37500000  0.66655000  1.0
  O2-  O2  1  0.25000000  0.62500000  0.16655000  1.0
  O2-  O2  1  0.25000000  0.62500000  0.66655000  1.0
  O2-  O2  1  0.25000000  0.87500000  0.16655000  1.0
  O2-  O2  1  0.25000000  0.87500000  0.66655000  1.0
  O2-  O2  1  0.50000000  0.12500000  0.16655000  1.0
  O2-  O2  1  0.50000000  0.12500000  0.66655000  1.0
  O2-  O2  1  0.50000000  0.37500000  0.16655000  1.0
  O2-  O2  1  0.50000000  0.37500000  0.66655000  1.0
  O2-  O2  1  0.50000000  0.62500000  0.16655000  1.0
  O2-  O2  1  0.50000000  0.62500000  0.66655000  1.0
  O2-  O2  1  0.50000000  0.87500000  0.16655000  1.0
  O2-  O2  1  0.50000000  0.87500000  0.66655000  1.0
  O2-  O2  1  0.75000000  0.12500000  0.16655000  1.0
  O2-  O2  1  0.75000000  0.12500000  0.66655000  1.0
  O2-  O2  1  0.75000000  0.37500000  0.16655000  1.0
  O2-  O2  1  0.75000000  0.37500000  0.66655000  1.0
  O2-  O2  1  0.75000000  0.62500000  0.16655000  1.0
  O2-  O2  1  0.75000000  0.62500000  0.66655000  1.0
  O2-  O2  1  0.75000000  0.87500000  0.16655000  1.0
  O2-  O2  1  0.75000000  0.87500000  0.66655000  1.0
  O2-  O3  1  0.12500000  0.00000000  0.35140000  1.0
  O2-  O3  1  0.12500000  0.00000000  0.85140000  1.0
  O2-  O3  1  0.12500000  0.25000000  0.35140000  1.0
  O2-  O3  1  0.12500000  0.25000000  0.85140000  1.0
  O2-  O3  1  0.12500000  0.50000000  0.35140000  1.0
  O2-  O3  1  0.12500000  0.50000000  0.85140000  1.0
  O2-  O3  1  0.12500000  0.75000000  0.35140000  1.0
  O2-  O3  1  0.12500000  0.75000000  0.85140000  1.0
  O2-  O3  1  0.37500000  0.00000000  0.35140000  1.0
  O2-  O3  1  0.37500000  0.00000000  0.85140000  1.0
  O2-  O3  1  0.37500000  0.25000000  0.35140000  1.0
  O2-  O3  1  0.37500000  0.25000000  0.85140000  1.0
  O2-  O3  1  0.37500000  0.50000000  0.35140000  1.0
  O2-  O3  1  0.37500000  0.50000000  0.85140000  1.0
  O2-  O3  1  0.37500000  0.75000000  0.35140000  1.0
  O2-  O3  1  0.37500000  0.75000000  0.85140000  1.0
  O2-  O3  1  0.62500000  0.00000000  0.35140000  1.0
  O2-  O3  1  0.62500000  0.00000000  0.85140000  1.0
  O2-  O3  1  0.62500000  0.25000000  0.35140000  1.0
  O2-  O3  1  0.62500000  0.25000000  0.85140000  1.0
  O2-  O3  1  0.62500000  0.50000000  0.35140000  1.0
  O2-  O3  1  0.62500000  0.50000000  0.85140000  1.0
  O2-  O3  1  0.62500000  0.75000000  0.35140000  1.0
  O2-  O3  1  0.62500000  0.75000000  0.85140000  1.0
  O2-  O3  1  0.87500000  0.00000000  0.35140000  1.0
  O2-  O3  1  0.87500000  0.00000000  0.85140000  1.0
  O2-  O3  1  0.87500000  0.25000000  0.35140000  1.0
  O2-  O3  1  0.87500000  0.25000000  0.85140000  1.0
  O2-  O3  1  0.87500000  0.50000000  0.35140000  1.0
  O2-  O3  1  0.87500000  0.50000000  0.85140000  1.0
  O2-  O3  1  0.87500000  0.75000000  0.35140000  1.0
  O2-  O3  1  0.87500000  0.75000000  0.85140000  1.0
  O2-  O3  1  0.00000000  0.12500000  0.35140000  1.0
  O2-  O3  1  0.00000000  0.12500000  0.85140000  1.0
  O2-  O3  1  0.00000000  0.37500000  0.35140000  1.0
  O2-  O3  1  0.00000000  0.37500000  0.85140000  1.0
  O2-  O3  1  0.00000000  0.62500000  0.35140000  1.0
  O2-  O3  1  0.00000000  0.62500000  0.85140000  1.0
  O2-  O3  1  0.00000000  0.87500000  0.35140000  1.0
  O2-  O3  1  0.00000000  0.87500000  0.85140000  1.0
  O2-  O3  1  0.25000000  0.12500000  0.35140000  1.0
  O2-  O3  1  0.25000000  0.12500000  0.85140000  1.0
  O2-  O3  1  0.25000000  0.37500000  0.35140000  1.0
  O2-  O3  1  0.25000000  0.37500000  0.85140000  1.0
  O2-  O3  1  0.25000000  0.62500000  0.35140000  1.0
  O2-  O3  1  0.25000000  0.62500000  0.85140000  1.0
  O2-  O3  1  0.25000000  0.87500000  0.35140000  1.0
  O2-  O3  1  0.25000000  0.87500000  0.85140000  1.0
  O2-  O3  1  0.50000000  0.12500000  0.35140000  1.0
  O2-  O3  1  0.50000000  0.12500000  0.85140000  1.0
  O2-  O3  1  0.50000000  0.37500000  0.35140000  1.0
  O2-  O3  1  0.50000000  0.37500000  0.85140000  1.0
  O2-  O3  1  0.50000000  0.62500000  0.35140000  1.0
  O2-  O3  1  0.50000000  0.62500000  0.85140000  1.0
  O2-  O3  1  0.50000000  0.87500000  0.35140000  1.0
  O2-  O3  1  0.50000000  0.87500000  0.85140000  1.0
  O2-  O3  1  0.75000000  0.12500000  0.35140000  1.0
  O2-  O3  1  0.75000000  0.12500000  0.85140000  1.0
  O2-  O3  1  0.75000000  0.37500000  0.35140000  1.0
  O2-  O3  1  0.75000000  0.37500000  0.85140000  1.0
  O2-  O3  1  0.75000000  0.62500000  0.35140000  1.0
  O2-  O3  1  0.75000000  0.62500000  0.85140000  1.0
  O2-  O3  1  0.75000000  0.87500000  0.35140000  1.0
  O2-  O3  1  0.75000000  0.87500000  0.85140000  1.0
