# generated using pymatgen
data_Ca2Al2SiO7
_symmetry_space_group_name_H-M   'P 1'
_cell_length_a   15.43200000
_cell_length_b   15.43200000
_cell_length_c   15.26700000
_cell_angle_alpha   90.00000000
_cell_angle_beta   90.00000000
_cell_angle_gamma   90.00000000
_symmetry_Int_Tables_number   1
_chemical_formula_structural   Ca2Al2SiO7
_chemical_formula_sum   'Ca48 Al48 Si24 O168'
_cell_volume   3635.78450861
_cell_formula_units_Z   24
loop_
 _symmetry_equiv_pos_site_id
 _symmetry_equiv_pos_as_xyz
  1  'x, y, z'
loop_
 _atom_type_symbol
 _atom_type_oxidation_number
  Ca2+  2.0
  Al0+  0.0
  Si0+  0.0
  O2-  -2.0
loop_
 _atom_site_type_symbol
 _atom_site_label
 _atom_site_symmetry_multiplicity
 _atom_site_fract_x
 _atom_site_fract_y
 _atom_site_fract_z
 _atom_site_occupancy
  Ca2+  Ca1  1  0.16875000  0.08125000  0.17033333  1.0
  Ca2+  Ca1  1  0.16875000  0.08125000  0.50366667  1.0
  Ca2+  Ca1  1  0.16875000  0.08125000  0.83700000  1.0
  Ca2+  Ca1  1  0.16875000  0.58125000  0.17033333  1.0
  Ca2+  Ca1  1  0.16875000  0.58125000  0.50366667  1.0
  Ca2+  Ca1  1  0.16875000  0.58125000  0.83700000  1.0
  Ca2+  Ca1  1  0.66875000  0.08125000  0.17033333  1.0
  Ca2+  Ca1  1  0.66875000  0.08125000  0.50366667  1.0
  Ca2+  Ca1  1  0.66875000  0.08125000  0.83700000  1.0
  Ca2+  Ca1  1  0.66875000  0.58125000  0.17033333  1.0
  Ca2+  Ca1  1  0.66875000  0.58125000  0.50366667  1.0
  Ca2+  Ca1  1  0.66875000  0.58125000  0.83700000  1.0
  Ca2+  Ca1  1  0.08125000  0.33125000  0.16300000  1.0
  Ca2+  Ca1  1  0.08125000  0.33125000  0.49633333  1.0
  Ca2+  Ca1  1  0.08125000  0.33125000  0.82966667  1.0
  Ca2+  Ca1  1  0.08125000  0.83125000  0.16300000  1.0
  Ca2+  Ca1  1  0.08125000  0.83125000  0.49633333  1.0
  Ca2+  Ca1  1  0.08125000  0.83125000  0.82966667  1.0
  Ca2+  Ca1  1  0.58125000  0.33125000  0.16300000  1.0
  Ca2+  Ca1  1  0.58125000  0.33125000  0.49633333  1.0
  Ca2+  Ca1  1  0.58125000  0.33125000  0.82966667  1.0
  Ca2+  Ca1  1  0.58125000  0.83125000  0.16300000  1.0
  Ca2+  Ca1  1  0.58125000  0.83125000  0.49633333  1.0
  Ca2+  Ca1  1  0.58125000  0.83125000  0.82966667  1.0
  Ca2+  Ca1  1  0.33125000  0.41875000  0.17033333  1.0
  Ca2+  Ca1  1  0.33125000  0.41875000  0.50366667  1.0
  Ca2+  Ca1  1  0.33125000  0.41875000  0.83700000  1.0
  Ca2+  Ca1  1  0.33125000  0.91875000  0.17033333  1.0
  Ca2+  Ca1  1  0.33125000  0.91875000  0.50366667  1.0
  Ca2+  Ca1  1  0.33125000  0.91875000  0.83700000  1.0
  Ca2+  Ca1  1  0.83125000  0.41875000  0.17033333  1.0
  Ca2+  Ca1  1  0.83125000  0.41875000  0.50366667  1.0
  Ca2+  Ca1  1  0.83125000  0.41875000  0.83700000  1.0
  Ca2+  Ca1  1  0.83125000  0.91875000  0.17033333  1.0
  Ca2+  Ca1  1  0.83125000  0.91875000  0.50366667  1.0
  Ca2+  Ca1  1  0.83125000  0.91875000  0.83700000  1.0
  Ca2+  Ca1  1  0.41875000  0.16875000  0.16300000  1.0
  Ca2+  Ca1  1  0.41875000  0.16875000  0.49633333  1.0
  Ca2+  Ca1  1  0.41875000  0.16875000  0.82966667  1.0
  Ca2+  Ca1  1  0.41875000  0.66875000  0.16300000  1.0
  Ca2+  Ca1  1  0.41875000  0.66875000  0.49633333  1.0
  Ca2+  Ca1  1  0.41875000  0.66875000  0.82966667  1.0
  Ca2+  Ca1  1  0.91875000  0.16875000  0.16300000  1.0
  Ca2+  Ca1  1  0.91875000  0.16875000  0.49633333  1.0
  Ca2+  Ca1  1  0.91875000  0.16875000  0.82966667  1.0
  Ca2+  Ca1  1  0.91875000  0.66875000  0.16300000  1.0
  Ca2+  Ca1  1  0.91875000  0.66875000  0.49633333  1.0
  Ca2+  Ca1  1  0.91875000  0.66875000  0.82966667  1.0
  Al0+  AlT1  1  0.00000000  0.00000000  0.00000000  1.0
  Al0+  AlT1  1  0.00000000  0.00000000  0.33333333  1.0
  Al0+  AlT1  1  0.00000000  0.00000000  0.66666667  1.0
  Al0+  AlT1  1  0.00000000  0.50000000  0.00000000  1.0
  Al0+  AlT1  1  0.00000000  0.50000000  0.33333333  1.0
  Al0+  AlT1  1  0.00000000  0.50000000  0.66666667  1.0
  Al0+  AlT1  1  0.50000000  0.00000000  0.00000000  1.0
  Al0+  AlT1  1  0.50000000  0.00000000  0.33333333  1.0
  Al0+  AlT1  1  0.50000000  0.00000000  0.66666667  1.0
  Al0+  AlT1  1  0.50000000  0.50000000  0.00000000  1.0
  Al0+  AlT1  1  0.50000000  0.50000000  0.33333333  1.0
  Al0+  AlT1  1  0.50000000  0.50000000  0.66666667  1.0
  Al0+  AlT1  1  0.25000000  0.25000000  0.00000000  1.0
  Al0+  AlT1  1  0.25000000  0.25000000  0.33333333  1.0
  Al0+  AlT1  1  0.25000000  0.25000000  0.66666667  1.0
  Al0+  AlT1  1  0.25000000  0.75000000  0.00000000  1.0
  Al0+  AlT1  1  0.25000000  0.75000000  0.33333333  1.0
  Al0+  AlT1  1  0.25000000  0.75000000  0.66666667  1.0
  Al0+  AlT1  1  0.75000000  0.25000000  0.00000000  1.0
  Al0+  AlT1  1  0.75000000  0.25000000  0.33333333  1.0
  Al0+  AlT1  1  0.75000000  0.25000000  0.66666667  1.0
  Al0+  AlT1  1  0.75000000  0.75000000  0.00000000  1.0
  Al0+  AlT1  1  0.75000000  0.75000000  0.33333333  1.0
  Al0+  AlT1  1  0.75000000  0.75000000  0.66666667  1.0
  Al0+  SiT2  1  0.32155000  0.07155000  0.34906667  1.0
  Al0+  SiT2  1  0.07155000  0.17845000  0.65093333  1.0
  Al0+  SiT2  1  0.92845000  0.82155000  0.31760000  1.0
  Al0+  SiT2  1  0.17845000  0.42845000  0.68240000  1.0
  Al0+  SiT2  1  0.07155000  0.17845000  0.31760000  1.0
  Al0+  SiT2  1  0.57155000  0.17845000  0.98426667  1.0
  Al0+  SiT2  1  0.32155000  0.07155000  0.01573333  1.0
  Al0+  SiT2  1  0.57155000  0.67845000  0.31760000  1.0
  Al0+  SiT2  1  0.42845000  0.82155000  0.31760000  1.0
  Al0+  SiT2  1  0.17845000  0.42845000  0.34906667  1.0
  Al0+  SiT2  1  0.67845000  0.92845000  0.01573333  1.0
  Al0+  SiT2  1  0.92845000  0.32155000  0.65093333  1.0
  Al0+  SiT2  1  0.07155000  0.17845000  0.98426667  1.0
  Al0+  SiT2  1  0.82155000  0.57155000  0.01573333  1.0
  Al0+  SiT2  1  0.32155000  0.57155000  0.68240000  1.0
  Al0+  SiT2  1  0.92845000  0.82155000  0.98426667  1.0
  Al0+  SiT2  1  0.42845000  0.32155000  0.31760000  1.0
  Al0+  SiT2  1  0.92845000  0.32155000  0.98426667  1.0
  Al0+  SiT2  1  0.57155000  0.67845000  0.98426667  1.0
  Al0+  SiT2  1  0.42845000  0.82155000  0.65093333  1.0
  Al0+  SiT2  1  0.42845000  0.32155000  0.65093333  1.0
  Al0+  SiT2  1  0.67845000  0.92845000  0.34906667  1.0
  Al0+  SiT2  1  0.32155000  0.57155000  0.34906667  1.0
  Al0+  SiT2  1  0.17845000  0.92845000  0.68240000  1.0
  Si0+  SiT2  1  0.17845000  0.92845000  0.01573333  1.0
  Si0+  SiT2  1  0.67845000  0.42845000  0.34906667  1.0
  Si0+  SiT2  1  0.92845000  0.82155000  0.65093333  1.0
  Si0+  SiT2  1  0.67845000  0.42845000  0.01573333  1.0
  Si0+  SiT2  1  0.82155000  0.57155000  0.34906667  1.0
  Si0+  SiT2  1  0.17845000  0.92845000  0.34906667  1.0
  Si0+  SiT2  1  0.07155000  0.67845000  0.65093333  1.0
  Si0+  SiT2  1  0.57155000  0.67845000  0.65093333  1.0
  Si0+  SiT2  1  0.07155000  0.67845000  0.98426667  1.0
  Si0+  SiT2  1  0.32155000  0.07155000  0.68240000  1.0
  Si0+  SiT2  1  0.67845000  0.42845000  0.68240000  1.0
  Si0+  SiT2  1  0.42845000  0.82155000  0.98426667  1.0
  Si0+  SiT2  1  0.32155000  0.57155000  0.01573333  1.0
  Si0+  SiT2  1  0.57155000  0.17845000  0.65093333  1.0
  Si0+  SiT2  1  0.42845000  0.32155000  0.98426667  1.0
  Si0+  SiT2  1  0.82155000  0.57155000  0.68240000  1.0
  Si0+  SiT2  1  0.82155000  0.07155000  0.01573333  1.0
  Si0+  SiT2  1  0.82155000  0.07155000  0.68240000  1.0
  Si0+  SiT2  1  0.67845000  0.92845000  0.68240000  1.0
  Si0+  SiT2  1  0.57155000  0.17845000  0.31760000  1.0
  Si0+  SiT2  1  0.07155000  0.67845000  0.31760000  1.0
  Si0+  SiT2  1  0.17845000  0.42845000  0.01573333  1.0
  Si0+  SiT2  1  0.82155000  0.07155000  0.34906667  1.0
  Si0+  SiT2  1  0.92845000  0.32155000  0.31760000  1.0
  O2-  O1  1  0.25000000  0.00000000  0.06280000  1.0
  O2-  O1  1  0.25000000  0.00000000  0.39613333  1.0
  O2-  O1  1  0.25000000  0.00000000  0.72946667  1.0
  O2-  O1  1  0.25000000  0.50000000  0.06280000  1.0
  O2-  O1  1  0.25000000  0.50000000  0.39613333  1.0
  O2-  O1  1  0.25000000  0.50000000  0.72946667  1.0
  O2-  O1  1  0.75000000  0.00000000  0.06280000  1.0
  O2-  O1  1  0.75000000  0.00000000  0.39613333  1.0
  O2-  O1  1  0.75000000  0.00000000  0.72946667  1.0
  O2-  O1  1  0.75000000  0.50000000  0.06280000  1.0
  O2-  O1  1  0.75000000  0.50000000  0.39613333  1.0
  O2-  O1  1  0.75000000  0.50000000  0.72946667  1.0
  O2-  O1  1  0.00000000  0.25000000  0.27053333  1.0
  O2-  O1  1  0.00000000  0.25000000  0.60386667  1.0
  O2-  O1  1  0.00000000  0.25000000  0.93720000  1.0
  O2-  O1  1  0.00000000  0.75000000  0.27053333  1.0
  O2-  O1  1  0.00000000  0.75000000  0.60386667  1.0
  O2-  O1  1  0.00000000  0.75000000  0.93720000  1.0
  O2-  O1  1  0.50000000  0.25000000  0.27053333  1.0
  O2-  O1  1  0.50000000  0.25000000  0.60386667  1.0
  O2-  O1  1  0.50000000  0.25000000  0.93720000  1.0
  O2-  O1  1  0.50000000  0.75000000  0.27053333  1.0
  O2-  O1  1  0.50000000  0.75000000  0.60386667  1.0
  O2-  O1  1  0.50000000  0.75000000  0.93720000  1.0
  O2-  O2  1  0.07090000  0.17910000  0.09440000  1.0
  O2-  O2  1  0.07090000  0.17910000  0.42773333  1.0
  O2-  O2  1  0.07090000  0.17910000  0.76106667  1.0
  O2-  O2  1  0.07090000  0.67910000  0.09440000  1.0
  O2-  O2  1  0.07090000  0.67910000  0.42773333  1.0
  O2-  O2  1  0.07090000  0.67910000  0.76106667  1.0
  O2-  O2  1  0.57090000  0.17910000  0.09440000  1.0
  O2-  O2  1  0.57090000  0.17910000  0.42773333  1.0
  O2-  O2  1  0.57090000  0.17910000  0.76106667  1.0
  O2-  O2  1  0.57090000  0.67910000  0.09440000  1.0
  O2-  O2  1  0.57090000  0.67910000  0.42773333  1.0
  O2-  O2  1  0.57090000  0.67910000  0.76106667  1.0
  O2-  O2  1  0.17910000  0.42910000  0.23893333  1.0
  O2-  O2  1  0.17910000  0.42910000  0.57226667  1.0
  O2-  O2  1  0.17910000  0.42910000  0.90560000  1.0
  O2-  O2  1  0.17910000  0.92910000  0.23893333  1.0
  O2-  O2  1  0.17910000  0.92910000  0.57226667  1.0
  O2-  O2  1  0.17910000  0.92910000  0.90560000  1.0
  O2-  O2  1  0.67910000  0.42910000  0.23893333  1.0
  O2-  O2  1  0.67910000  0.42910000  0.57226667  1.0
  O2-  O2  1  0.67910000  0.42910000  0.90560000  1.0
  O2-  O2  1  0.67910000  0.92910000  0.23893333  1.0
  O2-  O2  1  0.67910000  0.92910000  0.57226667  1.0
  O2-  O2  1  0.67910000  0.92910000  0.90560000  1.0
  O2-  O2  1  0.42910000  0.32090000  0.09440000  1.0
  O2-  O2  1  0.42910000  0.32090000  0.42773333  1.0
  O2-  O2  1  0.42910000  0.32090000  0.76106667  1.0
  O2-  O2  1  0.42910000  0.82090000  0.09440000  1.0
  O2-  O2  1  0.42910000  0.82090000  0.42773333  1.0
  O2-  O2  1  0.42910000  0.82090000  0.76106667  1.0
  O2-  O2  1  0.92910000  0.32090000  0.09440000  1.0
  O2-  O2  1  0.92910000  0.32090000  0.42773333  1.0
  O2-  O2  1  0.92910000  0.32090000  0.76106667  1.0
  O2-  O2  1  0.92910000  0.82090000  0.09440000  1.0
  O2-  O2  1  0.92910000  0.82090000  0.42773333  1.0
  O2-  O2  1  0.92910000  0.82090000  0.76106667  1.0
  O2-  O2  1  0.32090000  0.07090000  0.23893333  1.0
  O2-  O2  1  0.32090000  0.07090000  0.57226667  1.0
  O2-  O2  1  0.32090000  0.07090000  0.90560000  1.0
  O2-  O2  1  0.32090000  0.57090000  0.23893333  1.0
  O2-  O2  1  0.32090000  0.57090000  0.57226667  1.0
  O2-  O2  1  0.32090000  0.57090000  0.90560000  1.0
  O2-  O2  1  0.82090000  0.07090000  0.23893333  1.0
  O2-  O2  1  0.82090000  0.07090000  0.57226667  1.0
  O2-  O2  1  0.82090000  0.07090000  0.90560000  1.0
  O2-  O2  1  0.82090000  0.57090000  0.23893333  1.0
  O2-  O2  1  0.82090000  0.57090000  0.57226667  1.0
  O2-  O2  1  0.82090000  0.57090000  0.90560000  1.0
  O2-  O3  1  0.04360000  0.08530000  0.26776667  1.0
  O2-  O3  1  0.04360000  0.08530000  0.60110000  1.0
  O2-  O3  1  0.04360000  0.08530000  0.93443333  1.0
  O2-  O3  1  0.04360000  0.58530000  0.26776667  1.0
  O2-  O3  1  0.04360000  0.58530000  0.60110000  1.0
  O2-  O3  1  0.04360000  0.58530000  0.93443333  1.0
  O2-  O3  1  0.54360000  0.08530000  0.26776667  1.0
  O2-  O3  1  0.54360000  0.08530000  0.60110000  1.0
  O2-  O3  1  0.54360000  0.08530000  0.93443333  1.0
  O2-  O3  1  0.54360000  0.58530000  0.26776667  1.0
  O2-  O3  1  0.54360000  0.58530000  0.60110000  1.0
  O2-  O3  1  0.54360000  0.58530000  0.93443333  1.0
  O2-  O3  1  0.16470000  0.20640000  0.26776667  1.0
  O2-  O3  1  0.16470000  0.20640000  0.60110000  1.0
  O2-  O3  1  0.16470000  0.20640000  0.93443333  1.0
  O2-  O3  1  0.16470000  0.70640000  0.26776667  1.0
  O2-  O3  1  0.16470000  0.70640000  0.60110000  1.0
  O2-  O3  1  0.16470000  0.70640000  0.93443333  1.0
  O2-  O3  1  0.66470000  0.20640000  0.26776667  1.0
  O2-  O3  1  0.66470000  0.20640000  0.60110000  1.0
  O2-  O3  1  0.66470000  0.20640000  0.93443333  1.0
  O2-  O3  1  0.66470000  0.70640000  0.26776667  1.0
  O2-  O3  1  0.66470000  0.70640000  0.60110000  1.0
  O2-  O3  1  0.66470000  0.70640000  0.93443333  1.0
  O2-  O3  1  0.08530000  0.45640000  0.06556667  1.0
  O2-  O3  1  0.08530000  0.45640000  0.39890000  1.0
  O2-  O3  1  0.08530000  0.45640000  0.73223333  1.0
  O2-  O3  1  0.08530000  0.95640000  0.06556667  1.0
  O2-  O3  1  0.08530000  0.95640000  0.39890000  1.0
  O2-  O3  1  0.08530000  0.95640000  0.73223333  1.0
  O2-  O3  1  0.58530000  0.45640000  0.06556667  1.0
  O2-  O3  1  0.58530000  0.45640000  0.39890000  1.0
  O2-  O3  1  0.58530000  0.45640000  0.73223333  1.0
  O2-  O3  1  0.58530000  0.95640000  0.06556667  1.0
  O2-  O3  1  0.58530000  0.95640000  0.39890000  1.0
  O2-  O3  1  0.58530000  0.95640000  0.73223333  1.0
  O2-  O3  1  0.20640000  0.33530000  0.06556667  1.0
  O2-  O3  1  0.20640000  0.33530000  0.39890000  1.0
  O2-  O3  1  0.20640000  0.33530000  0.73223333  1.0
  O2-  O3  1  0.20640000  0.83530000  0.06556667  1.0
  O2-  O3  1  0.20640000  0.83530000  0.39890000  1.0
  O2-  O3  1  0.20640000  0.83530000  0.73223333  1.0
  O2-  O3  1  0.70640000  0.33530000  0.06556667  1.0
  O2-  O3  1  0.70640000  0.33530000  0.39890000  1.0
  O2-  O3  1  0.70640000  0.33530000  0.73223333  1.0
  O2-  O3  1  0.70640000  0.83530000  0.06556667  1.0
  O2-  O3  1  0.70640000  0.83530000  0.39890000  1.0
  O2-  O3  1  0.70640000  0.83530000  0.73223333  1.0
  O2-  O3  1  0.45640000  0.41470000  0.26776667  1.0
  O2-  O3  1  0.45640000  0.41470000  0.60110000  1.0
  O2-  O3  1  0.45640000  0.41470000  0.93443333  1.0
  O2-  O3  1  0.45640000  0.91470000  0.26776667  1.0
  O2-  O3  1  0.45640000  0.91470000  0.60110000  1.0
  O2-  O3  1  0.45640000  0.91470000  0.93443333  1.0
  O2-  O3  1  0.95640000  0.41470000  0.26776667  1.0
  O2-  O3  1  0.95640000  0.41470000  0.60110000  1.0
  O2-  O3  1  0.95640000  0.41470000  0.93443333  1.0
  O2-  O3  1  0.95640000  0.91470000  0.26776667  1.0
  O2-  O3  1  0.95640000  0.91470000  0.60110000  1.0
  O2-  O3  1  0.95640000  0.91470000  0.93443333  1.0
  O2-  O3  1  0.33530000  0.29360000  0.26776667  1.0
  O2-  O3  1  0.33530000  0.29360000  0.60110000  1.0
  O2-  O3  1  0.33530000  0.29360000  0.93443333  1.0
  O2-  O3  1  0.33530000  0.79360000  0.26776667  1.0
  O2-  O3  1  0.33530000  0.79360000  0.60110000  1.0
  O2-  O3  1  0.33530000  0.79360000  0.93443333  1.0
  O2-  O3  1  0.83530000  0.29360000  0.26776667  1.0
  O2-  O3  1  0.83530000  0.29360000  0.60110000  1.0
  O2-  O3  1  0.83530000  0.29360000  0.93443333  1.0
  O2-  O3  1  0.83530000  0.79360000  0.26776667  1.0
  O2-  O3  1  0.83530000  0.79360000  0.60110000  1.0
  O2-  O3  1  0.83530000  0.79360000  0.93443333  1.0
  O2-  O3  1  0.41470000  0.04360000  0.06556667  1.0
  O2-  O3  1  0.41470000  0.04360000  0.39890000  1.0
  O2-  O3  1  0.41470000  0.04360000  0.73223333  1.0
  O2-  O3  1  0.41470000  0.54360000  0.06556667  1.0
  O2-  O3  1  0.41470000  0.54360000  0.39890000  1.0
  O2-  O3  1  0.41470000  0.54360000  0.73223333  1.0
  O2-  O3  1  0.91470000  0.04360000  0.06556667  1.0
  O2-  O3  1  0.91470000  0.04360000  0.39890000  1.0
  O2-  O3  1  0.91470000  0.04360000  0.73223333  1.0
  O2-  O3  1  0.91470000  0.54360000  0.06556667  1.0
  O2-  O3  1  0.91470000  0.54360000  0.39890000  1.0
  O2-  O3  1  0.91470000  0.54360000  0.73223333  1.0
  O2-  O3  1  0.29360000  0.16470000  0.06556667  1.0
  O2-  O3  1  0.29360000  0.16470000  0.39890000  1.0
  O2-  O3  1  0.29360000  0.16470000  0.73223333  1.0
  O2-  O3  1  0.29360000  0.66470000  0.06556667  1.0
  O2-  O3  1  0.29360000  0.66470000  0.39890000  1.0
  O2-  O3  1  0.29360000  0.66470000  0.73223333  1.0
  O2-  O3  1  0.79360000  0.16470000  0.06556667  1.0
  O2-  O3  1  0.79360000  0.16470000  0.39890000  1.0
  O2-  O3  1  0.79360000  0.16470000  0.73223333  1.0
  O2-  O3  1  0.79360000  0.66470000  0.06556667  1.0
  O2-  O3  1  0.79360000  0.66470000  0.39890000  1.0
  O2-  O3  1  0.79360000  0.66470000  0.73223333  1.0

























































































































































































































































































































































































































































































