# generated using pymatgen
data_VZnO4
_symmetry_space_group_name_H-M   'P 1'
_cell_length_a   16.88863495
_cell_length_b   16.97743736
_cell_length_c   16.86099187
_cell_angle_alpha   90.16545422
_cell_angle_beta   89.77016116
_cell_angle_gamma   90.19827938
_symmetry_Int_Tables_number   1
_chemical_formula_structural   VZnO4
_chemical_formula_sum   'V64 Zn64 O256'
_cell_volume   4834.39259459
_cell_formula_units_Z   64
loop_
 _symmetry_equiv_pos_site_id
 _symmetry_equiv_pos_as_xyz
  1  'x, y, z'
loop_
 _atom_site_type_symbol
 _atom_site_label
 _atom_site_symmetry_multiplicity
 _atom_site_fract_x
 _atom_site_fract_y
 _atom_site_fract_z
 _atom_site_occupancy
  V  V0  1  0.75712541  0.00257315  0.75822427  1
  V  V1  1  0.49610718  0.38664895  0.38925905  1
  V  V2  1  0.63969521  0.73727152  0.88078384  1
  V  V3  1  0.24986178  0.27343732  0.00192534  1
  V  V4  1  0.90642171  0.13047044  0.74432611  1
  V  V5  1  0.12824090  0.25861133  0.38672819  1
  V  V6  1  -0.02334557  0.36396984  0.39681299  1
  V  V7  1  0.74440450  0.14428315  0.85932318  1
  V  V8  1  0.24558742  0.75083932  -0.01387701  1
  V  V9  1  0.25401132  0.12714717  0.38953415  1
  V  V10  1  0.88310097  -0.00722312  0.37453174  1
  V  V11  1  0.74539582  0.12543899  0.39276705  1
  V  V12  1  0.73693368  -0.00025207  0.24102195  1
  V  V13  1  -0.01462074  0.49742604  0.01134092  1
  V  V14  1  0.90111651  0.25219851  0.61375692  1
  V  V15  1  0.39141777  0.48829728  0.88101099  1
  V  V16  1  0.25537616  0.38147412  0.64159011  1
  V  V17  1  0.75128825  0.88572845  0.62185937  1
  V  V18  1  0.13029819  0.01529417  0.62956299  1
  V  V19  1  0.61219149  0.88024525  0.23390222  1
  V  V20  1  0.87405879  0.46422574  0.86060975  1
  V  V21  1  0.50310943  0.62207193  0.62243139  1
  V  V22  1  0.25347953  0.00460619  0.76544073  1
  V  V23  1  0.49863459  0.59972342  0.12466350  1
  V  V24  1  0.24646137  0.87090730  0.62561586  1
  V  V25  1  0.85208033  0.51142923  0.36252176  1
  V  V26  1  0.61715904  0.11519606  -0.00249976  1
  V  V27  1  0.60573031  0.77593500  0.38130354  1
  V  V28  1  0.00694256  0.11416616  0.12942830  1
  V  V29  1  0.37662667  -0.01840525  0.37745970  1
  V  V30  1  0.62012597  0.88361765  0.75721601  1
  V  V31  1  0.87226200  0.35475770  0.01614677  1
  V  V32  1  0.14987674  0.11189880  0.00553528  1
  V  V33  1  0.39496977  0.00551528  0.88176037  1
  V  V34  1  0.88439062  0.75276388  0.62137595  1
  V  V35  1  0.26684616  0.26035564  0.50978238  1
  V  V36  1  0.00965955  0.25623694  0.24602207  1
  V  V37  1  0.37135799  0.75804740  0.61979392  1
  V  V38  1  0.38855640  0.13463951  0.74592776  1
  V  V39  1  0.23936214  0.01262449  0.24218149  1
  V  V40  1  0.23569760  0.87318256  0.12845083  1
  V  V41  1  0.32719235  0.55478871  0.37201536  1
  V  V42  1  0.86804205  0.13461658  0.24688403  1
  V  V43  1  0.49891157  0.75413232  0.76372045  1
  V  V44  1  0.11043234  0.86809161  0.76763678  1
  V  V45  1  0.63321444  0.38130388  0.24919186  1
  V  V46  1  0.64993665  0.48583137  0.09514109  1
  V  V47  1  0.38997767  0.87659313  -0.00644715  1
  V  V48  1  0.74863012  0.24633928  0.01734286  1
  V  V49  1  0.49769934  0.24747748  0.24964849  1
  V  V50  1  0.37286710  0.26726896  0.12306154  1
  V  V51  1  0.74608182  0.49731242  0.73560709  1
  V  V52  1  0.87936002  0.64090990  0.76291324  1
  V  V53  1  0.62475875  0.24344394  0.39102794  1
  V  V54  1  0.38456152  0.75094092  0.12868382  1
  V  V55  1  0.37195899  0.62183141  0.75805717  1
  V  V56  1  0.74841970  0.75657246  0.49752174  1
  V  V57  1  0.23500045  0.61523040  0.87674080  1
  V  V58  1  -0.01231985  0.53846293  0.48529496  1
  V  V59  1  0.61666403  0.62305329  0.49062511  1
  V  V60  1  0.49641347  0.11153375  0.12615166  1
  V  V61  1  0.11866513  0.25480785  0.87541205  1
  V  V62  1  0.01070600  -0.00028173  0.50505097  1
  V  V63  1  0.87313482  0.88341500  0.00758042  1
  Zn  Zn64  1  0.18600634  0.19309655  0.18493368  1
  Zn  Zn65  1  0.19882596  0.19235349  0.69667521  1
  Zn  Zn66  1  0.21776689  0.66856882  0.16473997  1
  Zn  Zn67  1  0.18480588  0.69599479  0.70371166  1
  Zn  Zn68  1  0.67708866  0.18093968  0.19202849  1
  Zn  Zn69  1  0.69608904  0.18606061  0.65794511  1
  Zn  Zn70  1  0.48988179  0.74499215  0.25912831  1
  Zn  Zn71  1  0.69372837  0.68608591  0.69206247  1
  Zn  Zn72  1  0.32453291  0.30175564  0.32178569  1
  Zn  Zn73  1  0.30390075  0.31489967  0.81066871  1
  Zn  Zn74  1  0.30472210  0.81068949  0.31452598  1
  Zn  Zn75  1  0.31233693  0.81953215  0.81259871  1
  Zn  Zn76  1  0.80707847  0.31124674  0.31556413  1
  Zn  Zn77  1  0.81006438  0.30347142  0.75753445  1
  Zn  Zn78  1  0.79913377  0.81840092  0.31480533  1
  Zn  Zn79  1  0.81503067  0.81500855  0.81102381  1
  Zn  Zn80  1  0.17659633  0.43881083  0.48197568  1
  Zn  Zn81  1  0.17301129  0.44128002  0.94262020  1
  Zn  Zn82  1  0.22498466  0.96455954  0.46439428  1
  Zn  Zn83  1  0.19353595  0.93379524  0.94287371  1
  Zn  Zn84  1  0.67064466  0.44030815  0.43507740  1
  Zn  Zn85  1  0.69689199  0.42238841  0.91582200  1
  Zn  Zn86  1  0.67982094  0.94751730  0.44242190  1
  Zn  Zn87  1  0.68162232  0.93630510  0.93494660  1
  Zn  Zn88  1  0.32223368  0.05920984  0.06994723  1
  Zn  Zn89  1  0.32523123  0.06658695  0.56568596  1
  Zn  Zn90  1  0.32828956  0.56587694  0.05054006  1
  Zn  Zn91  1  0.31102009  0.57125184  0.55802801  1
  Zn  Zn92  1  0.80788537  0.07263404  0.06182886  1
  Zn  Zn93  1  0.82411919  0.06355614  0.56555209  1
  Zn  Zn94  1  0.84543680  0.47023127  0.15417794  1
  Zn  Zn95  1  0.80864038  0.57799667  0.55254444  1
  Zn  Zn96  1  0.42620486  0.43812264  0.21943990  1
  Zn  Zn97  1  0.40316419  0.45323326  0.65605925  1
  Zn  Zn98  1  0.42258188  0.93521424  0.19212937  1
  Zn  Zn99  1  0.43692759  0.93851467  0.68996559  1
  Zn  Zn100  1  0.99447737  0.46835102  0.22863089  1
  Zn  Zn101  1  0.89933796  0.46449745  0.64598635  1
  Zn  Zn102  1  0.93722914  0.94611960  0.20513572  1
  Zn  Zn103  1  0.93748749  0.94138901  0.68646083  1
  Zn  Zn104  1  0.06531886  0.06488045  0.32304110  1
  Zn  Zn105  1  0.07509564  0.05391920  0.83083781  1
  Zn  Zn106  1  0.12728484  0.52712559  0.34929349  1
  Zn  Zn107  1  0.03625483  0.57652283  0.82989703  1
  Zn  Zn108  1  0.55563567  0.06256601  0.31694426  1
  Zn  Zn109  1  0.56572359  0.07018296  0.81083211  1
  Zn  Zn110  1  0.56080847  0.56787410  0.30610994  1
  Zn  Zn111  1  0.56881534  0.55864059  0.81238557  1
  Zn  Zn112  1  0.43775488  0.18080068  0.43811108  1
  Zn  Zn113  1  0.43340712  0.19448240  0.93972808  1
  Zn  Zn114  1  0.42508956  0.68452623  0.43635707  1
  Zn  Zn115  1  0.44146572  0.68304796  0.94407427  1
  Zn  Zn116  1  0.94893895  0.17044444  0.43963190  1
  Zn  Zn117  1  0.94740271  0.14541308  0.92003506  1
  Zn  Zn118  1  0.91332804  0.69644607  0.39334393  1
  Zn  Zn119  1  0.91274094  0.68443801  0.96670321  1
  Zn  Zn120  1  0.02823779  0.26582035  0.02516223  1
  Zn  Zn121  1  0.07708806  0.31299025  0.57636298  1
  Zn  Zn122  1  0.05904253  0.81117973  0.03934539  1
  Zn  Zn123  1  0.06810648  0.83085140  0.55364227  1
  Zn  Zn124  1  0.58212612  0.29417394  0.07829833  1
  Zn  Zn125  1  0.56338237  0.32005095  0.56849812  1
  Zn  Zn126  1  0.56680683  0.80878516  0.05845369  1
  Zn  Zn127  1  0.57496338  0.79726394  0.58627798  1
  O  O128  1  0.11435968  0.12870178  0.11792842  1
  O  O129  1  0.13606473  0.11216023  0.63697721  1
  O  O130  1  0.22972179  0.55386781  0.11628779  1
  O  O131  1  0.15420382  0.62163468  0.61382784  1
  O  O132  1  0.61091242  0.12904831  0.11070522  1
  O  O133  1  0.60557560  0.12674940  0.60917059  1
  O  O134  1  0.60475245  0.57550132  0.12288881  1
  O  O135  1  0.60693765  0.64204549  0.62045540  1
  O  O136  1  0.39758193  0.36654014  0.37704638  1
  O  O137  1  0.37136716  0.39339991  0.85609321  1
  O  O138  1  0.36991725  0.88070947  0.37852387  1
  O  O139  1  0.37573635  0.88474578  0.88621446  1
  O  O140  1  0.87827666  0.34311591  0.39775789  1
  O  O141  1  0.87601287  0.36771170  0.84052511  1
  O  O142  1  0.84754161  0.90240189  0.38692380  1
  O  O143  1  0.87522231  0.86671135  0.90255915  1
  O  O144  1  0.24882104  0.01569575  0.36461288  1
  O  O145  1  0.25901401  -0.00312455  0.86694000  1
  O  O146  1  0.23112475  0.51438072  0.39692594  1
  O  O147  1  0.25166209  0.51435820  0.88331292  1
  O  O148  1  0.74303256  0.01643121  0.37195930  1
  O  O149  1  0.74545809  0.00420295  0.86005334  1
  O  O150  1  0.75989169  0.47102007  0.37437624  1
  O  O151  1  0.76734018  0.49310741  0.85827527  1
  O  O152  1  0.24749545  0.52523070  0.19303771  1
  O  O153  1  0.28365362  0.48285257  0.62253263  1
  O  O154  1  0.25674289  0.98422941  0.13472376  1
  O  O155  1  0.24519516  0.99005005  0.63649871  1
  O  O156  1  0.74700117  0.50206146  0.11227388  1
  O  O157  1  0.78413721  0.50153330  0.63388191  1
  O  O158  1  0.74168458  1.01718803  0.14254368  1
  O  O159  1  0.75228178  0.99082460  0.62996963  1
  O  O160  1  -0.00687446  0.35568691  0.27406937  1
  O  O161  1  0.05377400  0.42453980  0.72551751  1
  O  O162  1  -0.00695022  0.83808876  0.20618067  1
  O  O163  1  0.01257525  0.89003056  0.75155300  1
  O  O164  1  0.50898679  0.36448135  0.26475056  1
  O  O165  1  0.54674899  0.28991899  0.68146364  1
  O  O166  1  0.50940068  0.87853753  0.24438674  1
  O  O167  1  0.51068590  0.86530989  0.74593872  1
  O  O168  1  0.51147323  0.13427369  0.23390043  1
  O  O169  1  0.49000441  0.12730195  0.75356065  1
  O  O170  1  0.50672953  0.63344259  0.23022153  1
  O  O171  1  0.49125915  0.63945908  0.74180221  1
  O  O172  1  0.99031589  0.13480026  0.24793354  1
  O  O173  1  1.00150073  0.10480750  0.75367860  1
  O  O174  1  1.05214342  0.62304527  0.16502689  1
  O  O175  1  0.98007199  0.62555549  0.74508553  1
  O  O176  1  0.36546862  0.25853510  0.01106058  1
  O  O177  1  0.36487466  0.23645126  0.50767044  1
  O  O178  1  0.37429493  0.76238256  0.00411436  1
  O  O179  1  0.37409609  0.74893022  0.52140720  1
  O  O180  1  0.85814619  0.24845405  -0.00776434  1
  O  O181  1  0.88526835  0.22305071  0.51568569  1
  O  O182  1  0.86581672  0.78014633  0.02617614  1
  O  O183  1  0.85118279  0.75337827  0.49914043  1
  O  O184  1  0.13968087  0.24634290  0.48854182  1
  O  O185  1  0.14283770  0.24132616  1.00800621  1
  O  O186  1  0.12649296  0.76088413  0.47576903  1
  O  O187  1  0.14788348  0.74674332  1.00206394  1
  O  O188  1  0.62364907  0.25109325  0.48966788  1
  O  O189  1  0.63969748  0.23685750  0.99942888  1
  O  O190  1  0.62117628  0.75289873  0.49398341  1
  O  O191  1  0.62561409  0.75875804  0.97976673  1
  O  O192  1  0.49096188  0.25055730  0.12997339  1
  O  O193  1  0.53985279  0.16249193  0.57931343  1
  O  O194  1  0.48875011  0.75460896  0.12539933  1
  O  O195  1  0.48529321  0.74956258  0.63734503  1
  O  O196  1  1.00518467  0.24897660  0.14488568  1
  O  O197  1  1.00503754  0.23893598  0.61842993  1
  O  O198  1  0.99574254  0.79057611  0.14761791  1
  O  O199  1  0.98040501  0.77526861  0.60253255  1
  O  O200  1  0.01409000  0.24765763  0.37588682  1
  O  O201  1  0.01839970  0.23698950  0.90108366  1
  O  O202  1  0.05701608  0.71844705  0.31657587  1
  O  O203  1  -0.00239569  0.75884182  0.95809521  1
  O  O204  1  0.51266891  0.24166285  0.36930803  1
  O  O205  1  0.50089750  0.27180063  0.87093254  1
  O  O206  1  0.50304715  0.75248585  0.37802138  1
  O  O207  1  0.50220599  0.74766116  0.86497558  1
  O  O208  1  0.24903202  0.13129290  0.49255660  1
  O  O209  1  0.25003533  0.12939169  1.01434286  1
  O  O210  1  0.20058370  0.62536983  0.55205637  1
  O  O211  1  0.26133776  0.63910650  0.98284885  1
  O  O212  1  0.75170329  0.11809987  0.49203759  1
  O  O213  1  0.74757738  0.13516060  0.98138784  1
  O  O214  1  0.72666107  0.64932506  0.50969555  1
  O  O215  1  0.79033451  0.64373130  1.00763555  1
  O  O216  1  0.24068208  0.37136554  0.01047445  1
  O  O217  1  0.26768311  0.35913267  0.49207454  1
  O  O218  1  0.26078194  0.86316244  0.00394670  1
  O  O219  1  0.24443263  0.87208907  0.52550088  1
  O  O220  1  0.75212441  0.34872854  -0.01208577  1
  O  O221  1  0.71899611  0.38350370  0.53684516  1
  O  O222  1  0.76634598  0.88330792  -0.00100895  1
  O  O223  1  0.73583499  0.87352584  0.51598891  1
  O  O224  1  0.08937817  0.52073993  0.24795880  1
  O  O225  1  0.09526665  0.48133925  0.74501866  1
  O  O226  1  0.13982144  1.00063265  0.25739119  1
  O  O227  1  0.13886313  0.99682230  0.74882449  1
  O  O228  1  0.62737816  0.48115323  0.25955397  1
  O  O229  1  0.64684839  0.51989588  0.73954488  1
  O  O230  1  0.62683803  0.99168210  0.25686762  1
  O  O231  1  0.62688337  0.98619907  0.75336808  1
  O  O232  1  0.35109879  -0.01254647  0.26623314  1
  O  O233  1  0.37155082  0.00049983  0.76402502  1
  O  O234  1  0.37220026  0.50288938  0.29702049  1
  O  O235  1  0.37824532  0.52073734  0.75495779  1
  O  O236  1  0.85111580  0.00872594  0.25915434  1
  O  O237  1  0.86038545  0.00982446  0.74598605  1
  O  O238  1  0.88041519  0.47869987  0.26221989  1
  O  O239  1  0.87587573  0.51171696  0.75920577  1
  O  O240  1  0.12546451  0.35946395  0.37982151  1
  O  O241  1  0.12407728  0.35558248  0.88331775  1
  O  O242  1  0.16392621  0.80122520  0.41678187  1
  O  O243  1  0.12350447  0.88588214  0.86754915  1
  O  O244  1  0.61902838  0.35731575  0.36889686  1
  O  O245  1  0.59906206  0.36032956  0.86055105  1
  O  O246  1  0.60602439  0.87650613  0.38778423  1
  O  O247  1  0.63063363  0.86460965  0.86023960  1
  O  O248  1  0.39437513  0.13813609  0.11503718  1
  O  O249  1  0.37755928  0.12020624  0.64493431  1
  O  O250  1  0.37457640  0.64670219  0.12348363  1
  O  O251  1  0.37709541  0.64064648  0.63840919  1
  O  O252  1  0.88021545  0.12074031  0.14315408  1
  O  O253  1  0.88463811  0.12277242  0.64084148  1
  O  O254  1  0.89267411  0.64405972  0.16044289  1
  O  O255  1  0.87627325  0.65191467  0.61785227  1
  O  O256  1  0.26579934  0.24992318  0.12266299  1
  O  O257  1  0.23955484  0.26047033  0.61389587  1
  O  O258  1  0.26263679  0.75761575  0.11207728  1
  O  O259  1  0.26023424  0.76129451  0.64022691  1
  O  O260  1  0.74860291  0.23620501  0.11646633  1
  O  O261  1  0.78589788  0.24868899  0.65422190  1
  O  O262  1  0.74966784  0.67724910  0.05828234  1
  O  O263  1  0.75402486  0.76449204  0.61704159  1
  O  O264  1  0.24813993  0.24491522  0.38399466  1
  O  O265  1  0.24572427  0.25651896  0.89815429  1
  O  O266  1  0.22088687  0.75688615  0.38237369  1
  O  O267  1  0.25557206  0.74547554  0.88139994  1
  O  O268  1  0.73557333  0.23587059  0.37425701  1
  O  O269  1  0.74145576  0.24130308  0.84576820  1
  O  O270  1  0.72666136  0.76682024  0.39331199  1
  O  O271  1  0.73893146  0.74844601  0.86242745  1
  O  O272  1  -0.00908265  0.14118211  0.02993568  1
  O  O273  1  0.02534379  0.08115974  0.43891451  1
  O  O274  1  -0.03441097  0.59627341  0.00968073  1
  O  O275  1  -0.01698172  0.63723659  0.46008579  1
  O  O276  1  0.51107006  0.12914494  0.00353160  1
  O  O277  1  0.50947553  0.12309540  0.51691662  1
  O  O278  1  0.49396463  0.62762187  0.02571077  1
  O  O279  1  0.50491529  0.63850543  0.51367555  1
  O  O280  1  0.50917855  0.37462109  0.49103283  1
  O  O281  1  0.54586221  0.32678603  0.90842934  1
  O  O282  1  0.53825219  0.94843731  0.54766781  1
  O  O283  1  0.48831334  0.87593798  1.00388661  1
  O  O284  1  1.00585680  0.36352312  0.49191201  1
  O  O285  1  0.97632668  0.36413083  1.00519553  1
  O  O286  1  1.02078459  0.90563965  0.47419508  1
  O  O287  1  0.97649033  0.89514667  1.00785643  1
  O  O288  1  0.51420206  0.48429852  0.37508226  1
  O  O289  1  0.49145618  0.49878766  0.86673325  1
  O  O290  1  0.47402646  1.01089951  0.37580029  1
  O  O291  1  0.49329180  0.99680382  0.87350593  1
  O  O292  1  0.96770826  0.47249489  0.38419582  1
  O  O293  1  0.97495421  0.49833370  0.88506922  1
  O  O294  1  0.97457194  0.97850397  0.32814788  1
  O  O295  1  0.98607159  1.03936856  0.89680149  1
  O  O296  1  0.00160567  0.01539239  0.13991776  1
  O  O297  1  0.01527392  -0.00041419  0.61467845  1
  O  O298  1  -0.03995959  0.48399051  0.11486121  1
  O  O299  1  -0.01853781  0.52109116  0.58524031  1
  O  O300  1  0.48776046  0.01347301  0.13102068  1
  O  O301  1  0.49326255  -0.00935362  0.60079148  1
  O  O302  1  0.45918423  0.50799686  0.13298984  1
  O  O303  1  0.48889886  0.52301893  0.62775748  1
  O  O304  1  0.25344212  0.38764522  0.26165883  1
  O  O305  1  0.23181481  0.37229423  0.73921030  1
  O  O306  1  0.23856073  0.86477724  0.23114013  1
  O  O307  1  0.24348246  0.88685215  0.74827037  1
  O  O308  1  0.73197231  0.36128368  0.24842079  1
  O  O309  1  0.74401152  0.39620587  0.74270507  1
  O  O310  1  0.73541084  0.89280988  0.25412637  1
  O  O311  1  0.74530474  0.88916367  0.74684340  1
  O  O312  1  0.25195319  0.11258156  0.23636219  1
  O  O313  1  0.26150735  0.10653067  0.75072850  1
  O  O314  1  0.24465227  0.58854457  0.24522242  1
  O  O315  1  0.26323332  0.63513150  0.76556235  1
  O  O316  1  0.75452466  0.12170416  0.25848474  1
  O  O317  1  0.72796513  0.11023065  0.75163102  1
  O  O318  1  0.85573197  0.70028995  0.18762643  1
  O  O319  1  0.77169199  0.61875677  0.73957465  1
  O  O320  1  0.35712103  0.12971693  0.36966273  1
  O  O321  1  0.38228543  0.10981142  0.87446296  1
  O  O322  1  0.34487670  0.65690895  0.35886480  1
  O  O323  1  0.37674938  0.61963585  0.86648116  1
  O  O324  1  0.86176597  0.11585509  0.36777013  1
  O  O325  1  0.85225032  0.13000005  0.84977915  1
  O  O326  1  0.84247002  0.60919709  0.34915776  1
  O  O327  1  0.87631225  0.65139810  0.86307074  1
  O  O328  1  0.20420137  0.37396720  0.20817873  1
  O  O329  1  0.15533384  0.39370360  0.59089951  1
  O  O330  1  0.13834727  0.86832348  0.10498103  1
  O  O331  1  0.13503239  0.88060258  0.64009074  1
  O  O332  1  0.61537249  0.38780075  0.13577224  1
  O  O333  1  0.67139317  0.37627496  0.59545838  1
  O  O334  1  0.62513632  0.86983882  0.13591790  1
  O  O335  1  0.64059786  0.86723216  0.64636703  1
  O  O336  1  0.11459004  0.24968601  0.25868519  1
  O  O337  1  0.13226461  0.23392028  0.77729894  1
  O  O338  1  0.09820237  0.67983541  0.15103453  1
  O  O339  1  0.11853628  0.76733480  0.75635488  1
  O  O340  1  0.61267869  0.25853877  0.24891544  1
  O  O341  1  0.60830433  0.26270218  0.71744082  1
  O  O342  1  0.62296002  0.77564151  0.27273465  1
  O  O343  1  0.61257651  0.75422031  0.75624268  1
  O  O344  1  0.38706108  0.24926846  0.23938747  1
  O  O345  1  0.36498686  0.22961387  0.76589048  1
  O  O346  1  0.37459171  0.76642903  0.23285140  1
  O  O347  1  0.38614237  0.74771388  0.75215659  1
  O  O348  1  0.88093345  0.23588797  0.26061788  1
  O  O349  1  0.90814249  0.23288967  0.74406238  1
  O  O350  1  0.89520224  0.76539136  0.30949140  1
  O  O351  1  0.87376826  0.75031459  0.73415620  1
  O  O352  1  0.37242363  0.54658589  0.46550291  1
  O  O353  1  0.37646945  0.49442891  0.98159968  1
  O  O354  1  0.34559104  0.99783765  0.47982245  1
  O  O355  1  0.37214986  0.98921794  0.99022334  1
  O  O356  1  0.87326571  0.52015829  0.47556539  1
  O  O357  1  0.86772405  0.45927994  0.97692525  1
  O  O358  1  0.89955952  1.01135514  0.48879723  1
  O  O359  1  0.86215060  0.98862896  0.99809026  1
  O  O360  1  0.14034567  0.01262130  0.00582465  1
  O  O361  1  0.13113631  0.00193923  0.52295737  1
  O  O362  1  0.08622763  0.48971520  0.00056179  1
  O  O363  1  0.08980285  0.51474341  0.46097576  1
  O  O364  1  0.63223317  0.01618669  -0.00139206  1
  O  O365  1  0.59725555  -0.00645006  0.51875828  1
  O  O366  1  0.63362852  0.47438435  -0.00253559  1
  O  O367  1  0.62792047  0.52489916  0.49840961  1
  O  O368  1  0.37767172  0.36506035  0.13692564  1
  O  O369  1  0.35916490  0.35302021  0.64296623  1
  O  O370  1  0.36598936  0.86943480  0.11107363  1
  O  O371  1  0.36304366  0.86585877  0.63621882  1
  O  O372  1  0.85637398  0.35953584  0.11395880  1
  O  O373  1  0.89784085  0.35384861  0.62543620  1
  O  O374  1  0.86935130  0.89550774  0.11219881  1
  O  O375  1  0.85787925  0.87173481  0.63181508  1
  O  O376  1  0.14946888  0.14232453  0.36025791  1
  O  O377  1  0.13122709  0.13072550  0.90267726  1
  O  O378  1  0.11473201  0.67378302  0.31818778  1
  O  O379  1  0.13557131  0.61923950  0.86599407  1
  O  O380  1  0.63285543  0.13271902  0.37510117  1
  O  O381  1  0.63422474  0.12583959  0.88517576  1
  O  O382  1  0.61155304  0.63930343  0.38803317  1
  O  O383  1  0.62039571  0.63892663  0.87285842  1
