# generated using pymatgen
data_VZnO4
_symmetry_space_group_name_H-M   'P 1'
_cell_length_a   16.90555683
_cell_length_b   16.88639274
_cell_length_c   16.89243395
_cell_angle_alpha   90.15964947
_cell_angle_beta   89.81191495
_cell_angle_gamma   89.61352840
_symmetry_Int_Tables_number   1
_chemical_formula_structural   VZnO4
_chemical_formula_sum   'V64 Zn64 O256'
_cell_volume   4822.19382582
_cell_formula_units_Z   64
loop_
 _symmetry_equiv_pos_site_id
 _symmetry_equiv_pos_as_xyz
  1  'x, y, z'
loop_
 _atom_site_type_symbol
 _atom_site_label
 _atom_site_symmetry_multiplicity
 _atom_site_fract_x
 _atom_site_fract_y
 _atom_site_fract_z
 _atom_site_occupancy
  V  V0  1  0.88272865  0.39795275  0.00125552  1
  V  V1  1  0.39310450  0.50547636  0.87590955  1
  V  V2  1  0.87643852  0.87078730  0.47729942  1
  V  V3  1  -0.00301684  0.86889565  0.90368503  1
  V  V4  1  0.00591371  0.49972076  0.50804819  1
  V  V5  1  0.73805159  0.62224384  0.36515544  1
  V  V6  1  0.28001078  0.49245045  0.25408444  1
  V  V7  1  0.73683279  0.13734466  0.37675407  1
  V  V8  1  0.12677888  0.14258662  0.01480872  1
  V  V9  1  0.25343414  0.49835665  0.72723692  1
  V  V10  1  0.00180265  0.63047075  0.62582384  1
  V  V11  1  0.84957014  0.86438256  0.01127125  1
  V  V12  1  0.37951186  0.13930985  0.22294210  1
  V  V13  1  0.87935244  0.76725710  0.62576196  1
  V  V14  1  0.86694670  0.50845290  0.37334956  1
  V  V15  1  0.87346310  0.00878331  0.36245248  1
  V  V16  1  0.61043112  0.12774315  0.00606648  1
  V  V17  1  0.51512227  0.63408924  0.61132318  1
  V  V18  1  0.74372827  -0.02083086  0.74574095  1
  V  V19  1  0.60850634  -0.00491089  0.12375611  1
  V  V20  1  0.01252927  0.76705202  0.75054675  1
  V  V21  1  0.72429427  0.47193849  0.74714847  1
  V  V22  1  0.62953433  0.35351861  0.25841758  1
  V  V23  1  0.12538318  0.39081313  0.25096205  1
  V  V24  1  0.36963179  0.89011827  0.48282815  1
  V  V25  1  0.62763066  0.12520498  0.52349515  1
  V  V26  1  0.12873053  0.24772179  0.37721461  1
  V  V27  1  0.74035588  0.74809709  0.50945722  1
  V  V28  1  0.86897576  0.00090287  0.88097979  1
  V  V29  1  0.10256563  0.00316611  0.13121649  1
  V  V30  1  0.51733367  0.75337371  0.76724924  1
  V  V31  1  -0.00424983  0.37825596  0.37680235  1
  V  V32  1  0.87609075  0.62547494  0.77093724  1
  V  V33  1  0.61307515  0.49428910  0.13664830  1
  V  V34  1  0.11629351  0.75444364  0.35712466  1
  V  V35  1  0.25715032  0.11774971  0.37320786  1
  V  V36  1  0.62198081  0.75543159  0.34373826  1
  V  V37  1  0.24478878  0.62214721  0.88378968  1
  V  V38  1  0.12813605  0.63661874  0.49791630  1
  V  V39  1  0.61483087  0.61590075  0.00575368  1
  V  V40  1  0.61647965  0.26044079  0.86440134  1
  V  V41  1  0.86301941  0.37080685  0.51372188  1
  V  V42  1  0.73877918  -0.00325781  0.24463767  1
  V  V43  1  0.12614706  0.74512694  0.89777385  1
  V  V44  1  0.36346134  0.89437484  -0.01694906  1
  V  V45  1  0.75126834  0.36462962  0.11640476  1
  V  V46  1  0.39563395  0.36856804  -0.01868424  1
  V  V47  1  0.64357550  0.75595252  0.89424091  1
  V  V48  1  0.38051690  0.63047614  0.74803399  1
  V  V49  1  0.74415140  0.12919857  0.87661823  1
  V  V50  1  0.25050569  -0.00649839  0.23867435  1
  V  V51  1  0.36350960  0.12246820  0.75395557  1
  V  V52  1  0.88503143  0.20394570  0.68131774  1
  V  V53  1  0.26576789  0.62506053  0.37529259  1
  V  V54  1  0.47072419  0.73360956  0.24589153  1
  V  V55  1  0.11793697  0.12030253  0.50319542  1
  V  V56  1  0.24395329  0.37560267  0.10297702  1
  V  V57  1  0.48484334  0.37602575  0.37461924  1
  V  V58  1  -0.00114895  -0.00228695  0.49580450  1
  V  V59  1  0.02672270  0.61645472  0.11469052  1
  V  V60  1  0.88185933  0.73171516  0.12829556  1
  V  V61  1  -0.01180010  0.24342181  0.24594922  1
  V  V62  1  0.51085149  -0.00527245  0.46859511  1
  V  V63  1  0.37114284  0.77589679  0.63384262  1
  Zn  Zn64  1  0.18473434  0.19419931  0.19042368  1
  Zn  Zn65  1  0.13506585  -0.00845420  0.65819894  1
  Zn  Zn66  1  0.19492469  0.66739779  0.19600066  1
  Zn  Zn67  1  0.19131123  0.69172830  0.68663226  1
  Zn  Zn68  1  0.69651898  0.18153527  0.18359572  1
  Zn  Zn69  1  0.70111361  0.18041748  0.69321089  1
  Zn  Zn70  1  0.70254953  0.66719350  0.16896215  1
  Zn  Zn71  1  0.69373621  0.68864850  0.69239451  1
  Zn  Zn72  1  0.31309519  0.30835210  0.31919672  1
  Zn  Zn73  1  0.36669765  0.34177375  0.76510866  1
  Zn  Zn74  1  0.30166144  0.81011019  0.31197698  1
  Zn  Zn75  1  0.30364240  0.80196522  0.80974922  1
  Zn  Zn76  1  0.80642820  0.31841678  0.31360322  1
  Zn  Zn77  1  0.81069602  0.31347510  0.82606795  1
  Zn  Zn78  1  0.80143287  0.80195172  0.28877274  1
  Zn  Zn79  1  0.81616675  0.80552262  0.81486810  1
  Zn  Zn80  1  0.18698192  0.44737119  0.43113704  1
  Zn  Zn81  1  0.17953826  0.43787686  0.90649479  1
  Zn  Zn82  1  0.18807000  0.93494297  0.43166430  1
  Zn  Zn83  1  0.14565690  0.90443945  1.00490157  1
  Zn  Zn84  1  0.68672592  0.42835802  0.43703720  1
  Zn  Zn85  1  0.69403318  0.44306571  0.93484076  1
  Zn  Zn86  1  0.69225192  0.93188615  0.43136310  1
  Zn  Zn87  1  0.67882732  0.93909289  0.94246649  1
  Zn  Zn88  1  0.29370142  0.07710706  0.06398410  1
  Zn  Zn89  1  0.30836818  0.05768897  0.55797476  1
  Zn  Zn90  1  0.30292397  0.54223868  0.05962711  1
  Zn  Zn91  1  0.32182214  0.59044247  0.56158715  1
  Zn  Zn92  1  0.79997889  0.05035829  0.04971054  1
  Zn  Zn93  1  0.81085737  0.05981806  0.56613181  1
  Zn  Zn94  1  0.79570807  0.55717037  0.06075516  1
  Zn  Zn95  1  0.80993846  0.56553143  0.56942160  1
  Zn  Zn96  1  0.44732206  0.38990047  0.17175868  1
  Zn  Zn97  1  0.53219411  0.45774104  0.68257293  1
  Zn  Zn98  1  0.43361913  0.93925937  0.19757813  1
  Zn  Zn99  1  0.45188654  0.93884267  0.73036045  1
  Zn  Zn100  1  0.92995550  0.44148067  0.18732907  1
  Zn  Zn101  1  0.92890381  0.44695294  0.69069832  1
  Zn  Zn102  1  0.92449426  0.93708486  0.18457958  1
  Zn  Zn103  1  0.95372928  1.02062849  0.70116358  1
  Zn  Zn104  1  0.05957733  0.06077934  0.30815140  1
  Zn  Zn105  1  0.06851153  0.03837653  0.84189481  1
  Zn  Zn106  1  0.05436820  0.57216320  0.31421196  1
  Zn  Zn107  1  0.07542033  0.56456400  0.79646398  1
  Zn  Zn108  1  0.56229536  0.08119643  0.30577378  1
  Zn  Zn109  1  0.56519504  0.07159237  0.80080054  1
  Zn  Zn110  1  0.55119109  0.55396016  0.31005344  1
  Zn  Zn111  1  0.57733588  0.57576619  0.81541847  1
  Zn  Zn112  1  0.44336621  0.18147745  0.44467741  1
  Zn  Zn113  1  0.44283022  0.19228014  0.93308536  1
  Zn  Zn114  1  0.44134310  0.71372430  0.43930876  1
  Zn  Zn115  1  0.44178813  0.68567949  0.94774159  1
  Zn  Zn116  1  0.93232554  0.18719848  0.42532947  1
  Zn  Zn117  1  0.95227944  0.23281424  0.88510125  1
  Zn  Zn118  1  0.93861265  0.68715431  0.43191207  1
  Zn  Zn119  1  0.94288607  0.68321591  0.95512181  1
  Zn  Zn120  1  0.05618398  0.32617275  0.06912183  1
  Zn  Zn121  1  0.01262341  0.27778056  0.54868358  1
  Zn  Zn122  1  0.06444169  0.80762413  0.17532152  1
  Zn  Zn123  1  0.06448528  0.82388850  0.55640314  1
  Zn  Zn124  1  0.56670713  0.30460186  0.06169674  1
  Zn  Zn125  1  0.51421730  0.28174167  0.56133006  1
  Zn  Zn126  1  0.59090162  0.79326409  0.09784590  1
  Zn  Zn127  1  0.54809400  0.81277889  0.56041293  1
  O  O128  1  0.12138084  0.12285389  0.12314761  1
  O  O129  1  0.11989673  0.11411093  0.59954471  1
  O  O130  1  0.12742636  0.62221849  0.11965605  1
  O  O131  1  0.11708899  0.63850120  0.60903164  1
  O  O132  1  0.62637150  0.12212063  0.11121466  1
  O  O133  1  0.63940574  0.10980779  0.62259721  1
  O  O134  1  0.61027938  0.60015690  0.13474307  1
  O  O135  1  0.61452354  0.63521646  0.63189942  1
  O  O136  1  0.38365784  0.37536147  0.37480381  1
  O  O137  1  0.38176812  0.39525704  0.86931999  1
  O  O138  1  0.37070590  0.86989735  0.38495540  1
  O  O139  1  0.34483187  0.88789691  0.87886337  1
  O  O140  1  0.88115213  0.38641547  0.39003222  1
  O  O141  1  0.88434873  0.32777111  0.91573402  1
  O  O142  1  0.86722124  0.88205003  0.37613404  1
  O  O143  1  0.88250994  0.86105382  0.89528687  1
  O  O144  1  0.24126072  0.01365173  0.35886170  1
  O  O145  1  0.19830977  -0.06126700  0.79610208  1
  O  O146  1  0.25959552  0.50941024  0.36760378  1
  O  O147  1  0.25222269  0.51412388  0.85758667  1
  O  O148  1  0.75546354  0.00623855  0.36604456  1
  O  O149  1  0.75899196  -0.00862213  0.87465388  1
  O  O150  1  0.75695148  0.51305449  0.39522977  1
  O  O151  1  0.74127942  0.50237593  0.84321233  1
  O  O152  1  0.25073044  0.48840786  0.14676228  1
  O  O153  1  0.27304356  0.51590025  0.62961286  1
  O  O154  1  0.23511561  1.00718797  0.13450491  1
  O  O155  1  0.24332561  1.00256973  0.63031835  1
  O  O156  1  0.73126250  0.48191633  0.12281076  1
  O  O157  1  0.75523248  0.51558138  0.65724905  1
  O  O158  1  0.75128859  1.01301789  0.14271133  1
  O  O159  1  0.76245169  0.99743806  0.64752850  1
  O  O160  1  0.00931523  0.37904869  0.26382898  1
  O  O161  1  0.02136412  0.41666412  0.76446627  1
  O  O162  1  -0.02944784  0.84355058  0.24402749  1
  O  O163  1  0.00258237  0.86367041  0.76746033  1
  O  O164  1  0.51619363  0.36595463  0.26700707  1
  O  O165  1  0.45687814  0.36903656  0.69101600  1
  O  O166  1  0.48507082  0.84876127  0.23848373  1
  O  O167  1  0.51687128  0.85241770  0.75829797  1
  O  O168  1  0.47626890  0.12735030  0.25028283  1
  O  O169  1  0.47481612  0.12156660  0.74165593  1
  O  O170  1  0.49439765  0.63408388  0.25467966  1
  O  O171  1  0.49406911  0.63422042  0.74621494  1
  O  O172  1  0.99747850  0.14404493  0.26028028  1
  O  O173  1  1.08154748  0.22214601  0.77142221  1
  O  O174  1  0.99509409  0.61066894  0.22807742  1
  O  O175  1  0.99857702  0.63367162  0.74139129  1
  O  O176  1  0.36911114  0.27135424  -0.03044343  1
  O  O177  1  0.41664484  0.22969264  0.54380461  1
  O  O178  1  0.38572683  0.79156510  -0.01905134  1
  O  O179  1  0.38589981  0.78335745  0.52373280  1
  O  O180  1  0.88739388  0.19995753  0.06485942  1
  O  O181  1  0.89958739  0.27165769  0.49777273  1
  O  O182  1  0.87101453  0.75246135  0.01973592  1
  O  O183  1  0.87851911  0.76085224  0.50049917  1
  O  O184  1  0.10396727  0.23413853  0.48786332  1
  O  O185  1  0.11333629  0.24348553  1.01541251  1
  O  O186  1  0.11767292  0.73889578  0.48815632  1
  O  O187  1  0.12518419  0.73544230  0.99292983  1
  O  O188  1  0.61215938  0.22426206  0.52581028  1
  O  O189  1  0.62294127  0.23418178  0.98810026  1
  O  O190  1  0.64099114  0.76268529  0.50964471  1
  O  O191  1  0.61843957  0.74251161  1.00012673  1
  O  O192  1  0.47951943  0.28665482  0.13068211  1
  O  O193  1  0.51550145  0.31265027  0.67485018  1
  O  O194  1  0.49619568  0.75485746  0.14336719  1
  O  O195  1  0.49745982  0.75013408  0.64393392  1
  O  O196  1  1.00549404  0.26172595  0.14858894  1
  O  O197  1  0.96976051  0.25059346  0.64747043  1
  O  O198  1  0.99426247  0.72716771  0.12708994  1
  O  O199  1  1.00042657  0.75287873  0.63451751  1
  O  O200  1  0.00643051  0.26282354  0.36900806  1
  O  O201  1  0.04873928  0.27499946  0.82300321  1
  O  O202  1  0.01656217  0.73709865  0.36597687  1
  O  O203  1  0.01122039  0.75260346  0.87171904  1
  O  O204  1  0.49912781  0.26177383  0.38596617  1
  O  O205  1  0.51488610  0.25231935  0.86825062  1
  O  O206  1  0.51410845  0.74916624  0.35553161  1
  O  O207  1  0.50477356  0.74048106  0.86944363  1
  O  O208  1  0.22945946  0.11253797  0.48346280  1
  O  O209  1  0.22467169  0.13315534  0.99415879  1
  O  O210  1  0.23509735  0.61875264  0.48986690  1
  O  O211  1  0.24840302  0.61171102  0.98230665  1
  O  O212  1  0.73637288  0.11228439  0.49255522  1
  O  O213  1  0.73546849  0.11474903  0.98426098  1
  O  O214  1  0.75752965  0.64373128  0.49404824  1
  O  O215  1  0.71691585  0.64148077  1.05016889  1
  O  O216  1  0.21102696  0.39559118  0.00846874  1
  O  O217  1  0.25364254  0.37716896  0.49808051  1
  O  O218  1  0.25974053  0.87393771  0.00092910  1
  O  O219  1  0.27038863  0.89944718  0.50280608  1
  O  O220  1  0.76135086  0.37514202  0.00854081  1
  O  O221  1  0.76447636  0.37198580  0.50169503  1
  O  O222  1  0.75142301  0.86871914  0.00691128  1
  O  O223  1  0.76602651  0.85903865  0.49176916  1
  O  O224  1  0.12699056  0.48973158  0.26917033  1
  O  O225  1  0.15226633  0.50902083  0.73206544  1
  O  O226  1  0.13438196  1.00713755  0.24067269  1
  O  O227  1  0.06280344  1.03322106  0.73373067  1
  O  O228  1  0.61920265  0.48155549  0.24139455  1
  O  O229  1  0.61579216  0.48671469  0.75020891  1
  O  O230  1  0.63124135  1.01295727  0.23706368  1
  O  O231  1  0.64450280  0.99882291  0.76143297  1
  O  O232  1  0.35699011  0.01769881  0.23704534  1
  O  O233  1  0.36963901  0.01768905  0.73537823  1
  O  O234  1  0.37518657  0.47267850  0.24150089  1
  O  O235  1  0.37320556  0.51935942  0.76297582  1
  O  O236  1  0.86271058  0.00285427  0.25887316  1
  O  O237  1  0.87186167  -0.01314801  0.77612160  1
  O  O238  1  0.87119762  0.48919898  0.27611252  1
  O  O239  1  0.88554227  0.52391849  0.75920547  1
  O  O240  1  0.11651851  0.36753205  0.37548336  1
  O  O241  1  0.19201869  0.32479078  0.84976391  1
  O  O242  1  0.13197518  0.85200809  0.37719235  1
  O  O243  1  0.11071305  0.86089915  0.90105120  1
  O  O244  1  0.64098434  0.36386030  0.35949017  1
  O  O245  1  0.63702188  0.35799493  0.88099834  1
  O  O246  1  0.63633069  0.85108281  0.36945110  1
  O  O247  1  0.62418866  0.85524821  0.89001811  1
  O  O248  1  0.37107345  0.13243802  0.12162344  1
  O  O249  1  0.34461412  0.13265677  0.65047494  1
  O  O250  1  0.34543701  0.65311169  0.10734831  1
  O  O251  1  0.38613432  0.65247382  0.63237947  1
  O  O252  1  0.88734262  0.13488589  0.09913625  1
  O  O253  1  0.88994137  0.10442122  0.64686275  1
  O  O254  1  0.87465779  0.63153492  0.11754424  1
  O  O255  1  0.89348215  0.64085868  0.62140502  1
  O  O256  1  0.23742573  0.27839061  0.12705225  1
  O  O257  1  0.23815039  0.29301057  0.59881709  1
  O  O258  1  0.29125164  0.70461725  0.11943340  1
  O  O259  1  0.27094576  0.76240183  0.64188744  1
  O  O260  1  0.75338283  0.26232016  0.12306006  1
  O  O261  1  0.79452334  0.23329589  0.64684961  1
  O  O262  1  0.79016360  0.74457101  0.18186646  1
  O  O263  1  0.76331401  0.74743679  0.61356620  1
  O  O264  1  0.23306216  0.24388932  0.37903238  1
  O  O265  1  0.20958136  0.26389154  0.88738772  1
  O  O266  1  0.23558237  0.72835762  0.36464191  1
  O  O267  1  0.23589267  0.73841910  0.87416850  1
  O  O268  1  0.75837491  0.23505280  0.37865771  1
  O  O269  1  0.74311563  0.23103974  0.87625302  1
  O  O270  1  0.74389786  0.73689294  0.37440735  1
  O  O271  1  0.74321016  0.74993882  0.88578408  1
  O  O272  1  0.01119747  0.14792936  -0.05473521  1
  O  O273  1  0.00302652  0.11041949  0.48485570  1
  O  O274  1  0.00533481  0.61214871  0.01478233  1
  O  O275  1  0.00777696  0.61887781  0.50394297  1
  O  O276  1  0.50988885  0.12438425  -0.00565737  1
  O  O277  1  0.51657321  0.10094454  0.50043798  1
  O  O278  1  0.51187015  0.62829093  0.01455742  1
  O  O279  1  0.50609246  0.65637150  0.51291799  1
  O  O280  1  0.51689307  0.35644307  0.47645948  1
  O  O281  1  0.49297789  0.36988726  0.99083075  1
  O  O282  1  0.49335616  0.89033162  0.49728219  1
  O  O283  1  0.46093627  0.92209298  0.96676516  1
  O  O284  1  1.00565263  0.38991739  0.49566969  1
  O  O285  1  0.98352911  0.39385025  1.01722151  1
  O  O286  1  0.98694760  0.88212757  0.48539772  1
  O  O287  1  0.98959373  0.86067342  1.00083806  1
  O  O288  1  0.51413325  0.47577517  0.38157407  1
  O  O289  1  0.49038619  0.51739553  0.87319692  1
  O  O290  1  0.50395411  0.99923901  0.36981885  1
  O  O291  1  0.48831244  0.99123401  0.82457396  1
  O  O292  1  0.98809495  0.49868691  0.38751541  1
  O  O293  1  1.01317542  0.41920797  0.84240215  1
  O  O294  1  0.97873026  1.00160129  0.37063882  1
  O  O295  1  0.98426477  0.97565545  0.88784178  1
  O  O296  1  0.00346666  0.00960050  0.14951204  1
  O  O297  1  -0.00426519  -0.00797200  0.59417976  1
  O  O298  1  0.00277233  0.51510236  0.14331123  1
  O  O299  1  -0.00158087  0.51257291  0.61341909  1
  O  O300  1  0.50975887  0.00114270  0.13531881  1
  O  O301  1  0.54077068  -0.03211981  0.64070278  1
  O  O302  1  0.51532663  0.47168380  0.12105587  1
  O  O303  1  0.48686448  0.53554904  0.61753913  1
  O  O304  1  0.23889631  0.38561066  0.26180850  1
  O  O305  1  0.27362269  0.39817522  0.73634900  1
  O  O306  1  0.25641822  0.89349116  0.24904952  1
  O  O307  1  0.23245363  0.88565941  0.75548972  1
  O  O308  1  0.74018936  0.37100570  0.23667150  1
  O  O309  1  0.76003020  0.37605621  0.74722085  1
  O  O310  1  0.74579621  0.89753550  0.25387599  1
  O  O311  1  0.75286562  0.87717348  0.75396660  1
  O  O312  1  0.25538985  0.12515921  0.25920756  1
  O  O313  1  0.26712538  0.11232548  0.78429115  1
  O  O314  1  0.26444925  0.60415225  0.26219229  1
  O  O315  1  0.26541378  0.62728088  0.75323093  1
  O  O316  1  0.74443416  0.11753937  0.26880684  1
  O  O317  1  0.75370125  0.10522557  0.77386819  1
  O  O318  1  0.74886700  0.61346271  0.26777071  1
  O  O319  1  0.77890944  0.64572213  0.75154654  1
  O  O320  1  0.35556636  0.13167209  0.38475360  1
  O  O321  1  0.38904906  0.12016774  0.85787490  1
  O  O322  1  0.36125238  0.63790491  0.39997747  1
  O  O323  1  0.36563276  0.62517870  0.87353095  1
  O  O324  1  0.85915929  0.11110183  0.38426243  1
  O  O325  1  0.86218692  0.10232104  0.89271678  1
  O  O326  1  0.86774785  0.61360736  0.37949765  1
  O  O327  1  0.88616758  0.64073255  0.86872378  1
  O  O328  1  0.12798674  0.38476426  0.14749391  1
  O  O329  1  0.21119580  0.35393600  0.56431986  1
  O  O330  1  0.11419175  0.89434539  0.11853174  1
  O  O331  1  0.12898231  0.88615432  0.61964076  1
  O  O332  1  0.63601790  0.37169337  0.12913814  1
  O  O333  1  0.61505865  0.42711185  0.58412543  1
  O  O334  1  0.62752926  0.89576624  0.12028974  1
  O  O335  1  0.59432763  0.91603717  0.63251012  1
  O  O336  1  0.11795656  0.26354524  0.26571161  1
  O  O337  1  0.12417109  0.25093863  0.71674639  1
  O  O338  1  0.13274705  0.74890182  0.24967370  1
  O  O339  1  0.11454083  0.74907928  0.75416204  1
  O  O340  1  0.62695157  0.25419295  0.24280454  1
  O  O341  1  0.63448910  0.24074056  0.76395981  1
  O  O342  1  0.63198813  0.74698848  0.24400681  1
  O  O343  1  0.62309695  0.73286445  0.77572681  1
  O  O344  1  0.35940617  0.23797505  0.24501235  1
  O  O345  1  0.36299211  0.22732323  0.75579153  1
  O  O346  1  0.37090393  0.73839928  0.25562400  1
  O  O347  1  0.38752357  0.74701363  0.75380540  1
  O  O348  1  0.88993532  0.26356403  0.25918130  1
  O  O349  1  0.88697779  0.22442064  0.78497819  1
  O  O350  1  0.91341443  0.78260190  0.24238632  1
  O  O351  1  0.89398928  0.74787241  0.74268686  1
  O  O352  1  0.38135047  0.49481802  0.49645459  1
  O  O353  1  0.36982830  0.49321956  0.97966818  1
  O  O354  1  0.39421968  0.99724560  0.50395404  1
  O  O355  1  0.33420685  0.99629265  0.98374191  1
  O  O356  1  0.88422321  0.49357009  0.49828669  1
  O  O357  1  0.86096338  0.49484148  0.98375822  1
  O  O358  1  0.87711692  0.98740231  0.48672508  1
  O  O359  1  0.86669123  0.97518046  0.99359265  1
  O  O360  1  0.11238094  0.01750800  0.02319415  1
  O  O361  1  0.10643446  0.00653281  0.47605599  1
  O  O362  1  0.06762607  0.47572169  -0.12098479  1
  O  O363  1  0.11041837  0.51276139  0.49265917  1
  O  O364  1  0.62432773  0.01094616  0.01354893  1
  O  O365  1  0.61540358  -0.00574152  0.49040047  1
  O  O366  1  0.62823309  0.51021361  0.00592973  1
  O  O367  1  0.62683829  0.47943492  0.53097319  1
  O  O368  1  0.35134611  0.38373773  0.08652123  1
  O  O369  1  0.39427935  0.43532240  0.53712893  1
  O  O370  1  0.37959043  0.89393251  0.08643417  1
  O  O371  1  0.38653059  0.87375696  0.65880635  1
  O  O372  1  0.86327182  0.38527653  0.11354540  1
  O  O373  1  0.88131240  0.38400401  0.61254349  1
  O  O374  1  0.87300308  0.86583189  0.11299581  1
  O  O375  1  0.88060130  0.86538809  0.61004675  1
  O  O376  1  0.12848536  0.13885652  0.37131086  1
  O  O377  1  0.08761146  0.12906721  0.90689800  1
  O  O378  1  0.13017228  0.62946459  0.38277195  1
  O  O379  1  0.13575337  0.63335478  0.86894366  1
  O  O380  1  0.63347449  0.12887529  0.38414806  1
  O  O381  1  0.62975242  0.12530697  0.88097181  1
  O  O382  1  0.63346143  0.63473337  0.37222243  1
  O  O383  1  0.62958620  0.63062931  0.90060107  1
