# generated using pymatgen
data_VZnO4
_symmetry_space_group_name_H-M   'P 1'
_cell_length_a   17.07266873
_cell_length_b   16.96185935
_cell_length_c   16.93967936
_cell_angle_alpha   90.22372592
_cell_angle_beta   89.88952997
_cell_angle_gamma   90.24301367
_symmetry_Int_Tables_number   1
_chemical_formula_structural   VZnO4
_chemical_formula_sum   'V64 Zn64 O256'
_cell_volume   4905.37311034
_cell_formula_units_Z   64
loop_
 _symmetry_equiv_pos_site_id
 _symmetry_equiv_pos_as_xyz
  1  'x, y, z'
loop_
 _atom_site_type_symbol
 _atom_site_label
 _atom_site_symmetry_multiplicity
 _atom_site_fract_x
 _atom_site_fract_y
 _atom_site_fract_z
 _atom_site_occupancy
  V  V0  1  0.01203436  0.63243166  0.63106960  1
  V  V1  1  0.63800016  0.74780106  0.88630275  1
  V  V2  1  0.37059604  0.74556062  0.13602674  1
  V  V3  1  0.39011084  0.37322113  0.48748156  1
  V  V4  1  0.76626372  0.63326937  0.38698738  1
  V  V5  1  0.50211671  0.73691449  0.25020402  1
  V  V6  1  0.14122696  0.74405547  0.38012909  1
  V  V7  1  -0.02517365  0.23575137  0.23177714  1
  V  V8  1  0.37554796  0.39148110  0.00243322  1
  V  V9  1  0.49902957  0.39985244  0.88006855  1
  V  V10  1  0.26523890  0.48901279  0.76125025  1
  V  V11  1  0.01529311  0.36676561  0.38125297  1
  V  V12  1  -0.01706018  0.49480796  0.50864128  1
  V  V13  1  0.11176621  0.37187802  0.76347309  1
  V  V14  1  0.87035315  0.50260138  0.86948381  1
  V  V15  1  0.73405942  -0.02217459  0.27319564  1
  V  V16  1  0.63873992  -0.00154896  0.62560594  1
  V  V17  1  0.01133127  0.01055981  0.51432205  1
  V  V18  1  0.12188613  0.88249360  0.25424599  1
  V  V19  1  0.51311322  0.87090095  0.86429270  1
  V  V20  1  0.35906079  0.88039092  0.51201362  1
  V  V21  1  0.62764351  0.12693157  0.00388417  1
  V  V22  1  0.24536738  0.23194528  0.48764643  1
  V  V23  1  0.11604224  0.86371735  0.76319180  1
  V  V24  1  0.62889006  0.37581689  0.74973201  1
  V  V25  1  0.75784613  0.24060278  0.01560712  1
  V  V26  1  0.24448505  0.62834985  0.87770621  1
  V  V27  1  0.06370334  0.06683145  0.05299709  1
  V  V28  1  0.26383070  0.24469457  0.00749789  1
  V  V29  1  0.74234663  0.11697831  0.86720761  1
  V  V30  1  0.11695781  0.23846172  0.87460326  1
  V  V31  1  0.63428782  0.12689272  0.48549243  1
  V  V32  1  0.50030061  0.24209024  0.76486066  1
  V  V33  1  0.74983282  0.41031835  0.10781753  1
  V  V34  1  0.24886556  0.03093565  0.27199054  1
  V  V35  1  0.49625116  -0.00666706  -0.00342570  1
  V  V36  1  0.14000212  0.49417269  0.62879972  1
  V  V37  1  0.36591451  0.25519092  0.62729572  1
  V  V38  1  0.85589418  0.74777307  0.63603777  1
  V  V39  1  0.53823300  0.38015331  0.29491243  1
  V  V40  1  0.59985738  0.48971642  0.61623344  1
  V  V41  1  0.37600111  0.63760998  0.73447223  1
  V  V42  1  0.61817132  -0.02681204  0.12690330  1
  V  V43  1  0.57866789  0.64402486  0.50949846  1
  V  V44  1  0.49383902  0.87860649  0.36625725  1
  V  V45  1  0.24936977  0.88833251  0.13504209  1
  V  V46  1  0.28184675  0.12578532  0.86988419  1
  V  V47  1  0.25018803  0.73021482  0.51630379  1
  V  V48  1  0.23337497  0.75381928  -0.00672238  1
  V  V49  1  0.86913076  0.87025540  0.51201189  1
  V  V50  1  0.89521358  0.36430788  -0.00213446  1
  V  V51  1  0.49339705  0.12982903  0.13097746  1
  V  V52  1  0.78151898  0.74458272  0.00203053  1
  V  V53  1  0.87927240  0.00542919  0.88204445  1
  V  V54  1  0.00994921  0.87429628  0.39887045  1
  V  V55  1  0.02168116  0.49294890  -0.00755820  1
  V  V56  1  0.86310665  0.08934456  0.25682299  1
  V  V57  1  0.49154421  0.12526622  0.62554604  1
  V  V58  1  0.26985516  -0.00299900  0.75486473  1
  V  V59  1  0.48641425  0.00755808  0.49442704  1
  V  V60  1  0.38025526  0.86937870  -0.01216389  1
  V  V61  1  0.11988746  0.01097679  0.64774833  1
  V  V62  1  0.76542859  0.87038069  0.11812501  1
  V  V63  1  -0.00270094  0.59060031  0.14429449  1
  Zn  Zn64  1  0.16557644  0.20672582  0.18794077  1
  Zn  Zn65  1  0.18833739  0.18228018  0.70222954  1
  Zn  Zn66  1  0.17498571  0.70788022  0.18125120  1
  Zn  Zn67  1  0.18948618  0.68224790  0.69511206  1
  Zn  Zn68  1  0.68025681  0.16000309  0.19569403  1
  Zn  Zn69  1  0.66909638  0.18110098  0.68912753  1
  Zn  Zn70  1  0.68743325  0.69163455  0.18831943  1
  Zn  Zn71  1  0.64883948  0.71405128  0.64678576  1
  Zn  Zn72  1  0.28849840  0.32902187  0.35320346  1
  Zn  Zn73  1  0.32423682  0.30917562  0.81861163  1
  Zn  Zn74  1  0.31436829  0.82449993  0.32157918  1
  Zn  Zn75  1  0.30767374  0.81006708  0.80546347  1
  Zn  Zn76  1  0.77434444  0.28802370  0.24665541  1
  Zn  Zn77  1  0.79772606  0.30692804  0.83001484  1
  Zn  Zn78  1  0.78745457  0.78494139  0.29902856  1
  Zn  Zn79  1  0.81362360  0.82635671  0.81500177  1
  Zn  Zn80  1  0.17313113  0.39200627  0.48006504  1
  Zn  Zn81  1  0.20038509  0.42858457  0.93450205  1
  Zn  Zn82  1  0.18381398  0.95617693  0.44187153  1
  Zn  Zn83  1  0.19605863  0.94046471  0.93877915  1
  Zn  Zn84  1  0.64824560  0.49515824  0.41358164  1
  Zn  Zn85  1  0.69147714  0.42393246  0.92606573  1
  Zn  Zn86  1  0.66614441  0.91360204  0.46667803  1
  Zn  Zn87  1  0.69047702  0.93601810  0.94263592  1
  Zn  Zn88  1  0.31149118  0.06187952  0.05836313  1
  Zn  Zn89  1  0.30715777  0.06232929  0.57482171  1
  Zn  Zn90  1  0.36974690  0.60454414  0.00526159  1
  Zn  Zn91  1  0.37115846  0.58071413  0.52538896  1
  Zn  Zn92  1  0.81606682  0.04767196  0.06491268  1
  Zn  Zn93  1  0.80999183  0.04693281  0.53128977  1
  Zn  Zn94  1  0.83713699  0.56597501  0.04365103  1
  Zn  Zn95  1  0.82629103  0.59385356  0.53667477  1
  Zn  Zn96  1  0.42359232  0.47343139  0.18485795  1
  Zn  Zn97  1  0.43707252  0.43170055  0.69048412  1
  Zn  Zn98  1  0.42253227  0.95231308  0.18937445  1
  Zn  Zn99  1  0.44389375  0.93553157  0.68340514  1
  Zn  Zn100  1  1.06964768  0.40546423  0.19132577  1
  Zn  Zn101  1  0.95067431  0.44164424  0.69523459  1
  Zn  Zn102  1  0.91279515  0.88702263  0.22967750  1
  Zn  Zn103  1  0.93770688  0.92358275  0.70368341  1
  Zn  Zn104  1  0.05368152  0.05573355  0.30307059  1
  Zn  Zn105  1  0.08776054  0.02855365  0.86192181  1
  Zn  Zn106  1  0.06445468  0.55631075  0.33611510  1
  Zn  Zn107  1  0.06489598  0.56095553  0.81492646  1
  Zn  Zn108  1  0.55589826  0.05313412  0.30915228  1
  Zn  Zn109  1  0.56625920  0.05409973  0.81072984  1
  Zn  Zn110  1  0.47253608  0.55963868  0.35375541  1
  Zn  Zn111  1  0.57066660  0.56824444  0.79653285  1
  Zn  Zn112  1  0.60972342  0.24169498  0.36483436  1
  Zn  Zn113  1  0.44370674  0.19041715  0.95262595  1
  Zn  Zn114  1  0.42082412  0.70879601  0.43017099  1
  Zn  Zn115  1  0.46072819  0.66911729  0.87692538  1
  Zn  Zn116  1  0.96281208  0.16979600  0.40776840  1
  Zn  Zn117  1  0.93194994  0.17801505  0.93181256  1
  Zn  Zn118  1  0.95318289  0.69321827  0.44916140  1
  Zn  Zn119  1  0.93873638  0.68879393  0.81146326  1
  Zn  Zn120  1  0.07277261  0.28689322  0.05946628  1
  Zn  Zn121  1  0.06558933  0.31208141  0.57440841  1
  Zn  Zn122  1  -0.00332772  0.71065094  -0.00517172  1
  Zn  Zn123  1  0.09167360  0.82044742  0.57537890  1
  Zn  Zn124  1  0.51414984  0.33976618  0.09825315  1
  Zn  Zn125  1  0.56722716  0.30379338  0.56034053  1
  Zn  Zn126  1  0.54054701  0.69331556  0.05195177  1
  Zn  Zn127  1  0.54642805  0.82320739  0.56781477  1
  O  O128  1  0.11911705  0.12408303  0.11397777  1
  O  O129  1  0.11778784  0.11237039  0.64665657  1
  O  O130  1  0.09295932  0.65605951  0.11725521  1
  O  O131  1  0.11909808  0.60386887  0.63984817  1
  O  O132  1  0.61776405  0.10748065  0.11511917  1
  O  O133  1  0.61582201  0.12142861  0.60799469  1
  O  O134  1  0.61651509  0.62481933  0.11815674  1
  O  O135  1  0.61566294  0.60268461  0.60568220  1
  O  O136  1  0.38944958  0.36798327  0.38435310  1
  O  O137  1  0.39227516  0.37788787  0.88412582  1
  O  O138  1  0.38368761  0.87961364  0.39574503  1
  O  O139  1  0.38787444  0.86042213  0.88447849  1
  O  O140  1  0.84754313  0.43774029  0.31819649  1
  O  O141  1  0.87133787  0.36446734  0.89494355  1
  O  O142  1  0.90570694  0.87066253  0.40415443  1
  O  O143  1  0.86815679  0.92544757  0.80811356  1
  O  O144  1  0.24356522  0.02425172  0.37250264  1
  O  O145  1  0.25574009  0.01736526  0.86923636  1
  O  O146  1  0.20049984  0.45565357  0.30561762  1
  O  O147  1  0.24849640  0.51307062  0.86845425  1
  O  O148  1  0.72381833  -0.03263078  0.36938527  1
  O  O149  1  0.75471883  0.01029265  0.88182823  1
  O  O150  1  0.73244618  0.54271923  0.35516535  1
  O  O151  1  0.77073812  0.49297650  0.89082827  1
  O  O152  1  0.27103024  0.56449486  0.19735165  1
  O  O153  1  0.23885322  0.49908003  0.65123957  1
  O  O154  1  0.24331062  0.98604808  0.11350755  1
  O  O155  1  0.23810993  1.01004447  0.65036280  1
  O  O156  1  0.75847798  0.50820448  0.10572591  1
  O  O157  1  0.76744090  0.54165465  0.66185236  1
  O  O158  1  0.73122206  0.97961019  0.12075725  1
  O  O159  1  0.73704711  1.01791570  0.61553134  1
  O  O160  1  -0.00136537  0.35075105  0.27387631  1
  O  O161  1  0.01405308  0.37222691  0.76435330  1
  O  O162  1  0.01922700  0.89147628  0.27323745  1
  O  O163  1  0.01610621  0.85852975  0.75118557  1
  O  O164  1  0.56163377  0.37057995  0.19630303  1
  O  O165  1  0.50188035  0.36687827  0.76680984  1
  O  O166  1  0.48565441  0.89129582  0.26502656  1
  O  O167  1  0.50028183  0.88603745  0.76754013  1
  O  O168  1  0.50722714  0.11578822  0.23040821  1
  O  O169  1  0.51496270  0.13409944  0.74011888  1
  O  O170  1  0.48971521  0.64014360  0.26359711  1
  O  O171  1  0.47586658  0.62550847  0.76716386  1
  O  O172  1  0.97322110  0.12153376  0.24318140  1
  O  O173  1  0.93765122  0.13260681  0.70396316  1
  O  O174  1  1.01102170  0.59062108  0.24337999  1
  O  O175  1  0.99844216  0.61862791  0.73576753  1
  O  O176  1  0.37008141  0.26180420  -0.00086625  1
  O  O177  1  0.36045203  0.24696096  0.52103384  1
  O  O178  1  0.36901040  0.76934055  0.01721929  1
  O  O179  1  0.35262628  0.76924859  0.50087218  1
  O  O180  1  0.86470839  0.25139325  0.00081685  1
  O  O181  1  0.83764696  0.22938032  0.52874491  1
  O  O182  1  0.87893083  0.75479533  0.00309970  1
  O  O183  1  0.88697424  0.76364468  0.52067023  1
  O  O184  1  0.15100213  0.26647744  0.51968204  1
  O  O185  1  0.15015801  0.25530494  0.98009710  1
  O  O186  1  0.14580136  0.75851188  0.49207046  1
  O  O187  1  0.13826662  0.75711305  0.99976853  1
  O  O188  1  0.62395957  0.23346888  0.48944788  1
  O  O189  1  0.63365869  0.22575564  1.00498402  1
  O  O190  1  0.61126285  0.73968288  0.50365630  1
  O  O191  1  0.62837498  0.73566768  0.98587306  1
  O  O192  1  0.50529175  0.22762358  0.11327139  1
  O  O193  1  0.49487942  0.23456547  0.62953695  1
  O  O194  1  0.47967166  0.75074775  0.13782798  1
  O  O195  1  0.54968146  0.76052045  0.65915366  1
  O  O196  1  0.98358102  0.24558177  0.13484171  1
  O  O197  1  0.96490522  0.27956777  0.62936754  1
  O  O198  1  1.02214472  0.70365654  0.11376960  1
  O  O199  1  1.02842880  0.72962272  0.61785216  1
  O  O200  1  -0.03393585  0.28327696  0.41171946  1
  O  O201  1  0.01825066  0.23926676  0.88498349  1
  O  O202  1  0.02515677  0.76646763  0.39478732  1
  O  O203  1  0.00634889  0.72998138  0.88781886  1
  O  O204  1  0.51216359  0.28728460  0.32776323  1
  O  O205  1  0.50257767  0.24009816  0.86448692  1
  O  O206  1  0.48390730  0.76779375  0.35670626  1
  O  O207  1  0.52322331  0.76506859  0.86847281  1
  O  O208  1  0.24714797  0.13552499  0.51674361  1
  O  O209  1  0.26440982  0.13501224  0.98410513  1
  O  O210  1  0.25978440  0.63310842  0.50858285  1
  O  O211  1  0.25521050  0.64198002  0.98815144  1
  O  O212  1  0.73234490  0.11175016  0.48202072  1
  O  O213  1  0.74096166  0.12242704  1.00403736  1
  O  O214  1  0.73098684  0.62613982  0.48679830  1
  O  O215  1  0.76762561  0.64565666  1.00240603  1
  O  O216  1  0.27030353  0.36284459  -0.00417205  1
  O  O217  1  0.27373382  0.34951344  0.48012054  1
  O  O218  1  0.25922252  0.86984048  0.00238607  1
  O  O219  1  0.26087106  0.89678655  0.50372526  1
  O  O220  1  0.73746567  0.34799719  0.00534255  1
  O  O221  1  0.79317631  0.36800876  0.45721375  1
  O  O222  1  0.74971426  0.86632322  0.01329008  1
  O  O223  1  0.77302056  0.87928760  0.49703289  1
  O  O224  1  0.13353375  0.48149893  0.26603052  1
  O  O225  1  0.13302902  0.48407163  0.75552504  1
  O  O226  1  0.13848561  0.99090572  0.25782898  1
  O  O227  1  0.12388158  0.99783350  0.75272635  1
  O  O228  1  0.57603676  0.56172675  0.15691408  1
  O  O229  1  0.61882097  0.48819080  0.73052412  1
  O  O230  1  0.62908508  0.99270507  0.23769143  1
  O  O231  1  0.62089026  0.99994530  0.72534480  1
  O  O232  1  0.34543635  0.01495731  0.24467728  1
  O  O233  1  0.36747604  -0.00484862  0.74626258  1
  O  O234  1  0.33092459  0.53317261  0.23629371  1
  O  O235  1  0.36556086  0.50202379  0.74972918  1
  O  O236  1  0.85468639  -0.01608273  0.26434806  1
  O  O237  1  0.89068744  0.07757487  0.69799735  1
  O  O238  1  0.86087455  0.48950722  0.27008926  1
  O  O239  1  0.87864625  0.47292169  0.77187606  1
  O  O240  1  0.11269994  0.35669627  0.38677516  1
  O  O241  1  0.13469458  0.36115307  0.86700249  1
  O  O242  1  0.12798709  0.87395608  0.37413939  1
  O  O243  1  0.12108612  0.89742349  0.86429528  1
  O  O244  1  0.61859003  0.40477400  0.35168078  1
  O  O245  1  0.60857495  0.37982027  0.86244593  1
  O  O246  1  0.59151909  0.87681783  0.38821814  1
  O  O247  1  0.61864593  0.86846011  0.88157670  1
  O  O248  1  0.39560939  0.11284618  0.11392706  1
  O  O249  1  0.38937561  0.12929598  0.63154970  1
  O  O250  1  0.36138236  0.64855746  0.11723326  1
  O  O251  1  0.37302322  0.61396573  0.63765844  1
  O  O252  1  0.85537336  0.10599106  0.15318167  1
  O  O253  1  0.86340031  0.17153791  0.56496926  1
  O  O254  1  0.89875592  0.60162312  0.13266177  1
  O  O255  1  0.89417366  0.64685038  0.61865448  1
  O  O256  1  0.25326243  0.23650064  0.10439932  1
  O  O257  1  0.26934233  0.24337550  0.64823111  1
  O  O258  1  0.25306296  0.76518395  0.11492051  1
  O  O259  1  0.23780623  0.74792917  0.61422837  1
  O  O260  1  0.74882637  0.23277109  0.11543641  1
  O  O261  1  0.77271505  0.24794646  0.66856248  1
  O  O262  1  0.74949769  0.76108231  0.11380278  1
  O  O263  1  0.75913441  0.73329372  0.62658246  1
  O  O264  1  0.24684022  0.22720371  0.38621855  1
  O  O265  1  0.25846317  0.23448932  0.87492935  1
  O  O266  1  0.24520745  0.75420953  0.38491283  1
  O  O267  1  0.25093505  0.74824671  0.88758096  1
  O  O268  1  0.77240991  0.31509963  0.41196701  1
  O  O269  1  0.74942479  0.22495031  0.89563405  1
  O  O270  1  0.72320921  0.73613911  0.37820201  1
  O  O271  1  0.74949583  0.76806232  0.89330353  1
  O  O272  1  -0.00343510  0.12475378  0.00780388  1
  O  O273  1  -0.00489417  0.10809010  0.50141213  1
  O  O274  1  0.00308025  0.59134100  0.01388633  1
  O  O275  1  0.00493194  0.60395392  0.51414515  1
  O  O276  1  0.51293252  0.11122874  0.00378145  1
  O  O277  1  0.49597012  0.11463267  0.51399299  1
  O  O278  1  0.47441980  0.63708970  -0.01757545  1
  O  O279  1  0.48175506  0.65909446  0.52679320  1
  O  O280  1  0.48878342  0.35688609  0.50230294  1
  O  O281  1  0.49389589  0.37426860  0.98492593  1
  O  O282  1  0.48568993  0.89230062  0.49908494  1
  O  O283  1  0.48793293  0.87754423  0.99124301  1
  O  O284  1  1.01020696  0.39146314  0.50675040  1
  O  O285  1  0.99737698  0.36735835  1.00854925  1
  O  O286  1  1.01605264  0.88178979  0.50502865  1
  O  O287  1  1.02240926  0.96133001  1.07984291  1
  O  O288  1  0.47197007  0.46528090  0.28960276  1
  O  O289  1  0.50645861  0.49788718  0.87421710  1
  O  O290  1  0.49102352  0.99875133  0.38944092  1
  O  O291  1  0.51084608  0.98639798  0.88832970  1
  O  O292  1  1.00125014  0.48190517  0.39675527  1
  O  O293  1  1.00020174  0.49625814  0.88771291  1
  O  O294  1  1.02087363  0.98880392  0.40136063  1
  O  O295  1  0.97506257  1.02618496  0.86083769  1
  O  O296  1  -0.00113272  0.01401283  0.13457655  1
  O  O297  1  0.01016509  -0.00617581  0.62780776  1
  O  O298  1  0.02241468  0.48657388  0.12000604  1
  O  O299  1  0.01095135  0.50281753  0.62100221  1
  O  O300  1  0.50696863  -0.00273697  0.11716189  1
  O  O301  1  0.50514365  0.01224695  0.61992564  1
  O  O302  1  0.50800447  0.54758829  0.12404877  1
  O  O303  1  0.50148865  0.48971711  0.61341616  1
  O  O304  1  0.23426576  0.39371702  0.27014442  1
  O  O305  1  0.25652121  0.38775065  0.76604978  1
  O  O306  1  0.24843787  0.89124815  0.24504281  1
  O  O307  1  0.24576010  0.89610558  0.76706233  1
  O  O308  1  0.73481614  0.38473862  0.20267694  1
  O  O309  1  0.72632203  0.36961481  0.76447476  1
  O  O310  1  0.74306122  0.87505095  0.23380713  1
  O  O311  1  0.71104607  0.84550438  0.74846705  1
  O  O312  1  0.22644648  0.12489570  0.24370933  1
  O  O313  1  0.26137701  0.11580446  0.76420442  1
  O  O314  1  0.23423990  0.62062568  0.23929297  1
  O  O315  1  0.25943232  0.61450406  0.75687488  1
  O  O316  1  0.74941001  0.08530313  0.25906732  1
  O  O317  1  0.72691318  0.12550160  0.76981709  1
  O  O318  1  0.75828054  0.67177388  0.27393215  1
  O  O319  1  0.75985503  0.58281610  0.72180352  1
  O  O320  1  0.37318329  0.19467571  0.26106297  1
  O  O321  1  0.38010166  0.12498506  0.87590623  1
  O  O322  1  0.38931237  0.60354477  0.41190950  1
  O  O323  1  0.35288384  0.63121672  0.86260786  1
  O  O324  1  0.87456001  0.11894018  0.35756882  1
  O  O325  1  0.85522695  0.11503195  0.87173909  1
  O  O326  1  0.86722612  0.63103638  0.40605486  1
  O  O327  1  0.88098872  0.60225139  0.86793081  1
  O  O328  1  0.12428580  0.31234730  0.15709839  1
  O  O329  1  0.12261518  0.38461988  0.64870955  1
  O  O330  1  0.13959899  0.86854248  0.15022123  1
  O  O331  1  0.13177860  0.89252295  0.65170793  1
  O  O332  1  0.63152866  0.42781013  0.07788231  1
  O  O333  1  0.61504419  0.37683416  0.64006466  1
  O  O334  1  0.61735614  0.87718110  0.12397177  1
  O  O335  1  0.63393629  0.90001494  0.58964780  1
  O  O336  1  0.07649152  0.21740786  0.28660646  1
  O  O337  1  0.13068745  0.26235039  0.76153817  1
  O  O338  1  0.13622083  0.77092166  0.27020817  1
  O  O339  1  0.14668954  0.76754953  0.75802543  1
  O  O340  1  0.68231796  0.23500924  0.27842926  1
  O  O341  1  0.60758611  0.26453473  0.74175752  1
  O  O342  1  0.59921765  0.75006482  0.23908995  1
  O  O343  1  0.66603172  0.78431759  0.75625669  1
  O  O344  1  0.35360568  0.26068854  0.24022687  1
  O  O345  1  0.39671738  0.25343080  0.74373319  1
  O  O346  1  0.37015574  0.75887893  0.23976636  1
  O  O347  1  0.36351662  0.73809155  0.73981234  1
  O  O348  1  0.87665527  0.24588749  0.25541399  1
  O  O349  1  0.82558998  0.24772806  0.72215176  1
  O  O350  1  0.89248262  0.78653201  0.27093537  1
  O  O351  1  0.86998972  0.75129402  0.74184293  1
  O  O352  1  0.37344384  0.46881962  0.51211563  1
  O  O353  1  0.36188067  0.48943934  0.99643037  1
  O  O354  1  0.38260089  1.00014249  0.51129994  1
  O  O355  1  0.38503645  0.98185686  1.00430991  1
  O  O356  1  0.88469640  0.49435271  0.52082453  1
  O  O357  1  0.89454797  0.47835345  0.98775114  1
  O  O358  1  0.89848290  0.97995862  0.52025707  1
  O  O359  1  0.87417183  0.98959976  0.98162479  1
  O  O360  1  0.12286790  0.02224509  -0.02178473  1
  O  O361  1  0.11793789  0.00144617  0.52752376  1
  O  O362  1  0.12004974  0.48229532  -0.00726541  1
  O  O363  1  0.13938153  0.48868008  0.52655409  1
  O  O364  1  0.61465325  -0.00480604  0.01335524  1
  O  O365  1  0.60618107  0.01528729  0.50361589  1
  O  O366  1  0.62729006  0.47424526  0.01622662  1
  O  O367  1  0.64110309  0.47017356  0.52598408  1
  O  O368  1  0.40414752  0.39060990  0.10680373  1
  O  O369  1  0.38097941  0.35656306  0.62424797  1
  O  O370  1  0.35829293  0.87397447  0.12420993  1
  O  O371  1  0.37971962  0.87713992  0.61129366  1
  O  O372  1  0.85309853  0.37780014  0.09423703  1
  O  O373  1  0.91420490  0.33553649  0.63275634  1
  O  O374  1  0.86284779  0.88377427  0.12479351  1
  O  O375  1  0.87644955  0.85936037  0.62589871  1
  O  O376  1  0.07397585  0.16303410  0.35035090  1
  O  O377  1  0.13627077  0.13940745  0.86317945  1
  O  O378  1  0.12468739  0.64551718  0.37266081  1
  O  O379  1  0.14504147  0.62826150  0.86249433  1
  O  O380  1  0.60539896  0.12193225  0.38561738  1
  O  O381  1  0.63237767  0.10609807  0.89538474  1
  O  O382  1  0.57223168  0.58678687  0.42042534  1
  O  O383  1  0.63077935  0.65675497  0.84233026  1
