# generated using pymatgen
data_VZnO4
_symmetry_space_group_name_H-M   'P 1'
_cell_length_a   16.92278821
_cell_length_b   17.13956539
_cell_length_c   16.96503477
_cell_angle_alpha   89.43112222
_cell_angle_beta   89.00841496
_cell_angle_gamma   90.20670729
_symmetry_Int_Tables_number   1
_chemical_formula_structural   VZnO4
_chemical_formula_sum   'V64 Zn64 O256'
_cell_volume   4919.68081515
_cell_formula_units_Z   64
loop_
 _symmetry_equiv_pos_site_id
 _symmetry_equiv_pos_as_xyz
  1  'x, y, z'
loop_
 _atom_site_type_symbol
 _atom_site_label
 _atom_site_symmetry_multiplicity
 _atom_site_fract_x
 _atom_site_fract_y
 _atom_site_fract_z
 _atom_site_occupancy
  V  V0  1  0.24958225  0.74606233  0.00185756  1
  V  V1  1  0.35634528  0.22981172  0.61990457  1
  V  V2  1  0.73105968  0.87967511  0.63257574  1
  V  V3  1  0.50546577  0.87382740  0.87357649  1
  V  V4  1  0.25208227  0.39725878  0.12393895  1
  V  V5  1  0.11895789  0.50221209  0.61256090  1
  V  V6  1  -0.00504444  0.89616672  0.86868495  1
  V  V7  1  0.10251211  0.26606568  0.87998943  1
  V  V8  1  0.60871561  0.00621742  0.64053427  1
  V  V9  1  0.74968847  0.89187590  0.12502530  1
  V  V10  1  0.01427173  0.09465154  0.12728806  1
  V  V11  1  0.75628301  0.24547517  0.00209406  1
  V  V12  1  0.89082235  0.76930408  0.61722357  1
  V  V13  1  0.37676401  0.86299086  -0.00157474  1
  V  V14  1  0.35794225  -0.00258469  0.87708323  1
  V  V15  1  0.38959282  0.87034068  0.47832618  1
  V  V16  1  0.49185320  0.12014296  0.61242926  1
  V  V17  1  0.00507692  0.62349147  0.60069007  1
  V  V18  1  0.51822675  0.23571320  0.77616342  1
  V  V19  1  0.10660484  0.38072613  0.75639761  1
  V  V20  1  0.61127844  0.63141171  -0.00998586  1
  V  V21  1  0.12616592  0.39802579  0.24508644  1
  V  V22  1  0.04226628  0.81850612  0.35888895  1
  V  V23  1  0.60561570  0.51221643  0.11413611  1
  V  V24  1  0.50421711  0.00131227  0.47424374  1
  V  V25  1  0.74114821  0.71564064  0.51898015  1
  V  V26  1  0.76212689  0.00835915  0.76875040  1
  V  V27  1  0.01292495  0.50070955  0.00420600  1
  V  V28  1  0.38786933  0.74022247  0.60851879  1
  V  V29  1  0.24483981  0.72369487  0.49413967  1
  V  V30  1  0.25089540  0.25779147  -0.01603382  1
  V  V31  1  0.90157606  0.49874575  0.39081256  1
  V  V32  1  0.73992240  0.58665792  0.36065302  1
  V  V33  1  -0.00609429  0.26486781  0.23309330  1
  V  V34  1  0.87456024  0.02227437  0.40473523  1
  V  V35  1  0.25067662  0.88626394  0.60950015  1
  V  V36  1  0.01598742  0.12286981  0.63551961  1
  V  V37  1  0.38682512  0.38911888  -0.01573703  1
  V  V38  1  0.64576070  0.85167471  0.27473186  1
  V  V39  1  0.36581412  0.23583788  0.12588899  1
  V  V40  1  0.23386801  0.24672216  0.48428319  1
  V  V41  1  0.11172078  0.25003069  0.36490386  1
  V  V42  1  0.25713703  0.49754131  0.74858398  1
  V  V43  1  0.36151867  0.51198301  0.35104480  1
  V  V44  1  0.12630752  0.11825073  -0.00087595  1
  V  V45  1  0.71306511  0.09266418  0.29900517  1
  V  V46  1  0.76134509  0.74918093  0.01771770  1
  V  V47  1  0.88204247  0.49757696  0.88562339  1
  V  V48  1  -0.02870708  0.64231048  0.11113096  1
  V  V49  1  0.39197802  0.61261531  0.74163819  1
  V  V50  1  0.48629022  0.23678610  0.24611997  1
  V  V51  1  0.48594836  0.37398929  0.36702980  1
  V  V52  1  0.89124945  0.11412376  0.24876867  1
  V  V53  1  0.13088645  0.74623007  0.83963582  1
  V  V54  1  0.75455758  0.38763787  0.11341103  1
  V  V55  1  0.50689083  0.76334779  0.74234984  1
  V  V56  1  0.75793078  0.48364557  0.75019978  1
  V  V57  1  0.89655799  0.63656730  0.75115892  1
  V  V58  1  0.61209665  0.38236929  0.24296747  1
  V  V59  1  0.38824195  0.74036993  0.14820152  1
  V  V60  1  0.25310423  0.61853612  0.87815217  1
  V  V61  1  0.24867167  0.37503023  0.62210699  1
  V  V62  1  0.36933306  0.37898914  0.49471412  1
  V  V63  1  0.75471630  0.64913294  0.87043947  1
  Zn  Zn64  1  0.17902281  0.19980255  0.17435896  1
  Zn  Zn65  1  0.20298723  0.20118433  0.70816263  1
  Zn  Zn66  1  0.16305781  0.69384120  0.13714267  1
  Zn  Zn67  1  0.20147305  0.67812703  0.67254273  1
  Zn  Zn68  1  0.70509228  0.23516051  0.21529379  1
  Zn  Zn69  1  0.72112866  0.22091552  0.80288147  1
  Zn  Zn70  1  0.80663023  0.69485065  0.21614359  1
  Zn  Zn71  1  0.69939187  0.68492993  0.68468320  1
  Zn  Zn72  1  0.30360292  0.31585479  0.30455483  1
  Zn  Zn73  1  0.33384592  0.31241866  0.80197854  1
  Zn  Zn74  1  0.24043926  0.77265265  0.29334662  1
  Zn  Zn75  1  0.27545839  0.85957973  0.82008067  1
  Zn  Zn76  1  0.80389054  0.40601192  0.30169269  1
  Zn  Zn77  1  0.88842973  0.28824228  0.86635451  1
  Zn  Zn78  1  0.80058878  0.85282333  0.32811388  1
  Zn  Zn79  1  0.79514332  0.85250255  0.84019392  1
  Zn  Zn80  1  0.18375526  0.43664539  0.42690482  1
  Zn  Zn81  1  0.18973215  0.44115775  0.93944720  1
  Zn  Zn82  1  0.18887102  0.89286248  0.42413854  1
  Zn  Zn83  1  0.16827261  0.91989296  0.94284712  1
  Zn  Zn84  1  0.64907029  0.45705372  0.43376252  1
  Zn  Zn85  1  0.70080764  0.45523871  0.93883784  1
  Zn  Zn86  1  0.69642472  0.95110061  0.44862817  1
  Zn  Zn87  1  0.67551087  0.93408211  0.95210043  1
  Zn  Zn88  1  0.42144392  0.03258673  0.08426144  1
  Zn  Zn89  1  0.27618567  0.04540396  0.47846361  1
  Zn  Zn90  1  0.33810669  0.56908412  0.06255281  1
  Zn  Zn91  1  0.32199724  0.55656930  0.56371205  1
  Zn  Zn92  1  0.79214542  0.08224150  0.10271569  1
  Zn  Zn93  1  0.80982745  0.06882770  0.60023751  1
  Zn  Zn94  1  0.80405067  0.56505725  0.06817862  1
  Zn  Zn95  1  0.81581691  0.54970326  0.57426544  1
  Zn  Zn96  1  0.42718572  0.43758008  0.17863041  1
  Zn  Zn97  1  0.43885329  0.41229990  0.69042120  1
  Zn  Zn98  1  0.51938314  0.88003045  0.15699866  1
  Zn  Zn99  1  0.40109548  0.92866817  0.68786921  1
  Zn  Zn100  1  0.93913613  0.45552098  0.19031124  1
  Zn  Zn101  1  0.92330550  0.44930230  0.68309175  1
  Zn  Zn102  1  0.94056543  0.91783117  0.19887539  1
  Zn  Zn103  1  0.94478484  0.93760423  0.70751861  1
  Zn  Zn104  1  0.08030682  0.05262608  0.43363764  1
  Zn  Zn105  1  0.06234511  0.07885566  0.82817909  1
  Zn  Zn106  1  0.04464157  0.61683339  0.33189269  1
  Zn  Zn107  1  0.06858444  0.56020327  0.81570590  1
  Zn  Zn108  1  0.52537701  0.01900557  0.25693805  1
  Zn  Zn109  1  0.49290595  0.04675990  0.78478443  1
  Zn  Zn110  1  0.55470815  0.55298517  0.31797272  1
  Zn  Zn111  1  0.59028522  0.56740879  0.79643892  1
  Zn  Zn112  1  0.41322824  0.17990171  0.42359710  1
  Zn  Zn113  1  0.42894738  0.17480569  0.94969741  1
  Zn  Zn114  1  0.38806841  0.71856332  0.35860714  1
  Zn  Zn115  1  0.43262877  0.69013561  0.91750797  1
  Zn  Zn116  1  0.91852505  0.29713708  0.43026543  1
  Zn  Zn117  1  0.92974393  0.21424927  1.05146737  1
  Zn  Zn118  1  0.88832642  0.70773945  0.39506962  1
  Zn  Zn119  1  0.94430009  0.69723641  0.93264840  1
  Zn  Zn120  1  0.06653581  0.33430488  0.06205165  1
  Zn  Zn121  1  0.06793815  0.31186216  0.56797177  1
  Zn  Zn122  1  0.04934964  0.79922841  0.02736924  1
  Zn  Zn123  1  0.07082495  0.81100450  0.54799193  1
  Zn  Zn124  1  0.54996460  0.32172963  0.07132584  1
  Zn  Zn125  1  0.54632566  0.28868687  0.53920585  1
  Zn  Zn126  1  0.61301417  0.73703016  0.14036049  1
  Zn  Zn127  1  0.56500811  0.82309760  0.55837303  1
  O  O128  1  0.12191532  0.12187915  0.11531747  1
  O  O129  1  0.12009229  0.13557779  0.65070221  1
  O  O130  1  0.07634379  0.62130597  0.15481384  1
  O  O131  1  0.11705001  0.61034617  0.62397778  1
  O  O132  1  0.61448231  0.16743338  0.10934766  1
  O  O133  1  0.59257607  0.11935941  0.61318353  1
  O  O134  1  0.61197672  0.61637590  0.11203231  1
  O  O135  1  0.55420808  0.62444267  0.53849813  1
  O  O136  1  0.37101084  0.37957303  0.37546742  1
  O  O137  1  0.36862701  0.37692544  0.88567262  1
  O  O138  1  0.39915821  0.83409047  0.38679763  1
  O  O139  1  0.37414547  0.87438874  0.87967519  1
  O  O140  1  0.88587680  0.38855096  0.38361389  1
  O  O141  1  0.88171892  0.40167668  0.87224198  1
  O  O142  1  0.85450312  0.92456147  0.39159475  1
  O  O143  1  0.89876249  0.86530371  0.88333835  1
  O  O144  1  0.33631372  -0.02858768  0.28834214  1
  O  O145  1  0.25886976  -0.02751118  0.87981465  1
  O  O146  1  0.26352762  0.49906120  0.37657822  1
  O  O147  1  0.24618862  0.50946721  0.86059681  1
  O  O148  1  0.74147209  0.03474036  0.37933603  1
  O  O149  1  0.74731629  -0.04009168  0.86381718  1
  O  O150  1  0.75265264  0.48162430  0.37977210  1
  O  O151  1  0.76697406  0.52082985  0.86694261  1
  O  O152  1  0.25973481  0.49455299  0.11446068  1
  O  O153  1  0.23843092  0.49224737  0.62911588  1
  O  O154  1  0.22079694  0.95664276  0.14695705  1
  O  O155  1  0.26462105  0.98082580  0.58137175  1
  O  O156  1  0.72756338  0.49237541  0.12085903  1
  O  O157  1  0.80720883  0.46845876  0.65494640  1
  O  O158  1  0.73717704  0.98565390  0.09395305  1
  O  O159  1  0.72740165  1.00795556  0.65318340  1
  O  O160  1  0.01491742  0.37081820  0.22672835  1
  O  O161  1  0.00858261  0.38664973  0.74656505  1
  O  O162  1  -0.00523282  0.86679667  0.28499380  1
  O  O163  1  0.01566070  0.87705653  0.76989631  1
  O  O164  1  0.49097904  0.37155615  0.25390489  1
  O  O165  1  0.46117311  0.31994803  0.75434530  1
  O  O166  1  0.55273403  0.89286822  0.27581438  1
  O  O167  1  0.49475609  0.86617212  0.75118581  1
  O  O168  1  0.49387842  0.14065246  0.24886046  1
  O  O169  1  0.48306038  0.14520771  0.72760894  1
  O  O170  1  0.51477599  0.65370825  0.27503216  1
  O  O171  1  0.49058686  0.60129277  0.75731288  1
  O  O172  1  1.00088568  0.13829645  0.22977782  1
  O  O173  1  1.00493000  0.13240692  0.74099680  1
  O  O174  1  1.01932980  0.64288831  0.21596496  1
  O  O175  1  0.99667859  0.62805054  0.75267552  1
  O  O176  1  0.36191794  0.25628486  0.00444154  1
  O  O177  1  0.34922357  0.25707316  0.49968295  1
  O  O178  1  0.36132499  0.74875129  -0.01710246  1
  O  O179  1  0.39300384  0.73599121  0.50787917  1
  O  O180  1  0.86026103  0.25753617  -0.02240257  1
  O  O181  1  0.92456691  0.20935584  0.49138161  1
  O  O182  1  0.85896728  0.74816857  -0.00358141  1
  O  O183  1  0.85213341  0.74215718  0.51340131  1
  O  O184  1  0.12563181  0.27878845  0.47677648  1
  O  O185  1  0.13314315  0.27457229  0.98523352  1
  O  O186  1  0.14628281  0.73892203  0.49527953  1
  O  O187  1  0.14576806  0.73155889  1.02018029  1
  O  O188  1  0.64877787  0.24685341  0.52407874  1
  O  O189  1  0.60926322  0.21350589  1.05092290  1
  O  O190  1  0.65549311  0.76762661  0.52160057  1
  O  O191  1  0.63704273  0.72776619  1.01309417  1
  O  O192  1  0.47286953  0.25873285  0.13373228  1
  O  O193  1  0.46937838  0.23304723  0.60509904  1
  O  O194  1  0.49100743  0.76580293  0.15156623  1
  O  O195  1  0.49348993  0.76043763  0.62621941  1
  O  O196  1  1.00696090  0.25645554  0.12412289  1
  O  O197  1  1.00831926  0.22565661  0.62173832  1
  O  O198  1  0.98160777  0.74196114  0.09800632  1
  O  O199  1  0.99459596  0.73711789  0.60156942  1
  O  O200  1  0.00684488  0.26840864  0.35032632  1
  O  O201  1  0.00453661  0.27092756  0.88177845  1
  O  O202  1  0.00549108  0.72046547  0.36977885  1
  O  O203  1  0.03438576  0.74869767  0.88030925  1
  O  O204  1  0.47298123  0.25726725  0.35459857  1
  O  O205  1  0.50438266  0.21388175  0.87336330  1
  O  O206  1  0.50626867  0.70805070  0.32713975  1
  O  O207  1  0.49668559  0.75831644  0.84929613  1
  O  O208  1  0.22354418  0.15219128  0.50420187  1
  O  O209  1  0.22782414  0.15765390  1.00261275  1
  O  O210  1  0.25271028  0.62585795  0.51164100  1
  O  O211  1  0.26520784  0.61956009  0.97997072  1
  O  O212  1  0.76321961  0.18383163  0.62135350  1
  O  O213  1  0.75318167  0.14743213  1.02057090  1
  O  O214  1  0.73132115  0.63162246  0.58121783  1
  O  O215  1  0.75121059  0.63659334  0.98621515  1
  O  O216  1  0.25567832  0.37240649  0.00647992  1
  O  O217  1  0.25123058  0.37395578  0.50673583  1
  O  O218  1  0.25241468  0.84958280  -0.00495283  1
  O  O219  1  0.27358258  0.84912113  0.49467727  1
  O  O220  1  0.74468281  0.37731276  0.00926550  1
  O  O221  1  0.70571255  0.29612899  0.48249111  1
  O  O222  1  0.73557854  0.85409041  0.01420653  1
  O  O223  1  0.75905762  0.90848877  0.54004804  1
  O  O224  1  0.11867923  0.49183985  0.24540243  1
  O  O225  1  0.13427984  0.48942494  0.74406415  1
  O  O226  1  0.18360012  1.05608107  0.27611720  1
  O  O227  1  0.16966646  1.04302034  0.77397786  1
  O  O228  1  0.60622875  0.48850080  0.23353363  1
  O  O229  1  0.66796572  0.52627577  0.72634451  1
  O  O230  1  0.63675672  1.05124764  0.25265784  1
  O  O231  1  0.59715869  1.01054571  0.74011073  1
  O  O232  1  0.27149299  0.00760794  0.13616858  1
  O  O233  1  0.38115027  0.00352711  0.77169187  1
  O  O234  1  0.37040617  0.50446493  0.25064664  1
  O  O235  1  0.37049447  0.50218806  0.72974515  1
  O  O236  1  0.89658330  0.01520741  0.25101770  1
  O  O237  1  0.86151536  0.00918828  0.74471447  1
  O  O238  1  0.87737224  0.49199785  0.27651922  1
  O  O239  1  0.87897263  0.52305400  0.76862280  1
  O  O240  1  0.13005609  0.37346727  0.34913068  1
  O  O241  1  0.12489366  0.37889274  0.86307982  1
  O  O242  1  0.14809122  0.82724984  0.33967033  1
  O  O243  1  0.16226377  0.84518396  0.84824152  1
  O  O244  1  0.59826860  0.38136959  0.35812436  1
  O  O245  1  0.60111063  0.41086496  0.87458403  1
  O  O246  1  0.68372280  0.86459931  0.37284808  1
  O  O247  1  0.60410155  0.87599687  0.88044225  1
  O  O248  1  0.37173963  0.13859824  0.11107404  1
  O  O249  1  0.35877686  0.13316148  0.60771520  1
  O  O250  1  0.39527890  0.64412367  0.12167001  1
  O  O251  1  0.38266275  0.62859748  0.62987469  1
  O  O252  1  0.90348064  0.11981928  0.12126600  1
  O  O253  1  0.91285834  0.11745092  0.62598475  1
  O  O254  1  0.86938418  0.62787534  0.13976588  1
  O  O255  1  0.89799442  0.61786088  0.63571431  1
  O  O256  1  0.25720091  0.26008802  0.11596067  1
  O  O257  1  0.23850969  0.26246190  0.60646649  1
  O  O258  1  0.27028437  0.72689690  0.10498491  1
  O  O259  1  0.27157453  0.74716053  0.60912247  1
  O  O260  1  0.74245875  0.27485877  0.11277076  1
  O  O261  1  0.80485255  0.24356774  0.62302707  1
  O  O262  1  0.75319082  0.74106638  0.12080148  1
  O  O263  1  0.76509649  0.77541194  0.62887206  1
  O  O264  1  0.23435489  0.25623623  0.37736509  1
  O  O265  1  0.25101716  0.26203016  0.88381449  1
  O  O266  1  0.27580502  0.73140193  0.39468763  1
  O  O267  1  0.24205478  0.73005626  0.88095822  1
  O  O268  1  0.76315768  0.25819201  0.45298178  1
  O  O269  1  0.70642395  0.25466212  0.91657485  1
  O  O270  1  0.73733655  0.67796596  0.42489371  1
  O  O271  1  0.75099737  0.75004039  0.88170271  1
  O  O272  1  0.01654972  0.12643628  0.01935523  1
  O  O273  1  0.03851904  0.10281531  0.53683437  1
  O  O274  1  -0.01190511  0.62129477  0.00826480  1
  O  O275  1  0.00343810  0.61489708  0.50692208  1
  O  O276  1  0.49931953  0.09646242  0.01439327  1
  O  O277  1  0.47987101  0.10670596  0.50304782  1
  O  O278  1  0.51376593  0.63288569  -0.02676927  1
  O  O279  1  0.50678199  0.57898106  0.51005418  1
  O  O280  1  0.48396270  0.35548451  0.47492271  1
  O  O281  1  0.48491593  0.36406016  0.99369081  1
  O  O282  1  0.49814481  0.88868987  0.49635857  1
  O  O283  1  0.48133094  0.85215586  0.97906476  1
  O  O284  1  0.96540491  0.36103133  0.53831144  1
  O  O285  1  0.99654038  0.40167443  1.00562590  1
  O  O286  1  1.03200131  0.86170533  0.45012044  1
  O  O287  1  1.05519804  0.88553208  0.95938494  1
  O  O288  1  0.47738742  0.47932321  0.36889044  1
  O  O289  1  0.55009072  0.45957512  0.84946226  1
  O  O290  1  0.51749439  1.01388005  0.37840168  1
  O  O291  1  0.48444200  0.97663151  0.87625072  1
  O  O292  1  0.99941451  0.52405137  0.37819590  1
  O  O293  1  0.99046763  0.51886292  0.89129362  1
  O  O294  1  0.97575174  1.02690117  0.40460226  1
  O  O295  1  0.99888782  0.99792361  0.86520926  1
  O  O296  1  0.01277708  -0.00228245  0.13771447  1
  O  O297  1  0.02013588  0.01885608  0.65327446  1
  O  O298  1  -0.01704771  0.51841134  0.10683616  1
  O  O299  1  0.01286855  0.50930553  0.63022814  1
  O  O300  1  0.47138922  -0.02046142  0.16670030  1
  O  O301  1  0.48478008  0.01387018  0.62911709  1
  O  O302  1  0.50673434  0.49525182  0.11580833  1
  O  O303  1  0.53398010  0.46158378  0.63733184  1
  O  O304  1  0.24206247  0.38017136  0.23181409  1
  O  O305  1  0.25333290  0.38428502  0.73599418  1
  O  O306  1  0.27790551  0.92815142  0.29648750  1
  O  O307  1  0.28134357  0.88429311  0.70987025  1
  O  O308  1  0.72098542  0.36217209  0.23914675  1
  O  O309  1  0.73828265  0.39418648  0.77958998  1
  O  O310  1  0.73972271  0.89888925  0.23541986  1
  O  O311  1  0.76525238  0.88854933  0.73186297  1
  O  O312  1  0.23164027  0.10632710  0.25195343  1
  O  O313  1  0.22345945  0.09537670  0.76526533  1
  O  O314  1  0.19170330  0.67283513  0.25467653  1
  O  O315  1  0.26423269  0.60981082  0.74453981  1
  O  O316  1  0.78233028  0.11984676  0.21389455  1
  O  O317  1  0.73515859  0.10155919  0.78568170  1
  O  O318  1  0.73387943  0.61037094  0.26532283  1
  O  O319  1  0.76848427  0.64036121  0.76378849  1
  O  O320  1  0.33656002  0.10504912  0.40139969  1
  O  O321  1  0.36681683  0.09360899  0.90151163  1
  O  O322  1  0.38438032  0.60596518  0.37311919  1
  O  O323  1  0.36254414  0.62554425  0.84971842  1
  O  O324  1  0.86645454  0.12654496  0.34700121  1
  O  O325  1  0.86995477  0.05963033  0.93557467  1
  O  O326  1  0.85117616  0.59887695  0.37701638  1
  O  O327  1  0.87281709  0.64002910  0.86240991  1
  O  O328  1  0.14402958  0.38024997  0.12932776  1
  O  O329  1  0.12814295  0.38274720  0.63796456  1
  O  O330  1  0.09622009  0.85834782  0.13605588  1
  O  O331  1  0.15058491  0.86811147  0.60472720  1
  O  O332  1  0.62110922  0.38973856  0.12758140  1
  O  O333  1  0.58407577  0.41358924  0.59553334  1
  O  O334  1  0.63779138  0.85789883  0.14304924  1
  O  O335  1  0.62669575  0.88884595  0.63457021  1
  O  O336  1  0.11701308  0.25438352  0.25220919  1
  O  O337  1  0.12919384  0.27076604  0.76856058  1
  O  O338  1  0.13568583  0.81137808  0.17920972  1
  O  O339  1  0.13067304  0.73653707  0.74087714  1
  O  O340  1  0.59120451  0.27288331  0.23178444  1
  O  O341  1  0.61691355  0.24509580  0.75900530  1
  O  O342  1  0.64386225  0.75371933  0.25686307  1
  O  O343  1  0.60253374  0.72801734  0.72770574  1
  O  O344  1  0.36813433  0.24719107  0.23484916  1
  O  O345  1  0.32236866  0.23195565  0.72114317  1
  O  O346  1  0.34773818  0.75093304  0.24395285  1
  O  O347  1  0.39989154  0.72583979  0.73114322  1
  O  O348  1  0.89631016  0.24666192  0.24218621  1
  O  O349  1  0.82970413  0.24553082  0.78666313  1
  O  O350  1  0.84412479  0.75575022  0.30085342  1
  O  O351  1  0.88530427  0.73915584  0.72088980  1
  O  O352  1  0.37591769  0.47889837  0.50261184  1
  O  O353  1  0.38231319  0.48758844  0.99754501  1
  O  O354  1  0.38728615  0.97353416  0.47138524  1
  O  O355  1  0.37178360  0.96839812  0.99838740  1
  O  O356  1  0.87753837  0.50423519  0.49168362  1
  O  O357  1  0.86818018  0.51243613  0.98602336  1
  O  O358  1  0.84466641  1.04419852  0.49826974  1
  O  O359  1  0.87926886  1.00800724  0.98504501  1
  O  O360  1  0.14066399  0.02419707  -0.01424228  1
  O  O361  1  0.17723618  -0.00030894  0.43834804  1
  O  O362  1  0.11365078  0.50674717  -0.00397835  1
  O  O363  1  0.12527486  0.48615989  0.51554038  1
  O  O364  1  0.59399585  0.00197634  0.01432019  1
  O  O365  1  0.60360597  -0.00364249  0.51387394  1
  O  O366  1  0.62713534  0.51844503  0.00493052  1
  O  O367  1  0.63976060  0.45489469  0.55099945  1
  O  O368  1  0.36127419  0.36997066  0.11156692  1
  O  O369  1  0.36316248  0.36000261  0.61348770  1
  O  O370  1  0.37316206  0.84291565  0.10072537  1
  O  O371  1  0.37721446  0.85589587  0.59865798  1
  O  O372  1  0.85103009  0.39418230  0.13449778  1
  O  O373  1  0.91334872  0.36321217  0.59612577  1
  O  O374  1  0.85164152  0.88241785  0.13517800  1
  O  O375  1  0.90642523  0.86614670  0.62285082  1
  O  O376  1  0.10684898  0.15401339  0.38102230  1
  O  O377  1  0.11237785  0.15637153  0.89269627  1
  O  O378  1  0.16193668  0.62930789  0.31478880  1
  O  O379  1  0.14564884  0.63064684  0.86052212  1
  O  O380  1  0.68829498  0.18625534  0.32212162  1
  O  O381  1  0.56737870  0.06486158  0.97719654  1
  O  O382  1  0.63511234  0.56861193  0.39474859  1
  O  O383  1  0.64588193  0.62451899  0.88010738  1
