# generated using pymatgen
data_VZnO4
_symmetry_space_group_name_H-M   'P 1'
_cell_length_a   16.86844440
_cell_length_b   17.01413107
_cell_length_c   16.89292911
_cell_angle_alpha   89.31817769
_cell_angle_beta   90.08163233
_cell_angle_gamma   90.32537580
_symmetry_Int_Tables_number   1
_chemical_formula_structural   VZnO4
_chemical_formula_sum   'V64 Zn64 O256'
_cell_volume   4847.87723818
_cell_formula_units_Z   64
loop_
 _symmetry_equiv_pos_site_id
 _symmetry_equiv_pos_as_xyz
  1  'x, y, z'
loop_
 _atom_site_type_symbol
 _atom_site_label
 _atom_site_symmetry_multiplicity
 _atom_site_fract_x
 _atom_site_fract_y
 _atom_site_fract_z
 _atom_site_occupancy
  V  V0  1  0.50318175  0.61475405  0.61223488  1
  V  V1  1  0.26738981  0.37513505  0.63732895  1
  V  V2  1  0.75614646  0.27318708  -0.00345093  1
  V  V3  1  0.61448024  0.25472970  0.87380875  1
  V  V4  1  0.13579377  0.11634318  0.49990262  1
  V  V5  1  0.35736604  -0.01202537  0.36763460  1
  V  V6  1  0.75378897  0.00359706  0.26068077  1
  V  V7  1  0.88138901  0.88480134  -0.02091550  1
  V  V8  1  0.49730072  0.00122213  0.48032269  1
  V  V9  1  0.75625972  0.22645369  0.49715848  1
  V  V10  1  0.38096226  0.13573511  0.74114251  1
  V  V11  1  0.72660057  0.88467767  0.11699834  1
  V  V12  1  0.37188888  0.11390817  0.24662423  1
  V  V13  1  0.21141798  0.18512082  0.82037915  1
  V  V14  1  0.74501626  0.75130694  -0.00203460  1
  V  V15  1  0.24233144  -0.01725337  0.73867952  1
  V  V16  1  0.50588182  0.75027013  0.25193741  1
  V  V17  1  0.74900813  0.38256133  0.61243285  1
  V  V18  1  0.25366524  0.49179942  0.24936530  1
  V  V19  1  -0.00856914  0.61781552  0.63644188  1
  V  V20  1  0.88878066  0.25017009  0.62891473  1
  V  V21  1  0.51652027  0.11980099  0.11913887  1
  V  V22  1  0.01548371  0.11817082  0.62683150  1
  V  V23  1  0.23937847  0.37269450  0.12678015  1
  V  V24  1  0.88081941  0.26110882  0.12435507  1
  V  V25  1  -0.00074366  0.11706113  0.13308487  1
  V  V26  1  0.62696997  0.87206655  0.27575396  1
  V  V27  1  0.62842918  0.75038990  0.86962243  1
  V  V28  1  0.48708926  0.74143055  0.75257046  1
  V  V29  1  0.84654968  0.62206493  0.75564144  1
  V  V30  1  0.64757970  0.23757394  0.36407611  1
  V  V31  1  0.62063253  0.88658861  0.74743695  1
  V  V32  1  0.40679712  0.49379043  0.90587812  1
  V  V33  1  0.23900139  0.62228630  0.88699142  1
  V  V34  1  0.12322561  0.11649541  -0.00219682  1
  V  V35  1  0.11871697  0.49259032  0.65721854  1
  V  V36  1  0.61086867  0.01794558  0.62084674  1
  V  V37  1  0.01185794  0.74213991  0.76171517  1
  V  V38  1  0.01460732  0.88228033  0.86567171  1
  V  V39  1  0.49577782  0.88501183  0.87293004  1
  V  V40  1  -0.04567756  0.51463433  0.02564373  1
  V  V41  1  0.24281387  0.25062190  -0.00029146  1
  V  V42  1  0.37119982  0.76161260  0.62224965  1
  V  V43  1  0.38453827  0.25564331  0.11629321  1
  V  V44  1  0.36155077  0.01042054  0.87954117  1
  V  V45  1  0.61324324  0.37042735  0.73236535  1
  V  V46  1  0.27067093  0.61973512  0.38654106  1
  V  V47  1  0.51134646  0.25676623  0.25409055  1
  V  V48  1  0.88604722  0.12876722  0.76013286  1
  V  V49  1  0.24646332  0.76025180  0.51054214  1
  V  V50  1  0.74500332  0.12191186  0.88406607  1
  V  V51  1  0.76043019  0.00667151  0.74969086  1
  V  V52  1  0.37267830  0.86475639  0.01139287  1
  V  V53  1  0.51438579  0.00533733  -0.00084738  1
  V  V54  1  0.27527104  0.50206378  0.76329396  1
  V  V55  1  0.63200330  0.50119438  0.13836523  1
  V  V56  1  0.12085882  0.60597746  0.50169319  1
  V  V57  1  0.12420876  0.25812959  0.38235731  1
  V  V58  1  0.37631092  0.63225819  0.22447487  1
  V  V59  1  0.23733374  0.87932731  0.14819561  1
  V  V60  1  0.10963269  0.89272858  0.26693803  1
  V  V61  1  0.76946589  0.87914905  0.62232774  1
  V  V62  1  0.11483605  0.74209256  0.37091018  1
  V  V63  1  0.89748017  0.37254355  0.48791271  1
  Zn  Zn64  1  0.18907231  0.17573441  0.17816922  1
  Zn  Zn65  1  0.23797475  0.16928882  0.63877606  1
  Zn  Zn66  1  0.20978609  0.70718475  0.19571562  1
  Zn  Zn67  1  0.19037281  0.67664238  0.69515134  1
  Zn  Zn68  1  0.70145384  0.18692697  0.18142676  1
  Zn  Zn69  1  0.69155804  0.18854203  0.68140746  1
  Zn  Zn70  1  0.70538960  0.70159910  0.19506079  1
  Zn  Zn71  1  0.67294935  0.70449728  0.62654796  1
  Zn  Zn72  1  0.31666578  0.29864393  0.30243596  1
  Zn  Zn73  1  0.32989727  0.32742336  0.81840112  1
  Zn  Zn74  1  0.31282206  0.80535774  0.32091814  1
  Zn  Zn75  1  0.30533176  0.80758910  0.82512983  1
  Zn  Zn76  1  0.83888066  0.29932429  0.30274423  1
  Zn  Zn77  1  0.77334303  0.29333210  0.78841018  1
  Zn  Zn78  1  0.83905106  0.86043167  0.30539767  1
  Zn  Zn79  1  0.81957395  0.80835564  0.79634083  1
  Zn  Zn80  1  0.19796231  0.43826393  0.43726753  1
  Zn  Zn81  1  0.19679107  0.46275039  0.96492636  1
  Zn  Zn82  1  0.12030798  0.90863336  0.48065574  1
  Zn  Zn83  1  0.18987903  0.93126632  0.94021516  1
  Zn  Zn84  1  0.72926306  0.40498710  0.38252920  1
  Zn  Zn85  1  0.60061928  0.45850781  0.91938524  1
  Zn  Zn86  1  0.68823113  0.94697832  0.44629554  1
  Zn  Zn87  1  0.68985249  0.93686203  0.93284434  1
  Zn  Zn88  1  0.31328529  0.06129410  0.06879780  1
  Zn  Zn89  1  0.31892837  0.04971196  0.55594477  1
  Zn  Zn90  1  0.31846337  0.55737762  0.05759414  1
  Zn  Zn91  1  0.31696678  0.56880911  0.57933117  1
  Zn  Zn92  1  0.82179567  0.05928294  0.06523504  1
  Zn  Zn93  1  0.82856512  0.05552452  0.57038127  1
  Zn  Zn94  1  0.77160303  0.56241973  -0.07326275  1
  Zn  Zn95  1  0.83531658  0.54278667  0.55209635  1
  Zn  Zn96  1  0.43556043  0.44038559  0.18818517  1
  Zn  Zn97  1  0.44588785  0.43585436  0.68911906  1
  Zn  Zn98  1  0.44999247  0.93210829  0.18884068  1
  Zn  Zn99  1  0.42618725  0.94524577  0.68848327  1
  Zn  Zn100  1  0.83523819  0.45438802  0.19476395  1
  Zn  Zn101  1  0.92298405  0.43823351  0.69918220  1
  Zn  Zn102  1  0.94059345  0.94580045  0.18831489  1
  Zn  Zn103  1  0.98603746  0.90670894  0.64760810  1
  Zn  Zn104  1  0.05480627  0.08016002  0.32342080  1
  Zn  Zn105  1  0.07077507  0.06252682  0.81115213  1
  Zn  Zn106  1  0.08219337  0.56116348  0.30303071  1
  Zn  Zn107  1  0.05368628  0.55839490  0.83089336  1
  Zn  Zn108  1  0.57129658  0.06363674  0.30361270  1
  Zn  Zn109  1  0.56156353  0.07082223  0.80782035  1
  Zn  Zn110  1  0.54560773  0.57307031  0.32081662  1
  Zn  Zn111  1  0.65292110  0.57271779  0.76770925  1
  Zn  Zn112  1  0.45288880  0.16969161  0.42805679  1
  Zn  Zn113  1  0.43428629  0.18444397  0.93581897  1
  Zn  Zn114  1  0.57677291  0.70784108  0.44617187  1
  Zn  Zn115  1  0.42880420  0.67440591  0.92884046  1
  Zn  Zn116  1  0.97905378  0.22838957  0.46157871  1
  Zn  Zn117  1  0.93570902  0.19510078  0.94271615  1
  Zn  Zn118  1  0.93339617  0.66170694  0.43066185  1
  Zn  Zn119  1  0.91438963  0.69568537  0.92544812  1
  Zn  Zn120  1  0.05920626  0.33070171  0.04757547  1
  Zn  Zn121  1  0.08493019  0.30639638  0.57697086  1
  Zn  Zn122  1  0.04684632  0.83700407  0.07662504  1
  Zn  Zn123  1  0.02540937  0.76953398  0.53570586  1
  Zn  Zn124  1  0.56859210  0.30975944  0.05420450  1
  Zn  Zn125  1  0.59861162  0.34098026  0.50537818  1
  Zn  Zn126  1  0.53747960  0.73847181  0.04552913  1
  Zn  Zn127  1  0.55831746  0.83036757  0.56723603  1
  O  O128  1  0.10974366  0.13580549  0.10809384  1
  O  O129  1  0.11802238  0.13798977  0.62594162  1
  O  O130  1  0.12708538  0.68030725  0.08902568  1
  O  O131  1  0.12323608  0.60335647  0.62062613  1
  O  O132  1  0.61466780  0.13202502  0.12125268  1
  O  O133  1  0.62644330  0.11577195  0.62914573  1
  O  O134  1  0.64670982  0.60456255  0.15536901  1
  O  O135  1  0.59961918  0.62586812  0.66024216  1
  O  O136  1  0.37261264  0.33221191  0.39911293  1
  O  O137  1  0.38861932  0.39563846  0.88047859  1
  O  O138  1  0.37422531  0.88880963  0.36166347  1
  O  O139  1  0.38259472  0.88928543  0.87951272  1
  O  O140  1  0.89458074  0.34249305  0.39256926  1
  O  O141  1  0.94831171  0.33500777  0.83772582  1
  O  O142  1  0.90119824  0.85218704  0.40753754  1
  O  O143  1  0.88215032  0.87503536  0.87443191  1
  O  O144  1  0.26230360  -0.00080411  0.36805881  1
  O  O145  1  0.26044662  -0.00269213  0.87060001  1
  O  O146  1  0.25209342  0.51061287  0.35995573  1
  O  O147  1  0.24891408  0.49035076  0.86329457  1
  O  O148  1  0.74739503  -0.00325984  0.36191508  1
  O  O149  1  0.74283606  0.01423478  0.86105478  1
  O  O150  1  0.71153260  0.53024625  0.38273274  1
  O  O151  1  0.68666710  0.51654497  0.87487844  1
  O  O152  1  0.25971477  0.47702661  0.12928943  1
  O  O153  1  0.24072210  0.50222037  0.65246540  1
  O  O154  1  0.25719804  0.97637403  0.12128387  1
  O  O155  1  0.26336954  0.99043467  0.63938854  1
  O  O156  1  0.73454246  0.48756763  0.14236031  1
  O  O157  1  0.75039358  0.48137490  0.59545949  1
  O  O158  1  0.76342842  0.98324662  0.13231517  1
  O  O159  1  0.74526444  1.00376209  0.63879672  1
  O  O160  1  -0.03110436  0.43595018  0.26701870  1
  O  O161  1  -0.01247327  0.37862460  0.78220863  1
  O  O162  1  0.01011441  0.87639677  0.25598657  1
  O  O163  1  0.00000508  0.85187418  0.75525914  1
  O  O164  1  0.49488629  0.35443834  0.24507396  1
  O  O165  1  0.51567102  0.35080627  0.71987317  1
  O  O166  1  0.51369387  0.86134635  0.26007930  1
  O  O167  1  0.50371862  0.88817407  0.75904702  1
  O  O168  1  0.50201133  0.13023918  0.23169199  1
  O  O169  1  0.48107017  0.12806412  0.75075684  1
  O  O170  1  0.47788570  0.61758467  0.23709348  1
  O  O171  1  0.48825271  0.64634499  0.76332160  1
  O  O172  1  1.00544981  0.12893556  0.23245979  1
  O  O173  1  0.99048234  0.12809850  0.75274315  1
  O  O174  1  0.97873970  0.61164596  0.28049531  1
  O  O175  1  0.99559685  0.62248162  0.74899436  1
  O  O176  1  0.37235175  0.24384699  0.01301572  1
  O  O177  1  0.34593644  0.29620972  0.46786795  1
  O  O178  1  0.39853550  0.76951577  -0.00489110  1
  O  O179  1  0.35464530  0.75900690  0.51418034  1
  O  O180  1  0.86316666  0.25832123  0.00069669  1
  O  O181  1  0.87678442  0.24530880  0.51690848  1
  O  O182  1  0.85136524  0.76934020  -0.01385731  1
  O  O183  1  0.86167658  0.81074152  0.46266430  1
  O  O184  1  0.12550083  0.24046080  0.49139831  1
  O  O185  1  0.14091275  0.24720301  0.99885550  1
  O  O186  1  0.13391380  0.72840655  0.49445177  1
  O  O187  1  0.10337528  0.73009927  1.03793357  1
  O  O188  1  0.65132761  0.23440199  0.49083163  1
  O  O189  1  0.63798324  0.25402347  0.98058365  1
  O  O190  1  0.62955648  0.75473434  0.52887865  1
  O  O191  1  0.62922862  0.76537165  0.98006325  1
  O  O192  1  0.50025924  0.24333298  0.12316768  1
  O  O193  1  0.39568121  0.24628279  0.50113235  1
  O  O194  1  0.50779576  0.74531190  0.15155720  1
  O  O195  1  0.48836788  0.75140786  0.63901157  1
  O  O196  1  0.98734607  0.25949584  0.10486652  1
  O  O197  1  0.99209321  0.24531620  0.63590677  1
  O  O198  1  0.94233944  0.80410029  0.12296631  1
  O  O199  1  1.00668345  0.72118956  0.64105300  1
  O  O200  1  0.02490144  0.24672649  0.35879059  1
  O  O201  1  -0.00554063  0.28129730  0.87305683  1
  O  O202  1  0.01591445  0.73373809  0.38365669  1
  O  O203  1  -0.00135425  0.74470449  0.86584259  1
  O  O204  1  0.51644664  0.24053004  0.35691528  1
  O  O205  1  0.51587999  0.24031162  0.87748958  1
  O  O206  1  0.53939826  0.69352755  0.34340935  1
  O  O207  1  0.50327779  0.76799307  0.86516552  1
  O  O208  1  0.23739796  0.12883893  0.52468310  1
  O  O209  1  0.24168579  0.14154294  1.01535081  1
  O  O210  1  0.24003273  0.61980290  0.49691593  1
  O  O211  1  0.23054508  0.57420704  0.98711732  1
  O  O212  1  0.77097148  0.12892831  0.49999544  1
  O  O213  1  0.75478564  0.11338136  0.98308994  1
  O  O214  1  0.81251918  0.62093013  0.45810758  1
  O  O215  1  0.74547144  0.65291002  0.99719337  1
  O  O216  1  0.25210171  0.36207101  0.01811064  1
  O  O217  1  0.27163063  0.42078571  0.52627199  1
  O  O218  1  0.27044759  0.87217980  -0.00379427  1
  O  O219  1  0.22587909  0.85532207  0.50650683  1
  O  O220  1  0.74699170  0.36789056  -0.01141172  1
  O  O221  1  0.77328273  0.35731772  0.50014098  1
  O  O222  1  0.75673858  0.88044154  0.00664833  1
  O  O223  1  0.75275202  0.89562446  0.52394616  1
  O  O224  1  0.15734915  0.52170437  0.23187777  1
  O  O225  1  0.11664446  0.49228423  0.75721464  1
  O  O226  1  0.11465239  0.98954220  0.28079632  1
  O  O227  1  0.14317911  1.00114220  0.74988012  1
  O  O228  1  0.61939314  0.49691547  0.24506047  1
  O  O229  1  0.61774669  0.46933667  0.73400447  1
  O  O230  1  0.63520126  0.98046445  0.25314647  1
  O  O231  1  0.63302175  1.00280756  0.74356474  1
  O  O232  1  0.39198521  0.00828716  0.25397608  1
  O  O233  1  0.36570354  0.01203702  0.76203610  1
  O  O234  1  0.36334477  0.51857938  0.23631855  1
  O  O235  1  0.37613634  0.50160198  0.75780784  1
  O  O236  1  0.85800673  -0.03435603  0.26189639  1
  O  O237  1  0.86398008  0.01893614  0.75006477  1
  O  O238  1  0.82133580  0.57767317  0.23837651  1
  O  O239  1  0.86759581  0.52145312  0.74991585  1
  O  O240  1  0.14388667  0.35722273  0.38625212  1
  O  O241  1  0.10280185  0.40375211  0.96910007  1
  O  O242  1  0.12416332  0.85251090  0.37290505  1
  O  O243  1  0.11310410  0.86952643  0.88305834  1
  O  O244  1  0.63134368  0.34669114  0.39186386  1
  O  O245  1  0.62053870  0.36043401  0.84983044  1
  O  O246  1  0.63963881  0.86520755  0.37406895  1
  O  O247  1  0.61308777  0.88330442  0.86415268  1
  O  O248  1  0.39102904  0.13249659  0.12850251  1
  O  O249  1  0.35826796  0.12800128  0.64039160  1
  O  O250  1  0.35604988  0.64030271  0.12687199  1
  O  O251  1  0.39187093  0.64362525  0.62090265  1
  O  O252  1  0.89757986  0.13534491  0.10256707  1
  O  O253  1  0.88982145  0.13322336  0.63667376  1
  O  O254  1  0.81256328  0.63077378  0.18537958  1
  O  O255  1  0.88932588  0.61353360  0.62388152  1
  O  O256  1  0.26531582  0.25622569  0.12304739  1
  O  O257  1  0.23600017  0.28190015  0.62038914  1
  O  O258  1  0.25628044  0.78081560  0.12460885  1
  O  O259  1  0.25727874  0.73761132  0.62103354  1
  O  O260  1  0.75680955  0.24465418  0.10160624  1
  O  O261  1  0.76422676  0.24871259  0.60967275  1
  O  O262  1  0.74021002  0.77029593  0.10798675  1
  O  O263  1  0.75350497  0.78101004  0.64209277  1
  O  O264  1  0.22750283  0.22826143  0.33349310  1
  O  O265  1  0.26200655  0.25325128  0.89315545  1
  O  O266  1  0.24674893  0.73420204  0.39183766  1
  O  O267  1  0.26459234  0.72064827  0.88673915  1
  O  O268  1  0.75533898  0.24245882  0.37988762  1
  O  O269  1  0.75071163  0.23870499  0.88567170  1
  O  O270  1  0.75558969  0.66865342  0.47359696  1
  O  O271  1  0.73312885  0.77249449  0.87669435  1
  O  O272  1  0.02208723  0.13298809  -0.01647793  1
  O  O273  1  0.01236131  0.13160531  0.52051018  1
  O  O274  1  -0.05698997  0.62102309  0.01016933  1
  O  O275  1  0.01237047  0.62482176  0.51745639  1
  O  O276  1  0.49762451  0.11500094  0.00741787  1
  O  O277  1  0.49497552  0.10182922  0.50678631  1
  O  O278  1  0.51226209  0.64333593  -0.00327896  1
  O  O279  1  0.52083285  0.62691902  0.51435754  1
  O  O280  1  0.49752521  0.40108102  0.48470959  1
  O  O281  1  0.54213663  0.40066949  0.99757406  1
  O  O282  1  0.49498752  0.90219197  0.51206810  1
  O  O283  1  0.49050113  0.89689349  0.99002148  1
  O  O284  1  0.99526614  0.34793350  0.51114027  1
  O  O285  1  0.96336774  0.41388001  1.01310768  1
  O  O286  1  0.90584150  0.75221682  0.50198817  1
  O  O287  1  0.99032926  0.86691746  0.97887668  1
  O  O288  1  0.48589345  0.48892278  0.38255117  1
  O  O289  1  0.50359616  0.51136162  0.88230432  1
  O  O290  1  0.50742052  1.00147623  0.37854847  1
  O  O291  1  0.49241573  1.00371841  0.88232451  1
  O  O292  1  1.01553631  0.45261022  0.32271898  1
  O  O293  1  0.99647541  0.52519357  0.92508733  1
  O  O294  1  0.97768396  1.00854622  0.38852427  1
  O  O295  1  1.00463129  0.98043574  0.85676942  1
  O  O296  1  -0.00117269  0.01675502  0.12234021  1
  O  O297  1  0.00609585  0.02092889  0.64001112  1
  O  O298  1  -0.09143941  0.51384924  0.11912957  1
  O  O299  1  0.01038568  0.50389819  0.64108021  1
  O  O300  1  0.50245709  0.01067066  0.11239505  1
  O  O301  1  0.51084924  0.00496881  0.63400304  1
  O  O302  1  0.52596191  0.50133304  0.13600118  1
  O  O303  1  0.48750826  0.51652506  0.62166916  1
  O  O304  1  0.26207020  0.38620405  0.24638911  1
  O  O305  1  0.25774304  0.38977199  0.74616577  1
  O  O306  1  0.23607773  0.87046936  0.25332975  1
  O  O307  1  0.25274709  0.88427625  0.76087905  1
  O  O308  1  0.79285640  0.40453576  0.28821607  1
  O  O309  1  0.75121093  0.37841236  0.71893788  1
  O  O310  1  0.73549762  0.87449557  0.23636584  1
  O  O311  1  0.74550456  0.89561661  0.75065475  1
  O  O312  1  0.27366488  0.11479469  0.22683935  1
  O  O313  1  0.25200477  0.11435999  0.75225133  1
  O  O314  1  0.26915655  0.63254722  0.26791152  1
  O  O315  1  0.25024665  0.60746674  0.76663663  1
  O  O316  1  0.75080171  0.10070914  0.23851199  1
  O  O317  1  0.75927971  0.11974578  0.75577092  1
  O  O318  1  0.75579936  0.71199975  0.30992907  1
  O  O319  1  0.74925958  0.62970834  0.72624889  1
  O  O320  1  0.37927905  0.12074230  0.35135229  1
  O  O321  1  0.37085537  0.11420255  0.87076498  1
  O  O322  1  0.36586102  0.62018482  0.39576671  1
  O  O323  1  0.35938549  0.59492209  0.88978191  1
  O  O324  1  0.91806563  0.04027717  0.42898345  1
  O  O325  1  0.86612393  0.13530025  0.86368167  1
  O  O326  1  0.92998201  0.59059722  0.33882204  1
  O  O327  1  0.84244148  0.62891946  0.86140249  1
  O  O328  1  0.14131189  0.36055182  0.13503820  1
  O  O329  1  0.13389242  0.39679849  0.62433245  1
  O  O330  1  0.12649993  0.87605947  0.14995064  1
  O  O331  1  0.04106270  0.87549346  0.55441611  1
  O  O332  1  0.62686594  0.39759341  0.12874383  1
  O  O333  1  0.64227046  0.35931868  0.61310006  1
  O  O334  1  0.63045744  0.89003771  0.11414142  1
  O  O335  1  0.63204656  0.89536836  0.63856112  1
  O  O336  1  0.16502817  0.24107406  0.27376509  1
  O  O337  1  0.15734591  0.24199632  0.76566196  1
  O  O338  1  0.12656319  0.73376835  0.26904142  1
  O  O339  1  0.11212180  0.73542897  0.75210271  1
  O  O340  1  0.62696136  0.24978258  0.25317068  1
  O  O341  1  0.65033372  0.25929983  0.75934603  1
  O  O342  1  0.62478496  0.76884272  0.24407527  1
  O  O343  1  0.60713392  0.77418612  0.75527868  1
  O  O344  1  0.39251989  0.23510884  0.23770356  1
  O  O345  1  0.35318966  0.23145368  0.76426770  1
  O  O346  1  0.39315014  0.73862038  0.26408686  1
  O  O347  1  0.38166014  0.75973042  0.74624830  1
  O  O348  1  0.86474542  0.22971841  0.22227490  1
  O  O349  1  0.86346627  0.23759194  0.73690502  1
  O  O350  1  0.82806894  0.73935479  0.31123758  1
  O  O351  1  0.88658653  0.72772831  0.74844193  1
  O  O352  1  0.33433707  0.47369166  0.51428266  1
  O  O353  1  0.39572060  0.49180938  1.00830277  1
  O  O354  1  0.38174136  1.00436001  0.47517464  1
  O  O355  1  0.37789319  0.99960853  0.98769435  1
  O  O356  1  0.89374766  0.47380592  0.48596658  1
  O  O357  1  0.85272691  0.50955778  0.98532763  1
  O  O358  1  0.89574181  0.99607490  0.49227569  1
  O  O359  1  0.87332489  0.98207253  0.99526084  1
  O  O360  1  0.13663185  0.01827572  -0.00545610  1
  O  O361  1  0.12695200  0.01803106  0.50122855  1
  O  O362  1  0.04308268  0.52961681  0.07313045  1
  O  O363  1  0.12264433  0.50689832  0.49492940  1
  O  O364  1  0.61231422  0.00290328  -0.01083887  1
  O  O365  1  0.61491408  0.00304827  0.51432156  1
  O  O366  1  0.62999503  0.52443662  0.03699769  1
  O  O367  1  0.51804563  0.47186298  0.45442258  1
  O  O368  1  0.37951985  0.35648532  0.12970568  1
  O  O369  1  0.36685564  0.37091037  0.63516810  1
  O  O370  1  0.38163823  0.87899944  0.11362610  1
  O  O371  1  0.37582487  0.86078108  0.62944894  1
  O  O372  1  0.86510434  0.35906152  0.13810732  1
  O  O373  1  0.87299721  0.36216849  0.62185657  1
  O  O374  1  0.89256745  0.86812714  0.10378315  1
  O  O375  1  0.86892692  0.89445956  0.63493554  1
  O  O376  1  0.12580642  0.13230501  0.39548205  1
  O  O377  1  0.14143935  0.13000172  0.87956828  1
  O  O378  1  0.12944610  0.62302677  0.38844237  1
  O  O379  1  0.13827629  0.62070495  0.87362582  1
  O  O380  1  0.63101661  0.13824368  0.36806349  1
  O  O381  1  0.63970759  0.13822910  0.86455520  1
  O  O382  1  0.65387051  0.57972868  0.38112179  1
  O  O383  1  0.62449216  0.65490240  0.85358968  1
