# generated using pymatgen
data_VZnO4
_symmetry_space_group_name_H-M   'P 1'
_cell_length_a   16.88474867
_cell_length_b   16.91591501
_cell_length_c   16.91837706
_cell_angle_alpha   90.18950989
_cell_angle_beta   89.95416839
_cell_angle_gamma   90.03403755
_symmetry_Int_Tables_number   1
_chemical_formula_structural   VZnO4
_chemical_formula_sum   'V64 Zn64 O256'
_cell_volume   4832.21450384
_cell_formula_units_Z   64
loop_
 _symmetry_equiv_pos_site_id
 _symmetry_equiv_pos_as_xyz
  1  'x, y, z'
loop_
 _atom_site_type_symbol
 _atom_site_label
 _atom_site_symmetry_multiplicity
 _atom_site_fract_x
 _atom_site_fract_y
 _atom_site_fract_z
 _atom_site_occupancy
  V  V0  1  0.38810880  0.86951328  0.01601700  1
  V  V1  1  0.64556654  0.12469625  0.00298944  1
  V  V2  1  0.74131230  0.48375290  0.75428571  1
  V  V3  1  0.13844544  0.88236404  0.24950758  1
  V  V4  1  0.62231831  0.25947370  0.88279507  1
  V  V5  1  0.12969672  0.49378904  0.62934031  1
  V  V6  1  0.50873243  0.62431654  0.12638879  1
  V  V7  1  0.00405624  -0.00013012  0.51343420  1
  V  V8  1  0.74943900  0.74876568  0.00964042  1
  V  V9  1  0.13347847  0.38692513  0.23923911  1
  V  V10  1  0.51355678  -0.00222554  0.49953336  1
  V  V11  1  0.36959048  0.38768845  0.49093367  1
  V  V12  1  0.88165920  0.35061453  -0.00671137  1
  V  V13  1  0.37298509  0.23645838  0.60770854  1
  V  V14  1  0.12689468  0.74809283  0.37366440  1
  V  V15  1  0.36966221  -0.01566014  0.38432402  1
  V  V16  1  0.12007833  0.37026483  0.76625903  1
  V  V17  1  0.01396043  0.50924749  0.01398302  1
  V  V18  1  0.37733365  0.63496255  0.75235241  1
  V  V19  1  0.14753887  0.12709379  0.50993397  1
  V  V20  1  0.36674017  -0.00266957  0.83126677  1
  V  V21  1  0.48639045  0.75316539  0.25292752  1
  V  V22  1  0.12645949  -0.00765097  0.09354154  1
  V  V23  1  0.61679774  -0.00565320  0.12755139  1
  V  V24  1  0.25029727  0.36920379  0.62312303  1
  V  V25  1  0.77013579  0.37502640  0.13020808  1
  V  V26  1  0.12618137  0.23290391  0.36261939  1
  V  V27  1  0.49703043  0.63638978  0.61958432  1
  V  V28  1  0.86249530  0.87166691  0.50149537  1
  V  V29  1  0.65451936  0.42049284  0.26936556  1
  V  V30  1  0.25725781  0.75092014  0.51217922  1
  V  V31  1  -0.00429961  0.87440738  0.37604348  1
  V  V32  1  0.48658085  0.37472023  0.37004210  1
  V  V33  1  0.61080319  0.75816860  0.86929516  1
  V  V34  1  0.59414097  0.37020163  0.74902195  1
  V  V35  1  0.26356935  0.26545971  -0.00891103  1
  V  V36  1  0.38307923  0.48586028  0.87579135  1
  V  V37  1  0.75882873  0.87780171  0.12214091  1
  V  V38  1  0.50780050  0.23849417  0.26386928  1
  V  V39  1  0.49634338  0.12931280  0.12314739  1
  V  V40  1  0.52219118  0.12715694  0.62554035  1
  V  V41  1  0.13141313  0.61567611  0.48980784  1
  V  V42  1  0.25530445  0.88040913  0.63526947  1
  V  V43  1  0.61897082  0.87221532  0.25984574  1
  V  V44  1  0.11649560  0.22928832  0.88038373  1
  V  V45  1  0.35998370  0.11876284  0.26446707  1
  V  V46  1  0.74805606  0.13744579  0.38130299  1
  V  V47  1  0.76703561  -0.00296217  0.25612779  1
  V  V48  1  0.00388850  0.38895919  0.37594726  1
  V  V49  1  0.85879569  0.37446604  0.49538205  1
  V  V50  1  0.89988041  0.09484291  0.73696227  1
  V  V51  1  0.61246572  0.49981930  0.61022236  1
  V  V52  1  -0.00721458  0.74409587  0.23483378  1
  V  V53  1  0.63353987  0.90231504  0.75579423  1
  V  V54  1  0.88190255  0.62773064  0.75575413  1
  V  V55  1  0.00128558  0.61801615  0.61498640  1
  V  V56  1  0.11067668  0.83858935  0.73819246  1
  V  V57  1  0.73451072  0.62516487  0.87729312  1
  V  V58  1  0.89094241  0.26110629  0.63727524  1
  V  V59  1  0.63014826  0.74209114  0.39062564  1
  V  V60  1  0.86118967  0.74042932  0.61355901  1
  V  V61  1  0.88112989  0.14327498  0.24693660  1
  V  V62  1  0.24093682  0.63222140  0.87687843  1
  V  V63  1  0.88614184  0.49231666  0.87661339  1
  Zn  Zn64  1  0.17199905  0.16222954  0.18298998  1
  Zn  Zn65  1  0.18225956  0.19090823  0.69013018  1
  Zn  Zn66  1  0.30205276  0.78047047  0.16321066  1
  Zn  Zn67  1  0.19400080  0.67896396  0.69136751  1
  Zn  Zn68  1  0.69092686  0.18520655  0.19193339  1
  Zn  Zn69  1  0.70120921  0.19938348  0.56803054  1
  Zn  Zn70  1  0.67200981  0.68383342  0.18551869  1
  Zn  Zn71  1  0.68090309  0.67893173  0.69046954  1
  Zn  Zn72  1  0.30591865  0.29781629  0.30425702  1
  Zn  Zn73  1  0.29888117  0.32040702  0.81395932  1
  Zn  Zn74  1  0.31120356  0.81666041  0.33434363  1
  Zn  Zn75  1  0.30962329  0.81307841  0.81173209  1
  Zn  Zn76  1  0.82410456  0.31577784  0.31307983  1
  Zn  Zn77  1  0.77113146  0.24144260  0.75652255  1
  Zn  Zn78  1  0.80964778  0.80202966  0.31221450  1
  Zn  Zn79  1  0.80551610  0.80724787  0.80682132  1
  Zn  Zn80  1  0.17452327  0.41900403  0.44255482  1
  Zn  Zn81  1  0.23306982  0.48041413  0.97408813  1
  Zn  Zn82  1  0.18433655  0.93586616  0.44927569  1
  Zn  Zn83  1  0.20108818  0.97234121  0.91024193  1
  Zn  Zn84  1  0.67442081  0.31105589  0.42565120  1
  Zn  Zn85  1  0.69776465  0.41872529  0.93128042  1
  Zn  Zn86  1  0.69005194  0.94296247  0.43617477  1
  Zn  Zn87  1  0.66886461  0.92723801  0.94731056  1
  Zn  Zn88  1  0.31228442  0.06185587  0.06981156  1
  Zn  Zn89  1  0.31368413  0.04619774  0.56315355  1
  Zn  Zn90  1  0.35194803  0.59166180  0.03777119  1
  Zn  Zn91  1  0.31501627  0.56510793  0.56462922  1
  Zn  Zn92  1  0.85970282  0.13810894  0.02780241  1
  Zn  Zn93  1  0.85711085  0.08793477  0.53948510  1
  Zn  Zn94  1  0.78292362  0.53525892  0.04209968  1
  Zn  Zn95  1  0.82193394  0.52574555  0.58439659  1
  Zn  Zn96  1  0.48849364  0.42544819  0.17468326  1
  Zn  Zn97  1  0.42830931  0.44864580  0.68664678  1
  Zn  Zn98  1  0.43028069  0.93813831  0.19365451  1
  Zn  Zn99  1  0.45085544  0.93291560  0.67205351  1
  Zn  Zn100  1  0.98096711  0.39567639  0.15848837  1
  Zn  Zn101  1  0.94046817  0.43022109  0.68660444  1
  Zn  Zn102  1  0.97781640  1.05730817  0.14712801  1
  Zn  Zn103  1  0.94003472  0.92097138  0.68680855  1
  Zn  Zn104  1  0.05932097  0.05628732  0.32351849  1
  Zn  Zn105  1  0.03757654  0.05263832  0.92504972  1
  Zn  Zn106  1  0.06316234  0.56040637  0.29512283  1
  Zn  Zn107  1  0.06551202  0.55755588  0.81038315  1
  Zn  Zn108  1  0.56312932  0.05867120  0.31870056  1
  Zn  Zn109  1  0.55622425  0.09001543  0.81465676  1
  Zn  Zn110  1  0.53608457  0.57683588  0.33384489  1
  Zn  Zn111  1  0.55018158  0.55941346  0.81195337  1
  Zn  Zn112  1  0.43537513  0.17861796  0.44102557  1
  Zn  Zn113  1  0.44920920  0.19684701  0.94024355  1
  Zn  Zn114  1  0.44235405  0.69192853  0.43605509  1
  Zn  Zn115  1  0.42847025  0.69311510  0.93412060  1
  Zn  Zn116  1  0.93907549  0.19782018  0.43089237  1
  Zn  Zn117  1  0.92854817  0.18372045  0.87173300  1
  Zn  Zn118  1  0.94195508  0.68407601  0.43746475  1
  Zn  Zn119  1  0.91718635  0.65542732  0.97171865  1
  Zn  Zn120  1  0.11614862  0.36231604  0.02650837  1
  Zn  Zn121  1  0.05918124  0.30331225  0.54971499  1
  Zn  Zn122  1  -0.02991710  0.86393254  0.09013273  1
  Zn  Zn123  1  0.05712042  0.80162051  0.56138805  1
  Zn  Zn124  1  0.59820163  0.30383670  0.09117130  1
  Zn  Zn125  1  0.55120237  0.31722416  0.56588227  1
  Zn  Zn126  1  0.56082906  0.80447464  0.05996301  1
  Zn  Zn127  1  0.56473251  0.82063252  0.57355820  1
  O  O128  1  0.09851398  0.08495722  0.13583540  1
  O  O129  1  0.13523939  0.12712239  0.61153174  1
  O  O130  1  0.16325736  0.66833499  0.11347971  1
  O  O131  1  0.11682780  0.61293988  0.61982381  1
  O  O132  1  0.62084063  0.11283797  0.12639371  1
  O  O133  1  0.62144238  0.13657076  0.62616408  1
  O  O134  1  0.60911690  0.61691636  0.11559362  1
  O  O135  1  0.61037874  0.60944748  0.63423222  1
  O  O136  1  0.37277880  0.36496110  0.38353595  1
  O  O137  1  0.37613663  0.38513738  0.86149803  1
  O  O138  1  0.38986753  0.88530765  0.37560067  1
  O  O139  1  0.37632462  0.89624260  0.85296939  1
  O  O140  1  0.89379948  0.36772511  0.38633288  1
  O  O141  1  0.86933218  0.39082940  0.89050694  1
  O  O142  1  0.88782452  0.85643174  0.39125072  1
  O  O143  1  0.88490112  0.86149184  0.87925243  1
  O  O144  1  0.26745894  -0.01783918  0.38749776  1
  O  O145  1  0.26687584  0.02304479  0.83960941  1
  O  O146  1  0.26007105  0.51829049  0.36475963  1
  O  O147  1  0.26589971  0.51260957  0.86642924  1
  O  O148  1  0.75428524  0.00472602  0.36008386  1
  O  O149  1  0.76786426  -0.01085700  0.88567347  1
  O  O150  1  0.75684738  0.55258245  0.40159267  1
  O  O151  1  0.75515693  0.50788479  0.87514747  1
  O  O152  1  0.29404606  0.61071705  0.19957324  1
  O  O153  1  0.23586779  0.49329049  0.61827076  1
  O  O154  1  0.22599852  0.99941382  0.11117600  1
  O  O155  1  0.24226943  0.97918366  0.62114215  1
  O  O156  1  0.74339936  0.47428415  0.12494112  1
  O  O157  1  0.73181546  0.50541258  0.64873055  1
  O  O158  1  0.73974587  0.98431563  0.13787848  1
  O  O159  1  0.74984518  1.00095324  0.61434592  1
  O  O160  1  0.01414046  0.37052658  0.26450452  1
  O  O161  1  0.02165319  0.37879318  0.74648468  1
  O  O162  1  0.01507859  0.86239060  0.27090371  1
  O  O163  1  0.00985258  0.85313212  0.74068078  1
  O  O164  1  0.47286161  0.34677200  0.25831446  1
  O  O165  1  0.49528711  0.37408401  0.74961916  1
  O  O166  1  0.51343009  0.86842110  0.24192139  1
  O  O167  1  0.52838374  0.87126111  0.72959162  1
  O  O168  1  0.49566376  0.12797208  0.24943533  1
  O  O169  1  0.49735111  0.12566747  0.72411584  1
  O  O170  1  0.50356949  0.64704670  0.24046000  1
  O  O171  1  0.48761003  0.62141336  0.74175788  1
  O  O172  1  0.98012146  0.10656123  0.25702518  1
  O  O173  1  0.99027700  0.10527187  0.77660684  1
  O  O174  1  1.01071533  0.64483561  0.24482540  1
  O  O175  1  0.98495202  0.61476133  0.74298690  1
  O  O176  1  0.36512892  0.25589891  -0.01455209  1
  O  O177  1  0.37166672  0.25978658  0.50675020  1
  O  O178  1  0.36678049  0.77539024  -0.01200687  1
  O  O179  1  0.35463370  0.74393201  0.48898151  1
  O  O180  1  0.87958747  0.25181133  -0.01860927  1
  O  O181  1  0.88311282  0.26530512  0.50990962  1
  O  O182  1  0.85178323  0.73856030  0.00639925  1
  O  O183  1  0.87342417  0.74824779  0.50839130  1
  O  O184  1  0.12575152  0.22999319  0.49340958  1
  O  O185  1  0.13156881  0.25838790  0.98292114  1
  O  O186  1  0.12847297  0.73267391  0.49699205  1
  O  O187  1  0.16461704  0.72457389  1.06432304  1
  O  O188  1  0.62588542  0.25768241  0.50850398  1
  O  O189  1  0.62276026  0.23894837  0.99134379  1
  O  O190  1  0.61740211  0.76891323  0.48673544  1
  O  O191  1  0.63630116  0.75423348  0.98298441  1
  O  O192  1  0.50829844  0.23327775  0.14046413  1
  O  O193  1  0.47877162  0.24267166  0.62344729  1
  O  O194  1  0.50422031  0.74333734  0.14031348  1
  O  O195  1  0.50907093  0.73515883  0.62850630  1
  O  O196  1  0.99911146  0.24335871  0.13536309  1
  O  O197  1  0.99309244  0.25440198  0.62489323  1
  O  O198  1  1.00156845  0.76533808  0.13587244  1
  O  O199  1  0.98578076  0.72398587  0.62099793  1
  O  O200  1  0.01870152  0.26087319  0.37965445  1
  O  O201  1  0.01828606  0.25309928  0.87494012  1
  O  O202  1  0.01282049  0.75481122  0.38341827  1
  O  O203  1  -0.05255964  0.81550461  0.90186662  1
  O  O204  1  0.49680164  0.25118471  0.36910178  1
  O  O205  1  0.53160689  0.20994021  0.86156110  1
  O  O206  1  0.51047770  0.75544574  0.35723665  1
  O  O207  1  0.51409851  0.73986916  0.87665500  1
  O  O208  1  0.24470805  0.11579640  0.49727428  1
  O  O209  1  0.24524513  0.15385017  1.02861285  1
  O  O210  1  0.23696098  0.63180686  0.50591589  1
  O  O211  1  0.24964358  0.60967545  0.98199589  1
  O  O212  1  0.76291068  0.12803789  0.48575214  1
  O  O213  1  0.74382736  0.13190092  1.02035243  1
  O  O214  1  0.80128998  0.60799350  0.42284344  1
  O  O215  1  0.74579645  0.62818572  0.98795066  1
  O  O216  1  0.24215278  0.36469402  0.01433626  1
  O  O217  1  0.25930992  0.37858101  0.50676731  1
  O  O218  1  0.28713825  0.92079706  -0.01498352  1
  O  O219  1  0.23741204  0.85766308  0.51919493  1
  O  O220  1  0.77439923  0.37839613  0.01117018  1
  O  O221  1  0.76057889  0.37173452  0.48003666  1
  O  O222  1  0.74574271  0.86400411  0.01164470  1
  O  O223  1  0.76415471  0.87570702  0.49305426  1
  O  O224  1  0.13651154  0.48818909  0.24409733  1
  O  O225  1  0.12645900  0.48990106  0.73297285  1
  O  O226  1  0.13379176  0.97815975  0.27848152  1
  O  O227  1  0.04626530  0.95969643  0.84321576  1
  O  O228  1  0.63578262  0.51653125  0.28220675  1
  O  O229  1  0.63156456  0.48512384  0.76556779  1
  O  O230  1  0.63062409  0.98847461  0.24386400  1
  O  O231  1  0.62070117  0.99953652  0.77566017  1
  O  O232  1  0.38412599  0.00854229  0.26876490  1
  O  O233  1  0.38375959  0.00632830  0.73339418  1
  O  O234  1  0.31335514  0.50159070  0.31799278  1
  O  O235  1  0.37601923  0.51086030  0.76459577  1
  O  O236  1  0.86324878  -0.00948650  0.24538775  1
  O  O237  1  0.87323107  -0.00382275  0.73477059  1
  O  O238  1  0.86623634  0.56076029  0.22346324  1
  O  O239  1  0.86426716  0.50256461  0.76072556  1
  O  O240  1  0.12177504  0.36850942  0.35798000  1
  O  O241  1  0.13133060  0.38519423  0.86185920  1
  O  O242  1  0.11652425  0.86125996  0.38414788  1
  O  O243  1  0.11370039  0.91745793  0.83598035  1
  O  O244  1  0.60859287  0.37343126  0.35383508  1
  O  O245  1  0.61475513  0.36524500  0.87050675  1
  O  O246  1  0.62691165  0.87609579  0.36053773  1
  O  O247  1  0.61630209  0.86669662  0.86809743  1
  O  O248  1  0.39337254  0.10853741  0.13634611  1
  O  O249  1  0.36337403  0.13810547  0.61165761  1
  O  O250  1  0.33178679  0.65869188  0.13664875  1
  O  O251  1  0.38403520  0.61739315  0.63851552  1
  O  O252  1  0.88019271  0.11937211  0.13953757  1
  O  O253  1  0.88824553  0.13750589  0.63924690  1
  O  O254  1  0.81937661  0.61132849  0.19506557  1
  O  O255  1  0.88210549  0.61714966  0.63146617  1
  O  O256  1  0.24051546  0.21159504  0.09295982  1
  O  O257  1  0.25468539  0.26498973  0.61870579  1
  O  O258  1  0.21944995  0.78149914  0.07292536  1
  O  O259  1  0.25013294  0.74593735  0.61564689  1
  O  O260  1  0.71238886  0.28552441  0.12950714  1
  O  O261  1  0.77594670  0.23957012  0.64127081  1
  O  O262  1  0.73362315  0.75897267  0.11485192  1
  O  O263  1  0.76284881  0.72479150  0.62239563  1
  O  O264  1  0.22593606  0.25510636  0.37589344  1
  O  O265  1  0.24129285  0.25291970  0.88673857  1
  O  O266  1  0.23232863  0.75447236  0.39173857  1
  O  O267  1  0.25289436  0.73352910  0.87334010  1
  O  O268  1  0.74744961  0.24206473  0.36406266  1
  O  O269  1  0.71735551  0.23667789  0.85862750  1
  O  O270  1  0.73102247  0.75080428  0.37216561  1
  O  O271  1  0.74630952  0.73508324  0.88414290  1
  O  O272  1  0.01746857  0.20999205  0.07322362  1
  O  O273  1  -0.02869001  0.09824964  0.49345487  1
  O  O274  1  0.01561076  0.60951355  -0.00686144  1
  O  O275  1  0.01160751  0.61876594  0.50885458  1
  O  O276  1  0.51105647  0.12975841  0.02182335  1
  O  O277  1  0.49949669  0.12071994  0.51347825  1
  O  O278  1  0.46196710  0.63673842  0.03157150  1
  O  O279  1  0.48904425  0.62688359  0.51927951  1
  O  O280  1  0.48361610  0.37130728  0.48140629  1
  O  O281  1  0.54028313  0.43191228  1.01359821  1
  O  O282  1  0.49797730  0.89840620  0.52111693  1
  O  O283  1  0.48907066  0.88015140  1.00799812  1
  O  O284  1  1.01968330  0.38316256  0.47977021  1
  O  O285  1  0.97872971  0.38791954  1.00551100  1
  O  O286  1  0.99848840  0.87794189  0.49535135  1
  O  O287  1  0.99034085  0.84317507  0.96035001  1
  O  O288  1  0.48952683  0.47049550  0.34974704  1
  O  O289  1  0.48359433  0.50714292  0.88609276  1
  O  O290  1  0.49366990  1.00788536  0.39106233  1
  O  O291  1  0.46636102  1.03716424  0.88102673  1
  O  O292  1  1.00689806  0.49005710  0.36595542  1
  O  O293  1  0.98756897  0.49865912  0.87488977  1
  O  O294  1  0.99784088  0.97691115  0.38588211  1
  O  O295  1  0.94164767  1.10304240  0.95578785  1
  O  O296  1  0.00989954  -0.03212327  0.08980660  1
  O  O297  1  0.00311489  -0.01133251  0.61176951  1
  O  O298  1  -0.00696094  0.50307181  0.11167020  1
  O  O299  1  0.01168415  0.50793383  0.62676415  1
  O  O300  1  0.51355568  0.00697122  0.13660459  1
  O  O301  1  0.50375424  0.01877712  0.61258343  1
  O  O302  1  0.46946351  0.53093988  0.14836970  1
  O  O303  1  0.50706241  0.50477500  0.62340756  1
  O  O304  1  0.23181297  0.35972131  0.24004978  1
  O  O305  1  0.23749106  0.37446476  0.72848294  1
  O  O306  1  0.23934580  0.85104800  0.24756172  1
  O  O307  1  0.22773803  0.86371603  0.74124100  1
  O  O308  1  0.75740089  0.38612285  0.24675070  1
  O  O309  1  0.75008447  0.38676998  0.76014238  1
  O  O310  1  0.74174097  0.87779251  0.24220112  1
  O  O311  1  0.73582568  0.88261663  0.76455139  1
  O  O312  1  0.26307512  0.11801567  0.23963196  1
  O  O313  1  0.29211336  0.16999815  0.74683015  1
  O  O314  1  0.25679830  0.65170668  0.24929534  1
  O  O315  1  0.26560714  0.62122166  0.75665800  1
  O  O316  1  0.76368499  0.11370077  0.24917391  1
  O  O317  1  0.73492903  0.04099405  0.67288485  1
  O  O318  1  0.75930810  0.63664175  0.24676636  1
  O  O319  1  0.75724564  0.61400781  0.76600567  1
  O  O320  1  0.36733957  0.11664094  0.36868072  1
  O  O321  1  0.40448369  0.09501067  0.88752811  1
  O  O322  1  0.42608282  0.61014290  0.36075322  1
  O  O323  1  0.37041473  0.62036395  0.86623687  1
  O  O324  1  0.86218580  0.13465038  0.35785780  1
  O  O325  1  0.83842124  0.14773074  0.80465480  1
  O  O326  1  0.86891016  0.61991147  0.37532611  1
  O  O327  1  0.87235767  0.61949619  0.86370752  1
  O  O328  1  0.09963698  0.36508687  0.14066514  1
  O  O329  1  0.13394124  0.38347893  0.61359404  1
  O  O330  1  0.12261741  0.89190480  0.14857304  1
  O  O331  1  0.12714078  0.85571572  0.63537350  1
  O  O332  1  0.60358199  0.39478279  0.18494417  1
  O  O333  1  0.61157865  0.38942744  0.64142475  1
  O  O334  1  0.62736181  0.88423059  0.13030743  1
  O  O335  1  0.62604214  0.88019620  0.65073436  1
  O  O336  1  0.12170373  0.23072362  0.25889468  1
  O  O337  1  0.13606309  0.26015469  0.76797975  1
  O  O338  1  0.11777399  0.75720266  0.27039461  1
  O  O339  1  0.11794572  0.74006701  0.75305946  1
  O  O340  1  0.60827735  0.23952979  0.25607433  1
  O  O341  1  0.61916923  0.27327112  0.75125638  1
  O  O342  1  0.62250477  0.76432036  0.25452544  1
  O  O343  1  0.63559586  0.74780044  0.76983788  1
  O  O344  1  0.38178477  0.22458856  0.25432233  1
  O  O345  1  0.34300862  0.22933577  0.73728315  1
  O  O346  1  0.38364072  0.76420531  0.25419719  1
  O  O347  1  0.37646786  0.73525371  0.75487759  1
  O  O348  1  0.87762015  0.24267033  0.24110193  1
  O  O349  1  0.88762723  0.28212741  0.73632509  1
  O  O350  1  0.89428844  0.75467525  0.25578839  1
  O  O351  1  0.86823023  0.73026833  0.73929829  1
  O  O352  1  0.37133000  0.48706333  0.49726229  1
  O  O353  1  0.35500280  0.49042027  0.98391235  1
  O  O354  1  0.38724009  1.00404652  0.48897136  1
  O  O355  1  0.35050352  0.97993425  0.98815627  1
  O  O356  1  0.87627386  0.47832464  0.50231476  1
  O  O357  1  0.88336121  0.52048111  0.98424978  1
  O  O358  1  0.88312910  0.97398722  0.51141377  1
  O  O359  1  0.82731384  1.00430565  0.92618602  1
  O  O360  1  0.12328340  -0.00331935  -0.01209021  1
  O  O361  1  0.10969769  0.01514354  0.49379020  1
  O  O362  1  0.11321801  0.47847764  0.00078540  1
  O  O363  1  0.13227362  0.51152868  0.50237407  1
  O  O364  1  0.63341335  0.00654274  0.02203700  1
  O  O365  1  0.61573426  0.00271893  0.49349705  1
  O  O366  1  0.62073775  0.42464796  0.02571905  1
  O  O367  1  0.62743032  0.49252506  0.51610548  1
  O  O368  1  0.50045510  0.37525676  0.05759529  1
  O  O369  1  0.36359537  0.37422231  0.61467682  1
  O  O370  1  0.37092225  0.86971536  0.12102625  1
  O  O371  1  0.35502002  0.87117306  0.63999020  1
  O  O372  1  0.87370726  0.35988079  0.11664880  1
  O  O373  1  0.87655885  0.37237010  0.60996890  1
  O  O374  1  0.85673497  0.87232520  0.12352943  1
  O  O375  1  0.87504863  0.84808022  0.61544703  1
  O  O376  1  0.11879721  0.12881897  0.38684281  1
  O  O377  1  0.12038000  0.12967779  0.88336225  1
  O  O378  1  0.12084529  0.63125475  0.38480682  1
  O  O379  1  0.14124554  0.61756856  0.86295968  1
  O  O380  1  0.65018660  0.11875480  0.36599944  1
  O  O381  1  0.63552229  0.10351857  0.90613301  1
  O  O382  1  0.61374583  0.64272905  0.38696536  1
  O  O383  1  0.63364617  0.62572019  0.87077535  1
