# generated using pymatgen
data_VZnO4
_symmetry_space_group_name_H-M   'P 1'
_cell_length_a   16.96212105
_cell_length_b   17.10749159
_cell_length_c   17.16176115
_cell_angle_alpha   90.52849866
_cell_angle_beta   89.73899581
_cell_angle_gamma   89.21425529
_symmetry_Int_Tables_number   1
_chemical_formula_structural   VZnO4
_chemical_formula_sum   'V64 Zn64 O256'
_cell_volume   4979.25387468
_cell_formula_units_Z   64
loop_
 _symmetry_equiv_pos_site_id
 _symmetry_equiv_pos_as_xyz
  1  'x, y, z'
loop_
 _atom_site_type_symbol
 _atom_site_label
 _atom_site_symmetry_multiplicity
 _atom_site_fract_x
 _atom_site_fract_y
 _atom_site_fract_z
 _atom_site_occupancy
  V  V0  1  0.26233548  0.62535285  0.36491640  1
  V  V1  1  0.23518763  0.25066125  0.50117667  1
  V  V2  1  -0.00130395  0.02067011  0.00790770  1
  V  V3  1  0.74999443  0.76935322  -0.01368234  1
  V  V4  1  0.00728653  0.60527476  0.13643304  1
  V  V5  1  0.24616644  0.38547898  0.62666721  1
  V  V6  1  0.04793168  0.54236284  0.50824601  1
  V  V7  1  0.63273514  0.62878488  -0.00688841  1
  V  V8  1  0.25238534  0.48822793  0.77716045  1
  V  V9  1  0.25967116  0.63826530  0.90386738  1
  V  V10  1  0.79753132  0.77926810  0.58761449  1
  V  V11  1  0.13768743  0.13571025  0.00327351  1
  V  V12  1  0.02227271  0.84327577  0.38761986  1
  V  V13  1  0.24656847  0.12139355  0.38557492  1
  V  V14  1  0.26286204  -0.00039532  0.27044393  1
  V  V15  1  0.77450713  0.28002868  -0.00686520  1
  V  V16  1  0.47117602  0.80816966  0.23120386  1
  V  V17  1  0.49526045  0.00845652  0.50139770  1
  V  V18  1  0.37731984  0.85989818  0.51717707  1
  V  V19  1  0.74670919  0.01001076  0.76212147  1
  V  V20  1  0.23310604  0.36207009  0.12310694  1
  V  V21  1  0.37720688  0.62813852  0.74105732  1
  V  V22  1  0.48769800  0.88387234  0.38257895  1
  V  V23  1  0.60462159  0.36630938  0.72664966  1
  V  V24  1  0.62799883  -0.00084458  0.62881016  1
  V  V25  1  0.74892770  0.89576066  0.12372115  1
  V  V26  1  0.24153672  -0.00266223  0.72962203  1
  V  V27  1  0.87745414  0.01622945  0.86373727  1
  V  V28  1  0.10582021  0.09529215  0.51564962  1
  V  V29  1  0.74898594  0.36811532  0.60748971  1
  V  V30  1  0.60889616  0.87753539  0.75770532  1
  V  V31  1  0.47937858  0.12092416  0.12598126  1
  V  V32  1  0.90321150  0.77319292  0.12632261  1
  V  V33  1  0.74128281  0.51427797  0.72290909  1
  V  V34  1  0.39067544  0.58316732  0.23016809  1
  V  V35  1  0.11706975  0.00657029  0.15804522  1
  V  V36  1  0.88237062  0.50627587  0.39002165  1
  V  V37  1  0.15436806  0.23908523  0.83927036  1
  V  V38  1  0.22992824  0.47863072  0.25136001  1
  V  V39  1  0.00913439  0.87268306  0.88067786  1
  V  V40  1  0.48054249  -0.00005012  -0.01162512  1
  V  V41  1  0.59364341  0.77043343  0.88247536  1
  V  V42  1  0.63709247  0.36993265  0.25575360  1
  V  V43  1  0.75437843  0.23350823  0.48386271  1
  V  V44  1  0.49863976  0.12812711  0.64200308  1
  V  V45  1  0.87606084  0.89055464  -0.00992248  1
  V  V46  1  0.59632056  0.49258443  0.59070187  1
  V  V47  1  0.67250275  0.92023543  0.29647844  1
  V  V48  1  0.87478071  0.23063815  0.63262521  1
  V  V49  1  0.12357460  0.58231570  0.00215953  1
  V  V50  1  -0.00564297  0.25345379  0.29367216  1
  V  V51  1  -0.00967914  0.73631850  0.76042879  1
  V  V52  1  0.38494022  0.37061306  0.48573909  1
  V  V53  1  0.50662234  0.59868813  0.10349380  1
  V  V54  1  0.38031251  0.24790639  0.62841476  1
  V  V55  1  0.12722168  0.86652354  0.73751493  1
  V  V56  1  -0.03379250  -0.02696117  0.50798440  1
  V  V57  1  0.63203629  0.02142352  0.08771733  1
  V  V58  1  0.64069658  0.75651306  0.35283905  1
  V  V59  1  0.34935103  -0.00175529  0.86818861  1
  V  V60  1  0.87135943  0.09207604  0.24718734  1
  V  V61  1  0.60637681  0.23486862  0.36775060  1
  V  V62  1  0.35785495  0.23827282  0.14642521  1
  V  V63  1  0.38848987  0.35153181  -0.00359411  1
  Zn  Zn64  1  0.17016813  0.17403942  0.19739859  1
  Zn  Zn65  1  0.20383423  0.17240859  0.67527916  1
  Zn  Zn66  1  0.17661470  0.64598300  0.19777970  1
  Zn  Zn67  1  0.18392900  0.68093674  0.73988994  1
  Zn  Zn68  1  0.65697141  0.14060686  0.23615566  1
  Zn  Zn69  1  0.68703301  0.18872440  0.68587986  1
  Zn  Zn70  1  0.64762161  0.73339760  0.17597367  1
  Zn  Zn71  1  0.66338521  0.68797250  0.63841901  1
  Zn  Zn72  1  0.30328141  0.30092243  0.31580567  1
  Zn  Zn73  1  0.32839808  0.31258352  0.80924235  1
  Zn  Zn74  1  0.26651410  0.79325230  0.26053590  1
  Zn  Zn75  1  0.31502464  0.81670921  0.81830676  1
  Zn  Zn76  1  0.81377083  0.34180382  0.31928369  1
  Zn  Zn77  1  0.80116370  0.33184870  0.79198809  1
  Zn  Zn78  1  0.82675264  0.80995915  0.42950346  1
  Zn  Zn79  1  0.78884388  0.80244021  0.77762347  1
  Zn  Zn80  1  0.24204442  0.46960773  0.45683323  1
  Zn  Zn81  1  0.18076051  0.39992410  0.94148230  1
  Zn  Zn82  1  0.19156516  0.92684001  0.44962268  1
  Zn  Zn83  1  0.18282049  0.94135517  0.94488160  1
  Zn  Zn84  1  0.69048230  0.42135441  0.42590059  1
  Zn  Zn85  1  0.75653189  0.48657373  0.92865868  1
  Zn  Zn86  1  0.67771957  0.91416548  0.46953973  1
  Zn  Zn87  1  0.68706506  0.94500349  0.92738788  1
  Zn  Zn88  1  0.29431614  0.04612157  0.07243323  1
  Zn  Zn89  1  0.31569278  0.06256809  0.56022134  1
  Zn  Zn90  1  0.31246649  0.53737666  0.06060930  1
  Zn  Zn91  1  0.33511900  0.56394727  0.55841794  1
  Zn  Zn92  1  0.82228199  0.08342722  0.06483766  1
  Zn  Zn93  1  0.80783581  0.06186389  0.56387722  1
  Zn  Zn94  1  0.82310188  0.60669677  0.06692464  1
  Zn  Zn95  1  0.79118400  0.56943330  0.55811145  1
  Zn  Zn96  1  0.44385520  0.42687858  0.13641804  1
  Zn  Zn97  1  0.42607294  0.43961623  0.68528204  1
  Zn  Zn98  1  0.47421257  1.02255322  0.28157986  1
  Zn  Zn99  1  0.43088396  0.94005789  0.68859308  1
  Zn  Zn100  1  0.97374298  0.41643727  0.21559596  1
  Zn  Zn101  1  0.90928641  0.46698968  0.60506379  1
  Zn  Zn102  1  0.90216649  0.89073423  0.27053394  1
  Zn  Zn103  1  0.92926602  0.91964641  0.69042184  1
  Zn  Zn104  1  0.04437572  0.06162195  0.34732934  1
  Zn  Zn105  1  0.08262563  0.05537798  0.82640953  1
  Zn  Zn106  1  0.06367340  0.57181646  0.32403273  1
  Zn  Zn107  1  0.07313496  0.55781033  0.81699760  1
  Zn  Zn108  1  0.75137306  0.08410799  0.37613901  1
  Zn  Zn109  1  0.54907265  0.06375380  0.81159334  1
  Zn  Zn110  1  0.59365542  0.57632427  0.27118106  1
  Zn  Zn111  1  0.57962947  0.58767329  0.74672132  1
  Zn  Zn112  1  0.42663031  0.18653416  0.44006570  1
  Zn  Zn113  1  0.38239854  0.15953723  0.95816900  1
  Zn  Zn114  1  0.39939543  0.71905155  0.38766426  1
  Zn  Zn115  1  0.46322611  0.64681579  0.89754720  1
  Zn  Zn116  1  0.93014743  0.17152018  0.44611939  1
  Zn  Zn117  1  0.94545435  0.19042657  0.91708246  1
  Zn  Zn118  1  0.93861715  0.66650496  0.44094100  1
  Zn  Zn119  1  0.94830746  0.68706161  0.95024920  1
  Zn  Zn120  1  0.04972033  0.27791072  0.11521482  1
  Zn  Zn121  1  0.08084829  0.27301362  0.63242828  1
  Zn  Zn122  1  0.08623869  0.82122175  0.20298073  1
  Zn  Zn123  1  -0.02802555  0.78194191  0.56881234  1
  Zn  Zn124  1  0.56838170  0.27969632  0.06124435  1
  Zn  Zn125  1  0.56540404  0.29871323  0.54321879  1
  Zn  Zn126  1  0.56444142  0.83771324  0.06232526  1
  Zn  Zn127  1  0.52432259  0.74921894  0.52751777  1
  O  O128  1  0.12761976  0.10438707  0.10711132  1
  O  O129  1  0.11613051  0.14319088  0.60649470  1
  O  O130  1  0.11808286  0.59956171  0.11278870  1
  O  O131  1  0.17013295  0.64422095  0.62800278  1
  O  O132  1  0.63385977  0.11663187  0.12646883  1
  O  O133  1  0.60790018  0.11495754  0.63288346  1
  O  O134  1  0.61064056  0.64245744  0.10435741  1
  O  O135  1  0.61162541  0.59095496  0.58974597  1
  O  O136  1  0.36641531  0.35676483  0.38893662  1
  O  O137  1  0.37844215  0.35459273  0.89781135  1
  O  O138  1  0.38899525  0.87621811  0.39009116  1
  O  O139  1  0.37182931  0.89629170  0.87330587  1
  O  O140  1  0.79621066  0.44155593  0.37970438  1
  O  O141  1  0.91249553  0.37965224  0.80848372  1
  O  O142  1  0.90240113  0.86637978  0.37831405  1
  O  O143  1  0.88152985  0.89131242  0.88538655  1
  O  O144  1  0.23766224  0.01255462  0.37974723  1
  O  O145  1  0.24735415  -0.00096795  0.87161821  1
  O  O146  1  0.26394731  0.50412250  0.34848830  1
  O  O147  1  0.24803616  0.46964222  0.87387679  1
  O  O148  1  0.72639643  -0.03443628  0.37545919  1
  O  O149  1  0.76150828  0.00978564  0.86906398  1
  O  O150  1  0.67863163  0.56172949  0.39688270  1
  O  O151  1  0.76215355  0.49842423  0.81929731  1
  O  O152  1  0.25239695  0.46980458  0.14194784  1
  O  O153  1  0.25623752  0.48360353  0.61665894  1
  O  O154  1  0.23046799  1.02167870  0.16922400  1
  O  O155  1  0.25552281  0.99544022  0.63206813  1
  O  O156  1  0.76431094  0.52680882  0.13452791  1
  O  O157  1  0.72287547  0.47709663  0.60197301  1
  O  O158  1  0.74481515  1.00468606  0.09502661  1
  O  O159  1  0.73175983  1.00571637  0.63491715  1
  O  O160  1  0.03971928  0.34610707  0.28218168  1
  O  O161  1  -0.06429155  0.45091994  0.83056014  1
  O  O162  1  0.01873614  0.86167970  0.28222338  1
  O  O163  1  0.00615978  0.86740150  0.76838507  1
  O  O164  1  0.53106804  0.36670379  0.19582240  1
  O  O165  1  0.50576990  0.37648852  0.74124230  1
  O  O166  1  0.48347117  0.90515087  0.26306783  1
  O  O167  1  0.51076889  0.89830436  0.75814281  1
  O  O168  1  0.50477137  0.10921662  0.22391809  1
  O  O169  1  0.49251248  0.12925881  0.73945355  1
  O  O170  1  0.49738295  0.61466790  0.21529483  1
  O  O171  1  0.47722738  0.61483601  0.78293887  1
  O  O172  1  0.97163056  0.13145814  0.28443400  1
  O  O173  1  1.00143464  0.14400573  0.76914686  1
  O  O174  1  1.02646724  0.63287224  0.23111659  1
  O  O175  1  1.00368967  0.64212500  0.79519845  1
  O  O176  1  0.36135875  0.24792259  0.02099468  1
  O  O177  1  0.36426922  0.25577744  0.50821167  1
  O  O178  1  0.33184751  0.82999228  0.01045825  1
  O  O179  1  0.41197362  0.75771459  0.49352727  1
  O  O180  1  0.87862328  0.27134343  -0.03725788  1
  O  O181  1  0.85873778  0.23660061  0.51395737  1
  O  O182  1  0.86447355  0.76740108  0.00764712  1
  O  O183  1  0.87757705  0.74097016  0.51009357  1
  O  O184  1  0.13864415  0.25985727  0.51773588  1
  O  O185  1  0.10570474  0.22870071  1.02668857  1
  O  O186  1  0.20296179  0.70522523  0.58772666  1
  O  O187  1  0.15314838  0.79193248  1.01530646  1
  O  O188  1  0.63796143  0.24184702  0.47533765  1
  O  O189  1  0.67448538  0.27699473  1.01605155  1
  O  O190  1  0.59256060  0.72472880  0.43522360  1
  O  O191  1  0.63385261  0.77532491  0.98925523  1
  O  O192  1  0.48877435  0.22273379  0.12213263  1
  O  O193  1  0.49321605  0.23298525  0.61112553  1
  O  O194  1  0.52950632  0.77719384  0.15051346  1
  O  O195  1  0.56589974  0.74128801  0.62574934  1
  O  O196  1  0.95903744  0.33869761  0.13684400  1
  O  O197  1  0.97249486  0.25547913  0.62660495  1
  O  O198  1  1.00085796  0.78584891  0.12401853  1
  O  O199  1  1.00134591  0.73074232  0.66205251  1
  O  O200  1  0.00594593  0.23795813  0.39160471  1
  O  O201  1  -0.00728928  0.20755105  0.80940641  1
  O  O202  1  0.00914790  0.74364525  0.39370998  1
  O  O203  1  -0.00387366  0.77331415  0.89326953  1
  O  O204  1  0.50727194  0.22955841  0.37690728  1
  O  O205  1  0.57347949  0.19575200  0.91450544  1
  O  O206  1  0.49214256  0.77309202  0.32905759  1
  O  O207  1  0.49630245  0.75966560  0.89260145  1
  O  O208  1  0.24234126  0.13549805  0.50490686  1
  O  O209  1  0.23811066  0.12488184  1.00235704  1
  O  O210  1  0.28294127  0.61470507  0.46207057  1
  O  O211  1  0.23472470  0.60554361  1.00904221  1
  O  O212  1  0.75127787  0.12701382  0.48580096  1
  O  O213  1  0.77761576  0.17598191  1.00131210  1
  O  O214  1  0.71375222  0.60860299  0.43956381  1
  O  O215  1  0.73810291  0.66560080  1.01539678  1
  O  O216  1  0.25389943  0.36390317  0.02253688  1
  O  O217  1  0.25507238  0.36159635  0.51187067  1
  O  O218  1  0.24650371  0.93709719  0.03836968  1
  O  O219  1  0.28001859  0.87115088  0.49975771  1
  O  O220  1  0.77109915  0.38568196  -0.01996633  1
  O  O221  1  0.74005254  0.35218381  0.50602598  1
  O  O222  1  0.75698249  0.88135705  -0.00392892  1
  O  O223  1  0.74737092  0.84185429  0.52200120  1
  O  O224  1  0.13213902  0.49653181  0.25683830  1
  O  O225  1  0.15728390  0.51416649  0.75100639  1
  O  O226  1  0.09990074  1.01990775  0.25384143  1
  O  O227  1  0.13044563  0.98003426  0.75348973  1
  O  O228  1  0.62337778  0.47184256  0.26772906  1
  O  O229  1  0.62075418  0.48409856  0.71336420  1
  O  O230  1  0.61894747  0.99053398  0.25732562  1
  O  O231  1  0.62783451  1.00289095  0.75214064  1
  O  O232  1  0.35965199  0.01225664  0.26400844  1
  O  O233  1  0.35030750  -0.01121503  0.75604085  1
  O  O234  1  0.40072622  0.48571781  0.23290407  1
  O  O235  1  0.35797730  0.51355052  0.74742250  1
  O  O236  1  0.89208272  -0.00418773  0.23677391  1
  O  O237  1  0.85852952  -0.01024823  0.75780428  1
  O  O238  1  0.92426740  0.46710059  0.30439544  1
  O  O239  1  0.83399144  0.53057960  0.67800777  1
  O  O240  1  0.09666302  0.37433018  0.39543299  1
  O  O241  1  0.12222183  0.32388514  0.88414788  1
  O  O242  1  0.12291655  0.85437863  0.40177149  1
  O  O243  1  0.10959394  0.88164823  0.88424679  1
  O  O244  1  0.62760297  0.34904492  0.36166463  1
  O  O245  1  0.62863307  0.40028954  0.84731006  1
  O  O246  1  0.60986724  0.87037304  0.38257255  1
  O  O247  1  0.61433627  0.87723137  0.87385718  1
  O  O248  1  0.37156153  0.12295849  0.12675623  1
  O  O249  1  0.38565628  0.13596975  0.61852974  1
  O  O250  1  0.39474009  0.60501932  0.11816654  1
  O  O251  1  0.37407470  0.62751704  0.64176637  1
  O  O252  1  0.87582263  0.12728169  0.15232816  1
  O  O253  1  0.86763709  0.13070053  0.62916117  1
  O  O254  1  0.90678490  0.66033365  0.11737838  1
  O  O255  1  0.76264074  0.67552926  0.57280388  1
  O  O256  1  0.24903767  0.24758857  0.14551057  1
  O  O257  1  0.26481552  0.25049187  0.61728252  1
  O  O258  1  0.19954001  0.76000239  0.05990617  1
  O  O259  1  0.24249183  0.75171723  0.63183302  1
  O  O260  1  0.80876532  0.30008943  0.08582641  1
  O  O261  1  0.74554476  0.25256372  0.60964097  1
  O  O262  1  0.73432010  0.78928938  0.11245091  1
  O  O263  1  0.74186363  0.77381209  0.67476942  1
  O  O264  1  0.24103696  0.24015635  0.39543117  1
  O  O265  1  0.25346312  0.23807634  0.84861096  1
  O  O266  1  0.28746816  0.72653070  0.35088182  1
  O  O267  1  0.25832935  0.73553126  0.89589557  1
  O  O268  1  0.76780417  0.25559271  0.38834696  1
  O  O269  1  0.75950168  0.28210742  0.88638558  1
  O  O270  1  0.73710593  0.76547762  0.37523679  1
  O  O271  1  0.75426441  0.76535791  0.88844176  1
  O  O272  1  -0.01081541  0.12220877  -0.00612988  1
  O  O273  1  -0.00039598  0.09011317  0.50424018  1
  O  O274  1  0.02337297  0.62472379  0.01263829  1
  O  O275  1  0.01921275  0.63804290  0.52467001  1
  O  O276  1  0.48187733  0.11232105  0.01272857  1
  O  O277  1  0.49325989  0.10742830  0.50049304  1
  O  O278  1  0.51686501  0.62384223  -0.00230515  1
  O  O279  1  0.48842854  0.59008151  0.45355462  1
  O  O280  1  0.48335062  0.36120036  0.49533852  1
  O  O281  1  0.48884692  0.34156625  1.01110862  1
  O  O282  1  0.49911163  0.88085556  0.48886867  1
  O  O283  1  0.49437226  0.90219920  1.00766016  1
  O  O284  1  1.05312205  0.37821988  0.45202462  1
  O  O285  1  1.00208627  0.37483320  0.99111487  1
  O  O286  1  0.99393816  0.86655860  0.50012602  1
  O  O287  1  0.99071148  0.90478506  0.98704879  1
  O  O288  1  0.52014252  0.54680361  0.40422130  1
  O  O289  1  0.58720416  0.36489772  0.89632804  1
  O  O290  1  0.50075663  0.99235891  0.39149657  1
  O  O291  1  0.49760050  1.00603203  0.88891185  1
  O  O292  1  1.00235450  0.53005390  0.41097635  1
  O  O293  1  1.01538297  0.45591472  0.83013178  1
  O  O294  1  1.01123240  0.97364506  0.40825437  1
  O  O295  1  0.98656045  0.99710748  0.86788184  1
  O  O296  1  0.00944704  0.01275460  0.10531133  1
  O  O297  1  -0.01830105  -0.02428442  0.60875675  1
  O  O298  1  -0.02087090  0.51267349  0.14208293  1
  O  O299  1  0.01654208  0.48170502  0.58242431  1
  O  O300  1  0.52206319  0.01456263  0.10254068  1
  O  O301  1  0.50085990  0.01482557  0.62304373  1
  O  O302  1  0.52699139  0.50397604  0.10169598  1
  O  O303  1  0.49615526  0.48792923  0.61125818  1
  O  O304  1  0.24371243  0.37480441  0.25066239  1
  O  O305  1  0.26793693  0.38692895  0.73833541  1
  O  O306  1  0.24587965  0.90292289  0.27255363  1
  O  O307  1  0.23338671  0.87309134  0.75449481  1
  O  O308  1  0.73495163  0.36161025  0.23677987  1
  O  O309  1  0.73119702  0.38842378  0.72085147  1
  O  O310  1  0.75779045  0.90893254  0.22406628  1
  O  O311  1  0.72491038  0.89884442  0.76500777  1
  O  O312  1  0.22794660  0.12632683  0.28406631  1
  O  O313  1  0.23117116  0.09549130  0.74898239  1
  O  O314  1  0.27488627  0.59069015  0.23152572  1
  O  O315  1  0.26379903  0.61355426  0.79030935  1
  O  O316  1  0.76536024  0.10105276  0.26043785  1
  O  O317  1  0.73750369  0.10824841  0.74955572  1
  O  O318  1  0.80117270  0.50685267  0.19534772  1
  O  O319  1  0.69398782  0.60932033  0.72726677  1
  O  O320  1  0.34746737  0.12201435  0.39102495  1
  O  O321  1  0.37368551  0.09975970  0.86683145  1
  O  O322  1  0.38732511  0.61747757  0.32793401  1
  O  O323  1  0.35721711  0.61093294  0.91412724  1
  O  O324  1  0.87199237  0.11125972  0.36463529  1
  O  O325  1  0.87697617  0.11338929  0.86464632  1
  O  O326  1  0.86421524  0.60329364  0.37420557  1
  O  O327  1  0.88214832  0.59659449  0.91318704  1
  O  O328  1  0.13517036  0.36055997  0.12477914  1
  O  O329  1  0.14884765  0.36659935  0.63340326  1
  O  O330  1  0.11991508  0.91025223  0.13722675  1
  O  O331  1  0.11700149  0.86183451  0.64391399  1
  O  O332  1  0.59877791  0.35729529  0.14735199  1
  O  O333  1  0.61951289  0.36667188  0.61892512  1
  O  O334  1  0.64062438  0.91231954  0.11110723  1
  O  O335  1  0.61700831  0.89879177  0.64867799  1
  O  O336  1  0.06420361  0.21566511  0.21281620  1
  O  O337  1  0.13215585  0.24225178  0.73949823  1
  O  O338  1  0.17694500  0.75507817  0.20514754  1
  O  O339  1  0.11222231  0.76205441  0.76973256  1
  O  O340  1  0.62297588  0.25142482  0.26177966  1
  O  O341  1  0.62769474  0.26971745  0.74319334  1
  O  O342  1  0.64090165  0.82150262  0.25849020  1
  O  O343  1  0.61309827  0.77204698  0.77649743  1
  O  O344  1  0.36864767  0.23553895  0.24431641  1
  O  O345  1  0.38090170  0.25572569  0.72597292  1
  O  O346  1  0.37611335  0.78810564  0.21287124  1
  O  O347  1  0.36161898  0.72467991  0.76589589  1
  O  O348  1  0.89662831  0.27814632  0.27647551  1
  O  O349  1  0.84647013  0.25098331  0.72811404  1
  O  O350  1  0.87415757  0.78551333  0.21870937  1
  O  O351  1  0.89163770  0.75513622  0.77680088  1
  O  O352  1  0.35805890  0.47316797  0.49441586  1
  O  O353  1  0.38354158  0.45267140  1.03263215  1
  O  O354  1  0.39324730  0.98420788  0.51442425  1
  O  O355  1  0.37453619  1.00681182  0.98803292  1
  O  O356  1  0.87159704  0.51023837  0.50039409  1
  O  O357  1  0.85040195  0.54768508  0.96864787  1
  O  O358  1  0.86594291  0.98604643  0.50027897  1
  O  O359  1  0.88068097  1.00950442  0.98628763  1
  O  O360  1  0.10406912  0.02415196  -0.02178307  1
  O  O361  1  0.13662369  0.00120858  0.52334566  1
  O  O362  1  0.11783913  0.48503762  -0.00701772  1
  O  O363  1  0.14518460  0.52105152  0.48867035  1
  O  O364  1  0.62399162  0.02317101  -0.01218896  1
  O  O365  1  0.60978093  -0.00845466  0.52312277  1
  O  O366  1  0.66277549  0.53561063  -0.02078525  1
  O  O367  1  0.60970170  0.46420620  0.49434131  1
  O  O368  1  0.36423384  0.34183080  0.13305541  1
  O  O369  1  0.36922944  0.36068730  0.61432146  1
  O  O370  1  0.30904593  0.87647486  0.06199429  1
  O  O371  1  0.39233163  0.86410712  0.61499327  1
  O  O372  1  0.96009526  0.43371544  -0.00722437  1
  O  O373  1  0.85061457  0.36911191  0.61785304  1
  O  O374  1  0.86192746  0.88203991  0.10248291  1
  O  O375  1  0.87349160  0.83621708  0.63064509  1
  O  O376  1  0.12727331  0.11970046  0.41414838  1
  O  O377  1  0.11991989  0.14825929  0.88795284  1
  O  O378  1  0.16288518  0.63031553  0.34689159  1
  O  O379  1  0.14287248  0.61159348  0.90017107  1
  O  O380  1  0.64206957  0.13747458  0.35586029  1
  O  O381  1  0.61569648  0.15235728  0.87172316  1
  O  O382  1  0.64037196  0.67614397  0.28011353  1
  O  O383  1  0.62264968  0.66230998  0.89296293  1
