# generated using pymatgen
data_VZnO4
_symmetry_space_group_name_H-M   'P 1'
_cell_length_a   16.91556448
_cell_length_b   17.03651113
_cell_length_c   16.95172368
_cell_angle_alpha   90.02011404
_cell_angle_beta   89.82380422
_cell_angle_gamma   89.62307363
_symmetry_Int_Tables_number   1
_chemical_formula_structural   VZnO4
_chemical_formula_sum   'V64 Zn64 O256'
_cell_volume   4885.05592126
_cell_formula_units_Z   64
loop_
 _symmetry_equiv_pos_site_id
 _symmetry_equiv_pos_as_xyz
  1  'x, y, z'
loop_
 _atom_site_type_symbol
 _atom_site_label
 _atom_site_symmetry_multiplicity
 _atom_site_fract_x
 _atom_site_fract_y
 _atom_site_fract_z
 _atom_site_occupancy
  V  V0  1  0.13269655  0.72174080  0.88179563  1
  V  V1  1  0.76330671  0.75957082  0.48353177  1
  V  V2  1  0.46068973  0.88829500  0.35751364  1
  V  V3  1  0.01062408  0.87000038  0.88926577  1
  V  V4  1  0.61244266  0.48363238  0.13868175  1
  V  V5  1  0.00688189  0.74440141  0.75877503  1
  V  V6  1  0.87767711  0.73078270  0.63831363  1
  V  V7  1  0.26254682  0.25200434  -0.01278580  1
  V  V8  1  0.10432160  0.13229387  0.54806711  1
  V  V9  1  0.00306022  0.74837245  0.22690343  1
  V  V10  1  0.62784063  0.64804180  0.49570524  1
  V  V11  1  0.24523946  0.76910700  0.49975688  1
  V  V12  1  0.85502413  0.86349211  0.00647729  1
  V  V13  1  0.50347394  0.12474616  0.63052241  1
  V  V14  1  0.60746922  0.22688056  0.35494337  1
  V  V15  1  0.23304598  0.50161130  0.74569490  1
  V  V16  1  0.25234041  0.74355585  0.00363650  1
  V  V17  1  0.11432104  0.23795493  0.36215719  1
  V  V18  1  0.49350453  0.63902203  0.13848363  1
  V  V19  1  0.48285837  0.53817031  0.48634665  1
  V  V20  1  0.85225529  0.73640639  0.12253678  1
  V  V21  1  0.88918687  0.12153553  0.73941043  1
  V  V22  1  0.25149339  0.11139221  0.35659742  1
  V  V23  1  0.38187856  0.62609521  0.74960499  1
  V  V24  1  0.40391060  0.37610416  0.00427780  1
  V  V25  1  0.62673341  0.13456823  -0.00867730  1
  V  V26  1  0.23356897  0.38747662  0.61134041  1
  V  V27  1  0.11662555  0.77421656  0.37583241  1
  V  V28  1  0.11229254  0.12083840  -0.01632093  1
  V  V29  1  0.61933110  0.49676123  0.61966921  1
  V  V30  1  0.61670165  0.78085394  0.36519452  1
  V  V31  1  0.01393547  0.61118388  0.62924003  1
  V  V32  1  0.62503140  -0.02089983  0.62935098  1
  V  V33  1  0.84549439  0.25089580  0.11961514  1
  V  V34  1  0.36837406  0.12743608  0.74885086  1
  V  V35  1  0.24758268  0.88835299  0.12913120  1
  V  V36  1  0.50976103  0.86327214  0.85524201  1
  V  V37  1  0.86130203  0.32185770  0.59251674  1
  V  V38  1  0.12431572  0.36383722  0.22979087  1
  V  V39  1  0.14372871  0.52850580  0.11164982  1
  V  V40  1  0.24456110  0.24017922  0.51234469  1
  V  V41  1  0.37029898  0.00318159  0.86742635  1
  V  V42  1  -0.00642171  0.51118249  0.01305271  1
  V  V43  1  0.62837199  0.62723743  0.00042023  1
  V  V44  1  0.38077146  0.87774509  -0.00345544  1
  V  V45  1  0.38770084  0.48111038  0.85799528  1
  V  V46  1  0.63646943  0.12262315  0.50966925  1
  V  V47  1  0.76467414  0.11906769  0.37761110  1
  V  V48  1  -0.00877564  0.37195634  0.87796553  1
  V  V49  1  0.10071555  0.00596462  0.12809098  1
  V  V50  1  0.23315983  0.88417501  0.65568296  1
  V  V51  1  0.89100559  -0.03089287  0.38710518  1
  V  V52  1  0.77099044  0.86683520  0.63470818  1
  V  V53  1  0.86791476  0.50988769  0.84866098  1
  V  V54  1  0.37256000  0.75396367  0.63298032  1
  V  V55  1  0.12919532  0.62356352  0.49816965  1
  V  V56  1  0.75949187  -0.01552748  0.24678745  1
  V  V57  1  0.24364336  0.50315053  0.27436666  1
  V  V58  1  0.39127993  0.34375204  0.49547446  1
  V  V59  1  0.87490527  -0.00493239  0.88291222  1
  V  V60  1  0.76099522  0.51666628  0.25079081  1
  V  V61  1  0.51914660  0.26107153  0.74658914  1
  V  V62  1  0.48831479  -0.01967681  0.50893188  1
  V  V63  1  0.75168139  0.00080793  0.75322035  1
  Zn  Zn64  1  0.18237841  0.17317381  0.17900914  1
  Zn  Zn65  1  0.19041535  0.21217271  0.70432490  1
  Zn  Zn66  1  0.20352761  0.69801022  0.19286518  1
  Zn  Zn67  1  0.19354408  0.69013366  0.69233109  1
  Zn  Zn68  1  0.67888787  0.13329041  0.19732794  1
  Zn  Zn69  1  0.73776318  0.24338053  0.74206822  1
  Zn  Zn70  1  0.67720095  0.68342195  0.19427774  1
  Zn  Zn71  1  0.69193231  0.66357897  0.66531850  1
  Zn  Zn72  1  0.26858795  0.34110339  0.35133184  1
  Zn  Zn73  1  0.30854640  0.30744336  0.80008183  1
  Zn  Zn74  1  0.25207832  0.90587977  0.33156296  1
  Zn  Zn75  1  0.30991477  0.81152850  0.81943977  1
  Zn  Zn76  1  0.79071948  0.29692182  0.32174807  1
  Zn  Zn77  1  0.79487939  0.33511484  0.92352664  1
  Zn  Zn78  1  0.82660886  0.81349907  0.30096296  1
  Zn  Zn79  1  0.81757446  0.81041573  0.81274171  1
  Zn  Zn80  1  0.13814054  0.42852166  0.43837241  1
  Zn  Zn81  1  0.19038495  0.44133833  0.92915556  1
  Zn  Zn82  1  0.16934597  0.95449752  0.46618922  1
  Zn  Zn83  1  0.19270417  0.94354596  0.94270555  1
  Zn  Zn84  1  0.59195749  0.42925069  0.33708112  1
  Zn  Zn85  1  0.68806511  0.49184031  0.94137376  1
  Zn  Zn86  1  0.70097109  0.93819814  0.44592690  1
  Zn  Zn87  1  0.67874920  0.93844448  0.93875297  1
  Zn  Zn88  1  0.33799460  0.04756008  0.07369663  1
  Zn  Zn89  1  0.30755026  0.05656408  0.57575972  1
  Zn  Zn90  1  0.32138137  0.55366701  0.04454707  1
  Zn  Zn91  1  0.30498545  0.57313024  0.56402709  1
  Zn  Zn92  1  0.81773295  0.05455177  0.05964514  1
  Zn  Zn93  1  0.82455201  0.05498676  0.56475239  1
  Zn  Zn94  1  0.80653708  0.55265062  0.07794616  1
  Zn  Zn95  1  0.82131297  0.52211798  0.64983797  1
  Zn  Zn96  1  0.40323464  0.48317137  0.17251955  1
  Zn  Zn97  1  0.43294972  0.43925452  0.66435811  1
  Zn  Zn98  1  0.44740663  0.83503754  0.16998989  1
  Zn  Zn99  1  0.43033783  0.92821694  0.69298547  1
  Zn  Zn100  1  0.96873820  0.48347696  0.21084916  1
  Zn  Zn101  1  0.96017467  0.41917472  0.68358276  1
  Zn  Zn102  1  0.93655372  0.92723755  0.19442806  1
  Zn  Zn103  1  0.97730148  0.95598965  0.72742644  1
  Zn  Zn104  1  0.05093105  0.06203684  0.31015993  1
  Zn  Zn105  1  0.09863519  0.07104253  0.78626393  1
  Zn  Zn106  1  0.10591781  0.60154509  0.28942554  1
  Zn  Zn107  1  0.05302559  0.55489700  0.81947278  1
  Zn  Zn108  1  0.57560282  0.03696071  0.32314227  1
  Zn  Zn109  1  0.55411272  0.04538652  0.81006792  1
  Zn  Zn110  1  0.56702510  0.58808688  0.31375183  1
  Zn  Zn111  1  0.56107380  0.57310889  0.80724833  1
  Zn  Zn112  1  0.43149986  0.16144644  0.44298587  1
  Zn  Zn113  1  0.44116678  0.20180339  0.92022018  1
  Zn  Zn114  1  0.43369223  0.72243165  0.44304972  1
  Zn  Zn115  1  0.42903071  0.67551637  0.92914009  1
  Zn  Zn116  1  0.93459581  0.20204048  0.45709605  1
  Zn  Zn117  1  0.96985391  0.16780014  0.88159639  1
  Zn  Zn118  1  0.95078384  0.69684661  0.44825059  1
  Zn  Zn119  1  0.93203423  0.68128689  0.94453614  1
  Zn  Zn120  1  0.10185993  0.32857167  0.02038518  1
  Zn  Zn121  1  0.05137141  0.31904334  0.55699013  1
  Zn  Zn122  1  0.07137291  0.81660694  0.06043834  1
  Zn  Zn123  1  0.06908648  0.80369700  0.57965395  1
  Zn  Zn124  1  0.60951344  0.34509016  0.02510265  1
  Zn  Zn125  1  0.57751950  0.31061186  0.57031604  1
  Zn  Zn126  1  0.53464350  0.76431031  0.00894682  1
  Zn  Zn127  1  0.56854998  0.79952290  0.57402532  1
  O  O128  1  0.11658426  0.11266662  0.10956960  1
  O  O129  1  0.11607380  0.14974928  0.64841528  1
  O  O130  1  0.13830475  0.62648812  0.12118788  1
  O  O131  1  0.11625124  0.63640665  0.62172279  1
  O  O132  1  0.62789322  0.11109786  0.09671231  1
  O  O133  1  0.61613652  0.10197684  0.61816793  1
  O  O134  1  0.60742180  0.62736691  0.12158073  1
  O  O135  1  0.60456642  0.68489238  0.59317301  1
  O  O136  1  0.36561283  0.37260924  0.40145158  1
  O  O137  1  0.37879537  0.37882290  0.85682422  1
  O  O138  1  0.36346799  0.88254145  0.37363610  1
  O  O139  1  0.38123171  0.88165836  0.87933267  1
  O  O140  1  0.89744742  0.34911411  0.35249382  1
  O  O141  1  0.87984528  0.40330082  0.88938076  1
  O  O142  1  0.88491576  0.86900755  0.38323635  1
  O  O143  1  0.87709555  0.86645104  0.89084440  1
  O  O144  1  0.23005332  0.00854694  0.37811219  1
  O  O145  1  0.27011063  -0.00383092  0.87431144  1
  O  O146  1  0.21847706  0.48795948  0.37058438  1
  O  O147  1  0.25928533  0.48352353  0.84742802  1
  O  O148  1  0.76484670  0.00279274  0.37413247  1
  O  O149  1  0.75990970  -0.01933088  0.85915054  1
  O  O150  1  0.76045168  0.46307979  0.35276283  1
  O  O151  1  0.76802069  0.50394322  0.85972734  1
  O  O152  1  0.24559217  0.50584766  0.11852704  1
  O  O153  1  0.24351372  0.49424663  0.62268968  1
  O  O154  1  0.25537384  0.98992835  0.12688317  1
  O  O155  1  0.24926546  0.98140699  0.63251728  1
  O  O156  1  0.72880783  0.49993866  0.14857319  1
  O  O157  1  0.71275765  0.55174525  0.64291180  1
  O  O158  1  0.77949485  1.00195356  0.14851117  1
  O  O159  1  0.74842700  0.98086958  0.63330994  1
  O  O160  1  0.02843987  0.39397667  0.25310876  1
  O  O161  1  0.00796581  0.38426335  0.77976931  1
  O  O162  1  0.00458458  0.84923584  0.24583557  1
  O  O163  1  -0.00862066  0.84945501  0.77299214  1
  O  O164  1  0.46788658  0.30842833  0.23011207  1
  O  O165  1  0.49388358  0.35341756  0.71208068  1
  O  O166  1  0.47219263  0.89730782  0.25842951  1
  O  O167  1  0.50144101  0.86139166  0.75518693  1
  O  O168  1  0.48512364  0.09099458  0.25516213  1
  O  O169  1  0.50749252  0.12442118  0.73888837  1
  O  O170  1  0.50001837  0.64374302  0.23982591  1
  O  O171  1  0.48053040  0.63262100  0.74761477  1
  O  O172  1  0.98211613  0.12877541  0.25096336  1
  O  O173  1  0.98916744  0.12306895  0.77641917  1
  O  O174  1  1.00686614  0.64741504  0.26076155  1
  O  O175  1  1.00923923  0.63391691  0.74107272  1
  O  O176  1  0.38090570  0.27033437  -0.00751120  1
  O  O177  1  0.35933903  0.24128472  0.49912640  1
  O  O178  1  0.35925753  0.76518542  -0.01604050  1
  O  O179  1  0.35363373  0.75020434  0.51755112  1
  O  O180  1  0.83077955  0.26224951  0.01576384  1
  O  O181  1  0.86433057  0.28311338  0.49817549  1
  O  O182  1  0.86891251  0.75384444  0.00954210  1
  O  O183  1  0.86509591  0.74314430  0.51467928  1
  O  O184  1  0.12954464  0.23578228  0.49966256  1
  O  O185  1  0.15179216  0.22396386  1.00147823  1
  O  O186  1  0.12895106  0.75582062  0.49668924  1
  O  O187  1  0.13735207  0.75111438  0.98828247  1
  O  O188  1  0.62446492  0.22182893  0.51014723  1
  O  O189  1  0.68018687  0.20929432  0.94456156  1
  O  O190  1  0.63865250  0.76891466  0.47907942  1
  O  O191  1  0.64209670  0.72625344  0.99218905  1
  O  O192  1  0.59469544  0.23201262  0.04453370  1
  O  O193  1  0.50644021  0.22465377  0.62345486  1
  O  O194  1  0.48958333  0.74516348  0.12220338  1
  O  O195  1  0.47039706  0.76308796  0.62340728  1
  O  O196  1  0.94584654  0.26800305  0.12196973  1
  O  O197  1  0.96076323  0.30995107  0.63039355  1
  O  O198  1  1.01410062  0.74345111  0.12677917  1
  O  O199  1  0.98924621  0.74524771  0.63704280  1
  O  O200  1  0.01654832  0.23877217  0.38053890  1
  O  O201  1  -0.03487623  0.27627437  0.89293200  1
  O  O202  1  0.01598257  0.76912214  0.39094364  1
  O  O203  1  0.01482397  0.74825770  0.87878018  1
  O  O204  1  0.51088535  0.20377071  0.37691331  1
  O  O205  1  0.50885223  0.25863542  0.84754804  1
  O  O206  1  0.50289738  0.78840476  0.37755719  1
  O  O207  1  0.49452025  0.76422417  0.88818234  1
  O  O208  1  0.23807365  0.13584846  0.52623817  1
  O  O209  1  0.28133194  0.14592231  1.04120823  1
  O  O210  1  0.23232948  0.64902305  0.51492220  1
  O  O211  1  0.26598764  0.64591928  1.00511312  1
  O  O212  1  0.73975922  0.10950830  0.50577011  1
  O  O213  1  0.72992002  0.09702393  1.00114039  1
  O  O214  1  0.73433884  0.65746250  0.50172474  1
  O  O215  1  0.72809832  0.59477315  1.00829555  1
  O  O216  1  0.24789554  0.35337659  -0.00960175  1
  O  O217  1  0.23627661  0.35483560  0.50058888  1
  O  O218  1  0.25920255  0.87074535  0.00479417  1
  O  O219  1  0.23804093  0.87092599  0.51491410  1
  O  O220  1  0.69938456  0.38075190  -0.03237079  1
  O  O221  1  0.89799439  0.41644647  0.38140900  1
  O  O222  1  0.75592985  0.87511137  -0.00226755  1
  O  O223  1  0.75129809  0.86106175  0.52144547  1
  O  O224  1  0.13451141  0.49310203  0.22396940  1
  O  O225  1  0.13415321  0.50100415  0.75410103  1
  O  O226  1  0.11587061  1.00914005  0.22810397  1
  O  O227  1  0.07897241  0.99436966  0.71337436  1
  O  O228  1  0.63206910  0.50375794  0.26115188  1
  O  O229  1  0.58114958  0.51013538  0.71150484  1
  O  O230  1  0.65448898  1.02479499  0.24269783  1
  O  O231  1  0.64085285  1.00084551  0.73927082  1
  O  O232  1  0.46695248  0.06040093  0.18603014  1
  O  O233  1  0.38048033  0.00907843  0.75885627  1
  O  O234  1  0.34511378  0.49939542  0.26596552  1
  O  O235  1  0.37452890  0.50778564  0.74319150  1
  O  O236  1  0.87142668  -0.01483471  0.27288970  1
  O  O237  1  0.87142074  -0.00429096  0.75931450  1
  O  O238  1  0.86169477  0.50214619  0.23452637  1
  O  O239  1  0.88399257  0.49853492  0.74573909  1
  O  O240  1  0.14162646  0.34291406  0.36019188  1
  O  O241  1  0.10088525  0.36955482  0.90741753  1
  O  O242  1  0.13945839  0.87476654  0.37931242  1
  O  O243  1  0.11012778  0.88028450  0.88738815  1
  O  O244  1  0.60984164  0.32762764  0.36610743  1
  O  O245  1  0.63402372  0.40448289  0.81548496  1
  O  O246  1  0.63053420  0.88064616  0.37205878  1
  O  O247  1  0.60841678  0.87648593  0.87752975  1
  O  O248  1  0.40941874  0.10214139  0.14870498  1
  O  O249  1  0.39506624  0.10813879  0.63871665  1
  O  O250  1  0.39798157  0.59912062  0.11955108  1
  O  O251  1  0.36564595  0.63981654  0.63694074  1
  O  O252  1  0.86773400  0.14900687  0.10010822  1
  O  O253  1  0.89048889  0.10603731  0.63944557  1
  O  O254  1  0.87022018  0.63926278  0.11796766  1
  O  O255  1  0.88773208  0.62886226  0.62841326  1
  O  O256  1  0.27517333  0.20497946  0.10171706  1
  O  O257  1  0.24956177  0.26646586  0.61452317  1
  O  O258  1  0.24232817  0.76562021  0.10961656  1
  O  O259  1  0.24813557  0.76463667  0.62462461  1
  O  O260  1  0.74589214  0.21321902  0.13907883  1
  O  O261  1  0.78428442  0.28109952  0.64392736  1
  O  O262  1  0.75425080  0.74527934  0.13470686  1
  O  O263  1  0.76548332  0.75151411  0.63608990  1
  O  O264  1  0.23822163  0.22715455  0.39203620  1
  O  O265  1  0.27295257  0.22538302  0.89292876  1
  O  O266  1  0.23917236  0.76102502  0.39834157  1
  O  O267  1  0.23626376  0.74862166  0.88401233  1
  O  O268  1  0.72751337  0.22288725  0.37611098  1
  O  O269  1  0.75612884  0.25958217  0.85302629  1
  O  O270  1  0.75564479  0.76495089  0.38302958  1
  O  O271  1  0.67280706  0.72628402  0.82355943  1
  O  O272  1  0.01348681  0.13198560  -0.01828953  1
  O  O273  1  0.00680421  0.14977017  0.52817428  1
  O  O274  1  0.00326927  0.60998983  -0.00209791  1
  O  O275  1  0.01352463  0.63372756  0.52168304  1
  O  O276  1  0.52095178  0.13848162  -0.01698156  1
  O  O277  1  0.50819553  0.10073217  0.51562178  1
  O  O278  1  0.50831134  0.64021877  0.01046317  1
  O  O279  1  0.50049626  0.64079277  0.48706165  1
  O  O280  1  0.49118655  0.34335830  0.50019362  1
  O  O281  1  0.50225113  0.37224398  0.99015664  1
  O  O282  1  0.50075124  0.88072691  0.51161999  1
  O  O283  1  0.48236008  0.86815681  1.00540740  1
  O  O284  1  1.03767094  0.39167644  0.47359261  1
  O  O285  1  1.00705233  0.39233481  0.99895867  1
  O  O286  1  1.00500340  0.90697608  0.53144862  1
  O  O287  1  0.98897782  0.86344027  0.99010278  1
  O  O288  1  0.52041055  0.50430281  0.39303073  1
  O  O289  1  0.48569522  0.49333047  0.85716022  1
  O  O290  1  0.50029425  0.98280851  0.39462536  1
  O  O291  1  0.48680314  0.97541582  0.86730482  1
  O  O292  1  0.90019004  0.61608308  0.37917327  1
  O  O293  1  0.98784707  0.49604210  0.89159400  1
  O  O294  1  0.98890504  0.99736015  0.37883836  1
  O  O295  1  0.98069202  0.97293419  0.86940120  1
  O  O296  1  0.00192176  -0.00971130  0.12078007  1
  O  O297  1  -0.01280338  -0.03880644  0.57729940  1
  O  O298  1  0.02762167  0.50416881  0.11738305  1
  O  O299  1  0.00924880  0.51362321  0.63320503  1
  O  O300  1  0.59294690  -0.09079719  0.15168213  1
  O  O301  1  0.51332637  -0.00935224  0.62712082  1
  O  O302  1  0.51292838  0.51157069  0.16113920  1
  O  O303  1  0.50461480  0.49447617  0.58184205  1
  O  O304  1  0.23315499  0.38847875  0.24964051  1
  O  O305  1  0.26280010  0.38940379  0.71772896  1
  O  O306  1  0.25726983  0.86522080  0.22711752  1
  O  O307  1  0.24157049  0.87604732  0.75576487  1
  O  O308  1  0.74503013  0.40225577  0.29969733  1
  O  O309  1  0.68989309  0.39065733  0.77136708  1
  O  O310  1  0.74976180  0.88533561  0.25431589  1
  O  O311  1  0.75704476  0.87798943  0.73954925  1
  O  O312  1  0.25544319  0.12368621  0.25771088  1
  O  O313  1  0.27009702  0.12855044  0.73962812  1
  O  O314  1  0.22277795  0.60850074  0.26309873  1
  O  O315  1  0.25392727  0.60442726  0.74049080  1
  O  O316  1  0.76905817  0.11172023  0.27451741  1
  O  O317  1  0.76528603  0.10044207  0.74624396  1
  O  O318  1  0.74550471  0.61461146  0.26248096  1
  O  O319  1  0.75048425  0.71183481  0.82457903  1
  O  O320  1  0.34755274  0.11189451  0.38851549  1
  O  O321  1  0.39034281  0.11099230  0.86300360  1
  O  O322  1  0.37131706  0.66783641  0.34149210  1
  O  O323  1  0.37068656  0.60692055  0.85766300  1
  O  O324  1  0.86138631  0.13415350  0.40041132  1
  O  O325  1  0.87386030  0.09524258  0.87991963  1
  O  O326  1  0.84493499  0.57264193  0.41989496  1
  O  O327  1  0.88297250  0.60840095  0.87326853  1
  O  O328  1  0.12824839  0.35195649  0.13041182  1
  O  O329  1  0.13493559  0.37519255  0.62084305  1
  O  O330  1  0.13811022  0.89578645  0.11121368  1
  O  O331  1  0.13170038  0.86880285  0.64213045  1
  O  O332  1  0.61081441  0.38376678  0.13678699  1
  O  O333  1  0.63880405  0.39962134  0.60619191  1
  O  O334  1  0.64718505  0.87623671  0.11626643  1
  O  O335  1  0.63448194  0.87786026  0.63087889  1
  O  O336  1  0.12687121  0.25030361  0.25132480  1
  O  O337  1  0.19617551  0.28799164  0.78452422  1
  O  O338  1  0.12263269  0.74999064  0.27104103  1
  O  O339  1  0.12058314  0.74126539  0.77252051  1
  O  O340  1  0.61399633  0.20621636  0.25658019  1
  O  O341  1  0.61992909  0.25015543  0.73087504  1
  O  O342  1  0.63021996  0.75866441  0.26844461  1
  O  O343  1  0.63301630  0.68575677  0.76649377  1
  O  O344  1  0.43154501  0.24924524  0.21257740  1
  O  O345  1  0.39070857  0.22849248  0.75118093  1
  O  O346  1  0.35617085  0.70956467  0.28309316  1
  O  O347  1  0.35681592  0.73397230  0.74644850  1
  O  O348  1  0.84781497  0.25230396  0.22498075  1
  O  O349  1  0.86411153  0.21478613  0.75714833  1
  O  O350  1  0.88836590  0.75209924  0.22664716  1
  O  O351  1  0.88450129  0.74062640  0.74259286  1
  O  O352  1  0.38317034  0.53580224  0.48491860  1
  O  O353  1  0.36839075  0.47873032  0.96972961  1
  O  O354  1  0.39066286  0.99587925  0.51695174  1
  O  O355  1  0.37802695  0.98751343  0.98536856  1
  O  O356  1  0.86783934  0.53447341  0.47997131  1
  O  O357  1  0.89443309  0.49783793  1.02995010  1
  O  O358  1  0.86823057  0.98970030  0.48591665  1
  O  O359  1  0.86875109  0.98109605  0.98930982  1
  O  O360  1  0.13298931  0.01667087  0.00736477  1
  O  O361  1  0.11803920  0.03545214  0.52218863  1
  O  O362  1  0.12929403  0.50210237  0.00957725  1
  O  O363  1  0.13473372  0.52604537  0.49940813  1
  O  O364  1  0.61354859  0.01980616  -0.00992451  1
  O  O365  1  0.62379446  -0.00589468  0.51852666  1
  O  O366  1  0.61050844  0.50218333  0.03676845  1
  O  O367  1  0.62249621  0.54592254  0.51368682  1
  O  O368  1  0.39001482  0.39385321  0.10187165  1
  O  O369  1  0.35954890  0.39225697  0.58390728  1
  O  O370  1  0.36387164  0.87930016  0.10643598  1
  O  O371  1  0.35340576  0.86010892  0.64447053  1
  O  O372  1  0.81502253  0.34893113  0.11981106  1
  O  O373  1  0.85536958  0.42530281  0.60031844  1
  O  O374  1  0.87590279  0.86308964  0.10920992  1
  O  O375  1  0.87008221  0.85731929  0.62940689  1
  O  O376  1  0.13243013  0.13080777  0.36490595  1
  O  O377  1  0.13491305  0.11240256  0.88260185  1
  O  O378  1  0.11871932  0.64776131  0.39662721  1
  O  O379  1  0.12877432  0.62437412  0.88102931  1
  O  O380  1  0.63544301  0.11022080  0.39702992  1
  O  O381  1  0.61447000  0.10634427  0.88625871  1
  O  O382  1  0.61447334  0.66209713  0.38792276  1
  O  O383  1  0.61786264  0.58538093  0.90293370  1
