# generated using pymatgen
data_VZnO4
_symmetry_space_group_name_H-M   'P 1'
_cell_length_a   16.99336151
_cell_length_b   17.07362173
_cell_length_c   16.92418565
_cell_angle_alpha   90.05673236
_cell_angle_beta   90.17123070
_cell_angle_gamma   90.54134161
_symmetry_Int_Tables_number   1
_chemical_formula_structural   VZnO4
_chemical_formula_sum   'V64 Zn64 O256'
_cell_volume   4910.10956448
_cell_formula_units_Z   64
loop_
 _symmetry_equiv_pos_site_id
 _symmetry_equiv_pos_as_xyz
  1  'x, y, z'
loop_
 _atom_site_type_symbol
 _atom_site_label
 _atom_site_symmetry_multiplicity
 _atom_site_fract_x
 _atom_site_fract_y
 _atom_site_fract_z
 _atom_site_occupancy
  V  V0  1  0.37908151  0.63226252  0.73730428  1
  V  V1  1  0.38065751  0.62713033  0.23890014  1
  V  V2  1  0.59380734  -0.00277244  0.62969326  1
  V  V3  1  0.62384446  0.21346313  0.85903487  1
  V  V4  1  0.73176682  0.00893232  0.26615392  1
  V  V5  1  0.47434649  0.01488922  0.48165589  1
  V  V6  1  -0.00900980  0.74636715  0.23635926  1
  V  V7  1  -0.00183500  0.38298179  0.35656606  1
  V  V8  1  0.38519247  0.49974077  0.88083571  1
  V  V9  1  0.64679305  0.11460996  0.50380575  1
  V  V10  1  0.64642543  0.25453275  0.39985805  1
  V  V11  1  0.49371777  0.26653437  0.27890019  1
  V  V12  1  0.35543498  0.04248995  0.88036187  1
  V  V13  1  0.22777941  0.51870311  0.24471330  1
  V  V14  1  0.59455216  0.51257668  0.64064550  1
  V  V15  1  0.37915119  0.76042361  0.11473910  1
  V  V16  1  0.24952038  0.76383071  0.00116623  1
  V  V17  1  0.61592592  0.35446056  0.73301075  1
  V  V18  1  0.00666549  0.49403687  0.51708908  1
  V  V19  1  0.01198471  0.01237016  0.49162843  1
  V  V20  1  0.49152093  0.51073656  0.48978934  1
  V  V21  1  0.77916557  0.40030539  0.62930131  1
  V  V22  1  0.50615662  0.76389970  0.25954627  1
  V  V23  1  0.62112710  0.63523158  0.50422320  1
  V  V24  1  0.24439685  0.09669137  0.33837434  1
  V  V25  1  0.87858123  0.74889219  0.63988863  1
  V  V26  1  0.48741876  0.13088721  0.14384051  1
  V  V27  1  0.02306652  0.76325783  0.75771092  1
  V  V28  1  0.75852579  0.62524824  0.87314077  1
  V  V29  1  0.23106153  0.25430571  0.50321104  1
  V  V30  1  0.21678753  0.38145208  0.62607154  1
  V  V31  1  0.34832127  0.51586337  0.38157994  1
  V  V32  1  0.24044276  0.63434127  0.87503252  1
  V  V33  1  0.03905666  0.89653975  0.87034843  1
  V  V34  1  0.38736669  0.29593934  0.13783342  1
  V  V35  1  0.76735757  0.74954426  0.48975172  1
  V  V36  1  0.49356375  0.75320502  0.72091238  1
  V  V37  1  0.74784711  0.88753794  0.12551726  1
  V  V38  1  0.13029048  0.88065940  0.23998470  1
  V  V39  1  0.23262827  0.49929321  0.75063288  1
  V  V40  1  0.25294032  0.87776618  0.63906508  1
  V  V41  1  0.62601291  0.86975193  0.75239949  1
  V  V42  1  0.75527817  0.58794317  0.37091261  1
  V  V43  1  0.36653793  0.88116371  0.48175157  1
  V  V44  1  0.86979176  0.23667925  0.61477330  1
  V  V45  1  0.41503409  0.33503544  0.55168307  1
  V  V46  1  0.12390749  0.25210949  0.35200618  1
  V  V47  1  0.48894008  0.85470092  0.89139496  1
  V  V48  1  0.24571916  0.74534247  0.50490739  1
  V  V49  1  0.86147521  0.30158953  -0.01582640  1
  V  V50  1  -0.00517975  0.86727862  0.38311385  1
  V  V51  1  0.12728963  0.74185050  0.37839168  1
  V  V52  1  0.11657934  0.62559175  0.01215475  1
  V  V53  1  0.03581469  0.01260279  0.02225320  1
  V  V54  1  0.86463540  0.74129625  0.11725923  1
  V  V55  1  0.87954325  0.01969236  0.37092370  1
  V  V56  1  0.24216735  0.26365247  0.00793561  1
  V  V57  1  0.21590876  0.39123716  0.13389145  1
  V  V58  1  0.76171871  0.88683389  0.61515374  1
  V  V59  1  0.76068666  0.35157152  0.12786425  1
  V  V60  1  0.00622641  0.12692486  0.62630366  1
  V  V61  1  -0.01302544  0.23115660  0.77623499  1
  V  V62  1  0.13316827  -0.00277053  0.63122290  1
  V  V63  1  0.61798353  0.00995279  0.12192135  1
  Zn  Zn64  1  0.21784851  0.19043472  0.17211332  1
  Zn  Zn65  1  0.17057292  0.19665451  0.67596059  1
  Zn  Zn66  1  0.18653111  0.70073541  0.18530350  1
  Zn  Zn67  1  0.18290382  0.68797586  0.68623215  1
  Zn  Zn68  1  0.68076029  0.19380775  0.22210865  1
  Zn  Zn69  1  0.68400265  0.17730835  0.68740296  1
  Zn  Zn70  1  0.70139807  0.70363872  0.21122680  1
  Zn  Zn71  1  0.68858416  0.69469037  0.67750901  1
  Zn  Zn72  1  0.29967968  0.33073753  0.31836923  1
  Zn  Zn73  1  0.30379347  0.31741350  0.81502175  1
  Zn  Zn74  1  0.30797414  0.80599281  0.30956518  1
  Zn  Zn75  1  0.31582732  0.81325646  0.81471646  1
  Zn  Zn76  1  0.79702995  0.37829743  0.33973378  1
  Zn  Zn77  1  0.79848737  0.28081087  0.78778202  1
  Zn  Zn78  1  0.81544044  0.82677460  0.30469500  1
  Zn  Zn79  1  0.78644772  0.81293647  0.81068277  1
  Zn  Zn80  1  0.17195909  0.43514298  0.43608622  1
  Zn  Zn81  1  0.20687886  0.45946252  0.95551022  1
  Zn  Zn82  1  0.18308524  0.92859183  0.43429399  1
  Zn  Zn83  1  0.20532965  0.95167950  0.93602830  1
  Zn  Zn84  1  0.67868949  0.43651559  0.46067814  1
  Zn  Zn85  1  0.71639115  0.37420783  0.91544342  1
  Zn  Zn86  1  0.69364677  0.92230481  0.42433778  1
  Zn  Zn87  1  0.63231675  0.91447797  0.95725795  1
  Zn  Zn88  1  0.31312496  0.07701202  0.05250881  1
  Zn  Zn89  1  0.30887928  0.06982981  0.56405633  1
  Zn  Zn90  1  0.30838301  0.56700623  0.06153888  1
  Zn  Zn91  1  0.29726780  0.56100734  0.56768054  1
  Zn  Zn92  1  0.89066720  -0.09596391  0.00490744  1
  Zn  Zn93  1  0.83117046  0.05425007  0.55396777  1
  Zn  Zn94  1  0.77690928  0.54930028  0.07890649  1
  Zn  Zn95  1  0.83227336  0.57443886  0.55999481  1
  Zn  Zn96  1  0.42698436  0.43047997  0.24954589  1
  Zn  Zn97  1  0.42992140  0.44214254  0.70295996  1
  Zn  Zn98  1  0.44220032  0.93461142  0.18767317  1
  Zn  Zn99  1  0.42381134  0.93765274  0.70442131  1
  Zn  Zn100  1  0.91559904  0.31429580  0.20297095  1
  Zn  Zn101  1  0.95303873  0.41413251  0.70568637  1
  Zn  Zn102  1  0.94160942  0.93903157  0.19405091  1
  Zn  Zn103  1  0.96296794  0.91314389  0.66691275  1
  Zn  Zn104  1  0.07310617  0.06630504  0.30702283  1
  Zn  Zn105  1  0.08631498  0.07429429  0.80989482  1
  Zn  Zn106  1  0.04661037  0.56921675  0.31902610  1
  Zn  Zn107  1  0.03120276  0.56939416  0.70297597  1
  Zn  Zn108  1  0.55663501  0.07963202  0.32185396  1
  Zn  Zn109  1  0.52727875  0.03285467  0.81425123  1
  Zn  Zn110  1  0.54587435  0.61591916  0.33929484  1
  Zn  Zn111  1  0.59260632  0.51271845  0.85469854  1
  Zn  Zn112  1  0.40433092  0.18593249  0.44050470  1
  Zn  Zn113  1  0.43553096  0.19765235  0.96897950  1
  Zn  Zn114  1  0.42349160  0.69276019  0.43966692  1
  Zn  Zn115  1  0.43210672  0.69076345  0.92068301  1
  Zn  Zn116  1  0.91056641  0.22692491  0.40514170  1
  Zn  Zn117  1  0.93630378  0.12635557  0.95725052  1
  Zn  Zn118  1  0.93314351  0.67752128  0.43224097  1
  Zn  Zn119  1  0.94610417  0.71301384  0.93536868  1
  Zn  Zn120  1  0.04727704  0.30035458  0.05522926  1
  Zn  Zn121  1  0.04769760  0.31354390  0.55146179  1
  Zn  Zn122  1  0.06457851  0.81738775  0.05169298  1
  Zn  Zn123  1  0.06617414  0.81324541  0.56339029  1
  Zn  Zn124  1  0.62814558  0.20437914  0.05942674  1
  Zn  Zn125  1  0.59667898  0.31192945  0.56351399  1
  Zn  Zn126  1  0.55219317  0.82227572  0.09626806  1
  Zn  Zn127  1  0.56622292  0.83230352  0.52952820  1
  O  O128  1  0.03371198  0.16884944  0.17245795  1
  O  O129  1  0.11636973  0.11108499  0.61917331  1
  O  O130  1  0.12480303  0.63718488  0.11260851  1
  O  O131  1  0.10401148  0.62437650  0.63942139  1
  O  O132  1  0.62223496  0.11883318  0.14424199  1
  O  O133  1  0.63526885  0.09803610  0.62138901  1
  O  O134  1  0.67277836  0.60886907  0.12181584  1
  O  O135  1  0.64082290  0.60969005  0.61318040  1
  O  O136  1  0.37143545  0.41618539  0.36253143  1
  O  O137  1  0.37108855  0.40145457  0.85661032  1
  O  O138  1  0.36479866  0.87645645  0.38266323  1
  O  O139  1  0.38984943  0.86883085  0.88617182  1
  O  O140  1  0.89947995  0.33781710  0.37194109  1
  O  O141  1  0.82377630  0.33315690  0.88649132  1
  O  O142  1  0.89488512  0.88240024  0.36982147  1
  O  O143  1  0.83889393  0.88895607  0.88696464  1
  O  O144  1  0.23975751  0.00177442  0.36888252  1
  O  O145  1  0.25652947  0.02410817  0.86316397  1
  O  O146  1  0.24549144  0.50763073  0.36915920  1
  O  O147  1  0.25306436  0.51506210  0.86391410  1
  O  O148  1  0.76928112  -0.01131944  0.37175792  1
  O  O149  1  0.77655342  0.04045533  0.78184735  1
  O  O150  1  0.74894812  0.47999454  0.37774206  1
  O  O151  1  0.78361325  0.53256910  0.84186502  1
  O  O152  1  0.23939452  0.50019087  0.13402389  1
  O  O153  1  0.24404623  0.49146651  0.63834281  1
  O  O154  1  0.28357558  0.98135337  0.13992844  1
  O  O155  1  0.23960441  0.99450715  0.61914746  1
  O  O156  1  0.88317044  0.51857041  0.21548627  1
  O  O157  1  0.78785289  0.49914234  0.63630776  1
  O  O158  1  0.72689924  1.00085792  0.14766698  1
  O  O159  1  0.75828654  0.98602592  0.61304160  1
  O  O160  1  -0.00222279  0.36922029  0.25528090  1
  O  O161  1  -0.00416524  0.33087360  0.77056365  1
  O  O162  1  0.00541227  0.86145185  0.25990252  1
  O  O163  1  0.01156183  0.88667943  0.76468508  1
  O  O164  1  0.51453195  0.36518164  0.26887561  1
  O  O165  1  0.52060664  0.38623211  0.74229906  1
  O  O166  1  0.48850018  0.86199108  0.26131285  1
  O  O167  1  0.50633905  0.86336955  0.75683768  1
  O  O168  1  0.50299514  0.15004761  0.25079024  1
  O  O169  1  0.51304460  0.24887300  0.82625311  1
  O  O170  1  0.48325282  0.62006349  0.24437343  1
  O  O171  1  0.48607368  0.64599991  0.73549218  1
  O  O172  1  1.00098824  0.13820787  0.23626583  1
  O  O173  1  1.00478687  0.11986190  0.73097999  1
  O  O174  1  0.99048509  0.64981028  0.26037798  1
  O  O175  1  0.99812284  0.66741267  0.75716027  1
  O  O176  1  0.37133896  0.26536160  0.03750358  1
  O  O177  1  0.35132807  0.27679884  0.49355827  1
  O  O178  1  0.37584861  0.73761780  0.01193347  1
  O  O179  1  0.35632899  0.76579485  0.49504434  1
  O  O180  1  0.85550624  0.20224928  -0.01603542  1
  O  O181  1  0.88597740  0.24458207  0.51652257  1
  O  O182  1  0.88199451  0.77219172  0.01921549  1
  O  O183  1  0.86926464  0.74659114  0.50776249  1
  O  O184  1  0.12919647  0.25193371  0.49782353  1
  O  O185  1  0.14195817  0.26646525  1.00634698  1
  O  O186  1  0.13276670  0.75939143  0.48917178  1
  O  O187  1  0.14687994  0.74805314  1.00343414  1
  O  O188  1  0.64475943  0.21913970  0.51567340  1
  O  O189  1  0.66041602  0.21554685  0.95288297  1
  O  O190  1  0.63861946  0.73471219  0.51454182  1
  O  O191  1  0.57770648  0.68353192  1.01688053  1
  O  O192  1  0.48435386  0.25366725  0.15478485  1
  O  O193  1  0.48710725  0.27661091  0.58310513  1
  O  O194  1  0.48577514  0.74482956  0.14463098  1
  O  O195  1  0.49469126  0.76930106  0.62356079  1
  O  O196  1  0.99511128  0.23682600  0.14536638  1
  O  O197  1  1.00324840  0.23259734  0.62491291  1
  O  O198  1  0.98466125  0.75002716  0.13148465  1
  O  O199  1  0.98790895  0.78582875  0.64355779  1
  O  O200  1  0.02319439  0.23926075  0.36779881  1
  O  O201  1  -0.02385603  0.19461174  0.86834558  1
  O  O202  1  0.00050176  0.75894470  0.37849584  1
  O  O203  1  -0.00167177  0.78421271  0.86305993  1
  O  O204  1  0.47560414  0.24932581  0.37619640  1
  O  O205  1  0.51606776  0.26367292  0.90443070  1
  O  O206  1  0.49860260  0.72756879  0.35839303  1
  O  O207  1  0.50244371  0.75569199  0.85650994  1
  O  O208  1  0.25497353  0.15766318  0.51608974  1
  O  O209  1  0.24417160  0.16440501  1.05562177  1
  O  O210  1  0.24791851  0.64769805  0.51210624  1
  O  O211  1  0.24248332  0.63300718  0.98930096  1
  O  O212  1  0.74174311  0.09463009  0.49368459  1
  O  O213  1  0.77479554  0.05279610  0.96415232  1
  O  O214  1  0.74866473  0.63334728  0.49108434  1
  O  O215  1  0.75558837  0.60085135  0.97390357  1
  O  O216  1  0.24699487  0.38109537  0.02727515  1
  O  O217  1  0.23379941  0.37925737  0.51960733  1
  O  O218  1  0.25748999  0.86050000  -0.01002389  1
  O  O219  1  0.25647314  0.87171360  0.50605112  1
  O  O220  1  0.75785754  0.34068288  0.01726270  1
  O  O221  1  0.74648819  0.37895268  0.53560920  1
  O  O222  1  0.72596144  0.88841759  0.02524110  1
  O  O223  1  0.74715980  0.85888427  0.51066876  1
  O  O224  1  0.13059274  0.52253616  0.25545219  1
  O  O225  1  0.13694655  0.51082305  0.75479063  1
  O  O226  1  0.11502258  0.97979275  0.24854839  1
  O  O227  1  0.12772680  1.00084040  0.72922912  1
  O  O228  1  0.60918063  0.56989471  0.12887881  1
  O  O229  1  0.60999768  0.51574614  0.74000024  1
  O  O230  1  0.63261732  1.00298116  0.28054832  1
  O  O231  1  0.60973937  0.98136832  0.73642564  1
  O  O232  1  0.32604818  -0.02034499  0.20136651  1
  O  O233  1  0.41492679  0.01058431  0.79430796  1
  O  O234  1  0.35807321  0.52012599  0.25779070  1
  O  O235  1  0.36668439  0.52002564  0.75607738  1
  O  O236  1  0.88365640  0.00419211  0.26845024  1
  O  O237  1  0.89197662  -0.07423968  0.84327771  1
  O  O238  1  0.94393362  0.51431623  0.17607849  1
  O  O239  1  0.95962944  0.50815953  0.76389289  1
  O  O240  1  0.10771587  0.36342585  0.37012586  1
  O  O241  1  0.10388458  0.39385337  0.88604261  1
  O  O242  1  0.11096302  0.86423084  0.36545359  1
  O  O243  1  0.13525133  0.87808494  0.87364160  1
  O  O244  1  0.61080500  0.34312021  0.43961034  1
  O  O245  1  0.63968994  0.33136556  0.83506096  1
  O  O246  1  0.60205164  0.86549800  0.42573511  1
  O  O247  1  0.65778947  0.86433108  0.84804295  1
  O  O248  1  0.38914290  0.11992746  0.13428407  1
  O  O249  1  0.36696463  0.13286402  0.65795928  1
  O  O250  1  0.37167939  0.62942956  0.13494441  1
  O  O251  1  0.35970537  0.62621999  0.63997179  1
  O  O252  1  0.87756222  0.09867504  0.11948378  1
  O  O253  1  0.89641214  0.12349255  0.61653669  1
  O  O254  1  0.84293084  0.64461689  0.11024778  1
  O  O255  1  0.88415749  0.65022503  0.63165692  1
  O  O256  1  0.26592355  0.29232172  0.14006777  1
  O  O257  1  0.23407646  0.27196967  0.62065969  1
  O  O258  1  0.26750091  0.75064115  0.11281187  1
  O  O259  1  0.23597370  0.76873030  0.61353584  1
  O  O260  1  0.68414062  0.27440166  0.13779397  1
  O  O261  1  0.77206077  0.22169820  0.62495762  1
  O  O262  1  0.75751898  0.77446569  0.13883442  1
  O  O263  1  0.76505362  0.75551151  0.61502913  1
  O  O264  1  0.23193021  0.27466215  0.39211635  1
  O  O265  1  0.26672758  0.26488004  0.91084099  1
  O  O266  1  0.23387419  0.75156223  0.38599284  1
  O  O267  1  0.26650835  0.73984000  0.88880545  1
  O  O268  1  0.74183545  0.27365382  0.38339474  1
  O  O269  1  0.71111875  0.20078480  0.79651193  1
  O  O270  1  0.76274420  0.76361933  0.38961225  1
  O  O271  1  0.75091473  0.73247524  0.88996185  1
  O  O272  1  0.03700441  0.11366535  0.01748840  1
  O  O273  1  0.00797460  0.11121918  0.50675878  1
  O  O274  1  0.02112721  0.64951613  -0.01166323  1
  O  O275  1  -0.01549551  0.59961516  0.49361682  1
  O  O276  1  0.51564537  0.15902488  0.04411845  1
  O  O277  1  0.46316195  0.11268085  0.50589309  1
  O  O278  1  0.52592160  0.63671437  -0.00707144  1
  O  O279  1  0.51319119  0.62960226  0.49922036  1
  O  O280  1  0.47265498  0.40909012  0.50005767  1
  O  O281  1  0.56995813  0.40569276  1.05334297  1
  O  O282  1  0.46959489  0.89538096  0.50583832  1
  O  O283  1  0.53366784  0.83896456  0.98689993  1
  O  O284  1  0.99934203  0.38973752  0.48588722  1
  O  O285  1  0.96092457  0.32678348  0.98675496  1
  O  O286  1  1.00656686  0.88263400  0.48532434  1
  O  O287  1  1.00735019  0.88529399  0.97945281  1
  O  O288  1  0.49312527  0.51830560  0.38846716  1
  O  O289  1  0.48534178  0.51408075  0.87708278  1
  O  O290  1  0.48413203  1.01424998  0.38304980  1
  O  O291  1  0.53880961  0.94771490  0.88762151  1
  O  O292  1  0.98973888  0.48293943  0.36231020  1
  O  O293  1  1.04473463  0.43475835  0.88198396  1
  O  O294  1  1.00037499  1.00070918  0.37883669  1
  O  O295  1  1.04004340  1.00211503  0.88174010  1
  O  O296  1  0.00809775  -0.01243629  0.11725630  1
  O  O297  1  0.01023622  0.00168337  0.61050459  1
  O  O298  1  -0.07431259  0.50956795  -0.02545082  1
  O  O299  1  0.00516797  0.48355088  0.61947679  1
  O  O300  1  0.50938568  0.01945718  0.15280704  1
  O  O301  1  0.49392470  0.00029061  0.63036878  1
  O  O302  1  0.51976913  0.45572854  0.04205218  1
  O  O303  1  0.49395812  0.51333739  0.61979127  1
  O  O304  1  0.24240351  0.40499875  0.24262137  1
  O  O305  1  0.24222683  0.39070546  0.74394979  1
  O  O306  1  0.22912669  0.86267531  0.25473107  1
  O  O307  1  0.25306832  0.87126169  0.73874244  1
  O  O308  1  0.80240839  0.34162688  0.23025110  1
  O  O309  1  0.73494698  0.36454368  0.72087922  1
  O  O310  1  0.75233195  0.89660737  0.24215725  1
  O  O311  1  0.73175376  0.86703005  0.72135544  1
  O  O312  1  0.23885909  0.10396675  0.23620793  1
  O  O313  1  0.32249113  0.17414664  0.70949576  1
  O  O314  1  0.25520044  0.62161269  0.24259824  1
  O  O315  1  0.25476238  0.62553593  0.75794291  1
  O  O316  1  0.74682566  0.10903030  0.26211074  1
  O  O317  1  0.84700360  0.05557104  0.79062448  1
  O  O318  1  0.73163834  0.61713075  0.27682396  1
  O  O319  1  0.74903946  0.65001272  0.76962666  1
  O  O320  1  0.33051655  0.13835664  0.36914574  1
  O  O321  1  0.37762587  0.14113509  0.88879953  1
  O  O322  1  0.36949168  0.62130101  0.36051236  1
  O  O323  1  0.36666823  0.62028903  0.86097321  1
  O  O324  1  0.88049702  0.11857732  0.37767865  1
  O  O325  1  0.72245939  0.04455550  0.91430259  1
  O  O326  1  0.85069062  0.61634608  0.37557786  1
  O  O327  1  0.86110081  0.65004535  0.88140962  1
  O  O328  1  0.11924987  0.37503488  0.12700841  1
  O  O329  1  0.11907919  0.37558658  0.63099333  1
  O  O330  1  0.11855066  0.85745141  0.14190997  1
  O  O331  1  0.13557968  0.89064544  0.61797539  1
  O  O332  1  0.74332547  0.45140338  0.12576038  1
  O  O333  1  0.62685043  0.41140036  0.62742869  1
  O  O334  1  0.62196555  0.90005977  0.13871251  1
  O  O335  1  0.62537927  0.89564057  0.61589447  1
  O  O336  1  0.14397003  0.24920569  0.25441671  1
  O  O337  1  0.10409500  0.23649965  0.77144727  1
  O  O338  1  0.11076000  0.75351109  0.26191282  1
  O  O339  1  0.12171677  0.76407325  0.74849321  1
  O  O340  1  0.61128321  0.25125824  0.29745327  1
  O  O341  1  0.60781301  0.26664677  0.68411214  1
  O  O342  1  0.60471988  0.74985317  0.24210316  1
  O  O343  1  0.61001286  0.76403603  0.72743790  1
  O  O344  1  0.37862654  0.27635708  0.25033959  1
  O  O345  1  0.36160738  0.23545505  0.74272460  1
  O  O346  1  0.37609828  0.74007405  0.24274427  1
  O  O347  1  0.38225383  0.74473797  0.74675060  1
  O  O348  1  0.84999623  0.15608295  0.15256269  1
  O  O349  1  0.88603361  0.22748395  0.73410946  1
  O  O350  1  0.88214622  0.76203292  0.23335434  1
  O  O351  1  0.86754068  0.76937620  0.73965208  1
  O  O352  1  0.37462255  0.52848402  0.48748428  1
  O  O353  1  0.36136512  0.50904696  0.98019012  1
  O  O354  1  0.36596851  0.99362757  0.49782566  1
  O  O355  1  0.36820938  1.01246873  0.97835905  1
  O  O356  1  0.89674153  0.50836523  0.49602679  1
  O  O357  1  0.86718132  0.48225654  1.01037758  1
  O  O358  1  0.89742456  0.99719769  0.48165116  1
  O  O359  1  0.92396136  1.01395955  0.98272910  1
  O  O360  1  0.13605317  -0.01166966  0.01567001  1
  O  O361  1  0.11494095  -0.00336875  0.50033234  1
  O  O362  1  0.12558395  0.52563995  -0.00348554  1
  O  O363  1  0.10480308  0.50687902  0.48911390  1
  O  O364  1  0.61456252  0.01172241  0.02391127  1
  O  O365  1  0.59003432  0.01672972  0.50952564  1
  O  O366  1  0.66463770  0.46984156  -0.07397782  1
  O  O367  1  0.60196001  0.51032758  0.51046359  1
  O  O368  1  0.39979580  0.39413474  0.13861862  1
  O  O369  1  0.36605436  0.37899290  0.62913484  1
  O  O370  1  0.38987059  0.85946107  0.11570541  1
  O  O371  1  0.35530519  0.88813489  0.62488351  1
  O  O372  1  0.86302654  0.32344177  0.10055255  1
  O  O373  1  0.87510500  0.35288634  0.63873421  1
  O  O374  1  0.85407691  0.89790866  0.11800007  1
  O  O375  1  0.86354311  0.87469206  0.62331635  1
  O  O376  1  0.14698977  0.13901557  0.36604267  1
  O  O377  1  0.15320306  0.16724348  0.79084354  1
  O  O378  1  0.11204058  0.64491904  0.37750423  1
  O  O379  1  0.14326173  0.63637542  0.87554750  1
  O  O380  1  0.61859623  0.13832638  0.40171796  1
  O  O381  1  0.58339949  0.12276062  0.84331905  1
  O  O382  1  0.64190285  0.61311054  0.39907968  1
  O  O383  1  0.65452237  0.61713763  0.87457837  1
