# generated using pymatgen
data_VZnO4
_symmetry_space_group_name_H-M   'P 1'
_cell_length_a   16.88479121
_cell_length_b   16.88351819
_cell_length_c   16.94933729
_cell_angle_alpha   90.00941178
_cell_angle_beta   90.41184420
_cell_angle_gamma   89.90696840
_symmetry_Int_Tables_number   1
_chemical_formula_structural   VZnO4
_chemical_formula_sum   'V64 Zn64 O256'
_cell_volume   4831.69564642
_cell_formula_units_Z   64
loop_
 _symmetry_equiv_pos_site_id
 _symmetry_equiv_pos_as_xyz
  1  'x, y, z'
loop_
 _atom_site_type_symbol
 _atom_site_label
 _atom_site_symmetry_multiplicity
 _atom_site_fract_x
 _atom_site_fract_y
 _atom_site_fract_z
 _atom_site_occupancy
  V  V0  1  0.50650592  -0.00815758  -0.01419488  1
  V  V1  1  0.08850126  0.89168533  0.25052162  1
  V  V2  1  0.63019533  0.51077411  0.63576689  1
  V  V3  1  0.39352494  0.86989862  0.47853756  1
  V  V4  1  0.62731398  0.13628515  -0.01820046  1
  V  V5  1  0.13733581  0.38273745  0.24675562  1
  V  V6  1  -0.00546554  0.89173707  0.88354040  1
  V  V7  1  0.74059452  0.62370800  0.89065263  1
  V  V8  1  0.62285408  0.51284297  0.10583026  1
  V  V9  1  0.74564163  0.86262757  0.13796785  1
  V  V10  1  0.48907950  0.11458834  0.60853916  1
  V  V11  1  0.12241769  0.52616398  0.12156073  1
  V  V12  1  0.75197321  0.38692676  0.60672684  1
  V  V13  1  0.75119965  0.00676614  0.76897240  1
  V  V14  1  0.37261121  0.75463389  0.63127068  1
  V  V15  1  0.86919186  0.76160423  0.61978863  1
  V  V16  1  0.61603053  0.74944391  0.88090570  1
  V  V17  1  0.00046092  0.37894716  0.37116680  1
  V  V18  1  0.51150710  0.48959050  0.49064893  1
  V  V19  1  0.23732201  0.77546278  0.50591812  1
  V  V20  1  0.23751520  0.21959832  0.51506600  1
  V  V21  1  -0.00643125  0.24358771  0.24166376  1
  V  V22  1  0.14654035  0.08342037  0.02175861  1
  V  V23  1  -0.00391203  0.75297588  0.76300427  1
  V  V24  1  0.87859891  0.00347595  0.36151823  1
  V  V25  1  0.60387240  0.87950582  0.25591049  1
  V  V26  1  0.62918049  0.26840683  0.36045061  1
  V  V27  1  0.51108173  0.36729719  0.86726286  1
  V  V28  1  0.10966070  0.27190920  0.90007784  1
  V  V29  1  0.61031903  0.75012934  0.37035985  1
  V  V30  1  -0.00091358  0.00001188  0.51492263  1
  V  V31  1  -0.00667937  0.62154377  0.62689560  1
  V  V32  1  0.90241015  0.74904167  0.12241091  1
  V  V33  1  0.25741255  0.37391762  0.11392735  1
  V  V34  1  0.38540051  0.13672631  0.75366777  1
  V  V35  1  0.37846280  0.13095791  0.25179799  1
  V  V36  1  0.12822626  0.62127780  0.50861153  1
  V  V37  1  0.76443473  0.37952072  0.10299899  1
  V  V38  1  0.88210953  0.26114517  0.66278510  1
  V  V39  1  0.37452937  0.75138325  0.12448682  1
  V  V40  1  0.88024204  0.50062897  0.37192905  1
  V  V41  1  0.73904798  0.89268021  0.62118936  1
  V  V42  1  0.38215780  -0.02716372  0.87444617  1
  V  V43  1  0.49153546  0.62523863  0.63146643  1
  V  V44  1  0.86014783  0.87680822  -0.00498226  1
  V  V45  1  0.75228288  0.12448547  0.34319787  1
  V  V46  1  0.76373676  0.24285545  0.49627320  1
  V  V47  1  0.75286726  0.63335252  0.36952029  1
  V  V48  1  0.35930450  0.37531548  0.50539469  1
  V  V49  1  0.10262426  0.75397457  0.36896383  1
  V  V50  1  0.74896395  0.75143298  0.49512741  1
  V  V51  1  0.25885445  -0.00421611  0.74389749  1
  V  V52  1  0.85300216  0.62454933  0.75067621  1
  V  V53  1  0.74527716  0.49564223  0.24530513  1
  V  V54  1  0.62429697  0.00902059  0.12705408  1
  V  V55  1  -0.00566561  0.49222405  0.50928555  1
  V  V56  1  0.61053196  0.87266766  0.75242997  1
  V  V57  1  0.87805833  0.23680728  0.10830118  1
  V  V58  1  0.12698689  0.23843670  0.37870973  1
  V  V59  1  0.12970789  0.87756403  0.75108480  1
  V  V60  1  0.89919178  0.62985567  0.24672476  1
  V  V61  1  0.38375526  0.35924439  -0.00330437  1
  V  V62  1  -0.04120321  0.48717441  -0.04099220  1
  V  V63  1  0.49165959  0.51647384  -0.01018342  1
  Zn  Zn64  1  0.18420615  0.19500955  0.18382464  1
  Zn  Zn65  1  0.20069703  0.18486698  0.70357392  1
  Zn  Zn66  1  0.16090260  0.73468633  0.16762965  1
  Zn  Zn67  1  0.17584924  0.70498902  0.67820061  1
  Zn  Zn68  1  0.69098754  0.20175490  0.17312560  1
  Zn  Zn69  1  0.72977815  0.14375222  0.63836157  1
  Zn  Zn70  1  0.68672436  0.68977007  0.19411232  1
  Zn  Zn71  1  0.67536939  0.69574963  0.68315829  1
  Zn  Zn72  1  0.31068955  0.31575866  0.32831866  1
  Zn  Zn73  1  0.31527177  0.31356989  0.82171200  1
  Zn  Zn74  1  0.31793984  0.74829542  0.33155879  1
  Zn  Zn75  1  0.31774078  0.80080371  0.81727845  1
  Zn  Zn76  1  0.81380456  0.31201053  0.30758405  1
  Zn  Zn77  1  0.89705402  0.28672989  0.88297628  1
  Zn  Zn78  1  0.83547559  0.81448719  0.30943466  1
  Zn  Zn79  1  0.80048438  0.81120653  0.81183075  1
  Zn  Zn80  1  0.18447300  0.44549818  0.43433317  1
  Zn  Zn81  1  0.17820860  0.43795474  0.95084245  1
  Zn  Zn82  1  0.13338496  0.92961098  0.44971089  1
  Zn  Zn83  1  0.18397534  0.93990125  0.91677022  1
  Zn  Zn84  1  0.68919291  0.44343613  0.43709175  1
  Zn  Zn85  1  0.72429187  0.41276039  0.89497538  1
  Zn  Zn86  1  0.72864841  0.91885128  0.41149461  1
  Zn  Zn87  1  0.68336603  0.93456150  0.93640141  1
  Zn  Zn88  1  0.32773864  0.05876479  0.05784609  1
  Zn  Zn89  1  0.31818512  0.04435390  0.56166368  1
  Zn  Zn90  1  0.30367503  0.55562184  0.06095928  1
  Zn  Zn91  1  0.32466583  0.55461708  0.55971741  1
  Zn  Zn92  1  0.79929317  0.05731144  0.05928393  1
  Zn  Zn93  1  0.86914315  0.09641964  0.55076735  1
  Zn  Zn94  1  0.81434881  0.57400854  0.06626218  1
  Zn  Zn95  1  0.81369756  0.56836625  0.55935067  1
  Zn  Zn96  1  0.43233229  0.45225896  0.16595225  1
  Zn  Zn97  1  0.46570123  0.40484628  0.66380820  1
  Zn  Zn98  1  0.43348132  0.95274351  0.18035081  1
  Zn  Zn99  1  0.44153029  0.94072873  0.67110719  1
  Zn  Zn100  1  0.94583300  0.44378035  0.18150765  1
  Zn  Zn101  1  0.86689196  0.42364532  0.77966015  1
  Zn  Zn102  1  0.91997846  0.95667876  0.17116639  1
  Zn  Zn103  1  0.93080871  0.94544654  0.69351545  1
  Zn  Zn104  1  0.05482572  0.06284863  0.31134442  1
  Zn  Zn105  1  0.07621151  0.06854747  0.82509884  1
  Zn  Zn106  1  0.09007351  0.56103866  0.32368194  1
  Zn  Zn107  1  0.01769307  0.56215532  0.83076991  1
  Zn  Zn108  1  0.58032791  0.08382362  0.29814036  1
  Zn  Zn109  1  0.56895392  0.06623149  0.80037573  1
  Zn  Zn110  1  0.56996083  0.55807919  0.31591387  1
  Zn  Zn111  1  0.56154624  0.56078826  0.81487852  1
  Zn  Zn112  1  0.43456906  0.22420811  0.43741563  1
  Zn  Zn113  1  0.45114967  0.17928476  0.93395430  1
  Zn  Zn114  1  0.43417552  0.67153756  0.44935913  1
  Zn  Zn115  1  0.45360322  0.71961800  0.94481895  1
  Zn  Zn116  1  0.93645116  0.18849250  0.42561400  1
  Zn  Zn117  1  0.98484432  0.15941273  0.96997959  1
  Zn  Zn118  1  0.93597647  0.68685102  0.44137051  1
  Zn  Zn119  1  0.92899629  0.68192050  0.94114003  1
  Zn  Zn120  1  0.05528782  0.32853654  0.06619238  1
  Zn  Zn121  1  0.04703185  0.19732590  0.57131547  1
  Zn  Zn122  1  0.07510663  0.90584874  0.07278913  1
  Zn  Zn123  1  0.05360458  0.81719094  0.57100559  1
  Zn  Zn124  1  0.60219828  0.34371521  0.01809843  1
  Zn  Zn125  1  0.58464226  0.31244252  0.55181452  1
  Zn  Zn126  1  0.56361891  0.81046237  0.06630706  1
  Zn  Zn127  1  0.56419202  0.80977646  0.55838336  1
  O  O128  1  0.13390106  0.12186623  0.11451972  1
  O  O129  1  0.09196888  0.14163294  0.67270958  1
  O  O130  1  0.13991774  0.62343033  0.14141120  1
  O  O131  1  0.10153136  0.63198566  0.62076651  1
  O  O132  1  0.63126289  0.10951103  0.13149440  1
  O  O133  1  0.60008216  0.15208233  0.61332260  1
  O  O134  1  0.63648807  0.61087577  0.12951257  1
  O  O135  1  0.61456556  0.61724755  0.62279635  1
  O  O136  1  0.38902171  0.34027076  0.40696865  1
  O  O137  1  0.38327720  0.37638839  0.89110931  1
  O  O138  1  0.36849283  0.84219457  0.38268393  1
  O  O139  1  0.38282820  0.87213654  0.87925203  1
  O  O140  1  0.88645630  0.39150067  0.36116516  1
  O  O141  1  0.81618573  0.35876679  0.85395001  1
  O  O142  1  0.84511095  0.90134560  0.37846416  1
  O  O143  1  0.87984449  0.86580136  0.88837384  1
  O  O144  1  0.26467299  -0.04499252  0.34315280  1
  O  O145  1  0.27420873  -0.01362639  0.86846559  1
  O  O146  1  0.19600426  0.52769576  0.36075458  1
  O  O147  1  0.18845654  0.51635414  0.85243441  1
  O  O148  1  0.75079138  0.02292987  0.37305180  1
  O  O149  1  0.74913013  -0.00061456  0.86938578  1
  O  O150  1  0.75969310  0.51112018  0.36324285  1
  O  O151  1  0.73955968  0.52384945  0.86909252  1
  O  O152  1  0.24220208  0.48607593  0.12968100  1
  O  O153  1  0.27922639  0.47070864  0.64715242  1
  O  O154  1  0.33049100  0.98405295  0.13971426  1
  O  O155  1  0.26012277  0.98094531  0.64641966  1
  O  O156  1  0.75259646  0.50011092  0.13290686  1
  O  O157  1  0.74187718  0.49951990  0.61592375  1
  O  O158  1  0.73140450  0.97730212  0.11540119  1
  O  O159  1  0.74061721  0.99005105  0.61757459  1
  O  O160  1  0.00989980  0.37285433  0.25577541  1
  O  O161  1  0.08193775  0.39870845  0.72288257  1
  O  O162  1  -0.01074212  0.88633260  0.23684210  1
  O  O163  1  -0.00625913  0.86617464  0.76082060  1
  O  O164  1  0.49076871  0.37247599  0.24770488  1
  O  O165  1  0.50185473  0.38467463  0.76764703  1
  O  O166  1  0.50515757  0.88884040  0.25453957  1
  O  O167  1  0.51205965  0.87987062  0.74038164  1
  O  O168  1  0.48355891  0.13810001  0.25303244  1
  O  O169  1  0.49071108  0.12360968  0.73466348  1
  O  O170  1  0.46406895  0.58572015  0.25840652  1
  O  O171  1  0.49668171  0.61314989  0.73082084  1
  O  O172  1  1.00267323  0.14522955  0.24637051  1
  O  O173  1  1.03809381  0.13227881  0.73259015  1
  O  O174  1  0.99552753  0.61672831  0.26062326  1
  O  O175  1  0.98864799  0.63790477  0.74740088  1
  O  O176  1  0.38729201  0.25971226  -0.00013740  1
  O  O177  1  0.33663797  0.24783359  0.50585179  1
  O  O178  1  0.37669944  0.75762825  0.01738752  1
  O  O179  1  0.35109061  0.75964449  0.50610204  1
  O  O180  1  0.89939441  0.24019113  0.00671314  1
  O  O181  1  0.86293103  0.26072476  0.48224596  1
  O  O182  1  0.88342601  0.75555332  0.01594441  1
  O  O183  1  0.86742873  0.75054160  0.51331514  1
  O  O184  1  0.12019428  0.23749453  0.48637506  1
  O  O185  1  0.12217168  0.26138727  1.00064879  1
  O  O186  1  0.13150231  0.74128411  0.52294719  1
  O  O187  1  0.14612496  0.73741783  1.02768717  1
  O  O188  1  0.65806773  0.26628251  0.47943590  1
  O  O189  1  0.61328405  0.23173458  1.01583646  1
  O  O190  1  0.63837450  0.75445906  0.48012489  1
  O  O191  1  0.61399449  0.75466070  0.98199057  1
  O  O192  1  0.51806890  0.32116782  0.20199221  1
  O  O193  1  0.55319039  0.22118139  0.62484358  1
  O  O194  1  0.48201461  0.73638230  0.11435998  1
  O  O195  1  0.49142837  0.73238150  0.61224812  1
  O  O196  1  0.98969643  0.25857096  0.13272500  1
  O  O197  1  0.97120746  0.27286520  0.61813552  1
  O  O198  1  0.99784818  0.75464448  0.12495588  1
  O  O199  1  0.98230447  0.74781271  0.63291698  1
  O  O200  1  0.00485608  0.25966708  0.36224473  1
  O  O201  1  0.00611476  0.24749739  0.88764947  1
  O  O202  1  0.00547564  0.76339067  0.39674479  1
  O  O203  1  -0.01032513  0.75061444  0.86327962  1
  O  O204  1  0.53199575  0.25065505  0.38278756  1
  O  O205  1  0.49773122  0.26773349  0.87564908  1
  O  O206  1  0.51433431  0.73794173  0.38164737  1
  O  O207  1  0.51407395  0.74068177  0.85752252  1
  O  O208  1  0.24502227  0.11995114  0.51424228  1
  O  O209  1  0.24333295  0.10456786  1.00118635  1
  O  O210  1  0.22790622  0.60838164  0.52182984  1
  O  O211  1  0.25563606  0.61848743  0.96615866  1
  O  O212  1  0.75766293  0.14146747  0.51926382  1
  O  O213  1  0.72809753  0.12134792  1.00055826  1
  O  O214  1  0.75860263  0.63589584  0.48033823  1
  O  O215  1  0.75150638  0.63049245  0.98958767  1
  O  O216  1  0.26564096  0.37992504  0.00555513  1
  O  O217  1  0.25732827  0.39033424  0.50011438  1
  O  O218  1  0.18189336  0.78847159  -0.01110197  1
  O  O219  1  0.22407882  0.87425312  0.50622355  1
  O  O220  1  0.75901934  0.37971620  0.00496348  1
  O  O221  1  0.76727503  0.38558670  0.50635151  1
  O  O222  1  0.75790066  0.86707476  0.00231174  1
  O  O223  1  0.74298694  0.86556640  0.51382575  1
  O  O224  1  0.12243401  0.48635541  0.23949814  1
  O  O225  1  0.18693445  0.54491283  0.71176301  1
  O  O226  1  0.11158562  0.98936582  0.24657700  1
  O  O227  1  0.14664497  0.98960843  0.76888647  1
  O  O228  1  0.64257175  0.50461072  0.24439704  1
  O  O229  1  0.62916635  0.50377338  0.73459263  1
  O  O230  1  0.62158596  0.99036052  0.23882555  1
  O  O231  1  0.63364096  0.98019886  0.75621932  1
  O  O232  1  0.38553272  0.02770967  0.26574086  1
  O  O233  1  0.37175914  -0.01688089  0.75908591  1
  O  O234  1  0.40997290  0.53221123  0.25099610  1
  O  O235  1  0.31278791  0.44732052  0.71418717  1
  O  O236  1  0.87388244  0.00647609  0.26002301  1
  O  O237  1  0.85073943  0.00231178  0.74624375  1
  O  O238  1  0.87250634  0.51562291  0.25280390  1
  O  O239  1  0.87288839  0.52756843  0.73730062  1
  O  O240  1  0.11588175  0.37009608  0.36480273  1
  O  O241  1  0.11707092  0.37059260  0.88218109  1
  O  O242  1  0.12090666  0.86596205  0.35304681  1
  O  O243  1  0.10309558  0.87339996  0.86660415  1
  O  O244  1  0.64357025  0.37056921  0.36523611  1
  O  O245  1  0.61365633  0.37503400  0.89857544  1
  O  O246  1  0.63195575  0.86717929  0.36150228  1
  O  O247  1  0.62792977  0.86230092  0.86279139  1
  O  O248  1  0.38369829  0.13032189  0.14677681  1
  O  O249  1  0.38065693  0.11140905  0.64037563  1
  O  O250  1  0.35191904  0.64983928  0.11545813  1
  O  O251  1  0.38178366  0.63432049  0.62067667  1
  O  O252  1  0.86560453  0.13845880  0.11820025  1
  O  O253  1  0.85505460  0.15983180  0.64569460  1
  O  O254  1  0.88269242  0.63774720  0.13561142  1
  O  O255  1  0.87693410  0.63912653  0.63105244  1
  O  O256  1  0.24494023  0.27441828  0.12836321  1
  O  O257  1  0.21591284  0.24455019  0.61214438  1
  O  O258  1  0.27479333  0.77894349  0.11959976  1
  O  O259  1  0.26046776  0.74793563  0.61770326  1
  O  O260  1  0.76999396  0.26846915  0.12132409  1
  O  O261  1  0.75874867  0.27064643  0.60720710  1
  O  O262  1  0.74701228  0.76076791  0.12528522  1
  O  O263  1  0.75696383  0.74812090  0.61335604  1
  O  O264  1  0.22979160  0.25524660  0.38975105  1
  O  O265  1  0.22254850  0.24631401  0.86734428  1
  O  O266  1  0.21996253  0.75353816  0.40381572  1
  O  O267  1  0.26271746  0.70906854  0.86798634  1
  O  O268  1  0.75535784  0.23955451  0.37495351  1
  O  O269  1  0.84435665  0.15389338  0.86723043  1
  O  O270  1  0.75885622  0.74809094  0.37905112  1
  O  O271  1  0.73382966  0.73833509  0.86834245  1
  O  O272  1  0.01342855  0.05404747  0.04321135  1
  O  O273  1  -0.02113368  0.12648365  0.51229394  1
  O  O274  1  -0.00299895  0.58809228  -0.05172281  1
  O  O275  1  -0.00116811  0.61888777  0.51231953  1
  O  O276  1  0.51376303  0.10644866  -0.00168713  1
  O  O277  1  0.46752001  0.14197734  0.51390082  1
  O  O278  1  0.48362601  0.61545654  -0.01729939  1
  O  O279  1  0.49250426  0.60056243  0.51504337  1
  O  O280  1  0.50619105  0.38457288  0.51121447  1
  O  O281  1  0.49095874  0.38371149  0.99705185  1
  O  O282  1  0.49434311  0.86430080  0.48681734  1
  O  O283  1  0.51368106  0.89140275  0.99954821  1
  O  O284  1  1.00011707  0.39186038  0.48614756  1
  O  O285  1  1.00144135  0.40640348  1.00411906  1
  O  O286  1  1.02217341  0.89577516  0.49832801  1
  O  O287  1  0.99643005  0.87786699  0.98699794  1
  O  O288  1  0.51414051  0.49644142  0.39066547  1
  O  O289  1  0.50192255  0.49167362  0.88669871  1
  O  O290  1  0.51646981  1.01997404  0.38835099  1
  O  O291  1  0.49650645  0.99431335  0.87704172  1
  O  O292  1  0.99656671  0.49755417  0.37900882  1
  O  O293  1  0.95947137  0.46317816  0.85504437  1
  O  O294  1  0.98198437  1.00410554  0.37504125  1
  O  O295  1  0.99426867  0.98958924  0.86472165  1
  O  O296  1  0.00900617  0.00538877  0.10816740  1
  O  O297  1  -0.00867685  0.00035369  0.61677016  1
  O  O298  1  0.01937428  0.51181814  0.12744532  1
  O  O299  1  -0.01574023  0.50797808  0.61153510  1
  O  O300  1  0.51769099  -0.00569064  0.11368261  1
  O  O301  1  0.50541849  0.01425999  0.60957574  1
  O  O302  1  0.51661808  0.50179433  0.11227894  1
  O  O303  1  0.51549005  0.50189238  0.62160997  1
  O  O304  1  0.24094442  0.37299336  0.25456194  1
  O  O305  1  0.26306490  0.39812595  0.75543631  1
  O  O306  1  0.25924199  0.92240485  0.27867654  1
  O  O307  1  0.23309329  0.86507019  0.76497261  1
  O  O308  1  0.76107677  0.39531615  0.24381195  1
  O  O309  1  0.68641995  0.28007041  0.78091545  1
  O  O310  1  0.75358272  0.87142442  0.23746910  1
  O  O311  1  0.74436040  0.88514245  0.73636188  1
  O  O312  1  0.27336336  0.12382523  0.24260799  1
  O  O313  1  0.26797936  0.10159492  0.74808910  1
  O  O314  1  0.24890382  0.71601952  0.24513937  1
  O  O315  1  0.22823835  0.60424974  0.72971602  1
  O  O316  1  0.75474848  0.12835239  0.24465378  1
  O  O317  1  0.72195362  0.10285473  0.74222334  1
  O  O318  1  0.76286896  0.62070347  0.25667790  1
  O  O319  1  0.75383950  0.63163686  0.73895449  1
  O  O320  1  0.37706996  0.14041211  0.35698301  1
  O  O321  1  0.38891845  0.11274429  0.85520829  1
  O  O322  1  0.36032402  0.65243238  0.37076710  1
  O  O323  1  0.30274600  0.65548962  0.91445294  1
  O  O324  1  0.86080141  0.11852915  0.37292426  1
  O  O325  1  0.88675284  0.10328008  0.90185484  1
  O  O326  1  0.87465071  0.62323464  0.36195474  1
  O  O327  1  0.85376361  0.63857613  0.85795368  1
  O  O328  1  0.13471401  0.37955240  0.13725082  1
  O  O329  1  0.12035028  0.39498629  0.66192896  1
  O  O330  1  0.12956250  0.85101663  0.16017704  1
  O  O331  1  0.11341289  0.87820175  0.65307580  1
  O  O332  1  0.65033951  0.39734812  0.11220047  1
  O  O333  1  0.64740890  0.38598311  0.62762695  1
  O  O334  1  0.62871762  0.87080379  0.14191976  1
  O  O335  1  0.63477205  0.86548401  0.63279361  1
  O  O336  1  0.11618880  0.26249869  0.25466324  1
  O  O337  1  0.16222858  0.22578125  0.80771744  1
  O  O338  1  0.09827014  0.73846802  0.27160898  1
  O  O339  1  0.10432893  0.75812040  0.75088809  1
  O  O340  1  0.64007884  0.25547620  0.25778606  1
  O  O341  1  0.62481724  0.24976543  0.75802324  1
  O  O342  1  0.62015408  0.76413661  0.25912899  1
  O  O343  1  0.62554057  0.76577362  0.75316510  1
  O  O344  1  0.36737066  0.23690183  0.25275994  1
  O  O345  1  0.36423961  0.23520984  0.75332826  1
  O  O346  1  0.38884063  0.74312368  0.22673984  1
  O  O347  1  0.37291158  0.75450741  0.73033455  1
  O  O348  1  0.88882861  0.25752203  0.23801460  1
  O  O349  1  0.90225928  0.26246041  0.75950738  1
  O  O350  1  0.88347897  0.73884353  0.24046402  1
  O  O351  1  0.87764412  0.74725099  0.73917922  1
  O  O352  1  0.38908202  0.48109806  0.50114353  1
  O  O353  1  0.38962185  0.49359275  1.01266062  1
  O  O354  1  0.36413399  0.96689827  0.49319900  1
  O  O355  1  0.39319966  1.00245050  0.98142561  1
  O  O356  1  0.88540299  0.51276343  0.48288173  1
  O  O357  1  0.86713520  0.50080659  0.99538859  1
  O  O358  1  0.88937260  1.00268606  0.48919516  1
  O  O359  1  0.86963861  0.97592589  1.01479756  1
  O  O360  1  0.15294304  -0.02531244  0.01942071  1
  O  O361  1  0.09614177  0.02985977  0.48556692  1
  O  O362  1  0.13782635  0.51609836  0.01988800  1
  O  O363  1  0.10363540  0.51312850  0.50209346  1
  O  O364  1  0.62033815  0.00697748  0.00468141  1
  O  O365  1  0.55737561  0.00785683  0.44851370  1
  O  O366  1  0.61210572  0.51317432  0.00466546  1
  O  O367  1  0.61861811  0.49773594  0.51036237  1
  O  O368  1  0.36604781  0.37652486  0.11781573  1
  O  O369  1  0.38737930  0.35290205  0.60367871  1
  O  O370  1  0.39664589  0.85435534  0.13161395  1
  O  O371  1  0.38960596  0.85674701  0.60843817  1
  O  O372  1  0.86787755  0.38136029  0.12340178  1
  O  O373  1  0.83900942  0.37530931  0.66842374  1
  O  O374  1  0.86507925  0.86182239  0.11864864  1
  O  O375  1  0.85852276  0.86489284  0.63087159  1
  O  O376  1  0.12489280  0.14150822  0.35688442  1
  O  O377  1  0.09123356  0.11690558  0.93143659  1
  O  O378  1  0.10904914  0.64560739  0.40501457  1
  O  O379  1  0.13918463  0.57403766  0.85567521  1
  O  O380  1  0.64787082  0.14089717  0.36757387  1
  O  O381  1  0.61733819  0.13302224  0.88120467  1
  O  O382  1  0.63915430  0.64287513  0.35727640  1
  O  O383  1  0.63169716  0.63638553  0.86771859  1
