# generated using pymatgen
data_VZnO4
_symmetry_space_group_name_H-M   'P 1'
_cell_length_a   17.04516333
_cell_length_b   17.01111186
_cell_length_c   17.00508799
_cell_angle_alpha   89.89944927
_cell_angle_beta   89.92025083
_cell_angle_gamma   89.58097895
_symmetry_Int_Tables_number   1
_chemical_formula_structural   VZnO4
_chemical_formula_sum   'V64 Zn64 O256'
_cell_volume   4930.60322089
_cell_formula_units_Z   64
loop_
 _symmetry_equiv_pos_site_id
 _symmetry_equiv_pos_as_xyz
  1  'x, y, z'
loop_
 _atom_site_type_symbol
 _atom_site_label
 _atom_site_symmetry_multiplicity
 _atom_site_fract_x
 _atom_site_fract_y
 _atom_site_fract_z
 _atom_site_occupancy
  V  V0  1  0.88384709  0.88904813  0.00072145  1
  V  V1  1  0.50050350  0.13508968  0.61796315  1
  V  V2  1  0.60409438  0.87871088  0.24794085  1
  V  V3  1  0.12261105  0.74819881  0.38738650  1
  V  V4  1  0.62847645  0.74924140  0.89284597  1
  V  V5  1  0.72206483  0.75738677  0.47037012  1
  V  V6  1  0.86752917  0.86443363  0.49982639  1
  V  V7  1  0.75121687  0.38394555  0.63008411  1
  V  V8  1  0.24945002  0.14055724  0.36197717  1
  V  V9  1  0.49663118  0.49097402  -0.00120990  1
  V  V10  1  0.37422074  0.61277509  0.78393894  1
  V  V11  1  0.39482392  0.75248154  0.61744580  1
  V  V12  1  0.39356901  0.14826280  0.25000281  1
  V  V13  1  0.39349442  0.40378013  0.49847392  1
  V  V14  1  0.62520072  0.00068023  0.64093236  1
  V  V15  1  0.62621193  0.12449206  0.49781873  1
  V  V16  1  -0.00844685  0.48742608  0.00989320  1
  V  V17  1  0.32402335  0.33493210  0.01476415  1
  V  V18  1  0.62141420  0.01104901  0.10805085  1
  V  V19  1  0.38252958  0.75113224  0.13837489  1
  V  V20  1  0.14011847  0.49070428  0.13579866  1
  V  V21  1  0.50087079  0.24714707  0.75423756  1
  V  V22  1  0.36586224  0.12225709  0.74174342  1
  V  V23  1  0.37271090  0.26192496  0.61122311  1
  V  V24  1  0.02384890  0.75209591  0.76264796  1
  V  V25  1  0.11281240  0.85985125  0.24352947  1
  V  V26  1  0.74707976  0.86329267  0.12598364  1
  V  V27  1  0.24680292  0.63199385  0.34173485  1
  V  V28  1  0.00866079  0.26774244  0.26155659  1
  V  V29  1  0.75759789  0.12085277  0.37649473  1
  V  V30  1  0.49908097  0.76770679  0.77257936  1
  V  V31  1  0.75479512  0.37203861  0.12802294  1
  V  V32  1  0.62474230  0.59880715  0.53304618  1
  V  V33  1  0.88096462  0.24317785  0.62444129  1
  V  V34  1  0.75683222  0.60954281  0.89046040  1
  V  V35  1  0.62476325  0.60913905  0.01701473  1
  V  V36  1  0.87618529  0.38700080  0.48720327  1
  V  V37  1  0.77705236  0.49742066  0.76042409  1
  V  V38  1  0.28504994  0.88562066  0.63241513  1
  V  V39  1  0.88599297  0.12658341  0.25869875  1
  V  V40  1  0.37955107  -0.00598068  0.35990764  1
  V  V41  1  0.50961286  0.38166045  0.35851463  1
  V  V42  1  0.84981437  0.62431717  0.25907638  1
  V  V43  1  0.38099140  0.02447724  0.89429427  1
  V  V44  1  0.50163572  0.14509075  0.10680642  1
  V  V45  1  0.20551036  0.20619347  -0.02817265  1
  V  V46  1  -0.00713825  0.38613703  0.85821048  1
  V  V47  1  0.64563334  0.23110003  0.86980734  1
  V  V48  1  0.00680008  0.24280464  0.73935494  1
  V  V49  1  0.49729214  -0.00991696  0.48980726  1
  V  V50  1  0.12796911  0.00328820  0.12742726  1
  V  V51  1  -0.00263326  0.12148104  0.12087896  1
  V  V52  1  0.75006982  0.25072600  0.50221110  1
  V  V53  1  0.61946568  0.38356712  0.75635342  1
  V  V54  1  0.75363500  0.00445390  0.24845426  1
  V  V55  1  0.00723172  0.61975815  0.14553643  1
  V  V56  1  0.13345851  0.15628864  0.51672227  1
  V  V57  1  0.89402015  0.75102245  0.12747644  1
  V  V58  1  0.15246118  0.38009205  0.26878367  1
  V  V59  1  0.81168399  0.74867538  0.64307539  1
  V  V60  1  0.25769016  0.87689278  0.11721435  1
  V  V61  1  -0.03540172  0.55142422  0.50358737  1
  V  V62  1  0.13299943  0.62864575  0.00045769  1
  V  V63  1  0.62077461  0.24791261  0.36070530  1
  Zn  Zn64  1  0.18580613  0.19080136  0.19286662  1
  Zn  Zn65  1  0.19531603  0.20189728  0.67932277  1
  Zn  Zn66  1  0.19978627  0.69259033  0.16915200  1
  Zn  Zn67  1  0.20283718  0.68822282  0.84114930  1
  Zn  Zn68  1  0.68837438  0.18070965  0.18315161  1
  Zn  Zn69  1  0.68747630  0.18786798  0.68438249  1
  Zn  Zn70  1  0.66421450  0.69178745  0.28147742  1
  Zn  Zn71  1  0.66841034  0.66351430  0.72138181  1
  Zn  Zn72  1  0.32695859  0.31692013  0.32532277  1
  Zn  Zn73  1  0.16028276  0.31957634  0.81278959  1
  Zn  Zn74  1  0.30394534  0.81408792  0.30109538  1
  Zn  Zn75  1  0.30466211  0.81820209  0.80590652  1
  Zn  Zn76  1  0.81819140  0.30159076  0.31795445  1
  Zn  Zn77  1  0.82227452  0.31017143  0.81484373  1
  Zn  Zn78  1  0.80681974  0.81115958  0.30537526  1
  Zn  Zn79  1  0.84367759  0.76645844  0.85171096  1
  Zn  Zn80  1  0.21480701  0.44659184  0.43237481  1
  Zn  Zn81  1  0.17482079  0.41325621  0.96651759  1
  Zn  Zn82  1  0.20445003  0.93689645  0.39645528  1
  Zn  Zn83  1  0.20547772  0.99143868  0.96341733  1
  Zn  Zn84  1  0.68207433  0.42638655  0.43899316  1
  Zn  Zn85  1  0.67873681  0.43309474  0.93438271  1
  Zn  Zn86  1  0.67520288  0.93988165  0.42599108  1
  Zn  Zn87  1  0.70073632  0.93549562  0.94042624  1
  Zn  Zn88  1  0.30305277  0.09337420  0.07880422  1
  Zn  Zn89  1  0.31207468  0.06984846  0.54706507  1
  Zn  Zn90  1  0.31704143  0.56377500  0.06849432  1
  Zn  Zn91  1  0.45916588  0.58102504  0.59713120  1
  Zn  Zn92  1  0.82735634  0.05785429  0.07529108  1
  Zn  Zn93  1  0.82109487  0.05676079  0.55838904  1
  Zn  Zn94  1  0.81731000  0.57018453  0.07301706  1
  Zn  Zn95  1  0.79617760  0.57398693  0.56385991  1
  Zn  Zn96  1  0.45653435  0.34773903  0.15579682  1
  Zn  Zn97  1  0.43160868  0.43833232  0.70292901  1
  Zn  Zn98  1  0.43538199  0.95414622  0.17114210  1
  Zn  Zn99  1  0.45791341  0.94201496  0.69635694  1
  Zn  Zn100  1  0.93341510  0.44731945  0.19661197  1
  Zn  Zn101  1  0.94278397  0.44630929  0.66954605  1
  Zn  Zn102  1  0.93821983  0.93877807  0.19447639  1
  Zn  Zn103  1  0.90009446  0.88074934  0.70931600  1
  Zn  Zn104  1  0.07691750  0.05538082  0.30696922  1
  Zn  Zn105  1  0.06659787  0.06618964  0.68285965  1
  Zn  Zn106  1  0.06735120  0.55663601  0.32666936  1
  Zn  Zn107  1  0.04693092  0.57130054  0.83113333  1
  Zn  Zn108  1  0.56448197  0.06281116  0.30602064  1
  Zn  Zn109  1  0.55456197  0.06303755  0.82277446  1
  Zn  Zn110  1  0.47532804  0.55684480  0.42235597  1
  Zn  Zn111  1  0.55243904  0.56035467  0.83090560  1
  Zn  Zn112  1  0.44097724  0.18918845  0.43318283  1
  Zn  Zn113  1  0.41528894  0.20247147  0.93092079  1
  Zn  Zn114  1  0.51651060  0.77485441  0.46331110  1
  Zn  Zn115  1  0.45279567  0.67246502  0.93953465  1
  Zn  Zn116  1  0.94767312  0.18903874  0.43869032  1
  Zn  Zn117  1  1.01478656  0.19661097  0.93700057  1
  Zn  Zn118  1  0.92424132  0.72591883  0.40958836  1
  Zn  Zn119  1  0.94365400  0.67650759  0.95686265  1
  Zn  Zn120  1  0.07369667  0.30476620  0.08022460  1
  Zn  Zn121  1  0.05758248  0.32528833  0.55202133  1
  Zn  Zn122  1  0.07308022  0.82122925  0.05303427  1
  Zn  Zn123  1  0.02766521  0.74341486  0.55359888  1
  Zn  Zn124  1  0.52819243  0.30644336  0.00576368  1
  Zn  Zn125  1  0.56069484  0.41734452  0.57123406  1
  Zn  Zn126  1  0.58497948  0.74319015  0.11280799  1
  Zn  Zn127  1  0.60661493  0.79543180  0.61872414  1
  O  O128  1  0.10668997  0.10940253  0.14937336  1
  O  O129  1  0.13744450  0.12177293  0.61669819  1
  O  O130  1  0.11646459  0.61322845  0.12935899  1
  O  O131  1  0.19800465  0.59394175  0.59202738  1
  O  O132  1  0.61419180  0.12130343  0.12374247  1
  O  O133  1  0.61691348  0.12129030  0.61307374  1
  O  O134  1  0.62714113  0.62827912  0.11527656  1
  O  O135  1  0.62454392  0.61025292  0.63099380  1
  O  O136  1  0.40213944  0.37747852  0.38511726  1
  O  O137  1  0.29047609  0.41787797  0.96183141  1
  O  O138  1  0.36620323  0.89538786  0.36146561  1
  O  O139  1  0.33407789  0.92717473  0.86527148  1
  O  O140  1  0.85624730  0.37842364  0.38974044  1
  O  O141  1  0.89713114  0.36281147  0.88164804  1
  O  O142  1  0.86864847  0.83215162  0.39652155  1
  O  O143  1  0.85588216  0.86523303  0.90683121  1
  O  O144  1  0.27487996  0.02087827  0.37565368  1
  O  O145  1  0.27430172  -0.01368273  0.86124910  1
  O  O146  1  0.25487224  0.54306622  0.39126401  1
  O  O147  1  0.18137976  0.48322666  0.78127361  1
  O  O148  1  0.73987013  0.01422641  0.36297330  1
  O  O149  1  0.75204183  -0.00158983  0.85423400  1
  O  O150  1  0.72501287  0.49836200  0.35147336  1
  O  O151  1  0.75239659  0.49442833  0.86898480  1
  O  O152  1  0.23709989  0.50023360  0.13006242  1
  O  O153  1  0.24129292  0.55749342  0.63644763  1
  O  O154  1  0.23285418  1.00384444  0.12547289  1
  O  O155  1  0.28159425  0.98511751  0.61336979  1
  O  O156  1  0.76590396  0.47563776  0.13064293  1
  O  O157  1  0.75931898  0.49356151  0.64624246  1
  O  O158  1  0.74085598  1.01710486  0.13819556  1
  O  O159  1  0.73546751  1.03137173  0.64160398  1
  O  O160  1  -0.01049556  0.36569952  0.25079913  1
  O  O161  1  -0.00403126  0.38733655  0.75578134  1
  O  O162  1  0.01128933  0.86714363  0.24250072  1
  O  O163  1  -0.00698288  0.85232872  0.76177163  1
  O  O164  1  0.49697667  0.36722211  0.26021598  1
  O  O165  1  0.51317633  0.35806266  0.74515513  1
  O  O166  1  0.50790045  0.89282601  0.23773344  1
  O  O167  1  0.50401496  0.86806176  0.77343194  1
  O  O168  1  0.49740284  0.13334844  0.24571689  1
  O  O169  1  0.50034004  0.13355632  0.73396386  1
  O  O170  1  0.48740078  0.56220268  0.20112714  1
  O  O171  1  0.48467323  0.63305213  0.77603974  1
  O  O172  1  0.98648675  0.11393182  0.26858297  1
  O  O173  1  1.00644888  0.14369328  0.73815955  1
  O  O174  1  1.00497801  0.61800349  0.24445469  1
  O  O175  1  0.98160824  0.64809122  0.78301159  1
  O  O176  1  0.31645168  0.22102518  -0.00831555  1
  O  O177  1  0.38190634  0.24729978  0.51170936  1
  O  O178  1  0.37207718  0.78104746  -0.02567550  1
  O  O179  1  0.42364489  0.74940212  0.52165916  1
  O  O180  1  0.82974706  0.20397790  -0.01312953  1
  O  O181  1  0.86705673  0.26217910  0.50320139  1
  O  O182  1  0.87258549  0.74282517  0.02744752  1
  O  O183  1  0.81568140  0.74710998  0.51720509  1
  O  O184  1  0.14067922  0.25575004  0.52403018  1
  O  O185  1  0.10161152  0.22994182  0.99844662  1
  O  O186  1  0.12145775  0.74590377  0.48720632  1
  O  O187  1  0.11711219  0.72774048  1.00986037  1
  O  O188  1  0.64387074  0.23750057  0.49698784  1
  O  O189  1  0.61940117  0.25670086  0.96560853  1
  O  O190  1  0.62135883  0.74951045  0.50879752  1
  O  O191  1  0.62144920  0.72439248  0.99841964  1
  O  O192  1  0.50830489  0.24602554  0.11746979  1
  O  O193  1  0.49993806  0.23856546  0.62625923  1
  O  O194  1  0.47631296  0.77019898  0.10313361  1
  O  O195  1  0.50861299  0.75825291  0.66158608  1
  O  O196  1  1.00996881  0.22853779  0.15399105  1
  O  O197  1  0.98721687  0.26849451  0.62709508  1
  O  O198  1  0.99642050  0.73440859  0.12708687  1
  O  O199  1  1.02166067  0.73312592  0.66222038  1
  O  O200  1  0.00489756  0.25001303  0.36018665  1
  O  O201  1  0.00176732  0.25872666  0.84517929  1
  O  O202  1  0.02614659  0.74707094  0.36405074  1
  O  O203  1  -0.04127563  0.73947401  0.86382266  1
  O  O204  1  0.51919563  0.25111102  0.37673186  1
  O  O205  1  0.50606426  0.23459720  0.85288521  1
  O  O206  1  0.51934961  0.72898038  0.35373922  1
  O  O207  1  0.51583225  0.75116261  0.88652312  1
  O  O208  1  0.23006271  0.12046608  0.48309609  1
  O  O209  1  0.20206670  0.10614694  0.95239902  1
  O  O210  1  0.36199448  0.65683011  0.36836916  1
  O  O211  1  0.23019463  0.61894379  1.01958997  1
  O  O212  1  0.74808251  0.12841024  0.49406157  1
  O  O213  1  0.78166735  0.15186488  1.00561154  1
  O  O214  1  0.71695534  0.63094323  0.49477940  1
  O  O215  1  0.73781640  0.60055747  0.99850981  1
  O  O216  1  0.21343162  0.31521879  0.02448224  1
  O  O217  1  0.29369285  0.38928170  0.48772355  1
  O  O218  1  0.23854939  0.89442093  0.01817730  1
  O  O219  1  0.24374395  0.88054596  0.49923165  1
  O  O220  1  0.74520876  0.37714237  0.02520987  1
  O  O221  1  0.75370517  0.36858432  0.50984125  1
  O  O222  1  0.76441332  0.88934958  0.02661604  1
  O  O223  1  0.73326145  0.86035035  0.48195647  1
  O  O224  1  0.12264523  0.48838699  0.24822209  1
  O  O225  1  0.11597644  0.51251972  0.74804842  1
  O  O226  1  0.11945233  0.97702065  0.24036739  1
  O  O227  1  -0.01542314  0.98849080  0.64478799  1
  O  O228  1  0.67312584  0.51274944  0.30092460  1
  O  O229  1  0.61668192  0.48236295  0.76351989  1
  O  O230  1  0.63371107  0.99681368  0.23981031  1
  O  O231  1  0.60544578  1.00259285  0.73751843  1
  O  O232  1  0.38926524  0.01612069  0.25976923  1
  O  O233  1  0.38947131  0.02380957  0.74249695  1
  O  O234  1  0.43145575  0.51789581  0.20726016  1
  O  O235  1  0.37210052  0.51385465  0.75929792  1
  O  O236  1  0.86298603  0.01006333  0.25170780  1
  O  O237  1  0.84231312  -0.02696537  0.76145729  1
  O  O238  1  0.87232994  0.52437338  0.24948792  1
  O  O239  1  0.87447895  0.49586380  0.75544403  1
  O  O240  1  0.13857830  0.39020162  0.36804644  1
  O  O241  1  0.09704896  0.37594908  0.88885001  1
  O  O242  1  0.13867148  0.85644699  0.35387217  1
  O  O243  1  0.10795089  0.97706343  0.82711842  1
  O  O244  1  0.62328895  0.35518833  0.37501607  1
  O  O245  1  0.63608700  0.35882611  0.85636170  1
  O  O246  1  0.62063912  0.87837045  0.34732044  1
  O  O247  1  0.64766530  0.84635134  0.89776778  1
  O  O248  1  0.39703913  0.12331719  0.14043613  1
  O  O249  1  0.38306456  0.13707831  0.62423873  1
  O  O250  1  0.37055367  0.65464999  0.11417567  1
  O  O251  1  0.39028490  0.65151582  0.64757278  1
  O  O252  1  0.88718067  0.12451114  0.14895487  1
  O  O253  1  0.88229572  0.14485559  0.60520994  1
  O  O254  1  0.88868896  0.63288777  0.13839201  1
  O  O255  1  0.84104041  0.65213326  0.63333662  1
  O  O256  1  0.22959350  0.17922815  0.09017260  1
  O  O257  1  0.27576679  0.26492457  0.63148241  1
  O  O258  1  0.26754830  0.76919285  0.11398038  1
  O  O259  1  0.29413571  0.77206592  0.61029125  1
  O  O260  1  0.74402496  0.26963385  0.12287047  1
  O  O261  1  0.76380841  0.25814540  0.62020833  1
  O  O262  1  0.74500080  0.76691681  0.12544631  1
  O  O263  1  0.70967615  0.74900518  0.64878612  1
  O  O264  1  0.26423092  0.23791930  0.37978246  1
  O  O265  1  0.21010584  0.24216033  0.87571791  1
  O  O266  1  0.24170718  0.73948849  0.36633754  1
  O  O267  1  0.26049064  0.76943807  0.89459185  1
  O  O268  1  0.74374820  0.24034060  0.38302269  1
  O  O269  1  0.74537219  0.24051875  0.85547180  1
  O  O270  1  0.72476096  0.74564630  0.36886763  1
  O  O271  1  0.73939420  0.71799057  0.87755845  1
  O  O272  1  -0.01840907  0.13209222  0.02286835  1
  O  O273  1  0.03878652  0.13817878  0.48597840  1
  O  O274  1  0.01296033  0.60778734  0.01562712  1
  O  O275  1  -0.03884231  0.65428865  0.50348904  1
  O  O276  1  0.48697386  0.14021526  0.00952062  1
  O  O277  1  0.51168331  0.12317096  0.50209995  1
  O  O278  1  0.51474391  0.60377408  0.00664128  1
  O  O279  1  0.52571010  0.62007755  0.50173814  1
  O  O280  1  0.50087172  0.37586786  0.48451873  1
  O  O281  1  0.41986442  0.31344548  0.96560872  1
  O  O282  1  0.51051426  0.89216884  0.48978387  1
  O  O283  1  0.40546160  0.84487486  0.96675431  1
  O  O284  1  0.97504447  0.37668352  0.49458020  1
  O  O285  1  1.00429031  0.38739066  1.02405441  1
  O  O286  1  0.96307769  0.83440328  0.51367791  1
  O  O287  1  0.98158184  0.86571006  1.00866159  1
  O  O288  1  0.52941585  0.48030484  0.36156544  1
  O  O289  1  0.50239914  0.47651918  0.89971994  1
  O  O290  1  0.49566888  1.00843125  0.38237972  1
  O  O291  1  0.47954251  1.00636574  0.88466258  1
  O  O292  1  1.02158439  0.52375919  0.42523951  1
  O  O293  1  0.99547636  0.48930014  0.89624593  1
  O  O294  1  1.04430310  0.99326534  0.41222789  1
  O  O295  1  0.96987377  1.00345736  0.85953953  1
  O  O296  1  -0.00132539  0.01588633  0.13510488  1
  O  O297  1  0.01739008  -0.02728975  0.57815978  1
  O  O298  1  0.00528332  0.51005092  0.12940097  1
  O  O299  1  -0.00640464  0.51505933  0.59425279  1
  O  O300  1  0.51777562  0.01214523  0.11514221  1
  O  O301  1  0.51145756  0.01036622  0.60869745  1
  O  O302  1  0.51532082  0.40526850  0.06211917  1
  O  O303  1  0.50627010  0.49009177  0.63698240  1
  O  O304  1  0.25057463  0.37389691  0.26026947  1
  O  O305  1  0.20569825  0.41437498  0.75219804  1
  O  O306  1  0.23620117  0.87531580  0.22816832  1
  O  O307  1  0.24981644  0.87645872  0.72512817  1
  O  O308  1  0.76552178  0.36408168  0.23168333  1
  O  O309  1  0.74964338  0.38572312  0.74865531  1
  O  O310  1  0.75400073  0.88903880  0.23762482  1
  O  O311  1  0.77652336  0.94928937  0.79691898  1
  O  O312  1  0.27325864  0.13831693  0.25539576  1
  O  O313  1  0.26779086  0.13096123  0.73498180  1
  O  O314  1  0.25518680  0.62197899  0.24297886  1
  O  O315  1  0.27729801  0.64459561  0.76630402  1
  O  O316  1  0.76247111  0.12477929  0.25857937  1
  O  O317  1  0.75099249  0.09080310  0.69815638  1
  O  O318  1  0.75025115  0.63054354  0.24456009  1
  O  O319  1  0.74831876  0.59990149  0.77085872  1
  O  O320  1  0.37761887  0.12614856  0.36114186  1
  O  O321  1  0.37504370  0.12649201  0.85327824  1
  O  O322  1  0.40722314  0.60185747  0.33830602  1
  O  O323  1  0.37120930  0.61892213  0.88651671  1
  O  O324  1  0.86584720  0.12791844  0.37549605  1
  O  O325  1  0.94659930  0.07182696  0.86565303  1
  O  O326  1  0.86803659  0.64385142  0.35597627  1
  O  O327  1  0.85455512  0.61757418  0.90086048  1
  O  O328  1  0.12401597  0.38781375  0.14455444  1
  O  O329  1  0.13350884  0.41682598  0.58642434  1
  O  O330  1  0.12972310  0.88253080  0.12964302  1
  O  O331  1  0.19199617  0.87379588  0.55706075  1
  O  O332  1  0.65417389  0.38802526  0.14408244  1
  O  O333  1  0.64377101  0.37142346  0.64257825  1
  O  O334  1  0.64087561  0.89707181  0.13077839  1
  O  O335  1  0.63567516  0.90511856  0.61822241  1
  O  O336  1  0.12115114  0.27376267  0.24985907  1
  O  O337  1  0.10975889  0.26421085  0.72382016  1
  O  O338  1  0.12811896  0.75966564  0.22977281  1
  O  O339  1  0.11846566  0.74943290  0.79145537  1
  O  O340  1  0.63266063  0.24049557  0.26312717  1
  O  O341  1  0.61951065  0.25131034  0.75194344  1
  O  O342  1  0.61635489  0.77564360  0.22051188  1
  O  O343  1  0.61090855  0.73917971  0.78147675  1
  O  O344  1  0.38642188  0.24797849  0.25060297  1
  O  O345  1  0.39569860  0.24274631  0.73366823  1
  O  O346  1  0.38245266  0.75781055  0.23807313  1
  O  O347  1  0.39471560  0.75449883  0.76936065  1
  O  O348  1  0.88970012  0.23349495  0.25955507  1
  O  O349  1  0.88573878  0.25420672  0.73028581  1
  O  O350  1  0.86429353  0.74121692  0.23165476  1
  O  O351  1  0.83909608  0.77515461  0.73880261  1
  O  O352  1  0.40213490  0.50506305  0.50107583  1
  O  O353  1  0.40188954  0.50707315  1.02614858  1
  O  O354  1  0.39503304  1.00971964  0.48635418  1
  O  O355  1  0.35757494  1.03723515  0.99088171  1
  O  O356  1  0.86645532  0.50122005  0.49808513  1
  O  O357  1  0.89374068  0.50313268  1.01987279  1
  O  O358  1  0.85942371  0.96611834  0.50482351  1
  O  O359  1  0.87933226  0.99014265  1.00483917  1
  O  O360  1  0.10738317  -0.00424983  0.02879368  1
  O  O361  1  0.10599522  -0.01071862  0.45556330  1
  O  O362  1  0.11710133  0.50042551  0.02435132  1
  O  O363  1  0.14036752  0.46962516  0.53320180  1
  O  O364  1  0.64214499  0.00612811  0.01118244  1
  O  O365  1  0.61821980  0.01440765  0.49531993  1
  O  O366  1  0.61885628  0.50211943  0.00483330  1
  O  O367  1  0.63423117  0.49693815  0.51349965  1
  O  O368  1  0.35303505  0.35593255  0.10881527  1
  O  O369  1  0.39590122  0.36792993  0.60916281  1
  O  O370  1  0.36118633  0.88409733  0.12450087  1
  O  O371  1  0.39248612  0.86957305  0.63835716  1
  O  O372  1  0.86021859  0.36724292  0.12444758  1
  O  O373  1  0.86474279  0.37329057  0.61262133  1
  O  O374  1  0.87100340  0.86363208  0.12639729  1
  O  O375  1  0.84651067  0.84971210  0.61150537  1
  O  O376  1  0.14926578  0.12990941  0.35059448  1
  O  O377  1  0.13439962  0.00189229  0.76247451  1
  O  O378  1  0.13896640  0.64111221  0.35799147  1
  O  O379  1  0.13263084  0.61175336  0.89675688  1
  O  O380  1  0.63448995  0.13336787  0.38091775  1
  O  O381  1  0.63161847  0.13145567  0.86355378  1
  O  O382  1  0.56293341  0.66502897  0.34370729  1
  O  O383  1  0.63355238  0.61951327  0.89310438  1
