# generated using pymatgen
data_VZnO4
_symmetry_space_group_name_H-M   'P 1'
_cell_length_a   17.19229484
_cell_length_b   17.04381885
_cell_length_c   16.93854226
_cell_angle_alpha   89.66819493
_cell_angle_beta   90.87212448
_cell_angle_gamma   89.62479089
_symmetry_Int_Tables_number   1
_chemical_formula_structural   VZnO4
_chemical_formula_sum   'V64 Zn64 O256'
_cell_volume   4962.60409334
_cell_formula_units_Z   64
loop_
 _symmetry_equiv_pos_site_id
 _symmetry_equiv_pos_as_xyz
  1  'x, y, z'
loop_
 _atom_site_type_symbol
 _atom_site_label
 _atom_site_symmetry_multiplicity
 _atom_site_fract_x
 _atom_site_fract_y
 _atom_site_fract_z
 _atom_site_occupancy
  V  V0  1  0.87347045  0.63194118  0.24472476  1
  V  V1  1  0.88573409  0.88016730  0.49187578  1
  V  V2  1  0.49952850  0.50079026  0.48930228  1
  V  V3  1  0.51646861  0.88252804  0.37916675  1
  V  V4  1  0.62233855  0.74242679  0.86047319  1
  V  V5  1  0.75089556  0.62361707  0.37021146  1
  V  V6  1  0.49939599  0.61423345  0.62331426  1
  V  V7  1  -0.02238221  0.34312591  0.87026737  1
  V  V8  1  0.63218066  0.02532411  0.62974789  1
  V  V9  1  0.49944740  0.00042843  0.51588930  1
  V  V10  1  -0.00373714  0.53801245  -0.00309925  1
  V  V11  1  0.80499585  0.45201857  0.18403255  1
  V  V12  1  0.01065585  0.62243473  0.65253069  1
  V  V13  1  0.36934309  0.87332821  0.49322452  1
  V  V14  1  0.36181462  -0.00255140  0.86851312  1
  V  V15  1  0.75249579  0.75690322  -0.00868056  1
  V  V16  1  0.00387344  0.50951924  0.50592172  1
  V  V17  1  0.36386290  0.62640870  0.75059943  1
  V  V18  1  0.84210853  0.00113272  0.82514839  1
  V  V19  1  0.76112939  0.22981048  0.00388161  1
  V  V20  1  0.37969601  0.62968236  0.25453105  1
  V  V21  1  0.12611446  0.11856332  0.49245279  1
  V  V22  1  0.64241048  0.38884978  0.74202513  1
  V  V23  1  0.35722060  0.75402534  0.61657326  1
  V  V24  1  0.49958518  0.48965242  -0.00018965  1
  V  V25  1  0.24057484  0.27140749  0.01869928  1
  V  V26  1  -0.00524702  0.10222870  0.13547166  1
  V  V27  1  0.13340756  0.38815930  0.24219661  1
  V  V28  1  0.36117698  0.39143675  0.48923733  1
  V  V29  1  0.86835415  0.24970676  0.64294846  1
  V  V30  1  0.12035219  0.87560270  0.73244729  1
  V  V31  1  0.24763251  0.39704659  0.64103836  1
  V  V32  1  0.00807610  -0.01238352  -0.02270201  1
  V  V33  1  0.24885102  -0.01370921  0.71714308  1
  V  V34  1  0.88233849  0.74682065  0.64180766  1
  V  V35  1  0.49720815  0.87661578  0.86577145  1
  V  V36  1  0.37146364  0.12625554  0.73436680  1
  V  V37  1  0.50802701  0.00805137  0.00256943  1
  V  V38  1  0.74198665  0.88790652  0.13530275  1
  V  V39  1  0.63172412  0.75378023  0.36013039  1
  V  V40  1  0.87619480  0.74836202  0.12082964  1
  V  V41  1  0.46000769  0.19820231  0.19097186  1
  V  V42  1  0.62156383  0.62286947  0.00291936  1
  V  V43  1  0.75068795  0.75139494  0.51384958  1
  V  V44  1  0.86444282  0.36753963  0.51102800  1
  V  V45  1  0.15152943  0.25282609  0.35820815  1
  V  V46  1  0.25299497  0.63520583  0.88739084  1
  V  V47  1  0.00764130  0.12115185  0.64775986  1
  V  V48  1  0.25998494  0.24454900  0.51909710  1
  V  V49  1  0.38046555  0.87003082  0.00927700  1
  V  V50  1  0.87334986  0.49967973  0.86153831  1
  V  V51  1  0.62738131  0.49346021  0.13170888  1
  V  V52  1  0.49498492  0.74663784  0.74087988  1
  V  V53  1  0.50683283  0.26280733  0.75063192  1
  V  V54  1  0.74953593  0.61852792  0.85325212  1
  V  V55  1  0.12388807  0.76439975  0.86888168  1
  V  V56  1  -0.02576100  0.25689478  0.23350120  1
  V  V57  1  0.63883971  0.38443834  0.28822107  1
  V  V58  1  0.25327565  0.76234754  0.00803306  1
  V  V59  1  0.71823662  0.12867262  0.86242547  1
  V  V60  1  -0.00965402  0.36875599  0.37483001  1
  V  V61  1  0.37328595  0.49558728  0.88132605  1
  V  V62  1  0.13906138  0.11279817  0.00113747  1
  V  V63  1  0.62927604  0.87693824  0.73411986  1
  Zn  Zn64  1  0.17328246  0.18886055  0.17461155  1
  Zn  Zn65  1  0.18586735  0.16791839  0.68524452  1
  Zn  Zn66  1  0.20750852  0.69584552  0.19205195  1
  Zn  Zn67  1  0.18238288  0.68966227  0.68706488  1
  Zn  Zn68  1  0.65673416  0.23184711  0.17856298  1
  Zn  Zn69  1  0.68168905  0.20442673  0.68739432  1
  Zn  Zn70  1  0.68999938  0.69410708  0.18265751  1
  Zn  Zn71  1  0.68811066  0.55950744  0.65877149  1
  Zn  Zn72  1  0.32004320  0.32458605  0.29101829  1
  Zn  Zn73  1  0.25562986  0.28042902  0.79989710  1
  Zn  Zn74  1  0.38068949  0.83798104  0.27802568  1
  Zn  Zn75  1  0.30975443  0.81423181  0.80816583  1
  Zn  Zn76  1  0.80697678  0.30949586  0.31769155  1
  Zn  Zn77  1  0.80678839  0.30486811  0.82132179  1
  Zn  Zn78  1  0.81226766  0.81821819  0.31137527  1
  Zn  Zn79  1  0.81150361  0.81807478  0.80802305  1
  Zn  Zn80  1  0.13218935  0.37550596  0.50755607  1
  Zn  Zn81  1  0.18606447  0.45981906  0.95948449  1
  Zn  Zn82  1  0.18105979  0.93494802  0.42984814  1
  Zn  Zn83  1  0.18796594  0.93554412  0.94496105  1
  Zn  Zn84  1  0.69870020  0.46366079  0.48366281  1
  Zn  Zn85  1  0.68464586  0.43364681  0.92280533  1
  Zn  Zn86  1  0.68231201  0.92585514  0.46939525  1
  Zn  Zn87  1  0.68218882  0.94011879  0.92406327  1
  Zn  Zn88  1  0.34151070  0.07437191  0.06365342  1
  Zn  Zn89  1  0.30881163  0.05558867  0.54981857  1
  Zn  Zn90  1  0.34337765  0.50724629  0.10007777  1
  Zn  Zn91  1  0.31326989  0.55928377  0.56977642  1
  Zn  Zn92  1  0.82046637  0.05833506  0.04516386  1
  Zn  Zn93  1  0.83869825  0.04551897  0.60931992  1
  Zn  Zn94  1  0.81189666  0.57048596  0.04454554  1
  Zn  Zn95  1  0.83545855  0.56925606  0.55799619  1
  Zn  Zn96  1  0.45554769  0.38362044  0.20622103  1
  Zn  Zn97  1  0.41310021  0.43594682  0.69382016  1
  Zn  Zn98  1  0.53305312  0.89511109  0.16998566  1
  Zn  Zn99  1  0.43357732  0.93328547  0.68157175  1
  Zn  Zn100  1  0.98553795  0.41983427  0.15211727  1
  Zn  Zn101  1  0.94368357  0.43537235  0.69098327  1
  Zn  Zn102  1  0.93597609  0.92375996  0.10090987  1
  Zn  Zn103  1  0.94417083  0.93263090  0.67806226  1
  Zn  Zn104  1  0.01093664  0.13888893  0.35895657  1
  Zn  Zn105  1  0.08554513  0.05661474  0.81737089  1
  Zn  Zn106  1  0.03922764  0.54964569  0.30818946  1
  Zn  Zn107  1  0.07297443  0.56369790  0.84242867  1
  Zn  Zn108  1  0.49117721  0.09882782  0.37108973  1
  Zn  Zn109  1  0.54883983  0.06224012  0.80158059  1
  Zn  Zn110  1  0.57107677  0.56567817  0.31425995  1
  Zn  Zn111  1  0.57076797  0.52607044  0.82085813  1
  Zn  Zn112  1  0.43941874  0.18307988  0.56490716  1
  Zn  Zn113  1  0.43197753  0.18086400  0.92014479  1
  Zn  Zn114  1  0.45107453  0.69830275  0.44487623  1
  Zn  Zn115  1  0.43811548  0.68945566  0.93752373  1
  Zn  Zn116  1  0.99802032  0.24505541  0.51853764  1
  Zn  Zn117  1  0.93116125  0.16060681  0.94183214  1
  Zn  Zn118  1  0.92329705  0.68789969  0.44115287  1
  Zn  Zn119  1  0.92839678  0.69143887  0.91183249  1
  Zn  Zn120  1  0.06587432  0.30862224  0.05228573  1
  Zn  Zn121  1  0.07809642  0.30211105  0.70315390  1
  Zn  Zn122  1  0.03945017  0.77801172  0.01553464  1
  Zn  Zn123  1  0.04978947  0.80913426  0.56749799  1
  Zn  Zn124  1  0.57117130  0.31589915  0.05742224  1
  Zn  Zn125  1  0.52960867  0.34490824  0.59419407  1
  Zn  Zn126  1  0.57189491  0.81046395  0.04476671  1
  Zn  Zn127  1  0.56198813  0.80046297  0.55965710  1
  O  O128  1  0.10027970  0.12934044  0.11173869  1
  O  O129  1  0.11295577  0.12886575  0.60203280  1
  O  O130  1  0.18122712  0.58300923  0.13173686  1
  O  O131  1  0.10695586  0.63432597  0.62555962  1
  O  O132  1  0.54374867  0.23872044  0.13824848  1
  O  O133  1  0.61647891  0.12268030  0.63660804  1
  O  O134  1  0.63762842  0.62035784  0.10644425  1
  O  O135  1  0.59574171  0.62460197  0.62952567  1
  O  O136  1  0.35896735  0.37189409  0.39127736  1
  O  O137  1  0.36404920  0.40165695  0.88238613  1
  O  O138  1  0.40254193  0.86175456  0.39228710  1
  O  O139  1  0.38503256  0.88013530  0.86795598  1
  O  O140  1  0.88715417  0.36070116  0.39081442  1
  O  O141  1  0.87831170  0.38490868  0.87663940  1
  O  O142  1  0.86957728  0.87458233  0.38981071  1
  O  O143  1  0.86438453  0.90729113  0.85686061  1
  O  O144  1  0.21457725  -0.01426646  0.32714504  1
  O  O145  1  0.26446208  -0.01221275  0.87399433  1
  O  O146  1  0.20665699  0.59571470  0.43245875  1
  O  O147  1  0.26625890  0.52614078  0.89820890  1
  O  O148  1  0.74751773  0.01174132  0.40186322  1
  O  O149  1  0.74285322  0.01413451  0.86213230  1
  O  O150  1  0.74691282  0.52783650  0.38900133  1
  O  O151  1  0.75994143  0.51222843  0.88245736  1
  O  O152  1  0.22307150  0.52739582  0.10411412  1
  O  O153  1  0.24233406  0.49765448  0.63026292  1
  O  O154  1  0.28578355  0.99783981  0.13736270  1
  O  O155  1  0.24912287  0.98534647  0.61802895  1
  O  O156  1  0.74102152  0.50139630  0.11313159  1
  O  O157  1  0.74457568  0.51466619  0.57802902  1
  O  O158  1  0.76300212  0.98148609  0.10681273  1
  O  O159  1  0.72876338  1.01690996  0.62209627  1
  O  O160  1  -0.00274956  0.36891767  0.25945768  1
  O  O161  1  0.00952178  0.37079121  0.77142307  1
  O  O162  1  0.07076456  0.78273497  0.23274728  1
  O  O163  1  0.02349777  0.88622878  0.74623599  1
  O  O164  1  0.53943005  0.38509170  0.27281721  1
  O  O165  1  0.48937300  0.36400949  0.73929732  1
  O  O166  1  0.49197466  0.88572271  0.27660737  1
  O  O167  1  0.50093868  0.86339461  0.74873216  1
  O  O168  1  0.49438996  0.14271419  0.26950741  1
  O  O169  1  0.47603031  0.13229967  0.74566802  1
  O  O170  1  0.48248859  0.61751578  0.25071645  1
  O  O171  1  0.48275803  0.63597203  0.74140554  1
  O  O172  1  0.99744904  0.14688731  0.23829324  1
  O  O173  1  1.02607419  0.12276161  0.74542624  1
  O  O174  1  0.97143281  0.61649816  0.24590911  1
  O  O175  1  1.01486600  0.61400653  0.75170234  1
  O  O176  1  0.33828976  0.24718072  -0.03535473  1
  O  O177  1  0.36069390  0.24977316  0.50188085  1
  O  O178  1  0.36957719  0.76362438  -0.00800002  1
  O  O179  1  0.37618302  0.75773671  0.50917135  1
  O  O180  1  0.85964855  0.23650533  -0.00087807  1
  O  O181  1  0.88366871  0.26396596  0.51746420  1
  O  O182  1  0.85498080  0.74084853  -0.00455419  1
  O  O183  1  0.87258443  0.76209117  0.50577706  1
  O  O184  1  0.15228344  0.25484882  0.47792657  1
  O  O185  1  0.14190265  0.23582739  1.00520556  1
  O  O186  1  0.13108963  0.78211129  0.47429840  1
  O  O187  1  0.14793933  0.76468798  0.98490279  1
  O  O188  1  0.60800634  0.23052064  0.45275162  1
  O  O189  1  0.65344813  0.28621784  0.98205074  1
  O  O190  1  0.64782413  0.74885283  0.50581150  1
  O  O191  1  0.63188727  0.74068290  0.97856074  1
  O  O192  1  0.40542301  0.27560870  0.23172808  1
  O  O193  1  0.49172914  0.24745473  0.63963566  1
  O  O194  1  0.51900290  0.78632117  0.13735575  1
  O  O195  1  0.48776307  0.73892549  0.62678369  1
  O  O196  1  0.99349446  0.26540480  0.13297361  1
  O  O197  1  1.00398291  0.23975565  0.63449754  1
  O  O198  1  0.97210781  0.75278597  0.10340130  1
  O  O199  1  0.99347028  0.73385421  0.63092908  1
  O  O200  1  -0.00061723  0.25585579  0.34919720  1
  O  O201  1  -0.03008042  0.24518436  0.87390303  1
  O  O202  1  0.02262383  0.71894001  0.36857047  1
  O  O203  1  0.02391363  0.75365295  0.89045682  1
  O  O204  1  0.60536363  0.18153108  0.39955268  1
  O  O205  1  0.47980607  0.24883901  0.84706672  1
  O  O206  1  0.52739121  0.76362096  0.39213693  1
  O  O207  1  0.50427259  0.75435075  0.86155845  1
  O  O208  1  0.23942058  0.13492146  0.50032262  1
  O  O209  1  0.23754882  0.10590072  1.02209414  1
  O  O210  1  0.24029014  0.63014655  0.48840738  1
  O  O211  1  0.26180144  0.65143686  0.98853534  1
  O  O212  1  0.76953493  0.13890758  0.47827122  1
  O  O213  1  0.74952807  0.12287763  0.97983927  1
  O  O214  1  0.77669679  0.64832734  0.47724007  1
  O  O215  1  0.73546646  0.63684053  0.98370437  1
  O  O216  1  0.23079222  0.37178923  0.01191345  1
  O  O217  1  0.25441530  0.36185200  0.50992526  1
  O  O218  1  0.26986701  0.87065009  -0.00385475  1
  O  O219  1  0.27327766  0.88583654  0.47554933  1
  O  O220  1  0.71820255  0.34198973  -0.00931204  1
  O  O221  1  0.76844518  0.37040681  0.49995298  1
  O  O222  1  0.74147658  0.85609242  -0.02328958  1
  O  O223  1  0.76272051  0.85706648  0.50695285  1
  O  O224  1  0.11625407  0.48673584  0.26019456  1
  O  O225  1  0.13743210  0.47330093  0.78865879  1
  O  O226  1  0.17247601  1.03658074  0.28049528  1
  O  O227  1  0.14449190  0.98685243  0.74536472  1
  O  O228  1  0.63009303  0.50390718  0.23584618  1
  O  O229  1  0.62706215  0.49594818  0.72967377  1
  O  O230  1  0.62171989  1.05605505  0.20325643  1
  O  O231  1  0.61101240  0.98637030  0.73444765  1
  O  O232  1  0.33095798  -0.02840008  0.19583671  1
  O  O233  1  0.36298289  -0.00710659  0.75012223  1
  O  O234  1  0.37012237  0.53142086  0.28658825  1
  O  O235  1  0.37814450  0.51578089  0.77134312  1
  O  O236  1  0.89657285  0.01833335  0.31239368  1
  O  O237  1  0.85891437  -0.00160172  0.72288878  1
  O  O238  1  0.85587582  0.52230632  0.23578925  1
  O  O239  1  0.87213792  0.49332113  0.76172351  1
  O  O240  1  0.11592938  0.35791532  0.35925069  1
  O  O241  1  0.15541527  0.41842465  0.83743516  1
  O  O242  1  0.12100875  0.83118341  0.41669344  1
  O  O243  1  0.13683361  0.86653355  0.86505087  1
  O  O244  1  0.65173237  0.40462136  0.38381245  1
  O  O245  1  0.60759097  0.40642209  0.84519085  1
  O  O246  1  0.62295038  0.87022574  0.38328341  1
  O  O247  1  0.61146976  0.86498231  0.85972777  1
  O  O248  1  0.40194078  0.14350717  0.13095005  1
  O  O249  1  0.37090974  0.11389513  0.62863602  1
  O  O250  1  0.37366897  0.60831630  0.15185599  1
  O  O251  1  0.37258864  0.63779922  0.63085505  1
  O  O252  1  0.89966660  0.11839135  0.11006516  1
  O  O253  1  0.89842992  0.14187113  0.62744306  1
  O  O254  1  0.85246675  0.64212934  0.12965429  1
  O  O255  1  0.89680260  0.63509845  0.62499985  1
  O  O256  1  0.25537608  0.24346177  0.11602442  1
  O  O257  1  0.25168106  0.24272920  0.61694094  1
  O  O258  1  0.24728920  0.75569157  0.10752871  1
  O  O259  1  0.26024336  0.74651649  0.62145082  1
  O  O260  1  0.73639614  0.22398154  0.10281103  1
  O  O261  1  0.77063511  0.23894446  0.62835916  1
  O  O262  1  0.74502418  0.76060205  0.10186610  1
  O  O263  1  0.77334803  0.73344385  0.61366477  1
  O  O264  1  0.24967429  0.25435072  0.35540694  1
  O  O265  1  0.26941145  0.23592050  0.91271256  1
  O  O266  1  0.26595042  0.79461022  0.34003814  1
  O  O267  1  0.24781230  0.75013017  0.87884972  1
  O  O268  1  0.75831107  0.22162740  0.37692022  1
  O  O269  1  0.75011266  0.22995922  0.88283850  1
  O  O270  1  0.73839282  0.75471942  0.37969168  1
  O  O271  1  0.74131960  0.73776338  0.87005063  1
  O  O272  1  0.01065657  0.09903079  0.00652952  1
  O  O273  1  0.02175212  0.14014778  0.48051626  1
  O  O274  1  -0.00651163  0.63874631  -0.00632773  1
  O  O275  1  -0.00777911  0.60742059  0.48797881  1
  O  O276  1  0.48343135  0.10679937  -0.00922613  1
  O  O277  1  0.48297764  0.10382123  0.48951911  1
  O  O278  1  0.52070869  0.63255388  -0.00598418  1
  O  O279  1  0.48206380  0.61153439  0.51331719  1
  O  O280  1  0.47171728  0.39211704  0.50777323  1
  O  O281  1  0.50367961  0.39071767  1.00213257  1
  O  O282  1  0.50000162  0.88306059  0.49966411  1
  O  O283  1  0.49245393  0.87659295  0.98123730  1
  O  O284  1  1.01548418  0.35294643  0.47918546  1
  O  O285  1  1.02907575  0.36615395  0.95605536  1
  O  O286  1  0.98661067  0.87250483  0.49943955  1
  O  O287  1  1.01940039  0.89110848  1.02218544  1
  O  O288  1  0.50717488  0.51144519  0.39057036  1
  O  O289  1  0.48494592  0.51432310  0.89115000  1
  O  O290  1  0.51591514  0.98727980  0.39668785  1
  O  O291  1  0.48817035  0.98710207  0.86819494  1
  O  O292  1  0.99749537  0.47509279  0.38532614  1
  O  O293  1  0.97558379  0.51149789  0.87608301  1
  O  O294  1  0.94656400  1.03198951  0.36494091  1
  O  O295  1  1.01709249  0.98511332  0.87884734  1
  O  O296  1  -0.00128192  0.00382505  0.15514976  1
  O  O297  1  -0.00496255  0.02350491  0.62715180  1
  O  O298  1  0.00492385  0.51309010  0.09436396  1
  O  O299  1  -0.00247924  0.51509336  0.62020737  1
  O  O300  1  0.50369663  -0.01325194  0.10178902  1
  O  O301  1  0.50337838  -0.00000232  0.61926774  1
  O  O302  1  0.52494822  0.50762743  0.10579778  1
  O  O303  1  0.47666627  0.51501897  0.62982643  1
  O  O304  1  0.23108464  0.37902590  0.24337402  1
  O  O305  1  0.26911875  0.37806292  0.73848913  1
  O  O306  1  0.30042899  0.90741238  0.23176964  1
  O  O307  1  0.24626607  0.88275219  0.74282870  1
  O  O308  1  0.75535828  0.39650198  0.25564118  1
  O  O309  1  0.73890469  0.37317667  0.75724560  1
  O  O310  1  0.75065846  0.88113061  0.23521688  1
  O  O311  1  0.72532485  0.87018617  0.75137279  1
  O  O312  1  0.21691062  0.08689336  0.24297866  1
  O  O313  1  0.25852660  0.09323342  0.73666145  1
  O  O314  1  0.27524659  0.63375668  0.25907765  1
  O  O315  1  0.26140036  0.63581144  0.75709334  1
  O  O316  1  0.67415743  0.10553967  0.20964710  1
  O  O317  1  0.74024635  0.13448451  0.76443227  1
  O  O318  1  0.75351903  0.63593703  0.26050339  1
  O  O319  1  0.73470929  0.61670794  0.75625221  1
  O  O320  1  0.36195122  0.07225910  0.36588709  1
  O  O321  1  0.37287303  0.09954181  0.85615031  1
  O  O322  1  0.38937349  0.65752438  0.35588917  1
  O  O323  1  0.36510168  0.63527588  0.86713048  1
  O  O324  1  0.80503821  0.17301977  0.42245284  1
  O  O325  1  0.88514831  0.08151268  0.86816828  1
  O  O326  1  0.86353299  0.64125548  0.35327318  1
  O  O327  1  0.85532679  0.62049891  0.86249041  1
  O  O328  1  0.10038595  0.37965251  0.14130800  1
  O  O329  1  0.14778029  0.36514702  0.62723876  1
  O  O330  1  0.09305181  0.71889155  0.20203877  1
  O  O331  1  0.12637793  0.86113672  0.63338942  1
  O  O332  1  0.63039472  0.39307260  0.12873640  1
  O  O333  1  0.62655687  0.36845409  0.64059284  1
  O  O334  1  0.64051542  0.88041493  0.11525029  1
  O  O335  1  0.61836493  0.86989622  0.63405262  1
  O  O336  1  0.12525771  0.25791334  0.25201463  1
  O  O337  1  0.15620889  0.24299207  0.76207154  1
  O  O338  1  0.21127506  0.77973513  0.29103308  1
  O  O339  1  0.13239264  0.76473260  0.76018588  1
  O  O340  1  0.66234211  0.28415930  0.27673589  1
  O  O341  1  0.61021470  0.26638335  0.75483784  1
  O  O342  1  0.62985335  0.75714924  0.26071311  1
  O  O343  1  0.60948136  0.75813046  0.75236546  1
  O  O344  1  0.32742856  0.12340799  0.32499883  1
  O  O345  1  0.34743634  0.22085814  0.75097849  1
  O  O346  1  0.38172550  0.73348405  0.23351835  1
  O  O347  1  0.37895226  0.74908388  0.73573710  1
  O  O348  1  0.87705360  0.25861914  0.24199696  1
  O  O349  1  0.87597450  0.26082449  0.74197718  1
  O  O350  1  0.86911256  0.74519119  0.23105678  1
  O  O351  1  0.87295511  0.75075769  0.74219013  1
  O  O352  1  0.36468681  0.49570973  0.49046012  1
  O  O353  1  0.39483214  0.51232487  0.99948299  1
  O  O354  1  0.38896783  0.98134521  0.50828338  1
  O  O355  1  0.38387221  0.98730531  0.98271599  1
  O  O356  1  0.89955393  0.47208426  0.50792190  1
  O  O357  1  0.88823622  0.51414962  0.98456546  1
  O  O358  1  0.86413361  0.97538965  0.52200275  1
  O  O359  1  0.90644846  0.99067843  1.00460030  1
  O  O360  1  0.12034278  0.00290634  0.00490954  1
  O  O361  1  0.12931693  0.02063984  0.47866124  1
  O  O362  1  0.09496754  0.52164156  -0.04017816  1
  O  O363  1  0.10032797  0.48704435  0.50206840  1
  O  O364  1  0.60365179  -0.00370097  -0.02005987  1
  O  O365  1  0.61154567  -0.00158250  0.52226793  1
  O  O366  1  0.61982767  0.51222300  -0.00601027  1
  O  O367  1  0.59250932  0.49000663  0.51790946  1
  O  O368  1  0.36629834  0.42280311  0.16444699  1
  O  O369  1  0.35342066  0.38427630  0.61014500  1
  O  O370  1  0.39122289  0.87275288  0.10411268  1
  O  O371  1  0.37618059  0.85996817  0.61191842  1
  O  O372  1  0.87283692  0.40014230  0.13565651  1
  O  O373  1  0.88564430  0.36304005  0.62130335  1
  O  O374  1  0.85238318  0.85419636  0.11739191  1
  O  O375  1  0.88874850  0.85071180  0.62063069  1
  O  O376  1  0.12747467  0.14876472  0.37796891  1
  O  O377  1  0.13008473  0.12003733  0.90052179  1
  O  O378  1  0.07351129  0.66499830  0.36225667  1
  O  O379  1  0.14935789  0.64625425  0.86590001  1
  O  O380  1  0.71988326  0.03679496  0.33805494  1
  O  O381  1  0.61975302  0.12603240  0.86445560  1
  O  O382  1  0.63820957  0.64292231  0.36960666  1
  O  O383  1  0.63102416  0.62782094  0.87355226  1
