# generated using pymatgen
data_VZnO4
_symmetry_space_group_name_H-M   'P 1'
_cell_length_a   16.98164797
_cell_length_b   17.25471055
_cell_length_c   16.99563055
_cell_angle_alpha   90.45591448
_cell_angle_beta   89.41963151
_cell_angle_gamma   89.75836174
_symmetry_Int_Tables_number   1
_chemical_formula_structural   VZnO4
_chemical_formula_sum   'V64 Zn64 O256'
_cell_volume   4979.48871362
_cell_formula_units_Z   64
loop_
 _symmetry_equiv_pos_site_id
 _symmetry_equiv_pos_as_xyz
  1  'x, y, z'
loop_
 _atom_site_type_symbol
 _atom_site_label
 _atom_site_symmetry_multiplicity
 _atom_site_fract_x
 _atom_site_fract_y
 _atom_site_fract_z
 _atom_site_occupancy
  V  V0  1  0.24062210  -0.00088591  0.24618870  1
  V  V1  1  0.10029127  0.23898199  0.87975106  1
  V  V2  1  0.51044442  0.80427501  0.22281358  1
  V  V3  1  0.00676266  0.71538838  0.75779239  1
  V  V4  1  0.62143717  0.25816793  0.84412382  1
  V  V5  1  0.60870192  0.50458994  0.66439856  1
  V  V6  1  0.84090893  0.24731429  0.61902977  1
  V  V7  1  0.36005057  0.53804859  0.39458509  1
  V  V8  1  0.53695596  0.52123116  0.49172965  1
  V  V9  1  0.76467766  0.63600139  0.87419168  1
  V  V10  1  0.00344435  0.24785214  0.25254447  1
  V  V11  1  0.51329388  0.46348406  -0.02796891  1
  V  V12  1  0.86246833  0.88154517  0.48910550  1
  V  V13  1  0.25320264  0.63541061  0.87370325  1
  V  V14  1  -0.00000019  0.09698858  0.13444204  1
  V  V15  1  0.02001004  0.85565788  0.86468642  1
  V  V16  1  0.49863107  -0.00554033  0.50684176  1
  V  V17  1  0.88380607  0.84408712  -0.00273688  1
  V  V18  1  0.34666215  0.24462931  0.11899255  1
  V  V19  1  0.48816801  0.14114720  0.63963583  1
  V  V20  1  0.61550051  0.14428600  0.50968988  1
  V  V21  1  0.62609629  0.37538008  0.23102035  1
  V  V22  1  0.25385849  0.24138659  0.50901268  1
  V  V23  1  0.11620817  0.49059895  0.59692752  1
  V  V24  1  0.24678911  0.87580782  0.12249786  1
  V  V25  1  0.66486791  -0.00466080  0.12401280  1
  V  V26  1  0.86084977  0.11659243  0.25794613  1
  V  V27  1  0.74890560  0.12068244  0.86745493  1
  V  V28  1  0.25607134  0.48416580  0.75310030  1
  V  V29  1  0.35193356  0.13480090  0.75509578  1
  V  V30  1  0.62551061  0.79054641  0.38526150  1
  V  V31  1  0.53404535  0.11715607  0.07471051  1
  V  V32  1  0.24632660  0.11938284  0.37792765  1
  V  V33  1  0.90763338  0.62347698  0.22966104  1
  V  V34  1  0.86994411  0.25693741  0.13018438  1
  V  V35  1  0.38147057  0.88448231  -0.00143208  1
  V  V36  1  0.77657727  0.49903954  0.73975757  1
  V  V37  1  0.12571780  0.12099065  0.00611494  1
  V  V38  1  0.12267852  -0.00831856  0.64970767  1
  V  V39  1  0.74505748  0.73645434  0.51888330  1
  V  V40  1  0.75439997  0.51752111  0.24881011  1
  V  V41  1  0.89564355  0.13168189  0.74031538  1
  V  V42  1  0.27252897  0.89331375  0.61038788  1
  V  V43  1  0.74194833  0.11906576  0.39285832  1
  V  V44  1  0.49795725  0.35850408  0.39133793  1
  V  V45  1  0.25915458  0.37699009  0.60862408  1
  V  V46  1  0.51781969  0.74345653  0.73789844  1
  V  V47  1  0.10917131  0.10103982  0.50425905  1
  V  V48  1  0.52265981  0.89954514  0.86340953  1
  V  V49  1  0.38366469  0.13542024  0.25217313  1
  V  V50  1  0.84676534  0.36183291  0.49306987  1
  V  V51  1  0.63054314  0.66344690  -0.00011712  1
  V  V52  1  -0.00785145  0.38168971  0.38603916  1
  V  V53  1  0.77079198  0.84396883  0.12844862  1
  V  V54  1  0.34441375  0.01203023  0.87465843  1
  V  V55  1  0.38555209  -0.00410536  0.37764577  1
  V  V56  1  0.04150403  0.48034212  0.05600086  1
  V  V57  1  0.62950618  -0.00114888  0.63772036  1
  V  V58  1  0.00298008  0.77471406  0.23530030  1
  V  V59  1  0.11037447  0.74806742  0.38906384  1
  V  V60  1  0.11203911  0.23901398  0.38291334  1
  V  V61  1  0.87642288  0.47945895  0.90498195  1
  V  V62  1  0.61806692  0.23444352  0.34506561  1
  V  V63  1  -0.01238481  0.00074621  -0.02187274  1
  Zn  Zn64  1  0.18156919  0.18105328  0.18911072  1
  Zn  Zn65  1  0.17068022  0.17781547  0.68379648  1
  Zn  Zn66  1  0.19231049  0.71459126  0.20612983  1
  Zn  Zn67  1  0.17677549  0.62833079  0.69585855  1
  Zn  Zn68  1  0.68710101  0.17661055  0.17267101  1
  Zn  Zn69  1  0.68684973  0.17323736  0.69459619  1
  Zn  Zn70  1  0.63077447  0.65991490  0.21245236  1
  Zn  Zn71  1  0.68530758  0.67363084  0.69689768  1
  Zn  Zn72  1  0.30432945  0.30211833  0.32777042  1
  Zn  Zn73  1  0.25083756  0.28957469  0.79022108  1
  Zn  Zn74  1  0.33010651  0.81827915  0.29905348  1
  Zn  Zn75  1  0.31205592  0.80969979  0.84079245  1
  Zn  Zn76  1  0.80557802  0.30274600  0.31110031  1
  Zn  Zn77  1  0.80746319  0.31460685  0.80490690  1
  Zn  Zn78  1  0.80827145  0.80314951  0.31606727  1
  Zn  Zn79  1  0.83781479  0.80615957  0.80135325  1
  Zn  Zn80  1  0.19517813  0.42773228  0.42280067  1
  Zn  Zn81  1  0.18863686  0.49854999  0.94280569  1
  Zn  Zn82  1  0.20342868  0.92884691  0.43940013  1
  Zn  Zn83  1  0.18229346  0.94291728  0.95041794  1
  Zn  Zn84  1  0.68013599  0.42378838  0.41345697  1
  Zn  Zn85  1  0.66494142  0.46112050  0.87906000  1
  Zn  Zn86  1  0.69386274  0.94901833  0.46117160  1
  Zn  Zn87  1  0.70309770  0.93525758  0.94612005  1
  Zn  Zn88  1  0.31706341  0.06385198  0.06280839  1
  Zn  Zn89  1  0.31290918  0.06588300  0.56692956  1
  Zn  Zn90  1  0.36665491  0.56660662  -0.00678165  1
  Zn  Zn91  1  0.18026769  0.59811895  0.48008849  1
  Zn  Zn92  1  0.82035697  0.08090864  0.04835525  1
  Zn  Zn93  1  0.83573978  0.04186842  0.60042512  1
  Zn  Zn94  1  0.78652653  0.56097793  0.07017789  1
  Zn  Zn95  1  0.74739433  0.53312351  0.53241902  1
  Zn  Zn96  1  0.40462365  0.40366071  0.23466564  1
  Zn  Zn97  1  0.39097684  0.49827230  0.60354423  1
  Zn  Zn98  1  0.43067693  0.96454724  0.17699436  1
  Zn  Zn99  1  0.44284849  0.95202879  0.70145093  1
  Zn  Zn100  1  0.93078840  0.43514293  0.20056829  1
  Zn  Zn101  1  0.91083142  0.45900955  0.61495743  1
  Zn  Zn102  1  0.89670726  0.92426260  0.21388599  1
  Zn  Zn103  1  0.93471651  0.92925854  0.69793185  1
  Zn  Zn104  1  0.05577138  0.05190837  0.31793445  1
  Zn  Zn105  1  0.06181029  0.06767282  0.81370449  1
  Zn  Zn106  1  0.02509010  0.58704852  0.34782388  1
  Zn  Zn107  1  0.06426728  0.54120168  0.82055039  1
  Zn  Zn108  1  0.57630725  -0.03121340  0.30956535  1
  Zn  Zn109  1  0.56188305  0.07999817  0.82202083  1
  Zn  Zn110  1  0.53036203  0.50978189  0.28738952  1
  Zn  Zn111  1  0.54692895  0.58804300  0.84656123  1
  Zn  Zn112  1  0.43853634  0.18270258  0.43774377  1
  Zn  Zn113  1  0.43691748  0.19264700  0.93171296  1
  Zn  Zn114  1  0.47236687  0.67678655  0.34256139  1
  Zn  Zn115  1  0.43978038  0.70573735  0.94683938  1
  Zn  Zn116  1  0.92860786  0.17127553  0.44453329  1
  Zn  Zn117  1  0.89521214  0.20390186  0.93277671  1
  Zn  Zn118  1  0.91208828  0.71216406  0.41145764  1
  Zn  Zn119  1  0.92034925  0.63550303  1.00807878  1
  Zn  Zn120  1  0.01901559  0.29639562  0.03565304  1
  Zn  Zn121  1  0.07248773  0.32279150  0.53820678  1
  Zn  Zn122  1  0.03566347  0.88195344  0.11128792  1
  Zn  Zn123  1  0.08328321  0.81981883  0.57944186  1
  Zn  Zn124  1  0.50220307  0.31901304  0.08588555  1
  Zn  Zn125  1  0.56012047  0.32253598  0.58777733  1
  Zn  Zn126  1  0.58186954  0.85260133  0.04696758  1
  Zn  Zn127  1  0.56301868  0.81484472  0.57233499  1
  O  O128  1  0.10466152  0.12510858  0.12172853  1
  O  O129  1  0.12574583  0.10162788  0.61123416  1
  O  O130  1  0.14353079  0.66611186  0.06533315  1
  O  O131  1  0.14380293  0.59620571  0.59252776  1
  O  O132  1  0.64071818  0.10509044  0.09624964  1
  O  O133  1  0.60779200  0.12329918  0.61900820  1
  O  O134  1  0.62131162  0.64337082  0.09879600  1
  O  O135  1  0.61765748  0.60265988  0.63556888  1
  O  O136  1  0.39820730  0.35256783  0.37087544  1
  O  O137  1  0.43273654  0.36901309  0.81019195  1
  O  O138  1  0.37390718  0.90015130  0.37169808  1
  O  O139  1  0.36198526  0.90161994  0.88249233  1
  O  O140  1  0.88080243  0.35739086  0.38475503  1
  O  O141  1  0.85999758  0.38213767  0.88372393  1
  O  O142  1  0.87284926  0.86864055  0.38791950  1
  O  O143  1  0.90648552  0.85783964  0.89178884  1
  O  O144  1  0.26254767  0.00719498  0.37213319  1
  O  O145  1  0.24574547  0.00974198  0.87766553  1
  O  O146  1  0.26004431  0.52928351  0.41999554  1
  O  O147  1  0.25851858  0.46429734  0.85123469  1
  O  O148  1  0.73105496  0.02251720  0.37739891  1
  O  O149  1  0.74246473  0.02357746  0.88927689  1
  O  O150  1  0.75166732  0.47251935  0.34143454  1
  O  O151  1  0.77190438  0.50648565  0.85775821  1
  O  O152  1  0.27912943  0.50820148  0.15267625  1
  O  O153  1  0.24403076  0.47565001  0.59840101  1
  O  O154  1  0.25193579  1.00726732  0.14421564  1
  O  O155  1  0.24088080  0.99555300  0.61740710  1
  O  O156  1  0.75770585  0.48817946  0.14948586  1
  O  O157  1  0.72431809  0.50837793  0.64642780  1
  O  O158  1  0.76479910  1.00756742  0.11603008  1
  O  O159  1  0.72624640  1.01647825  0.61478544  1
  O  O160  1  -0.01034805  0.34853946  0.27528962  1
  O  O161  1  0.01336667  0.31788873  0.71266630  1
  O  O162  1  -0.00412355  0.87466106  0.24459467  1
  O  O163  1  0.01215489  0.87293036  0.76711352  1
  O  O164  1  0.51480449  0.38912448  0.26816360  1
  O  O165  1  0.47652583  0.35361041  0.75551999  1
  O  O166  1  0.50182178  0.90373097  0.24382553  1
  O  O167  1  0.50879123  0.88202147  0.76073953  1
  O  O168  1  0.47835782  0.13200682  0.25773264  1
  O  O169  1  0.48744231  0.12839334  0.74102482  1
  O  O170  1  0.45590642  0.60059714  0.15939010  1
  O  O171  1  0.50505299  0.64726174  0.75930543  1
  O  O172  1  0.99772581  0.12838316  0.24250680  1
  O  O173  1  0.99600666  0.13392515  0.74673822  1
  O  O174  1  1.00584544  0.61412311  0.22320153  1
  O  O175  1  1.00807747  0.61811644  0.75933614  1
  O  O176  1  0.36867064  0.23354236  0.02071728  1
  O  O177  1  0.35202512  0.23139419  0.49861117  1
  O  O178  1  0.36841729  0.78638613  -0.01468726  1
  O  O179  1  0.32899786  0.67529174  0.55194733  1
  O  O180  1  0.90725681  0.25534002  0.03139152  1
  O  O181  1  0.87139109  0.24991592  0.50890910  1
  O  O182  1  0.90054561  0.74881878  0.00553247  1
  O  O183  1  0.84800147  0.75638850  0.49102806  1
  O  O184  1  0.12195318  0.22555361  0.49629000  1
  O  O185  1  0.10215678  0.22680311  0.99897382  1
  O  O186  1  0.11973946  0.76450797  0.48772419  1
  O  O187  1  0.12722593  0.71219087  1.01365704  1
  O  O188  1  0.61732821  0.24052192  0.51530222  1
  O  O189  1  0.73397436  0.31770951  0.99617184  1
  O  O190  1  0.64090208  0.77474452  0.49360525  1
  O  O191  1  0.63286770  0.76164293  0.99517888  1
  O  O192  1  0.50764646  0.20763998  0.10940786  1
  O  O193  1  0.49353020  0.23782939  0.62671550  1
  O  O194  1  0.51303504  0.79489401  0.12402167  1
  O  O195  1  0.49489487  0.75822195  0.63948502  1
  O  O196  1  1.00070407  0.25147991  0.14973868  1
  O  O197  1  1.02551826  0.27150003  0.65812063  1
  O  O198  1  1.01511477  0.76819530  0.13654694  1
  O  O199  1  1.05849198  0.73599155  0.65871351  1
  O  O200  1  0.00244498  0.22979789  0.37055018  1
  O  O201  1  0.00178115  0.25087302  0.87864443  1
  O  O202  1  0.01085374  0.76763524  0.37645145  1
  O  O203  1  0.02410810  0.75182043  0.85890821  1
  O  O204  1  0.51220077  0.24733932  0.37795993  1
  O  O205  1  0.52424044  0.23917730  0.87534312  1
  O  O206  1  0.53048867  0.75853507  0.39282918  1
  O  O207  1  0.48123273  0.78017719  0.85764668  1
  O  O208  1  0.23873287  0.12643764  0.49419322  1
  O  O209  1  0.22352771  0.11674538  1.01524817  1
  O  O210  1  0.26608207  0.69030403  0.51047915  1
  O  O211  1  0.25807230  0.58551616  0.97439049  1
  O  O212  1  0.72868677  0.12633622  0.49471482  1
  O  O213  1  0.79230591  0.14970877  0.96629940  1
  O  O214  1  0.74297580  0.63977782  0.49767396  1
  O  O215  1  0.73995682  0.62998572  0.99374673  1
  O  O216  1  0.19066946  0.39395695  0.18511936  1
  O  O217  1  0.24033047  0.34539828  0.49572823  1
  O  O218  1  0.25872442  0.89166781  0.01629823  1
  O  O219  1  0.26531208  0.87048798  0.51238904  1
  O  O220  1  0.74006132  0.37319634  0.03971745  1
  O  O221  1  0.75026052  0.35213300  0.47646929  1
  O  O222  1  0.77890039  0.86280464  0.00169428  1
  O  O223  1  0.75932662  0.87044036  0.50790852  1
  O  O224  1  0.22929559  0.56293142  0.15841455  1
  O  O225  1  0.15057780  0.50967214  0.72232340  1
  O  O226  1  0.14201650  0.99678482  0.26631178  1
  O  O227  1  0.13267199  1.00873535  0.74709143  1
  O  O228  1  0.63861022  0.47636127  0.23910205  1
  O  O229  1  0.60921285  0.50700778  0.76640508  1
  O  O230  1  0.63072281  1.00735883  0.21942347  1
  O  O231  1  0.61654185  1.01969921  0.73510446  1
  O  O232  1  0.36781624  0.01957507  0.26365059  1
  O  O233  1  0.37125918  0.01509248  0.76930677  1
  O  O234  1  0.39029619  0.49587172  0.30316056  1
  O  O235  1  0.34856806  0.49748136  0.71300895  1
  O  O236  1  0.88321514  0.02155551  0.26474522  1
  O  O237  1  0.88257643  0.03334031  0.71038649  1
  O  O238  1  0.87015801  0.52238028  0.24694969  1
  O  O239  1  0.87238079  0.50456939  0.71344065  1
  O  O240  1  0.09937705  0.34742780  0.39548314  1
  O  O241  1  0.13929751  0.34120425  0.90048086  1
  O  O242  1  0.16969783  0.84308640  0.36050773  1
  O  O243  1  0.11409005  0.87821859  0.88984090  1
  O  O244  1  0.61663801  0.34246144  0.35807870  1
  O  O245  1  0.63354450  0.35456601  0.86814422  1
  O  O246  1  0.62798632  0.89236252  0.37815088  1
  O  O247  1  0.61974263  0.88842985  0.87988253  1
  O  O248  1  0.35872474  0.13694482  0.14311824  1
  O  O249  1  0.38055447  0.12326857  0.64016071  1
  O  O250  1  0.36404708  0.65644997  0.08529074  1
  O  O251  1  0.32402500  0.62063356  0.60510179  1
  O  O252  1  0.89051700  0.12821731  0.14040735  1
  O  O253  1  0.87698710  0.14778660  0.62146637  1
  O  O254  1  0.87529154  0.62641561  0.13053484  1
  O  O255  1  0.92444488  0.62886316  0.59465703  1
  O  O256  1  0.24713513  0.25276703  0.12930742  1
  O  O257  1  0.23440665  0.25014797  0.61166526  1
  O  O258  1  0.25866874  0.77800901  0.14309788  1
  O  O259  1  0.27463263  0.78757599  0.66240371  1
  O  O260  1  0.77393616  0.23122182  0.12310823  1
  O  O261  1  0.74257900  0.24308850  0.62036665  1
  O  O262  1  0.76118272  0.75089776  0.13015079  1
  O  O263  1  0.74116977  0.73922685  0.61768640  1
  O  O264  1  0.23250624  0.23384204  0.38686710  1
  O  O265  1  0.20877594  0.29573248  0.90382216  1
  O  O266  1  0.22545366  0.77791510  0.35172379  1
  O  O267  1  0.23663634  0.73317294  0.87013677  1
  O  O268  1  0.72462197  0.23004483  0.36110613  1
  O  O269  1  0.73742650  0.24278089  0.85832707  1
  O  O270  1  0.71973259  0.75089628  0.36441539  1
  O  O271  1  0.77828408  0.73307678  0.86077562  1
  O  O272  1  -0.00445085  0.10493158  0.02302110  1
  O  O273  1  0.01028384  0.11221992  0.49895375  1
  O  O274  1  0.01002262  0.57125186  0.02376904  1
  O  O275  1  -0.02786343  0.64759779  0.54323416  1
  O  O276  1  0.51071481  0.11537692  -0.02192926  1
  O  O277  1  0.50478041  0.12608001  0.51166068  1
  O  O278  1  0.53054035  0.64314910  -0.03955166  1
  O  O279  1  0.53740691  0.61158918  0.46590570  1
  O  O280  1  0.50559792  0.35673236  0.49086653  1
  O  O281  1  0.50004432  0.36428604  0.98462604  1
  O  O282  1  0.50008413  0.89876794  0.50868682  1
  O  O283  1  0.48613539  0.88425872  0.97653536  1
  O  O284  1  0.97981018  0.37132286  0.49041073  1
  O  O285  1  0.99795898  0.40048204  1.01091294  1
  O  O286  1  0.97427034  0.84937283  0.53304401  1
  O  O287  1  0.99588927  0.89321364  1.00106634  1
  O  O288  1  0.53022840  0.46664159  0.39564528  1
  O  O289  1  0.48716078  0.49351193  0.87900934  1
  O  O290  1  0.49200640  1.00753696  0.38550255  1
  O  O291  1  0.50060869  0.99690379  0.86797836  1
  O  O292  1  1.00641548  0.47533632  0.36697763  1
  O  O293  1  0.97182588  0.49482297  0.86960479  1
  O  O294  1  0.96917121  1.03653444  0.38379326  1
  O  O295  1  0.99647329  0.99618094  0.87738075  1
  O  O296  1  -0.00199847  -0.00086004  0.13834938  1
  O  O297  1  0.02426277  -0.02290724  0.63712383  1
  O  O298  1  0.02747040  0.46918415  0.15677717  1
  O  O299  1  0.01825378  0.48943049  0.61748602  1
  O  O300  1  0.48810017  0.04017486  0.11929579  1
  O  O301  1  0.50017965  0.01735437  0.61592844  1
  O  O302  1  0.38936592  0.63481247  0.15614024  1
  O  O303  1  0.50888837  0.51000918  0.59701557  1
  O  O304  1  0.24246165  0.39876909  0.31611429  1
  O  O305  1  0.24558934  0.37766385  0.72007815  1
  O  O306  1  0.27192437  0.89743416  0.23671613  1
  O  O307  1  0.26790056  0.83702646  0.72373405  1
  O  O308  1  0.72221021  0.34295856  0.24249253  1
  O  O309  1  0.75815224  0.40178850  0.75019499  1
  O  O310  1  0.79466635  0.87148047  0.22879581  1
  O  O311  1  0.83561931  0.88541917  0.72810196  1
  O  O312  1  0.24491684  0.11507758  0.26451842  1
  O  O313  1  0.25644260  0.11896419  0.73732680  1
  O  O314  1  0.23150843  0.60746408  0.22794227  1
  O  O315  1  0.26064704  0.60510041  0.77138340  1
  O  O316  1  0.76125143  0.12157165  0.24758016  1
  O  O317  1  0.76124023  0.12070790  0.75969135  1
  O  O318  1  0.73096247  0.61391995  0.25206308  1
  O  O319  1  0.75590662  0.61236873  0.76410628  1
  O  O320  1  0.36241440  0.12494035  0.36820439  1
  O  O321  1  0.36743261  0.12054266  0.86744550  1
  O  O322  1  0.37616374  0.63471658  0.38413763  1
  O  O323  1  0.36217808  0.63499656  0.89438682  1
  O  O324  1  0.84743642  0.13683533  0.37031593  1
  O  O325  1  0.87510986  0.13532343  0.84467227  1
  O  O326  1  0.91504984  0.62168874  0.35029969  1
  O  O327  1  0.86387707  0.60708331  0.90444152  1
  O  O328  1  0.17192702  0.40888587  0.25379176  1
  O  O329  1  0.13394782  0.38417428  0.60789931  1
  O  O330  1  0.14805972  0.88660368  0.12470869  1
  O  O331  1  0.15182376  0.88908860  0.63219723  1
  O  O332  1  0.60025923  0.35279151  0.13755431  1
  O  O333  1  0.60654149  0.40450256  0.64186879  1
  O  O334  1  0.67109012  0.88100192  0.13200310  1
  O  O335  1  0.61677170  0.90199969  0.62340729  1
  O  O336  1  0.11135860  0.23737498  0.26716061  1
  O  O337  1  0.14302506  0.23507841  0.77982729  1
  O  O338  1  0.10061080  0.74057627  0.26417282  1
  O  O339  1  0.11999428  0.73036661  0.71766437  1
  O  O340  1  0.61143688  0.22513481  0.24634668  1
  O  O341  1  0.61834087  0.25037106  0.74348794  1
  O  O342  1  0.60176021  0.77031986  0.25867889  1
  O  O343  1  0.61822599  0.75367684  0.74491338  1
  O  O344  1  0.35649276  0.23663920  0.24957811  1
  O  O345  1  0.34911993  0.23454357  0.76861402  1
  O  O346  1  0.42262040  0.76064986  0.26333872  1
  O  O347  1  0.41882277  0.76940649  0.80087237  1
  O  O348  1  0.88516835  0.23204756  0.24979409  1
  O  O349  1  0.86782713  0.24581081  0.72587583  1
  O  O350  1  0.90224569  0.73545536  0.25419990  1
  O  O351  1  0.91299058  0.73999576  0.73752353  1
  O  O352  1  0.41074028  0.50958717  0.48167653  1
  O  O353  1  0.44449017  0.50628013  1.03897754  1
  O  O354  1  0.38685503  1.01781253  0.48625709  1
  O  O355  1  0.36977514  1.00521802  0.98160917  1
  O  O356  1  0.84499224  0.46740128  0.51727814  1
  O  O357  1  0.85909692  0.49108561  1.00437495  1
  O  O358  1  0.86906677  0.97897033  0.51143489  1
  O  O359  1  0.88876954  1.00171475  0.99643329  1
  O  O360  1  0.10358057  0.01428916  -0.00163316  1
  O  O361  1  0.12704996  0.00320364  0.48737537  1
  O  O362  1  0.14208027  0.46874449  0.03724198  1
  O  O363  1  0.12257366  0.48826849  0.49134751  1
  O  O364  1  0.62184654  -0.03487572  0.03099429  1
  O  O365  1  0.60689777  0.01550976  0.50596564  1
  O  O366  1  0.61354359  0.48956109  -0.01975035  1
  O  O367  1  0.64156321  0.49299313  0.49787179  1
  O  O368  1  0.39468886  0.33767991  0.14284634  1
  O  O369  1  0.35786153  0.37720672  0.60076272  1
  O  O370  1  0.37263056  0.89884313  0.10440589  1
  O  O371  1  0.37019197  0.90876253  0.62591373  1
  O  O372  1  0.86962396  0.35257931  0.15517046  1
  O  O373  1  0.86568621  0.35159476  0.60666947  1
  O  O374  1  0.88069107  0.87321339  0.10435899  1
  O  O375  1  0.91597254  0.84974284  0.59133197  1
  O  O376  1  0.12997403  0.12244333  0.38630972  1
  O  O377  1  0.11408174  0.13087970  0.89419274  1
  O  O378  1  0.11666489  0.64110809  0.39089422  1
  O  O379  1  0.15014839  0.58992103  0.87819461  1
  O  O380  1  0.62174636  0.13622464  0.39309145  1
  O  O381  1  0.64255193  0.14220287  0.87135928  1
  O  O382  1  0.54263273  0.61718469  0.27511312  1
  O  O383  1  0.65580239  0.62607771  0.88490519  1
