# generated using pymatgen
data_VZnO4
_symmetry_space_group_name_H-M   'P 1'
_cell_length_a   16.89650685
_cell_length_b   16.90178881
_cell_length_c   16.87847392
_cell_angle_alpha   90.09900340
_cell_angle_beta   89.86293979
_cell_angle_gamma   89.96458274
_symmetry_Int_Tables_number   1
_chemical_formula_structural   VZnO4
_chemical_formula_sum   'V64 Zn64 O256'
_cell_volume   4820.15275462
_cell_formula_units_Z   64
loop_
 _symmetry_equiv_pos_site_id
 _symmetry_equiv_pos_as_xyz
  1  'x, y, z'
loop_
 _atom_site_type_symbol
 _atom_site_label
 _atom_site_symmetry_multiplicity
 _atom_site_fract_x
 _atom_site_fract_y
 _atom_site_fract_z
 _atom_site_occupancy
  V  V0  1  0.11743888  0.51726126  0.11186911  1
  V  V1  1  0.26012768  0.12514452  0.36495167  1
  V  V2  1  0.13495650  0.73648124  0.87890045  1
  V  V3  1  -0.00720670  0.37890519  0.36968570  1
  V  V4  1  -0.00417578  0.62620640  0.62574455  1
  V  V5  1  0.37495833  0.74347912  0.14265899  1
  V  V6  1  0.86037353  0.50207953  0.37274965  1
  V  V7  1  0.50061455  0.89057464  0.35454065  1
  V  V8  1  0.88436768  0.73922526  0.11881850  1
  V  V9  1  0.87410936  0.62675765  0.26045209  1
  V  V10  1  0.00643544  0.11013026  0.62964814  1
  V  V11  1  0.37489729  0.37501737  0.47890559  1
  V  V12  1  0.12046589  0.24489324  0.37664224  1
  V  V13  1  0.50050568  0.24248228  0.24666676  1
  V  V14  1  0.63725668  0.62000278  0.03539890  1
  V  V15  1  0.00097531  0.74809713  0.74891096  1
  V  V16  1  0.10935302  0.36905346  0.75060695  1
  V  V17  1  0.61547342  0.85374021  0.76139001  1
  V  V18  1  0.23300254  0.37731346  0.12171666  1
  V  V19  1  0.30329359  0.31148487  0.67409652  1
  V  V20  1  0.87819541  0.25831090  0.62178039  1
  V  V21  1  -0.00275464  0.50078314  -0.01128906  1
  V  V22  1  0.74178405  0.00275960  0.24452774  1
  V  V23  1  0.88179358  0.11949581  0.25920344  1
  V  V24  1  0.37230622  0.50849203  0.87091766  1
  V  V25  1  0.62185964  0.76087142  0.34768374  1
  V  V26  1  0.00235688  0.88206417  0.87656569  1
  V  V27  1  0.38686644  -0.03086030  0.87756871  1
  V  V28  1  0.74119836  -0.01247190  0.72534904  1
  V  V29  1  0.87206813  0.25612785  0.10138471  1
  V  V30  1  0.13198649  0.62110554  0.48740041  1
  V  V31  1  0.87032276  0.62971158  0.76360643  1
  V  V32  1  0.10991535  0.25375757  0.87092858  1
  V  V33  1  -0.00658521  0.49063446  0.49819026  1
  V  V34  1  0.50291294  0.35264474  0.87467713  1
  V  V35  1  0.24403211  -0.01400518  0.23629356  1
  V  V36  1  0.85476152  0.00193319  0.86536549  1
  V  V37  1  0.12628815  0.49298748  0.62769215  1
  V  V38  1  0.86992662  0.47633135  0.87940339  1
  V  V39  1  0.12700634  0.87971246  0.73083283  1
  V  V40  1  0.00162943  0.25680074  0.24344207  1
  V  V41  1  0.37276374  0.37077936  0.00666729  1
  V  V42  1  0.74609827  0.87784497  0.12458252  1
  V  V43  1  0.36916558  0.74784491  0.61851656  1
  V  V44  1  0.88235002  0.87178159  0.48894582  1
  V  V45  1  0.74120954  0.27753575  0.49841454  1
  V  V46  1  0.11800895  0.10829337  -0.00684143  1
  V  V47  1  0.87271056  0.87769200  0.00047256  1
  V  V48  1  0.73806138  0.38992750  0.12857108  1
  V  V49  1  0.74544549  0.12803752  0.38267590  1
  V  V50  1  0.24232264  0.24748289  0.00338131  1
  V  V51  1  0.17341367  0.42858046  0.29216263  1
  V  V52  1  0.52176560  0.00636632  0.49909567  1
  V  V53  1  0.25353121  -0.00261158  0.73625352  1
  V  V54  1  0.74017291  0.49228132  0.75291126  1
  V  V55  1  0.25735484  0.12094578  0.86748264  1
  V  V56  1  0.36848742  0.89045651  0.50000983  1
  V  V57  1  0.24811061  0.25087953  0.49981195  1
  V  V58  1  0.48558072  0.11853930  0.63562766  1
  V  V59  1  0.49501367  0.50992413  0.01378645  1
  V  V60  1  0.24954634  0.86742904  0.08870469  1
  V  V61  1  0.01401948  0.75841192  0.26067499  1
  V  V62  1  0.25548341  0.50971910  0.74965967  1
  V  V63  1  0.00354754  0.11345112  0.11354226  1
  Zn  Zn64  1  0.18117974  0.18148964  0.18488549  1
  Zn  Zn65  1  0.17086065  0.17576425  0.68436774  1
  Zn  Zn66  1  0.16842100  0.72196978  0.15353647  1
  Zn  Zn67  1  0.19165200  0.69189004  0.67805729  1
  Zn  Zn68  1  0.70791312  0.22110373  0.20211854  1
  Zn  Zn69  1  0.72489194  0.18732070  0.69678680  1
  Zn  Zn70  1  0.65941111  0.63549775  0.24181845  1
  Zn  Zn71  1  0.68388607  0.68267013  0.80596086  1
  Zn  Zn72  1  0.31322184  0.29906598  0.30648229  1
  Zn  Zn73  1  0.30757753  0.31329345  0.83277322  1
  Zn  Zn74  1  0.32835377  0.82605257  0.31334893  1
  Zn  Zn75  1  0.31564751  0.80707374  0.80301825  1
  Zn  Zn76  1  0.81532034  0.31147593  0.30994746  1
  Zn  Zn77  1  0.82112915  0.32632497  0.77015939  1
  Zn  Zn78  1  0.80866710  0.80779112  0.29949625  1
  Zn  Zn79  1  0.80691827  0.81256194  0.81366291  1
  Zn  Zn80  1  0.22846522  0.46921540  0.46712324  1
  Zn  Zn81  1  0.18328025  0.44095362  0.93466025  1
  Zn  Zn82  1  0.18951995  0.92739139  0.39943975  1
  Zn  Zn83  1  0.18698317  0.93339371  0.92042553  1
  Zn  Zn84  1  0.68471059  0.45955560  0.55933367  1
  Zn  Zn85  1  0.68949719  0.42936773  0.94334075  1
  Zn  Zn86  1  0.69170281  0.93664963  0.42793436  1
  Zn  Zn87  1  0.68117471  0.79788705  0.94649829  1
  Zn  Zn88  1  0.31450297  0.05013490  0.05588786  1
  Zn  Zn89  1  0.31521852  0.07085944  0.55245428  1
  Zn  Zn90  1  0.31895977  0.55700824  0.08147373  1
  Zn  Zn91  1  0.31845893  0.56047311  0.56713689  1
  Zn  Zn92  1  0.82830871  0.05423511  0.06457456  1
  Zn  Zn93  1  0.82334913  0.06138035  0.56219122  1
  Zn  Zn94  1  0.81765139  0.55339466  0.06674280  1
  Zn  Zn95  1  0.80702511  0.56955743  0.56907172  1
  Zn  Zn96  1  0.43141792  0.43234927  0.18983558  1
  Zn  Zn97  1  0.44821182  0.42613089  0.69052152  1
  Zn  Zn98  1  0.41416624  0.93937252  0.18296737  1
  Zn  Zn99  1  0.44044136  0.93273808  0.68117588  1
  Zn  Zn100  1  0.93302541  0.43983699  0.18079017  1
  Zn  Zn101  1  0.93253199  0.44342302  0.68944371  1
  Zn  Zn102  1  0.94828268  0.93496909  0.19015653  1
  Zn  Zn103  1  0.93441014  0.93498659  0.68564139  1
  Zn  Zn104  1  0.07719833  0.07274483  0.29495441  1
  Zn  Zn105  1  0.05845478  0.06313029  0.80218558  1
  Zn  Zn106  1  0.05363664  0.57293903  0.30195535  1
  Zn  Zn107  1  0.06095192  0.55729793  0.81312011  1
  Zn  Zn108  1  0.57167499  0.06400283  0.31061210  1
  Zn  Zn109  1  0.56080243  0.04227841  0.79741592  1
  Zn  Zn110  1  0.64903992  0.63338132  0.45940571  1
  Zn  Zn111  1  0.57388947  0.53773164  0.85459117  1
  Zn  Zn112  1  0.43314698  0.18030640  0.44757593  1
  Zn  Zn113  1  0.43331285  0.17565818  0.96042005  1
  Zn  Zn114  1  0.47513970  0.73374802  0.46489710  1
  Zn  Zn115  1  0.49634442  0.72683177  0.98718693  1
  Zn  Zn116  1  0.93050477  0.19871237  0.44543498  1
  Zn  Zn117  1  0.93037167  0.18265737  0.92445582  1
  Zn  Zn118  1  0.95273997  0.68328791  0.43573926  1
  Zn  Zn119  1  0.94505236  0.68655083  0.93882731  1
  Zn  Zn120  1  0.05257534  0.31449278  0.05496119  1
  Zn  Zn121  1  0.05925823  0.30861976  0.56117700  1
  Zn  Zn122  1  0.06009479  0.81040438  0.05611674  1
  Zn  Zn123  1  0.18468451  0.82032222  0.53829770  1
  Zn  Zn124  1  0.56614903  0.32874127  0.07163038  1
  Zn  Zn125  1  0.55790838  0.30960505  0.54910982  1
  Zn  Zn126  1  0.57508825  0.78051068  0.13832887  1
  Zn  Zn127  1  0.56678300  0.81537305  0.56101665  1
  O  O128  1  0.11485168  0.13283185  0.10252285  1
  O  O129  1  0.10527643  0.13187893  0.60685438  1
  O  O130  1  0.13534465  0.61419868  0.12217519  1
  O  O131  1  0.11324639  0.60616015  0.63160707  1
  O  O132  1  0.62294316  0.16073609  0.16514040  1
  O  O133  1  0.59370635  0.16613276  0.62764947  1
  O  O134  1  0.62692568  0.60777990  0.13464383  1
  O  O135  1  0.53221606  0.62814767  0.66094888  1
  O  O136  1  0.36464035  0.37335521  0.37772413  1
  O  O137  1  0.37684955  0.38034188  0.89242107  1
  O  O138  1  0.39281254  0.89040526  0.38050058  1
  O  O139  1  0.38684937  0.86830453  0.86900907  1
  O  O140  1  0.88198892  0.39011790  0.36518616  1
  O  O141  1  0.87136411  0.37787683  0.86324738  1
  O  O142  1  0.87194193  0.86884336  0.38280550  1
  O  O143  1  0.88468837  0.87464754  0.88116901  1
  O  O144  1  0.23353910  0.02157153  0.35466730  1
  O  O145  1  0.25565282  0.01027729  0.86626692  1
  O  O146  1  0.23004108  0.48198588  0.35198435  1
  O  O147  1  0.25945695  0.49246492  0.86245701  1
  O  O148  1  0.75122426  0.01231554  0.35336197  1
  O  O149  1  0.75816338  -0.00667531  0.87437474  1
  O  O150  1  0.76538896  0.49946914  0.36960533  1
  O  O151  1  0.76512598  0.49644475  0.87818159  1
  O  O152  1  0.23322490  0.48874558  0.11658803  1
  O  O153  1  0.23856728  0.49611000  0.63931162  1
  O  O154  1  0.24865359  0.97438898  0.11794375  1
  O  O155  1  0.25683149  1.01456352  0.63867751  1
  O  O156  1  0.76766587  0.48575828  0.14435876  1
  O  O157  1  0.75626858  0.49400269  0.65030742  1
  O  O158  1  0.76037366  0.99077302  0.13076649  1
  O  O159  1  0.75882376  0.99082905  0.62616848  1
  O  O160  1  -0.00863547  0.36637450  0.25486175  1
  O  O161  1  0.01225128  0.38216480  0.75663420  1
  O  O162  1  0.00507294  0.86169678  0.24939828  1
  O  O163  1  0.00598747  0.86567380  0.75168841  1
  O  O164  1  0.48781367  0.34802866  0.24679321  1
  O  O165  1  0.49508752  0.36688576  0.77502423  1
  O  O166  1  0.49614947  0.90725261  0.25382943  1
  O  O167  1  0.51646589  0.87404788  0.73914105  1
  O  O168  1  0.50186440  0.13816343  0.24583965  1
  O  O169  1  0.48813729  0.10704507  0.73518247  1
  O  O170  1  0.44054827  0.56821837  0.27469842  1
  O  O171  1  0.49273348  0.60855940  0.71849645  1
  O  O172  1  0.99649522  0.13079731  0.23423626  1
  O  O173  1  1.00465928  0.13137349  0.73258961  1
  O  O174  1  0.98466651  0.64023269  0.24472609  1
  O  O175  1  0.99243916  0.62415688  0.74204497  1
  O  O176  1  0.35523932  0.26566631  -0.00143785  1
  O  O177  1  0.35601012  0.25755213  0.49192153  1
  O  O178  1  0.34129504  0.71267698  -0.02609816  1
  O  O179  1  0.37020249  0.77719537  0.49025365  1
  O  O180  1  0.89199180  0.25493768  0.00267032  1
  O  O181  1  0.86452047  0.26568564  0.51315934  1
  O  O182  1  0.88485413  0.75863910  0.01062807  1
  O  O183  1  0.88741223  0.76789251  0.48962413  1
  O  O184  1  0.13301816  0.26298689  0.48572048  1
  O  O185  1  0.12646882  0.24979949  0.98475887  1
  O  O186  1  0.13351437  0.71656537  0.51310351  1
  O  O187  1  0.11969738  0.74728603  0.97897660  1
  O  O188  1  0.64111288  0.26046060  0.49080945  1
  O  O189  1  0.60901576  0.23360640  1.01175014  1
  O  O190  1  0.59714328  0.73677029  0.47110275  1
  O  O191  1  0.61670993  0.72766369  1.02266839  1
  O  O192  1  0.51029312  0.24633049  0.14204888  1
  O  O193  1  0.53560652  0.22607817  0.63252218  1
  O  O194  1  0.47140811  0.76520556  0.09258398  1
  O  O195  1  0.47616273  0.74729151  0.58789837  1
  O  O196  1  0.99514875  0.24526266  0.12782631  1
  O  O197  1  0.98261572  0.25311375  0.62391553  1
  O  O198  1  0.98802472  0.75704983  0.13136213  1
  O  O199  1  1.00606373  0.72782172  0.63431475  1
  O  O200  1  0.00140098  0.26071531  0.36960103  1
  O  O201  1  0.01169279  0.24840946  0.87408389  1
  O  O202  1  0.00504869  0.74758133  0.36159460  1
  O  O203  1  0.00683313  0.75653298  0.86269611  1
  O  O204  1  0.48275810  0.23573772  0.35137083  1
  O  O205  1  0.48414493  0.25425328  0.89278302  1
  O  O206  1  0.50243526  0.78198287  0.35900963  1
  O  O207  1  0.52131037  0.70298836  0.87651898  1
  O  O208  1  0.24827576  0.14205001  0.48592227  1
  O  O209  1  0.23335468  0.12789679  0.98915804  1
  O  O210  1  0.23131568  0.58865778  0.49434893  1
  O  O211  1  0.29326544  0.65732683  0.98019234  1
  O  O212  1  0.76041458  0.11050341  0.48055165  1
  O  O213  1  0.72547033  0.10952287  1.00978915  1
  O  O214  1  0.74804614  0.71681904  0.57793068  1
  O  O215  1  0.73371038  0.61304892  1.01441682  1
  O  O216  1  0.24893933  0.36971763  0.00473452  1
  O  O217  1  0.25443983  0.35902641  0.49966295  1
  O  O218  1  0.24955503  0.86807056  -0.01062008  1
  O  O219  1  0.26450750  0.89510072  0.48557613  1
  O  O220  1  0.74380790  0.37377551  0.02574682  1
  O  O221  1  0.74291908  0.37812775  0.50152974  1
  O  O222  1  0.76538180  0.86817704  0.00905856  1
  O  O223  1  0.77555258  0.87761486  0.48658066  1
  O  O224  1  0.11780486  0.49661587  0.23570186  1
  O  O225  1  0.13585574  0.48407731  0.75150147  1
  O  O226  1  0.15254075  1.03344514  0.22284488  1
  O  O227  1  0.13351156  0.98684661  0.75272982  1
  O  O228  1  0.60276673  0.46928636  0.31125086  1
  O  O229  1  0.64825754  0.53669332  0.77290552  1
  O  O230  1  0.64300429  1.01096488  0.23673158  1
  O  O231  1  0.63396008  0.97318717  0.74704441  1
  O  O232  1  0.34194925  0.01576962  0.23037052  1
  O  O233  1  0.35708982  -0.01485335  0.75897898  1
  O  O234  1  0.38074090  0.51052767  0.25517475  1
  O  O235  1  0.36523943  0.48991642  0.75626834  1
  O  O236  1  0.87959750  0.01747203  0.24002279  1
  O  O237  1  0.85637848  -0.02224154  0.75768178  1
  O  O238  1  0.88897763  0.51512239  0.26128292  1
  O  O239  1  0.86581464  0.50633040  0.76523506  1
  O  O240  1  0.11452550  0.36983690  0.35629813  1
  O  O241  1  0.13184378  0.36256152  0.86353951  1
  O  O242  1  0.11592051  0.86619900  0.45426591  1
  O  O243  1  0.11032047  0.86665135  0.86485364  1
  O  O244  1  0.60185514  0.42718769  0.37069333  1
  O  O245  1  0.60091814  0.37063714  0.89914390  1
  O  O246  1  0.61327600  0.87545470  0.36767114  1
  O  O247  1  0.61868854  0.85049637  0.86480578  1
  O  O248  1  0.39807808  0.12419861  0.05412106  1
  O  O249  1  0.38898481  0.13953978  0.61256221  1
  O  O250  1  0.37041315  0.64152300  0.13138001  1
  O  O251  1  0.36587489  0.64493605  0.61450497  1
  O  O252  1  0.89354599  0.13258412  0.11855685  1
  O  O253  1  0.88806406  0.13649178  0.61703155  1
  O  O254  1  0.87368259  0.63735677  0.12722891  1
  O  O255  1  0.89023706  0.61366346  0.63398753  1
  O  O256  1  0.23292343  0.26196036  0.11232363  1
  O  O257  1  0.24141408  0.24590370  0.61423143  1
  O  O258  1  0.26886997  0.75443200  0.11310609  1
  O  O259  1  0.25456104  0.75992955  0.61091849  1
  O  O260  1  0.77467917  0.22840108  0.10558233  1
  O  O261  1  0.75194219  0.24314938  0.60022704  1
  O  O262  1  0.78120089  0.77717371  0.13684012  1
  O  O263  1  0.74193970  0.76892671  0.62930666  1
  O  O264  1  0.23912201  0.24718335  0.38122675  1
  O  O265  1  0.23665845  0.23655690  0.88289157  1
  O  O266  1  0.26820944  0.72640412  0.37348466  1
  O  O267  1  0.23275419  0.75444695  0.85965998  1
  O  O268  1  0.76723370  0.23932683  0.39015204  1
  O  O269  1  0.66291979  0.18594194  0.85464929  1
  O  O270  1  0.72279480  0.76744522  0.36135954  1
  O  O271  1  0.75194540  0.73862762  0.87945863  1
  O  O272  1  0.00845189  0.12448808  0.00228043  1
  O  O273  1  -0.02987736  0.12402106  0.52006313  1
  O  O274  1  -0.00480914  0.60490293  -0.00102407  1
  O  O275  1  0.00769632  0.61313390  0.51261274  1
  O  O276  1  0.56189104  0.17599739  0.00741199  1
  O  O277  1  0.50469548  0.11276750  0.50232326  1
  O  O278  1  0.49072098  0.60996403  0.01373124  1
  O  O279  1  0.46088757  0.59614841  0.45957955  1
  O  O280  1  0.47467302  0.36065193  0.49424131  1
  O  O281  1  0.48056718  0.37417734  1.00627116  1
  O  O282  1  0.49663667  0.89423114  0.49195842  1
  O  O283  1  0.53687702  0.98299884  1.05901665  1
  O  O284  1  1.00217329  0.38191227  0.48459568  1
  O  O285  1  1.00400306  0.39717450  0.99940996  1
  O  O286  1  0.98294438  0.88681504  0.47174216  1
  O  O287  1  0.99354140  0.87278893  0.98235064  1
  O  O288  1  0.51825589  0.54956801  0.45806216  1
  O  O289  1  0.48315851  0.48191740  0.89114363  1
  O  O290  1  0.51252616  1.00073607  0.38442155  1
  O  O291  1  0.48147767  1.00448318  0.87083343  1
  O  O292  1  0.99993655  0.49145167  0.38064319  1
  O  O293  1  0.98700497  0.49804928  0.87902732  1
  O  O294  1  1.04299764  0.99426308  0.38104870  1
  O  O295  1  0.99477851  0.98270660  0.86052448  1
  O  O296  1  0.00341065  0.01540452  0.12406880  1
  O  O297  1  0.00018473  0.00841123  0.63223499  1
  O  O298  1  0.01215685  0.50020824  0.11668754  1
  O  O299  1  0.00399222  0.50066479  0.61923397  1
  O  O300  1  0.48999142  0.01259689  0.10765675  1
  O  O301  1  0.49997081  0.01081637  0.61205474  1
  O  O302  1  0.49457335  0.48803026  0.11150965  1
  O  O303  1  0.53275402  0.46544170  0.62070985  1
  O  O304  1  0.24392682  0.36824373  0.23517943  1
  O  O305  1  0.24668285  0.37305396  0.74126253  1
  O  O306  1  0.23756519  0.88886239  0.27514145  1
  O  O307  1  0.23522532  0.88563016  0.74973674  1
  O  O308  1  0.74189917  0.32822746  0.22576996  1
  O  O309  1  0.72712520  0.39349092  0.76747507  1
  O  O310  1  0.76188222  0.89479912  0.23833767  1
  O  O311  1  0.73715990  0.87471541  0.75044597  1
  O  O312  1  0.25540520  0.15350995  0.26494146  1
  O  O313  1  0.23549813  0.11347865  0.76129887  1
  O  O314  1  0.25735723  0.66845806  0.32937923  1
  O  O315  1  0.24605929  0.60784745  0.74592207  1
  O  O316  1  0.76865546  0.12439075  0.25313447  1
  O  O317  1  0.73445393  0.08734311  0.74626677  1
  O  O318  1  0.77406750  0.63113293  0.24864216  1
  O  O319  1  0.77000219  0.62462730  0.74622844  1
  O  O320  1  0.35871955  0.12314049  0.37908903  1
  O  O321  1  0.35538946  0.13026742  0.87617488  1
  O  O322  1  0.41745427  0.61941805  0.32353892  1
  O  O323  1  0.38287555  0.60321079  0.86618726  1
  O  O324  1  0.88271705  0.12640835  0.36058818  1
  O  O325  1  0.87496372  0.10147609  0.87412268  1
  O  O326  1  0.87869026  0.61829309  0.36979048  1
  O  O327  1  0.88066163  0.62129086  0.86423245  1
  O  O328  1  0.13020968  0.38417668  0.11927162  1
  O  O329  1  0.11679064  0.37970780  0.63913897  1
  O  O330  1  0.15017780  0.84580768  0.11856603  1
  O  O331  1  0.12367235  0.87364875  0.63348980  1
  O  O332  1  0.63399452  0.38962576  0.13339277  1
  O  O333  1  0.59253859  0.40819982  0.61241963  1
  O  O334  1  0.64747196  0.86943856  0.11763450  1
  O  O335  1  0.63397827  0.86123835  0.63534352  1
  O  O336  1  0.10788474  0.24507271  0.25459873  1
  O  O337  1  0.12696219  0.25910655  0.75881699  1
  O  O338  1  0.11316638  0.73523882  0.24849393  1
  O  O339  1  0.11819540  0.76060647  0.74992903  1
  O  O340  1  0.59905504  0.26180523  0.27164600  1
  O  O341  1  0.64767498  0.22686120  0.78863615  1
  O  O342  1  0.61501517  0.75356121  0.24107859  1
  O  O343  1  0.62851987  0.75266138  0.73587092  1
  O  O344  1  0.39328493  0.24137726  0.23690288  1
  O  O345  1  0.35307974  0.25567437  0.73950087  1
  O  O346  1  0.38237819  0.75606212  0.24187644  1
  O  O347  1  0.37582558  0.76340344  0.71857011  1
  O  O348  1  0.88812064  0.23516028  0.24120403  1
  O  O349  1  0.83773499  0.22652262  0.72369358  1
  O  O350  1  0.88639912  0.74347328  0.24368324  1
  O  O351  1  0.88748940  0.73858076  0.75379268  1
  O  O352  1  0.35291507  0.47555780  0.50099346  1
  O  O353  1  0.37507578  0.49456006  0.99426572  1
  O  O354  1  0.38603570  0.99641704  0.49991500  1
  O  O355  1  0.36445299  0.98400942  0.97519584  1
  O  O356  1  0.88550132  0.51054184  0.48585322  1
  O  O357  1  0.88170287  0.49673180  0.98723599  1
  O  O358  1  0.87680349  0.97733779  0.49346896  1
  O  O359  1  0.87415156  0.98422025  0.98373639  1
  O  O360  1  0.12416531  0.01049783  -0.01371058  1
  O  O361  1  0.05247119  0.01984553  0.45058556  1
  O  O362  1  0.11736373  0.50536342  0.00316930  1
  O  O363  1  0.11245393  0.49697208  0.51307493  1
  O  O364  1  0.66777197  0.06422190  0.00980280  1
  O  O365  1  0.62158269  -0.00432443  0.49994830  1
  O  O366  1  0.60672346  0.51942949  -0.01454046  1
  O  O367  1  0.70625925  0.56363313  0.51898897  1
  O  O368  1  0.35312815  0.38547360  0.11280953  1
  O  O369  1  0.37208158  0.36708703  0.62337083  1
  O  O370  1  0.35562074  0.86296411  0.12403563  1
  O  O371  1  0.37492966  0.87489417  0.60523313  1
  O  O372  1  0.86816886  0.35780560  0.12971042  1
  O  O373  1  0.86835516  0.35920005  0.65292436  1
  O  O374  1  0.88444172  0.88242150  0.10550082  1
  O  O375  1  0.89056169  0.86976510  0.59264293  1
  O  O376  1  0.12652925  0.14220415  0.37330908  1
  O  O377  1  0.12311679  0.13361844  0.88073079  1
  O  O378  1  0.11325105  0.61565233  0.38885416  1
  O  O379  1  0.12260846  0.63695505  0.86210693  1
  O  O380  1  0.64668324  0.13119941  0.36753030  1
  O  O381  1  0.61750854  0.12491361  0.86975334  1
  O  O382  1  0.61878209  0.64701959  0.34928772  1
  O  O383  1  0.58771612  0.65359564  0.88178963  1
