# generated using pymatgen
data_VZnO4
_symmetry_space_group_name_H-M   'P 1'
_cell_length_a   17.00558302
_cell_length_b   16.97609278
_cell_length_c   16.97483698
_cell_angle_alpha   90.06020255
_cell_angle_beta   89.85220944
_cell_angle_gamma   89.60329663
_symmetry_Int_Tables_number   1
_chemical_formula_structural   VZnO4
_chemical_formula_sum   'V64 Zn64 O256'
_cell_volume   4900.30120329
_cell_formula_units_Z   64
loop_
 _symmetry_equiv_pos_site_id
 _symmetry_equiv_pos_as_xyz
  1  'x, y, z'
loop_
 _atom_site_type_symbol
 _atom_site_label
 _atom_site_symmetry_multiplicity
 _atom_site_fract_x
 _atom_site_fract_y
 _atom_site_fract_z
 _atom_site_occupancy
  V  V0  1  0.86992033  0.88149739  0.51534372  1
  V  V1  1  0.11515477  0.51188905  0.13903498  1
  V  V2  1  0.36566814  0.87162830  -0.00718782  1
  V  V3  1  0.85756542  0.12831919  0.25380143  1
  V  V4  1  0.62337329  0.36744061  0.25830328  1
  V  V5  1  0.25809390  0.26613559  0.49077067  1
  V  V6  1  0.11820776  0.87321034  0.25139288  1
  V  V7  1  0.25161810  -0.00854047  0.27120049  1
  V  V8  1  0.91439483  0.88716936  -0.01970203  1
  V  V9  1  0.75596431  0.77454886  0.00286934  1
  V  V10  1  0.63303736  0.00122864  0.64132902  1
  V  V11  1  0.88589570  0.62522208  0.23725867  1
  V  V12  1  0.48078753  -0.01182535  0.50955100  1
  V  V13  1  0.24438545  0.88902987  0.62914513  1
  V  V14  1  0.73042723  0.24440120  0.49427682  1
  V  V15  1  0.87205813  0.37118144  -0.00078824  1
  V  V16  1  -0.00246948  0.49770125  0.49883809  1
  V  V17  1  0.22946274  0.48969900  0.77638139  1
  V  V18  1  0.63985503  0.63103601  -0.01169640  1
  V  V19  1  -0.01694349  0.73726693  0.77127639  1
  V  V20  1  0.47435241  0.86953026  0.36342236  1
  V  V21  1  0.10751651  0.24776350  0.85906883  1
  V  V22  1  0.21996788  0.10674031  0.85988022  1
  V  V23  1  0.75351544  0.37673862  0.63479068  1
  V  V24  1  0.63115127  0.77364353  0.39038768  1
  V  V25  1  0.61375668  0.12110694  0.49155386  1
  V  V26  1  0.26245101  0.74686856  0.50724751  1
  V  V27  1  0.48883690  0.49320460  -0.01194275  1
  V  V28  1  0.26080176  0.24391303  0.00800543  1
  V  V29  1  0.11695607  0.75326305  0.37330967  1
  V  V30  1  0.75393095  0.74464571  0.51341416  1
  V  V31  1  0.12211630  -0.00354222  0.11749105  1
  V  V32  1  0.61440388  0.37384149  0.75702377  1
  V  V33  1  0.24384500  0.74506858  0.02064095  1
  V  V34  1  0.88235914  0.77589330  0.14207678  1
  V  V35  1  0.36340889  0.26233375  0.63776766  1
  V  V36  1  0.62655853  0.49864275  0.11256370  1
  V  V37  1  0.50617955  0.72403160  0.73105620  1
  V  V38  1  0.10579435  0.13807535  0.00927411  1
  V  V39  1  -0.00332876  0.24136196  0.23819677  1
  V  V40  1  0.49100439  0.13696270  0.63826185  1
  V  V41  1  0.35910176  0.12151441  0.22557768  1
  V  V42  1  0.50641652  0.86380043  0.86282845  1
  V  V43  1  0.37510253  0.01247619  0.86687808  1
  V  V44  1  0.73601493  0.13324411  0.84798819  1
  V  V45  1  -0.00874738  0.13788227  0.62623086  1
  V  V46  1  0.86922660  0.51120571  0.37633107  1
  V  V47  1  0.01444014  -0.00486674  0.49588803  1
  V  V48  1  -0.00335967  0.38077016  0.86676684  1
  V  V49  1  0.62365764  0.25690029  0.91397708  1
  V  V50  1  0.87339571  0.35737728  0.49765218  1
  V  V51  1  0.25844725  0.61103723  0.36525795  1
  V  V52  1  0.13852357  0.13108464  0.48966591  1
  V  V53  1  0.13477839  0.48491817  0.61990741  1
  V  V54  1  0.38022465  0.62377105  0.24933622  1
  V  V55  1  0.52263477  0.50745440  0.49247091  1
  V  V56  1  0.85982004  0.00400989  0.37864079  1
  V  V57  1  0.00163917  0.36500866  0.36761780  1
  V  V58  1  0.13929902  0.36921416  0.24346018  1
  V  V59  1  0.12051147  0.85497437  0.76106477  1
  V  V60  1  0.50042188  0.64563939  0.12306061  1
  V  V61  1  0.74696965  0.50086760  0.24232663  1
  V  V62  1  -0.00828979  0.63845172  0.61438020  1
  V  V63  1  0.13143118  0.62163084  0.49345680  1
  Zn  Zn64  1  0.18127566  0.18139814  0.18886539  1
  Zn  Zn65  1  0.17781868  0.20412183  0.67426808  1
  Zn  Zn66  1  0.18939813  0.68922565  0.19067104  1
  Zn  Zn67  1  0.17264110  0.67902606  0.68716463  1
  Zn  Zn68  1  0.67665009  0.19510144  0.31638250  1
  Zn  Zn69  1  0.67836450  0.19951272  0.67658987  1
  Zn  Zn70  1  0.71965119  0.65984991  0.15816584  1
  Zn  Zn71  1  0.68832271  0.82297985  0.69440132  1
  Zn  Zn72  1  0.30946773  0.28797650  0.30045816  1
  Zn  Zn73  1  0.28711005  0.29762332  0.81497731  1
  Zn  Zn74  1  0.30361791  0.79763960  0.30845521  1
  Zn  Zn75  1  0.34244719  0.84081113  0.77156481  1
  Zn  Zn76  1  0.81343099  0.31596613  0.31127246  1
  Zn  Zn77  1  0.81160465  0.30446636  0.82663719  1
  Zn  Zn78  1  0.82844974  0.80459360  0.33366765  1
  Zn  Zn79  1  0.82212625  0.81140421  0.82118322  1
  Zn  Zn80  1  0.18389350  0.43493528  0.43033123  1
  Zn  Zn81  1  0.18634258  0.42221052  0.94207399  1
  Zn  Zn82  1  0.19678437  0.92963584  0.44307257  1
  Zn  Zn83  1  0.17227541  0.92189970  0.94196493  1
  Zn  Zn84  1  0.69856222  0.43027792  0.42918354  1
  Zn  Zn85  1  0.69260796  0.44713080  0.90783172  1
  Zn  Zn86  1  0.68894707  0.93899142  0.44332017  1
  Zn  Zn87  1  0.68551453  0.95161888  0.83239229  1
  Zn  Zn88  1  0.29469361  0.05383481  0.05324816  1
  Zn  Zn89  1  0.30569121  0.06528969  0.57836180  1
  Zn  Zn90  1  0.31383880  0.57435379  0.05687001  1
  Zn  Zn91  1  0.31785848  0.56712537  0.66449613  1
  Zn  Zn92  1  0.94000300  0.05884498  0.07784910  1
  Zn  Zn93  1  0.81451293  0.06673715  0.56622228  1
  Zn  Zn94  1  0.82017770  0.52764402  0.04127173  1
  Zn  Zn95  1  0.81009827  0.55979851  0.56637806  1
  Zn  Zn96  1  0.44068297  0.44428994  0.18319913  1
  Zn  Zn97  1  0.40644382  0.40717915  0.75707475  1
  Zn  Zn98  1  0.41778112  0.91796380  0.18812478  1
  Zn  Zn99  1  0.43519636  0.95278638  0.68908911  1
  Zn  Zn100  1  0.93798304  0.44045536  0.18245919  1
  Zn  Zn101  1  0.94313220  0.41929259  0.67727234  1
  Zn  Zn102  1  0.94653760  0.94635793  0.21431519  1
  Zn  Zn103  1  0.97767830  0.93174803  0.68115497  1
  Zn  Zn104  1  0.06258550  0.05961207  0.31840937  1
  Zn  Zn105  1  0.13000146  0.04525971  0.69062358  1
  Zn  Zn106  1  0.06393522  0.55842812  0.31304720  1
  Zn  Zn107  1  0.02501717  0.54016606  0.78206370  1
  Zn  Zn108  1  0.54406121  0.04917004  0.33172685  1
  Zn  Zn109  1  0.52260671  0.13150144  0.84799782  1
  Zn  Zn110  1  0.57819262  0.59481110  0.30355022  1
  Zn  Zn111  1  0.57815601  0.55486621  0.80908348  1
  Zn  Zn112  1  0.41793736  0.17872238  0.44402276  1
  Zn  Zn113  1  0.43247216  0.30607173  0.93185833  1
  Zn  Zn114  1  0.43538495  0.68230215  0.55424315  1
  Zn  Zn115  1  0.45153202  0.70020833  0.94425694  1
  Zn  Zn116  1  0.94551889  0.17652798  0.43485674  1
  Zn  Zn117  1  0.93052116  0.20278937  0.95085804  1
  Zn  Zn118  1  0.93587561  0.69329455  0.44211173  1
  Zn  Zn119  1  0.88547893  0.66722738  0.92074871  1
  Zn  Zn120  1  0.05159820  0.32806031  0.06609178  1
  Zn  Zn121  1  0.06621849  0.30349305  0.55396873  1
  Zn  Zn122  1  0.06366363  0.80440821  0.06739978  1
  Zn  Zn123  1  0.06858059  0.81618324  0.55407073  1
  Zn  Zn124  1  0.54620790  0.32589948  0.08133541  1
  Zn  Zn125  1  0.56460460  0.31583399  0.57915634  1
  Zn  Zn126  1  0.56086780  0.81447705  0.03595915  1
  Zn  Zn127  1  0.56466533  0.81514836  0.56998402  1
  O  O128  1  0.11870792  0.11261841  0.11461366  1
  O  O129  1  0.12104036  0.12610129  0.60752226  1
  O  O130  1  0.11903709  0.61116556  0.15119464  1
  O  O131  1  0.11197101  0.61082050  0.60467065  1
  O  O132  1  0.60848706  0.07046062  0.18575497  1
  O  O133  1  0.60835326  0.12607921  0.61193427  1
  O  O134  1  0.61925943  0.61627416  0.12211313  1
  O  O135  1  0.67437636  0.61800618  0.69747652  1
  O  O136  1  0.42027161  0.32986718  0.35174421  1
  O  O137  1  0.37470166  0.35665575  0.85198992  1
  O  O138  1  0.37648748  0.85950004  0.37393798  1
  O  O139  1  0.38712679  0.89120312  0.87164983  1
  O  O140  1  0.88252841  0.38358146  0.38223407  1
  O  O141  1  0.88800643  0.36836086  0.88244286  1
  O  O142  1  0.87426717  0.89591052  0.38210169  1
  O  O143  1  0.89003765  0.88117273  0.88355770  1
  O  O144  1  0.25219181  -0.00258067  0.37045783  1
  O  O145  1  0.20801172  0.00887255  0.87364738  1
  O  O146  1  0.24502314  0.51340821  0.37809457  1
  O  O147  1  0.21561804  0.50681772  0.87410034  1
  O  O148  1  0.76024036  0.00968709  0.38633263  1
  O  O149  1  0.74650927  0.03745322  0.87801108  1
  O  O150  1  0.76554547  0.49967348  0.36678255  1
  O  O151  1  0.84047992  0.50207386  0.79284146  1
  O  O152  1  0.22710224  0.50008768  0.09513814  1
  O  O153  1  0.23211643  0.49328820  0.61169731  1
  O  O154  1  0.22478408  0.99743879  0.13319632  1
  O  O155  1  0.23258855  0.99060410  0.62834935  1
  O  O156  1  0.73931283  0.50900352  0.13362772  1
  O  O157  1  0.76051456  0.47656113  0.62145045  1
  O  O158  1  0.73907269  0.98602265  0.11921440  1
  O  O159  1  0.72963843  1.01748926  0.62030771  1
  O  O160  1  -0.00984676  0.36573343  0.25966190  1
  O  O161  1  -0.00833941  0.37065305  0.76560411  1
  O  O162  1  0.02115115  0.87906347  0.27059995  1
  O  O163  1  0.00068334  0.84131460  0.75102949  1
  O  O164  1  0.52555776  0.39783704  0.25246021  1
  O  O165  1  0.51951091  0.39905380  0.74681669  1
  O  O166  1  0.48982570  0.87571667  0.26336306  1
  O  O167  1  0.49470354  0.88819628  0.76358590  1
  O  O168  1  0.45929334  0.11612759  0.28495855  1
  O  O169  1  0.50470433  0.13326518  0.73531043  1
  O  O170  1  0.49163574  0.62310156  0.23341486  1
  O  O171  1  0.51225830  0.62442240  0.74911851  1
  O  O172  1  1.00662076  0.14173651  0.25661539  1
  O  O173  1  1.01776581  0.11194924  0.71912451  1
  O  O174  1  0.98355311  0.61683347  0.25774043  1
  O  O175  1  1.00763791  0.63583423  0.72315849  1
  O  O176  1  0.35953851  0.23576315  -0.01000362  1
  O  O177  1  0.36358031  0.24692278  0.51618441  1
  O  O178  1  0.36405840  0.76282114  -0.01708481  1
  O  O179  1  0.36049729  0.74213429  0.49533839  1
  O  O180  1  0.85827241  0.27203718  0.01022577  1
  O  O181  1  0.87059462  0.25777191  0.48709538  1
  O  O182  1  0.87124470  0.79710932  0.02764934  1
  O  O183  1  0.86630390  0.77070187  0.49106759  1
  O  O184  1  0.14495197  0.24078868  0.49672340  1
  O  O185  1  0.11210580  0.23863951  1.01331727  1
  O  O186  1  0.13012942  0.73842552  0.48775619  1
  O  O187  1  0.14264307  0.75200360  1.00928549  1
  O  O188  1  0.62487047  0.24563374  0.50041373  1
  O  O189  1  0.62078280  0.26978190  1.01345037  1
  O  O190  1  0.63939350  0.75936319  0.49777683  1
  O  O191  1  0.64605502  0.74121418  1.00425533  1
  O  O192  1  0.52341570  0.14669323  0.08159863  1
  O  O193  1  0.48583657  0.24332028  0.61869481  1
  O  O194  1  0.51790627  0.74358820  0.11833955  1
  O  O195  1  0.50374121  0.73494160  0.62189111  1
  O  O196  1  0.99275630  0.25652769  0.14023788  1
  O  O197  1  1.00259339  0.24030766  0.61773842  1
  O  O198  1  0.97995455  0.75732474  0.12955582  1
  O  O199  1  0.99988412  0.73678382  0.60235689  1
  O  O200  1  -0.00170977  0.26371757  0.37255259  1
  O  O201  1  0.00409475  0.25277943  0.87790970  1
  O  O202  1  0.01808689  0.74304958  0.37920101  1
  O  O203  1  -0.02089942  0.71367980  0.86941865  1
  O  O204  1  0.46806171  0.27711189  0.37446635  1
  O  O205  1  0.51967004  0.23745724  0.89600718  1
  O  O206  1  0.51809319  0.78313881  0.40248774  1
  O  O207  1  0.51021241  0.75895202  0.86315067  1
  O  O208  1  0.23939065  0.11766365  0.50242633  1
  O  O209  1  0.22160471  0.12642092  0.99100720  1
  O  O210  1  0.23805818  0.62887010  0.48545470  1
  O  O211  1  0.25991280  0.64818401  0.99064019  1
  O  O212  1  0.72940927  0.13823208  0.50259807  1
  O  O213  1  0.73619343  0.15363147  1.05136767  1
  O  O214  1  0.75988252  0.64465813  0.50963164  1
  O  O215  1  0.73669253  0.61581752  1.01407229  1
  O  O216  1  0.24263130  0.34303283  -0.00403137  1
  O  O217  1  0.25093451  0.36521438  0.48611098  1
  O  O218  1  0.25618322  0.85368635  -0.01907729  1
  O  O219  1  0.24798752  0.85844184  0.51818223  1
  O  O220  1  0.78314155  0.43040454  -0.02811730  1
  O  O221  1  0.76082382  0.36688732  0.50157859  1
  O  O222  1  0.73475673  0.86732161  -0.00906205  1
  O  O223  1  0.76711621  0.88422529  0.50966934  1
  O  O224  1  0.12211175  0.48198034  0.24680643  1
  O  O225  1  0.12147317  0.50072351  0.72630410  1
  O  O226  1  0.13344603  0.98852463  0.25742966  1
  O  O227  1  0.08586038  0.95398085  0.73627321  1
  O  O228  1  0.64136728  0.51069613  0.24810352  1
  O  O229  1  0.65737733  0.47056757  0.79572576  1
  O  O230  1  0.61865218  1.02051194  0.24003486  1
  O  O231  1  0.62658210  1.00754712  0.73979589  1
  O  O232  1  0.35320172  -0.00540923  0.24489043  1
  O  O233  1  0.36046289  -0.00193086  0.76681802  1
  O  O234  1  0.36933009  0.52311878  0.21836422  1
  O  O235  1  0.33659042  0.49586898  0.75330800  1
  O  O236  1  0.87500022  0.01457517  0.27060237  1
  O  O237  1  0.88328930  0.00018309  0.75295116  1
  O  O238  1  0.87174706  0.50444322  0.25954469  1
  O  O239  1  0.90191295  0.51715105  0.73872524  1
  O  O240  1  0.10588004  0.38110059  0.36132417  1
  O  O241  1  0.10655723  0.35385824  0.88978000  1
  O  O242  1  0.13305059  0.85686720  0.37698956  1
  O  O243  1  0.12713738  0.85907082  0.85957767  1
  O  O244  1  0.63518774  0.37414278  0.35850532  1
  O  O245  1  0.62602667  0.35494137  0.87549144  1
  O  O246  1  0.63110233  0.87565211  0.36727877  1
  O  O247  1  0.59685521  0.90154037  0.88531395  1
  O  O248  1  0.37290590  0.09530754  0.12903336  1
  O  O249  1  0.38872333  0.12754730  0.62545918  1
  O  O250  1  0.39889692  0.63486724  0.11569682  1
  O  O251  1  0.37758203  0.59424903  0.58170458  1
  O  O252  1  0.87685083  0.11539930  0.15542381  1
  O  O253  1  0.88923363  0.12957558  0.61692643  1
  O  O254  1  0.87903600  0.62349411  0.13877693  1
  O  O255  1  0.89462948  0.62115855  0.60846386  1
  O  O256  1  0.24558307  0.23009777  0.10739850  1
  O  O257  1  0.25640184  0.25377139  0.60929153  1
  O  O258  1  0.25545542  0.74662398  0.12053029  1
  O  O259  1  0.24630575  0.72870431  0.60577605  1
  O  O260  1  0.72441102  0.19100208  0.11175218  1
  O  O261  1  0.74497177  0.26306027  0.60155629  1
  O  O262  1  0.77086936  0.74855556  0.11193889  1
  O  O263  1  0.74546899  0.76484337  0.61129602  1
  O  O264  1  0.27320393  0.23789444  0.39349246  1
  O  O265  1  0.22062537  0.23318035  0.88438616  1
  O  O266  1  0.24115476  0.73434841  0.38568386  1
  O  O267  1  0.32950390  0.65438558  0.83070862  1
  O  O268  1  0.74602361  0.25627390  0.38930537  1
  O  O269  1  0.73536417  0.24105019  0.88824107  1
  O  O270  1  0.74201601  0.76716268  0.39712179  1
  O  O271  1  0.79295438  0.73584987  0.91046673  1
  O  O272  1  -0.00094660  0.12624245  0.00449954  1
  O  O273  1  0.01607554  0.12076043  0.50468190  1
  O  O274  1  0.02607002  0.61467602  0.00393414  1
  O  O275  1  0.00728057  0.61482137  0.49715012  1
  O  O276  1  0.55409641  0.10181737  0.03373997  1
  O  O277  1  0.50418671  0.12030164  0.50082803  1
  O  O278  1  0.51934524  0.62752382  0.00708769  1
  O  O279  1  0.51523323  0.61241397  0.49271194  1
  O  O280  1  0.53346733  0.40301801  0.50070881  1
  O  O281  1  0.49460507  0.38894329  0.99250381  1
  O  O282  1  0.48648641  0.89033222  0.52710241  1
  O  O283  1  0.47919737  0.86681325  0.97697736  1
  O  O284  1  0.98983559  0.37659639  0.48682423  1
  O  O285  1  0.98142839  0.37470958  0.98940304  1
  O  O286  1  0.99580271  0.88979597  0.50061726  1
  O  O287  1  1.01316798  0.87446593  0.99185305  1
  O  O288  1  0.53162215  0.51781019  0.38617878  1
  O  O289  1  0.50519676  0.51281031  0.89134729  1
  O  O290  1  0.49750156  0.97305400  0.39939937  1
  O  O291  1  0.47137624  1.03625032  0.87942466  1
  O  O292  1  0.98967672  0.49012240  0.38191370  1
  O  O293  1  1.01233873  0.48144521  0.87547754  1
  O  O294  1  0.98930174  1.00973285  0.39285453  1
  O  O295  1  0.91031001  1.02550824  0.81508325  1
  O  O296  1  0.01664416  0.00164152  0.14480095  1
  O  O297  1  -0.00158762  0.01266636  0.60116524  1
  O  O298  1  0.01855629  0.49449125  0.12042723  1
  O  O299  1  0.00131920  0.49991841  0.60699092  1
  O  O300  1  0.52354514  -0.03606748  0.11601634  1
  O  O301  1  0.50630783  0.01624497  0.61961506  1
  O  O302  1  0.51611188  0.51162166  0.10948777  1
  O  O303  1  0.52512271  0.51838412  0.59417980  1
  O  O304  1  0.23688491  0.36435093  0.25940874  1
  O  O305  1  0.22698608  0.38865905  0.76744790  1
  O  O306  1  0.23848101  0.88403359  0.25925480  1
  O  O307  1  0.23104245  0.85908088  0.73917685  1
  O  O308  1  0.74799377  0.39317341  0.25012861  1
  O  O309  1  0.77318096  0.35844645  0.73252492  1
  O  O310  1  0.73047796  0.88017603  0.24130794  1
  O  O311  1  0.74373940  0.87380184  0.77484829  1
  O  O312  1  0.25153256  0.10599648  0.24668565  1
  O  O313  1  0.20458205  0.11625621  0.75796297  1
  O  O314  1  0.25293756  0.62304518  0.26179998  1
  O  O315  1  0.23618608  0.60094324  0.73625174  1
  O  O316  1  0.75868063  0.13706396  0.25828434  1
  O  O317  1  0.73769811  0.13485198  0.74885736  1
  O  O318  1  0.76718976  0.60840316  0.25067173  1
  O  O319  1  0.74649670  0.62126657  0.69558062  1
  O  O320  1  0.39608059  0.11800490  0.34422758  1
  O  O321  1  0.32604551  0.10869674  0.87205914  1
  O  O322  1  0.36567108  0.61551924  0.35654273  1
  O  O323  1  0.37795415  0.61806030  0.87035109  1
  O  O324  1  0.87557279  0.11678407  0.37033112  1
  O  O325  1  0.85795318  0.15389766  0.85980097  1
  O  O326  1  0.87919110  0.61215181  0.37625748  1
  O  O327  1  0.82010165  0.56024511  0.83618283  1
  O  O328  1  0.12450861  0.37912906  0.14106231  1
  O  O329  1  0.11664880  0.38710286  0.60905504  1
  O  O330  1  0.11784469  0.88107652  0.14456792  1
  O  O331  1  0.14036123  0.85732800  0.62963217  1
  O  O332  1  0.62802290  0.39861692  0.13472312  1
  O  O333  1  0.64220077  0.37744810  0.64421482  1
  O  O334  1  0.58056983  0.91604511  0.10906780  1
  O  O335  1  0.62525464  0.89768735  0.62386238  1
  O  O336  1  0.11126178  0.26200284  0.24632448  1
  O  O337  1  0.11762227  0.25185301  0.76112971  1
  O  O338  1  0.13302013  0.76216229  0.26293129  1
  O  O339  1  0.10620678  0.74727267  0.74757465  1
  O  O340  1  0.62727779  0.26695913  0.24285748  1
  O  O341  1  0.62420163  0.27113924  0.75147847  1
  O  O342  1  0.67526837  0.84613472  0.20959716  1
  O  O343  1  0.60079896  0.76190146  0.73590864  1
  O  O344  1  0.35655203  0.22168589  0.22405910  1
  O  O345  1  0.34460685  0.23441229  0.73295385  1
  O  O346  1  0.36474218  0.72573980  0.24277547  1
  O  O347  1  0.40458114  0.74868671  0.74765877  1
  O  O348  1  0.88578112  0.23825551  0.26244917  1
  O  O349  1  0.87358380  0.20345799  0.79876993  1
  O  O350  1  0.86494321  0.73518556  0.24869226  1
  O  O351  1  0.88516415  0.74088104  0.75013081  1
  O  O352  1  0.42323633  0.48910186  0.48202107  1
  O  O353  1  0.39163644  0.51049750  1.00250535  1
  O  O354  1  0.38430304  1.00922617  0.51104940  1
  O  O355  1  0.34244351  0.98390174  0.97273018  1
  O  O356  1  0.87842288  0.49320458  0.48725003  1
  O  O357  1  0.89952721  0.57283008  0.97429770  1
  O  O358  1  0.87946312  0.99635052  0.49417013  1
  O  O359  1  0.88739723  0.97697912  1.02012181  1
  O  O360  1  0.11828075  -0.00321154  0.01559815  1
  O  O361  1  0.11796227  0.00223647  0.49184764  1
  O  O362  1  0.16405455  0.49803359  0.03767911  1
  O  O363  1  0.11453741  0.50341371  0.49726602  1
  O  O364  1  0.69422832  0.01741049  0.07282404  1
  O  O365  1  0.61475616  0.01474545  0.50297062  1
  O  O366  1  0.62567156  0.50576141  0.00561274  1
  O  O367  1  0.62982720  0.50682074  0.48646060  1
  O  O368  1  0.45622436  0.33919708  0.14595530  1
  O  O369  1  0.38087571  0.35939277  0.64851069  1
  O  O370  1  0.37440514  0.88549255  0.09200739  1
  O  O371  1  0.34728126  0.88155178  0.64787841  1
  O  O372  1  0.87248942  0.41793247  0.09323946  1
  O  O373  1  0.87290302  0.37018820  0.60254900  1
  O  O374  1  0.87401206  0.87085918  0.16963023  1
  O  O375  1  0.88811118  0.88526243  0.61267773  1
  O  O376  1  0.12465614  0.12381316  0.39060486  1
  O  O377  1  0.11126950  0.13811225  0.89319846  1
  O  O378  1  0.13099218  0.62937579  0.37608625  1
  O  O379  1  0.07924814  0.60937440  0.95626547  1
  O  O380  1  0.61259734  0.12665762  0.38507623  1
  O  O381  1  0.63291519  0.14586425  0.88084911  1
  O  O382  1  0.62316569  0.69551706  0.32513816  1
  O  O383  1  0.63681679  0.62111170  0.89053178  1
