# generated using pymatgen
data_VZnO4
_symmetry_space_group_name_H-M   'P 1'
_cell_length_a   16.99833356
_cell_length_b   16.94199009
_cell_length_c   17.05706066
_cell_angle_alpha   89.66208612
_cell_angle_beta   90.61545366
_cell_angle_gamma   90.00592493
_symmetry_Int_Tables_number   1
_chemical_formula_structural   VZnO4
_chemical_formula_sum   'V64 Zn64 O256'
_cell_volume   4911.81900851
_cell_formula_units_Z   64
loop_
 _symmetry_equiv_pos_site_id
 _symmetry_equiv_pos_as_xyz
  1  'x, y, z'
loop_
 _atom_site_type_symbol
 _atom_site_label
 _atom_site_symmetry_multiplicity
 _atom_site_fract_x
 _atom_site_fract_y
 _atom_site_fract_z
 _atom_site_occupancy
  V  V0  1  0.25878997  0.47382138  0.75343752  1
  V  V1  1  0.49247740  0.23490094  0.26641173  1
  V  V2  1  0.88480691  0.62172186  0.25053829  1
  V  V3  1  0.37929994  0.24679445  0.11724375  1
  V  V4  1  0.62844660  0.37182086  0.76967881  1
  V  V5  1  0.87333231  0.48923082  0.90572301  1
  V  V6  1  0.47751590  0.50212404  -0.03002467  1
  V  V7  1  0.72890122  0.62626907  0.37068833  1
  V  V8  1  0.75755528  0.49640255  0.73340505  1
  V  V9  1  0.74647949  0.50012320  0.24544877  1
  V  V10  1  0.87621591  0.86598854  0.00564829  1
  V  V11  1  0.23420270  0.51206910  0.23774310  1
  V  V12  1  0.86833434  0.74747965  0.13881987  1
  V  V13  1  0.61751691  0.86978233  0.25826029  1
  V  V14  1  0.63045417  0.13762526  -0.01789529  1
  V  V15  1  0.50921634  -0.00184228  0.49397492  1
  V  V16  1  0.11645081  0.24768379  0.86807554  1
  V  V17  1  0.62363760  -0.02264228  0.63451664  1
  V  V18  1  0.49497248  0.01003759  -0.01596875  1
  V  V19  1  0.74728460  -0.00031026  0.75376443  1
  V  V20  1  0.36694787  0.63461430  0.76944412  1
  V  V21  1  0.61953278  0.00955628  0.12632934  1
  V  V22  1  0.38447006  0.75761359  0.63756824  1
  V  V23  1  0.11723879  0.61728431  0.01759641  1
  V  V24  1  -0.00754084  0.00567757  0.01168596  1
  V  V25  1  0.50272230  0.74667118  0.26404602  1
  V  V26  1  0.23857507  0.38507653  0.12396696  1
  V  V27  1  0.85594803  0.12219760  0.25843272  1
  V  V28  1  -0.01458187  0.84608581  0.85495085  1
  V  V29  1  0.00794472  0.48754206  0.03496638  1
  V  V30  1  0.25740887  0.75787230  0.48399336  1
  V  V31  1  0.73253140  0.74352451  0.49906801  1
  V  V32  1  0.87631086  0.13675391  0.72321449  1
  V  V33  1  0.75111632  0.62844804  0.88448736  1
  V  V34  1  -0.00235098  0.37367566  0.86011720  1
  V  V35  1  0.37986379  0.75461754  0.10330091  1
  V  V36  1  0.74254126  0.87950791  0.12559743  1
  V  V37  1  0.60042450  0.49096513  0.62996840  1
  V  V38  1  0.22920924  0.75733544  -0.01026875  1
  V  V39  1  0.88257277  -0.01181653  0.38879476  1
  V  V40  1  0.51462696  0.13222973  0.62944489  1
  V  V41  1  0.39437931  0.87059178  0.47890150  1
  V  V42  1  0.24513107  0.26127086  -0.00546796  1
  V  V43  1  -0.01913654  0.71009320  0.72812175  1
  V  V44  1  0.61704138  0.51853355  0.10801140  1
  V  V45  1  -0.00133228  0.13376040  0.14128009  1
  V  V46  1  0.23689245  0.88050105  0.12796164  1
  V  V47  1  0.86742768  0.02777711  0.88385377  1
  V  V48  1  0.76236636  0.25257405  -0.00246192  1
  V  V49  1  0.46816902  0.86521999  0.87462893  1
  V  V50  1  0.23891674  0.87812026  0.61873150  1
  V  V51  1  0.38258940  0.11834274  0.76029486  1
  V  V52  1  0.76322238  0.36490624  0.13236449  1
  V  V53  1  0.64138549  0.26213469  0.37171376  1
  V  V54  1  0.73223260  0.10852012  0.38669182  1
  V  V55  1  0.12723291  0.11916854  0.00342866  1
  V  V56  1  0.60235505  0.38234418  0.23441291  1
  V  V57  1  0.87380291  0.75951859  0.60182747  1
  V  V58  1  0.25887711  0.62721910  0.37625298  1
  V  V59  1  0.38346690  0.61775639  0.23643226  1
  V  V60  1  0.02814411  0.80154726  0.25397231  1
  V  V61  1  0.48730232  0.61525070  0.62622553  1
  V  V62  1  0.88078767  0.49984306  0.38263800  1
  V  V63  1  0.50513649  0.25728473  0.77903969  1
  Zn  Zn64  1  0.19631191  0.17735940  0.17197856  1
  Zn  Zn65  1  0.18255269  0.11530407  0.74139507  1
  Zn  Zn66  1  0.18698246  0.69780268  0.18599611  1
  Zn  Zn67  1  0.18044981  0.72722216  0.69551477  1
  Zn  Zn68  1  0.67988623  0.19262688  0.19243096  1
  Zn  Zn69  1  0.69076125  0.18748679  0.68564610  1
  Zn  Zn70  1  0.68794705  0.69084247  0.18366332  1
  Zn  Zn71  1  0.68960066  0.66714772  0.68014545  1
  Zn  Zn72  1  0.31638353  0.32018606  0.28718513  1
  Zn  Zn73  1  0.29327013  0.26879225  0.78066524  1
  Zn  Zn74  1  0.32412513  0.81399621  0.29945924  1
  Zn  Zn75  1  0.29308498  0.82013453  0.80851531  1
  Zn  Zn76  1  0.79544737  0.34916141  0.43789746  1
  Zn  Zn77  1  0.81186369  0.31399971  0.81016123  1
  Zn  Zn78  1  0.79792200  0.81112017  0.31500974  1
  Zn  Zn79  1  0.77376676  0.78551105  0.77180812  1
  Zn  Zn80  1  0.19343031  0.43654809  0.38150652  1
  Zn  Zn81  1  0.17135326  0.44230457  0.92869623  1
  Zn  Zn82  1  0.29340391  0.99607104  0.23777588  1
  Zn  Zn83  1  0.16395498  0.92932141  0.92882331  1
  Zn  Zn84  1  0.61701385  0.44610640  0.43062121  1
  Zn  Zn85  1  0.69376415  0.43281663  0.94541369  1
  Zn  Zn86  1  0.67893015  0.92463312  0.44503657  1
  Zn  Zn87  1  0.69653393  0.94918645  0.94894629  1
  Zn  Zn88  1  0.31402826  0.06471256  0.05880765  1
  Zn  Zn89  1  0.34463388  0.04034501  0.58957555  1
  Zn  Zn90  1  0.30678544  0.57393519  0.05317994  1
  Zn  Zn91  1  0.25673772  0.60529694  0.60361657  1
  Zn  Zn92  1  0.80956963  0.06960326  0.07418165  1
  Zn  Zn93  1  0.79944396  0.04814666  0.56141000  1
  Zn  Zn94  1  0.81121753  0.56216078  0.06885297  1
  Zn  Zn95  1  0.75975363  0.51092681  0.52502655  1
  Zn  Zn96  1  0.43193452  0.43656180  0.14837048  1
  Zn  Zn97  1  0.45694440  0.46324912  0.75962254  1
  Zn  Zn98  1  0.44135231  0.92451842  0.16138064  1
  Zn  Zn99  1  0.44613523  0.93625244  0.70325746  1
  Zn  Zn100  1  0.94510513  0.41483159  0.21822945  1
  Zn  Zn101  1  0.96755860  0.50018474  0.74947940  1
  Zn  Zn102  1  0.92844374  0.94523898  0.19080244  1
  Zn  Zn103  1  0.89121342  0.91571309  0.70484923  1
  Zn  Zn104  1  0.04598154  0.01114002  0.30228571  1
  Zn  Zn105  1  0.03923056  0.06698227  0.82255171  1
  Zn  Zn106  1  0.04968651  0.59655866  0.35950356  1
  Zn  Zn107  1  0.19708420  0.62778082  0.85176891  1
  Zn  Zn108  1  0.49733932  0.02940835  0.28776730  1
  Zn  Zn109  1  0.57209053  0.06748796  0.81077890  1
  Zn  Zn110  1  0.55003904  0.55720580  0.30319809  1
  Zn  Zn111  1  0.56591937  0.57902297  0.81611664  1
  Zn  Zn112  1  0.51382438  0.21586820  0.48131472  1
  Zn  Zn113  1  0.43598788  0.18539672  0.94589322  1
  Zn  Zn114  1  0.43556523  0.67213721  0.43671146  1
  Zn  Zn115  1  0.44138235  0.68256892  0.94956699  1
  Zn  Zn116  1  0.82435470  0.21423941  0.54009199  1
  Zn  Zn117  1  0.94053926  0.19854823  0.95089426  1
  Zn  Zn118  1  0.93073811  0.70857679  0.41890627  1
  Zn  Zn119  1  0.98802495  0.63240815  0.89015774  1
  Zn  Zn120  1  0.06030742  0.30990647  0.06648690  1
  Zn  Zn121  1  -0.06983821  0.29349469  0.35974380  1
  Zn  Zn122  1  0.05621068  0.81238301  0.07399503  1
  Zn  Zn123  1  0.07362312  0.67671106  0.54365773  1
  Zn  Zn124  1  0.56111427  0.32247326  0.04550397  1
  Zn  Zn125  1  0.67261109  0.32743243  0.56349803  1
  Zn  Zn126  1  0.55851461  0.82197435  0.04298533  1
  Zn  Zn127  1  0.56276550  0.80272184  0.56951552  1
  O  O128  1  0.11442290  0.12571032  0.10904140  1
  O  O129  1  0.13526919  0.09933855  0.61919901  1
  O  O130  1  0.12453310  0.62925098  0.11742572  1
  O  O131  1  0.15240455  0.65045161  0.61568370  1
  O  O132  1  0.62357408  0.10879043  0.13632900  1
  O  O133  1  0.61643208  0.10489393  0.64436958  1
  O  O134  1  0.63216600  0.61699219  0.11932074  1
  O  O135  1  0.59441207  0.61127291  0.64618862  1
  O  O136  1  0.33002798  0.33829000  0.40123940  1
  O  O137  1  0.37476509  0.35549254  0.87792237  1
  O  O138  1  0.38547078  0.87350055  0.38117626  1
  O  O139  1  0.36805715  0.87729744  0.86824295  1
  O  O140  1  0.86111003  0.40084673  0.35754199  1
  O  O141  1  0.88606686  0.38006720  0.87438717  1
  O  O142  1  0.85546549  0.89521420  0.35715262  1
  O  O143  1  0.88846908  0.87274650  0.90156589  1
  O  O144  1  0.31195311  0.07722008  0.35549554  1
  O  O145  1  0.19990455  -0.00673925  0.83922904  1
  O  O146  1  0.26654718  0.51353989  0.34808504  1
  O  O147  1  0.33060881  0.41157369  0.89291378  1
  O  O148  1  0.70737695  0.01300195  0.38008967  1
  O  O149  1  0.76191464  -0.00036904  0.87058275  1
  O  O150  1  0.75187448  0.51377932  0.35554137  1
  O  O151  1  0.77007287  0.48953502  0.87791689  1
  O  O152  1  0.24914032  0.49462141  0.12570481  1
  O  O153  1  0.23099348  0.50804499  0.66368444  1
  O  O154  1  0.26142979  0.98302588  0.11615146  1
  O  O155  1  0.26137262  0.97781888  0.62763420  1
  O  O156  1  0.74033462  0.49296577  0.12929067  1
  O  O157  1  0.72250410  0.51118471  0.63440753  1
  O  O158  1  0.73497428  0.98939632  0.12738341  1
  O  O159  1  0.73430104  0.99629853  0.63939981  1
  O  O160  1  -0.00282106  0.34880807  0.29016079  1
  O  O161  1  -0.00041853  0.38361703  0.76195869  1
  O  O162  1  0.02480485  0.90671026  0.24760322  1
  O  O163  1  -0.01618295  0.88902011  0.76492640  1
  O  O164  1  0.50186168  0.37486601  0.23165926  1
  O  O165  1  0.51312861  0.36457065  0.76053196  1
  O  O166  1  0.50819972  0.85442961  0.23677071  1
  O  O167  1  0.50604097  0.88271741  0.78256720  1
  O  O168  1  0.50124778  0.13864404  0.25088504  1
  O  O169  1  0.50445011  0.14001507  0.74862704  1
  O  O170  1  0.49262544  0.63678369  0.24010586  1
  O  O171  1  0.47359182  0.62264965  0.74920881  1
  O  O172  1  1.02890799  0.10557515  0.23395048  1
  O  O173  1  0.97568238  0.12192938  0.74561855  1
  O  O174  1  0.98258463  0.62532501  0.25836144  1
  O  O175  1  0.98977392  0.61223361  0.75342342  1
  O  O176  1  0.35211918  0.24416496  0.00173805  1
  O  O177  1  0.39925607  0.27270482  0.50846469  1
  O  O178  1  0.34601865  0.73594124  0.00477570  1
  O  O179  1  0.39046493  0.76265671  0.50000027  1
  O  O180  1  0.86056683  0.24328837  0.01535370  1
  O  O181  1  0.87873705  0.27375441  0.46128052  1
  O  O182  1  0.88555319  0.76642416  0.02725379  1
  O  O183  1  0.86210856  0.74277287  0.49856766  1
  O  O184  1  0.10568890  0.25882056  0.59919137  1
  O  O185  1  0.13115829  0.24213465  0.99659002  1
  O  O186  1  0.16113909  0.75755538  0.48679722  1
  O  O187  1  0.12510587  0.74202879  1.01391522  1
  O  O188  1  0.61040666  0.27835459  0.47013329  1
  O  O189  1  0.63052674  0.23989071  1.00654680  1
  O  O190  1  0.63390310  0.73271506  0.51578442  1
  O  O191  1  0.64103205  0.78831965  0.95675083  1
  O  O192  1  0.47870546  0.25768284  0.10518739  1
  O  O193  1  0.52349051  0.22881307  0.60735542  1
  O  O194  1  0.48132754  0.75330671  0.08998620  1
  O  O195  1  0.48831768  0.73301159  0.62682939  1
  O  O196  1  1.00446013  0.23418948  0.13151813  1
  O  O197  1  1.07467873  0.13319630  0.59378294  1
  O  O198  1  0.98071396  0.77264040  0.15833192  1
  O  O199  1  0.97097170  0.71139158  0.61584783  1
  O  O200  1  0.06244766  0.21899566  0.44007370  1
  O  O201  1  0.00299245  0.26349765  0.88082329  1
  O  O202  1  -0.01919752  0.77429251  0.33631509  1
  O  O203  1  -0.03067236  0.74333779  0.84306566  1
  O  O204  1  0.49020267  0.24437591  0.36585036  1
  O  O205  1  0.50467679  0.25046630  0.87671570  1
  O  O206  1  0.49857406  0.74204343  0.36126013  1
  O  O207  1  0.48773570  0.76777240  0.89254411  1
  O  O208  1  0.26806286  0.13813863  0.52570533  1
  O  O209  1  0.23076817  0.13019086  1.00248139  1
  O  O210  1  0.27563455  0.63623663  0.48133236  1
  O  O211  1  0.22613277  0.63185342  0.99377447  1
  O  O212  1  0.74584573  0.12669884  0.48702718  1
  O  O213  1  0.73814238  0.14036311  1.01576360  1
  O  O214  1  0.73855422  0.61600701  0.47392155  1
  O  O215  1  0.76460586  0.61795858  0.98420951  1
  O  O216  1  0.23568112  0.36734374  0.00607604  1
  O  O217  1  0.26460281  0.35452391  0.43807428  1
  O  O218  1  0.23128914  0.86341626  0.00159363  1
  O  O219  1  0.28187593  0.86597112  0.50341190  1
  O  O220  1  0.74719606  0.36227517  0.02175903  1
  O  O221  1  0.71473018  0.40843224  0.48734578  1
  O  O222  1  0.76815004  0.88256743  0.01571405  1
  O  O223  1  0.73782520  0.84427574  0.49618386  1
  O  O224  1  0.13910382  0.51183472  0.24882447  1
  O  O225  1  0.20416485  0.50538400  0.83761700  1
  O  O226  1  0.26639480  1.12784330  0.32363646  1
  O  O227  1  0.13947292  1.01665815  0.78300619  1
  O  O228  1  0.62492137  0.49327773  0.23256525  1
  O  O229  1  0.62610241  0.48613041  0.75135080  1
  O  O230  1  0.60111803  0.97739151  0.22999325  1
  O  O231  1  0.64231934  0.99339818  0.75546896  1
  O  O232  1  0.40467209  -0.00835527  0.24043556  1
  O  O233  1  0.37965387  0.01837699  0.75054943  1
  O  O234  1  0.38086734  0.51827564  0.22362056  1
  O  O235  1  0.35569232  0.51721395  0.76252454  1
  O  O236  1  0.88742169  0.01835388  0.26733857  1
  O  O237  1  0.86925713  0.02059789  0.76959207  1
  O  O238  1  0.86531527  0.51384529  0.24349246  1
  O  O239  1  0.85635860  0.48339109  0.72529522  1
  O  O240  1  0.10428150  0.42138640  0.44357828  1
  O  O241  1  0.11002598  0.35950249  0.87394555  1
  O  O242  1  0.15513478  0.98538792  0.34261662  1
  O  O243  1  0.07405389  0.86329215  0.89726978  1
  O  O244  1  0.62382083  0.36860180  0.34136827  1
  O  O245  1  0.63216076  0.37536733  0.86789827  1
  O  O246  1  0.62216438  0.87238334  0.35532010  1
  O  O247  1  0.64931618  0.84374014  0.90529137  1
  O  O248  1  0.35913686  0.14746891  0.12534668  1
  O  O249  1  0.40571186  0.12057576  0.63961639  1
  O  O250  1  0.36269383  0.64380340  0.13130380  1
  O  O251  1  0.37178305  0.63542653  0.64005930  1
  O  O252  1  0.88299601  0.12217724  0.14997378  1
  O  O253  1  0.86669591  0.12914697  0.61916533  1
  O  O254  1  0.87074196  0.64058251  0.13537209  1
  O  O255  1  0.99410700  0.53462477  0.58432266  1
  O  O256  1  0.25108005  0.26012575  0.11357221  1
  O  O257  1  0.17621369  0.25754426  0.58501802  1
  O  O258  1  0.25265814  0.76500509  0.11616596  1
  O  O259  1  0.27810211  0.75372794  0.59858528  1
  O  O260  1  0.74660138  0.26214141  0.13198170  1
  O  O261  1  0.74150252  0.25172766  0.60805479  1
  O  O262  1  0.76085755  0.76315094  0.12485074  1
  O  O263  1  0.76895214  0.71780990  0.60303675  1
  O  O264  1  0.20145841  0.26803495  0.31692637  1
  O  O265  1  0.23165503  0.25521494  0.88806892  1
  O  O266  1  0.27266596  0.74194726  0.37584349  1
  O  O267  1  0.23290192  0.75540137  0.88857527  1
  O  O268  1  0.73993720  0.26227044  0.37291058  1
  O  O269  1  0.75702315  0.26219165  0.89917335  1
  O  O270  1  0.74707785  0.73392589  0.38339803  1
  O  O271  1  0.78021765  0.72311542  0.86621666  1
  O  O272  1  0.00072113  0.12308610  0.01730388  1
  O  O273  1  0.01803045  -0.03546495  0.55626262  1
  O  O274  1  0.00454779  0.59702861  0.01203717  1
  O  O275  1  0.01736483  0.64739991  0.45516499  1
  O  O276  1  0.52136890  0.12118199  -0.00421653  1
  O  O277  1  0.50499716  0.10502170  0.51816727  1
  O  O278  1  0.50722734  0.60012037  -0.01326055  1
  O  O279  1  0.47622102  0.61272237  0.52693986  1
  O  O280  1  0.36946905  0.28755310  0.57284343  1
  O  O281  1  0.50155724  0.40389528  0.99710559  1
  O  O282  1  0.50172154  0.87928272  0.50209207  1
  O  O283  1  0.50387767  0.89798195  0.97673708  1
  O  O284  1  0.98165659  0.36510482  0.56827026  1
  O  O285  1  1.01084972  0.38888724  0.99693901  1
  O  O286  1  1.17096924  1.00312288  0.42091379  1
  O  O287  1  0.98050288  0.89065623  1.02637019  1
  O  O288  1  0.52563799  0.48696717  0.38220848  1
  O  O289  1  0.49143262  0.50137205  0.86545718  1
  O  O290  1  0.51948506  1.00631636  0.39687371  1
  O  O291  1  0.50790820  1.00762978  0.88259375  1
  O  O292  1  0.97937703  0.50564392  0.36842185  1
  O  O293  1  0.98534491  0.48508267  0.87561635  1
  O  O294  1  0.98287018  0.99727194  0.39553447  1
  O  O295  1  0.97509613  1.00378720  0.89396975  1
  O  O296  1  -0.01281791  0.01471929  0.11566301  1
  O  O297  1  -0.00774466  -0.00550743  0.61602571  1
  O  O298  1  0.00059852  0.47690267  0.13188332  1
  O  O299  1  0.02730848  0.49854685  0.63935365  1
  O  O300  1  0.51820523  -0.01298113  0.09885243  1
  O  O301  1  0.51520718  -0.00083843  0.63170004  1
  O  O302  1  0.51552417  0.50543657  0.11667643  1
  O  O303  1  0.49253965  0.50378035  0.65064231  1
  O  O304  1  0.25356563  0.40026164  0.23769921  1
  O  O305  1  0.26326384  0.37339573  0.75028018  1
  O  O306  1  0.25969940  0.88055590  0.23269659  1
  O  O307  1  0.22882382  0.83479563  0.71736436  1
  O  O308  1  0.73481718  0.38839171  0.23588850  1
  O  O309  1  0.73724626  0.38343608  0.75174912  1
  O  O310  1  0.72580378  0.86626653  0.23543763  1
  O  O311  1  0.78342938  0.89996722  0.75081736  1
  O  O312  1  0.23054353  0.09573865  0.24712343  1
  O  O313  1  0.28369288  0.15875691  0.73954513  1
  O  O314  1  0.26157943  0.62304993  0.24596695  1
  O  O315  1  0.25627408  0.64964237  0.75698426  1
  O  O316  1  0.75179146  0.13451058  0.26234858  1
  O  O317  1  0.76262387  0.10919447  0.74296764  1
  O  O318  1  0.75108340  0.61804847  0.25040378  1
  O  O319  1  0.75018778  0.59536362  0.76341348  1
  O  O320  1  0.28436864  0.18555356  0.47295498  1
  O  O321  1  0.38537148  0.13132092  0.85943163  1
  O  O322  1  0.37341620  0.62742195  0.34611688  1
  O  O323  1  0.36863279  0.64132366  0.86688883  1
  O  O324  1  0.84094997  0.09607332  0.37288532  1
  O  O325  1  0.86978012  0.12591467  0.88728444  1
  O  O326  1  0.86237378  0.61976727  0.35784087  1
  O  O327  1  0.87935763  0.58839746  0.87441312  1
  O  O328  1  0.14094405  0.36656161  0.13033510  1
  O  O329  1  0.13330226  0.41508601  0.57617675  1
  O  O330  1  0.13726631  0.87888807  0.12501486  1
  O  O331  1  0.14783307  0.87528782  0.58986984  1
  O  O332  1  0.62679810  0.37755181  0.13116927  1
  O  O333  1  0.61346675  0.38772422  0.64154977  1
  O  O334  1  0.63656511  0.87538851  0.11141936  1
  O  O335  1  0.61719695  0.87849456  0.63946272  1
  O  O336  1  0.15017311  0.24179521  0.26775534  1
  O  O337  1  0.12981076  0.22209098  0.77327996  1
  O  O338  1  0.11991047  0.76089613  0.25268823  1
  O  O339  1  0.07182710  0.75072363  0.72943660  1
  O  O340  1  0.60353045  0.26107648  0.24994488  1
  O  O341  1  0.61810835  0.26228800  0.75023185  1
  O  O342  1  0.61048668  0.75577746  0.23942190  1
  O  O343  1  0.67136131  0.76138557  0.73374759  1
  O  O344  1  0.38961672  0.25566567  0.23494818  1
  O  O345  1  0.40581938  0.25013985  0.74964253  1
  O  O346  1  0.39430222  0.74766002  0.23059404  1
  O  O347  1  0.37265433  0.74842939  0.74086418  1
  O  O348  1  0.90363936  0.20399910  0.28651122  1
  O  O349  1  0.86058345  0.23271192  0.74804253  1
  O  O350  1  0.85821260  0.73702087  0.24461621  1
  O  O351  1  0.87489194  0.74701973  0.71619451  1
  O  O352  1  0.40545692  0.44078568  0.49651812  1
  O  O353  1  0.37900079  0.50882177  0.99735582  1
  O  O354  1  0.39946709  0.98270448  0.50596450  1
  O  O355  1  0.39729660  1.02388536  0.99569827  1
  O  O356  1  0.86601201  0.50278756  0.48159934  1
  O  O357  1  0.88887024  0.49231446  1.00810637  1
  O  O358  1  0.85231067  0.98832513  0.48507784  1
  O  O359  1  0.87157832  1.00305849  0.99674893  1
  O  O360  1  0.10727821  0.01374757  -0.00806139  1
  O  O361  1  0.13473357  0.06129137  0.44983058  1
  O  O362  1  0.11829210  0.50433363  0.01118127  1
  O  O363  1  0.13367835  0.45920760  0.51700832  1
  O  O364  1  0.62875843  0.01916628  0.00788817  1
  O  O365  1  0.61760903  -0.01539378  0.52400970  1
  O  O366  1  0.63196012  0.49903216  0.01033979  1
  O  O367  1  0.60119440  0.50157576  0.53237463  1
  O  O368  1  0.35190460  0.36092281  0.12102772  1
  O  O369  1  0.34764134  0.44055717  0.53895052  1
  O  O370  1  0.36425283  0.85841128  0.11037548  1
  O  O371  1  0.38724307  0.86179682  0.63089387  1
  O  O372  1  0.86044943  0.37687692  0.14395191  1
  O  O373  1  0.92821531  0.33985582  0.60888919  1
  O  O374  1  0.85809165  0.87402353  0.13299630  1
  O  O375  1  0.88150220  0.85962867  0.60651359  1
  O  O376  1  0.13449662  0.21461539  0.44052080  1
  O  O377  1  0.09966413  0.14027138  0.89664105  1
  O  O378  1  0.15989221  0.62403586  0.36846761  1
  O  O379  1  0.10075618  0.63315558  0.90621342  1
  O  O380  1  0.63378577  0.15539515  0.36615902  1
  O  O381  1  0.63729220  0.13034145  0.88451695  1
  O  O382  1  0.63174041  0.62544298  0.35341870  1
  O  O383  1  0.64975606  0.62476414  0.87358585  1
