# generated using pymatgen
data_VZnO4
_symmetry_space_group_name_H-M   'P 1'
_cell_length_a   17.15320292
_cell_length_b   16.99677896
_cell_length_c   16.93322893
_cell_angle_alpha   89.95897532
_cell_angle_beta   90.04762484
_cell_angle_gamma   90.12690156
_symmetry_Int_Tables_number   1
_chemical_formula_structural   VZnO4
_chemical_formula_sum   'V64 Zn64 O256'
_cell_volume   4936.85425005
_cell_formula_units_Z   64
loop_
 _symmetry_equiv_pos_site_id
 _symmetry_equiv_pos_as_xyz
  1  'x, y, z'
loop_
 _atom_site_type_symbol
 _atom_site_label
 _atom_site_symmetry_multiplicity
 _atom_site_fract_x
 _atom_site_fract_y
 _atom_site_fract_z
 _atom_site_occupancy
  V  V0  1  0.63604050  0.63569445  0.00572296  1
  V  V1  1  0.12934456  0.38008580  0.25251326  1
  V  V2  1  -0.01527796  0.37829728  0.37186434  1
  V  V3  1  0.62295223  0.14947050  0.50869491  1
  V  V4  1  0.12925761  0.00025706  0.63590370  1
  V  V5  1  0.88567106  0.37363843  -0.00091290  1
  V  V6  1  0.88452119  0.76404401  0.10842200  1
  V  V7  1  0.38269895  0.74226891  0.13886886  1
  V  V8  1  0.25918957  0.01218284  0.25557507  1
  V  V9  1  0.51624809  0.26102918  0.73735333  1
  V  V10  1  0.38493684  0.87591085  -0.00458398  1
  V  V11  1  0.12464916  0.49836154  0.10338296  1
  V  V12  1  0.12753201  0.00141898  0.12038784  1
  V  V13  1  0.12665725  0.23506265  0.37967793  1
  V  V14  1  0.86782437  0.26800732  0.62566726  1
  V  V15  1  0.49852521  0.62077292  0.64886676  1
  V  V16  1  0.26981610  0.24448980  0.00502502  1
  V  V17  1  0.49854267  0.50051306  0.00348377  1
  V  V18  1  0.84888627  0.76828617  0.62311377  1
  V  V19  1  0.63977290  0.34555752  0.25947180  1
  V  V20  1  0.87886149  0.11158127  0.24252980  1
  V  V21  1  0.22977901  0.46718981  0.75725882  1
  V  V22  1  0.00314750  0.23821008  0.23680505  1
  V  V23  1  0.60203627  0.74471720  0.87134750  1
  V  V24  1  0.24392742  0.73176665  0.00142071  1
  V  V25  1  0.02592954  0.01491237  0.48246646  1
  V  V26  1  0.64139535  0.49843635  0.63949940  1
  V  V27  1  0.25729375  0.86885383  0.12700838  1
  V  V28  1  0.48999101  0.12350991  0.62329117  1
  V  V29  1  0.28549970  0.64647475  0.82528422  1
  V  V30  1  0.88134303  -0.00009527  0.37552912  1
  V  V31  1  0.28703670  0.37622343  0.61068251  1
  V  V32  1  0.48178724  0.39321761  0.35879223  1
  V  V33  1  0.25030429  -0.02243499  0.74984322  1
  V  V34  1  0.74428574  0.11188676  0.86911432  1
  V  V35  1  0.37960656  0.00557314  0.37765537  1
  V  V36  1  0.49354974  0.11120788  0.12946412  1
  V  V37  1  0.01096272  0.49097860  0.52188804  1
  V  V38  1  0.12828412  0.87016183  0.25088862  1
  V  V39  1  -0.00248184  0.73803179  0.25246223  1
  V  V40  1  0.73777595  -0.00281773  0.24391060  1
  V  V41  1  0.26493612  0.24538248  0.49510322  1
  V  V42  1  0.50828411  0.63253722  0.14398589  1
  V  V43  1  0.73402911  0.25424675  -0.00983255  1
  V  V44  1  0.24224448  0.74612119  0.52298368  1
  V  V45  1  0.00059921  0.61721920  0.11045725  1
  V  V46  1  0.76726743  0.62904486  0.38008320  1
  V  V47  1  0.36764194  0.87080771  0.51020888  1
  V  V48  1  0.13629006  0.73371337  0.37657280  1
  V  V49  1  0.85131212  0.24515386  0.12671084  1
  V  V50  1  0.48376473  0.83945950  0.37046281  1
  V  V51  1  0.76614671  0.62374129  0.85927435  1
  V  V52  1  0.63504610  0.49140401  0.14093151  1
  V  V53  1  0.25772285  0.37211712  0.12149765  1
  V  V54  1  0.64127711  0.87462426  0.75506679  1
  V  V55  1  0.61375528  0.09842968  0.00015121  1
  V  V56  1  0.87423421  0.60789885  0.72568278  1
  V  V57  1  0.47309742  0.24189126  0.24770793  1
  V  V58  1  0.25271312  0.13207377  0.86007725  1
  V  V59  1  -0.00159684  0.87134327  0.37354156  1
  V  V60  1  0.12587887  0.12881808  0.00722470  1
  V  V61  1  0.04179110  0.65567854  0.62922879  1
  V  V62  1  0.00672620  0.12728241  0.63784340  1
  V  V63  1  0.73670470  0.87578088  0.11684860  1
  Zn  Zn64  1  0.19335514  0.19127362  0.18843549  1
  Zn  Zn65  1  0.20269448  0.18039055  0.65456917  1
  Zn  Zn66  1  0.18325833  0.68400187  0.18071530  1
  Zn  Zn67  1  0.18791193  0.73736892  0.71141836  1
  Zn  Zn68  1  0.67902433  0.16910360  0.18895891  1
  Zn  Zn69  1  0.69323957  0.20162619  0.68908856  1
  Zn  Zn70  1  0.69257518  0.70837126  0.18798576  1
  Zn  Zn71  1  0.68174203  0.68936301  0.68182736  1
  Zn  Zn72  1  0.30770511  0.30648463  0.31135957  1
  Zn  Zn73  1  0.31049461  0.29762458  0.80774903  1
  Zn  Zn74  1  0.31037314  0.80708935  0.31822961  1
  Zn  Zn75  1  0.31021498  0.81535961  0.82021662  1
  Zn  Zn76  1  0.81387659  0.43622316  0.29990000  1
  Zn  Zn77  1  0.90666706  0.26743323  0.83111985  1
  Zn  Zn78  1  0.80999083  0.81262178  0.29850441  1
  Zn  Zn79  1  0.80514585  0.78635783  0.79780991  1
  Zn  Zn80  1  0.18318973  0.43325603  0.44584452  1
  Zn  Zn81  1  0.17474268  0.41263910  0.93775408  1
  Zn  Zn82  1  0.19319483  0.93065807  0.43279840  1
  Zn  Zn83  1  0.23850272  0.96077860  0.95262436  1
  Zn  Zn84  1  0.52368134  0.50377893  0.49318865  1
  Zn  Zn85  1  0.73861342  0.47026990  0.99326644  1
  Zn  Zn86  1  0.72714127  1.02988178  0.44518803  1
  Zn  Zn87  1  0.68267806  0.92788477  0.93327636  1
  Zn  Zn88  1  0.31643714  0.06047645  0.06998016  1
  Zn  Zn89  1  0.31193333  0.06120433  0.55760715  1
  Zn  Zn90  1  0.31843457  0.55590596  0.07446316  1
  Zn  Zn91  1  0.29065967  0.58098929  0.62368407  1
  Zn  Zn92  1  0.79429644  0.06051625  0.05874725  1
  Zn  Zn93  1  0.75677978  0.24414538  0.50039637  1
  Zn  Zn94  1  0.83996161  0.53204113  0.12256166  1
  Zn  Zn95  1  0.81777040  0.52141341  0.55729443  1
  Zn  Zn96  1  0.46327808  0.41354808  0.15179078  1
  Zn  Zn97  1  0.48546806  0.41702034  0.65816976  1
  Zn  Zn98  1  0.44294882  0.92779751  0.19714022  1
  Zn  Zn99  1  0.43065161  0.96664168  0.67121830  1
  Zn  Zn100  1  0.95045574  0.42200213  0.17887443  1
  Zn  Zn101  1  0.94859374  0.42927248  0.69864946  1
  Zn  Zn102  1  0.93775229  0.95946579  0.06014269  1
  Zn  Zn103  1  0.90155254  0.95859790  0.59082888  1
  Zn  Zn104  1  0.06816140  0.05924311  0.29976046  1
  Zn  Zn105  1  0.05429855  0.15439437  0.83605640  1
  Zn  Zn106  1  0.06465087  0.55617718  0.31090140  1
  Zn  Zn107  1  0.09425904  0.58565828  0.76245979  1
  Zn  Zn108  1  0.54868185  0.05220574  0.30699027  1
  Zn  Zn109  1  0.59742828  0.08313492  0.78426712  1
  Zn  Zn110  1  0.47342191  0.61122608  0.34791515  1
  Zn  Zn111  1  0.56628486  0.55530882  0.81968931  1
  Zn  Zn112  1  0.44502431  0.18917892  0.43063857  1
  Zn  Zn113  1  0.43547751  0.16695148  0.93721784  1
  Zn  Zn114  1  0.42796402  0.67734798  0.51463526  1
  Zn  Zn115  1  0.43601705  0.68270326  0.95317493  1
  Zn  Zn116  1  0.93096002  0.19244382  0.43231117  1
  Zn  Zn117  1  0.92060890  0.13438318  0.95875294  1
  Zn  Zn118  1  0.95197226  0.68262007  0.45941864  1
  Zn  Zn119  1  0.93170452  0.66879193  0.93914150  1
  Zn  Zn120  1  0.06742978  0.30820882  0.05794370  1
  Zn  Zn121  1  0.04717634  0.30010349  0.54810248  1
  Zn  Zn122  1  0.07256689  0.80635615  0.06731064  1
  Zn  Zn123  1  0.06894228  0.82626727  0.55038410  1
  Zn  Zn124  1  0.56322465  0.30650587  0.07535460  1
  Zn  Zn125  1  0.55973292  0.32180720  0.53970824  1
  Zn  Zn126  1  0.55930881  0.81331283  0.06004560  1
  Zn  Zn127  1  0.54390209  0.81997731  0.57376678  1
  O  O128  1  0.14042966  0.10837573  0.12384179  1
  O  O129  1  0.11211948  0.11747278  0.62006120  1
  O  O130  1  0.12088404  0.60487831  0.12714341  1
  O  O131  1  0.13745336  0.63343775  0.65562936  1
  O  O132  1  0.61174114  0.12188876  0.11034933  1
  O  O133  1  0.62399018  0.13630725  0.61037731  1
  O  O134  1  0.61726554  0.65128667  0.12412972  1
  O  O135  1  0.61722856  0.60945773  0.63571371  1
  O  O136  1  0.38188084  0.37718815  0.35499496  1
  O  O137  1  0.38633059  0.37970298  0.88002561  1
  O  O138  1  0.37804675  0.87271795  0.38124015  1
  O  O139  1  0.37613436  0.86038115  0.89570050  1
  O  O140  1  0.88785604  0.36863143  0.36043556  1
  O  O141  1  0.87696277  0.35531000  0.90037449  1
  O  O142  1  0.89338969  0.88372767  0.35700156  1
  O  O143  1  0.91052621  0.82322463  0.86338312  1
  O  O144  1  0.25618389  -0.00692098  0.35956946  1
  O  O145  1  0.23646919  0.01310636  0.85097534  1
  O  O146  1  0.24675181  0.52910651  0.40768047  1
  O  O147  1  0.23974072  0.45777763  0.85735426  1
  O  O148  1  0.77704662  -0.01554953  0.35666139  1
  O  O149  1  0.74160324  0.01270068  0.88610557  1
  O  O150  1  0.76378651  0.52734508  0.35948979  1
  O  O151  1  0.74610869  0.53212856  0.89828778  1
  O  O152  1  0.23345685  0.48357906  0.11207844  1
  O  O153  1  0.25002600  0.47270380  0.63041510  1
  O  O154  1  0.25265936  0.98589798  0.14135535  1
  O  O155  1  0.23672512  1.01659398  0.63904734  1
  O  O156  1  0.73322202  0.50012026  0.11011637  1
  O  O157  1  0.74037038  0.49062550  0.63222921  1
  O  O158  1  0.73896642  0.99218263  0.13352420  1
  O  O159  1  0.70646339  0.96755990  0.60515263  1
  O  O160  1  0.01345097  0.35656960  0.25234191  1
  O  O161  1  -0.00484260  0.35876550  0.78428341  1
  O  O162  1  0.02052841  0.85711229  0.25586392  1
  O  O163  1  -0.03568742  0.95186838  0.78322244  1
  O  O164  1  0.49637033  0.35319966  0.24324540  1
  O  O165  1  0.49607914  0.36022010  0.75228664  1
  O  O166  1  0.49972165  0.86441110  0.27287098  1
  O  O167  1  0.47644866  0.92919701  0.80478277  1
  O  O168  1  0.50244278  0.13279356  0.24158324  1
  O  O169  1  0.51312899  0.13606279  0.72871881  1
  O  O170  1  0.50655860  0.63578989  0.24259141  1
  O  O171  1  0.49668233  0.61952990  0.74879913  1
  O  O172  1  0.99399182  0.13085508  0.25058785  1
  O  O173  1  1.00614732  0.12293003  0.73691136  1
  O  O174  1  1.00989660  0.63611975  0.24353270  1
  O  O175  1  0.99126879  0.62103676  0.71767833  1
  O  O176  1  0.36699280  0.24638686  -0.00116913  1
  O  O177  1  0.36079763  0.25077305  0.47923743  1
  O  O178  1  0.36848356  0.75735951  0.01760544  1
  O  O179  1  0.35174779  0.75920985  0.50699168  1
  O  O180  1  0.85709553  0.23478984  0.01960497  1
  O  O181  1  0.86995080  0.24327948  0.51135586  1
  O  O182  1  0.88557066  0.74469714  0.01093942  1
  O  O183  1  0.89948277  0.74449191  0.53772951  1
  O  O184  1  0.12605566  0.25099569  0.48248685  1
  O  O185  1  0.13758881  0.23246147  1.01368280  1
  O  O186  1  0.13427339  0.75511020  0.48351589  1
  O  O187  1  0.14509250  0.74538067  1.00862323  1
  O  O188  1  0.63663842  0.25241545  0.49196818  1
  O  O189  1  0.63482723  0.25688470  1.00728666  1
  O  O190  1  0.62863972  0.82618581  0.46779489  1
  O  O191  1  0.61438976  0.74304992  0.98729608  1
  O  O192  1  0.50178485  0.23756521  0.14120819  1
  O  O193  1  0.50395851  0.25288022  0.63211456  1
  O  O194  1  0.48863586  0.74629082  0.12701841  1
  O  O195  1  0.51090900  0.71368996  0.59820813  1
  O  O196  1  1.01188065  0.24264324  0.13791793  1
  O  O197  1  0.98637999  0.22575595  0.60971205  1
  O  O198  1  1.00401980  0.73914310  0.13283835  1
  O  O199  1  1.03775664  0.75528676  0.63278563  1
  O  O200  1  0.01088646  0.25735296  0.36615762  1
  O  O201  1  -0.02179507  0.20794289  0.89311319  1
  O  O202  1  0.00675080  0.75087892  0.36892049  1
  O  O203  1  -0.03287280  0.77569300  0.86584345  1
  O  O204  1  0.49328721  0.25460736  0.35180676  1
  O  O205  1  0.46358526  0.23724219  0.84399229  1
  O  O206  1  0.47589869  0.74159381  0.37155973  1
  O  O207  1  0.50408024  0.73882630  0.87393585  1
  O  O208  1  0.24751396  0.14755702  0.51829117  1
  O  O209  1  0.25110174  0.13565759  1.00529770  1
  O  O210  1  0.25140888  0.64715454  0.53590445  1
  O  O211  1  0.25769731  0.63383164  1.01715720  1
  O  O212  1  0.72823680  0.13164535  0.49082752  1
  O  O213  1  0.72681531  0.13124010  0.99770341  1
  O  O214  1  0.76202319  0.60352433  0.48180541  1
  O  O215  1  0.73135442  0.63733138  1.01613465  1
  O  O216  1  0.24421207  0.35647065  0.01086319  1
  O  O217  1  0.25010942  0.36718241  0.50791076  1
  O  O218  1  0.25624236  0.85911273  0.01528339  1
  O  O219  1  0.26030450  0.86294318  0.49101142  1
  O  O220  1  0.76098252  0.35529551  0.00379750  1
  O  O221  1  0.75037979  0.41284429  0.49640576  1
  O  O222  1  0.75142177  0.88680439  0.01827083  1
  O  O223  1  0.74039791  0.94693602  0.54307123  1
  O  O224  1  0.12549004  0.48150474  0.24530711  1
  O  O225  1  0.13149207  0.47963864  0.74851623  1
  O  O226  1  0.14039940  0.99006309  0.24208779  1
  O  O227  1  0.12804204  0.99662173  0.73565029  1
  O  O228  1  0.63844765  0.52238207  0.23189227  1
  O  O229  1  0.61984595  0.49730013  0.74037905  1
  O  O230  1  0.64278177  0.99820156  0.26613682  1
  O  O231  1  0.62023507  0.97163345  0.77078547  1
  O  O232  1  0.36299693  -0.00906251  0.26105510  1
  O  O233  1  0.34806739  -0.00846745  0.74165381  1
  O  O234  1  0.29659242  0.56299167  0.22633993  1
  O  O235  1  0.39450976  0.44248831  0.84384240  1
  O  O236  1  0.88795898  0.01145883  0.24942356  1
  O  O237  1  0.85835969  0.05121608  0.65133367  1
  O  O238  1  0.87266980  0.48845422  0.22186932  1
  O  O239  1  0.88744892  0.51080321  0.74758036  1
  O  O240  1  0.12639793  0.36669069  0.35812524  1
  O  O241  1  0.09160398  0.34995695  0.87497821  1
  O  O242  1  0.12078414  0.86361205  0.36586070  1
  O  O243  1  0.04784242  0.90401480  0.92469606  1
  O  O244  1  0.60106884  0.38070023  0.34513182  1
  O  O245  1  0.64240723  0.38127368  0.86385157  1
  O  O246  1  0.60417068  0.85075145  0.40089105  1
  O  O247  1  0.62430910  0.85249501  0.87040703  1
  O  O248  1  0.39460334  0.12234440  0.11769042  1
  O  O249  1  0.39004393  0.12063125  0.61865548  1
  O  O250  1  0.39284858  0.63524645  0.12798993  1
  O  O251  1  0.39669774  0.61752814  0.61739680  1
  O  O252  1  0.86971667  0.13087075  0.13794392  1
  O  O253  1  0.89267819  0.11460093  0.61963055  1
  O  O254  1  0.89872351  0.63242148  0.12321683  1
  O  O255  1  0.85822262  0.60928904  0.62738494  1
  O  O256  1  0.25349541  0.26001538  0.11756332  1
  O  O257  1  0.26094777  0.26748543  0.60949370  1
  O  O258  1  0.26024761  0.75084763  0.12356182  1
  O  O259  1  0.22270664  0.77877340  0.61495300  1
  O  O260  1  0.75191335  0.24171511  0.12943109  1
  O  O261  1  0.76345953  0.25728051  0.62125041  1
  O  O262  1  0.77880067  0.76958427  0.13117344  1
  O  O263  1  0.74964024  0.75178523  0.61491121  1
  O  O264  1  0.23516918  0.25346343  0.38345548  1
  O  O265  1  0.25138793  0.24292119  0.89113889  1
  O  O266  1  0.23678728  0.74094699  0.37487248  1
  O  O267  1  0.26090499  0.73735116  0.89677065  1
  O  O268  1  0.75620274  0.36227461  0.44288018  1
  O  O269  1  0.73974499  0.23789515  0.89233049  1
  O  O270  1  0.78850216  0.73188098  0.39504112  1
  O  O271  1  0.74848490  0.72556998  0.87803913  1
  O  O272  1  0.03064653  0.11416362  0.00783519  1
  O  O273  1  0.00340391  0.11230123  0.48023093  1
  O  O274  1  0.00871462  0.62759303  0.01062596  1
  O  O275  1  0.01382806  0.61750292  0.53561598  1
  O  O276  1  0.50733710  0.12279320  0.01130569  1
  O  O277  1  0.51070412  0.15038387  0.51495679  1
  O  O278  1  0.50911231  0.62049190  0.01783230  1
  O  O279  1  0.48995046  0.60370923  0.45808586  1
  O  O280  1  0.50178764  0.39231977  0.46591644  1
  O  O281  1  0.50756597  0.40036298  1.04057174  1
  O  O282  1  0.47528045  0.85835375  0.48884400  1
  O  O283  1  0.48242793  0.87974877  1.01240655  1
  O  O284  1  1.00439736  0.38065636  0.48044289  1
  O  O285  1  0.98500725  0.36716201  1.01413852  1
  O  O286  1  1.00808866  0.89400838  0.48155415  1
  O  O287  1  1.01265767  0.88004116  0.98704639  1
  O  O288  1  0.48543566  0.49013266  0.33648823  1
  O  O289  1  0.51778886  0.49805571  0.90500005  1
  O  O290  1  0.47875091  0.98554579  0.36977313  1
  O  O291  1  0.48185098  0.98337571  0.85321379  1
  O  O292  1  0.99759887  0.47654898  0.35360765  1
  O  O293  1  1.04014812  0.39795615  0.83995659  1
  O  O294  1  1.00151796  0.99298928  0.37046399  1
  O  O295  1  0.91771878  0.98506595  0.82671845  1
  O  O296  1  0.03039381  -0.00983557  0.12174855  1
  O  O297  1  0.01049836  0.01345688  0.59818487  1
  O  O298  1  0.01301630  0.50903250  0.12577963  1
  O  O299  1  0.02264615  0.47175929  0.62005111  1
  O  O300  1  0.50007581  0.01098667  0.14533510  1
  O  O301  1  0.51011560  0.02273619  0.62028423  1
  O  O302  1  0.51643782  0.52174915  0.13286637  1
  O  O303  1  0.50763393  0.51799121  0.61330395  1
  O  O304  1  0.23289564  0.36124944  0.23456838  1
  O  O305  1  0.26896517  0.36814388  0.72949686  1
  O  O306  1  0.24139082  0.86974812  0.24371134  1
  O  O307  1  0.23861722  0.87766376  0.75772152  1
  O  O308  1  0.73675327  0.36386528  0.26760502  1
  O  O309  1  0.69234806  0.38058755  0.81309673  1
  O  O310  1  0.77240053  0.89614415  0.22900860  1
  O  O311  1  0.74094795  0.86743944  0.75284545  1
  O  O312  1  0.25270149  0.11005767  0.24610452  1
  O  O313  1  0.24101179  0.14913676  0.76065914  1
  O  O314  1  0.25038285  0.61288908  0.25522805  1
  O  O315  1  0.27862196  0.56509649  0.74821834  1
  O  O316  1  0.76415411  0.10454024  0.24693433  1
  O  O317  1  0.71059537  0.12092984  0.76961530  1
  O  O318  1  0.76993825  0.63927565  0.27589406  1
  O  O319  1  0.76137445  0.61863927  0.75351236  1
  O  O320  1  0.37954498  0.10408579  0.38470520  1
  O  O321  1  0.34846933  0.11601998  0.88157875  1
  O  O322  1  0.35149089  0.60124425  0.38023432  1
  O  O323  1  0.36542960  0.62436845  0.87781983  1
  O  O324  1  0.88136898  0.10896599  0.36115357  1
  O  O325  1  0.84129476  0.13019261  0.86527020  1
  O  O326  1  0.87292565  0.62524220  0.39017805  1
  O  O327  1  0.87151773  0.62789339  0.85620643  1
  O  O328  1  0.12608060  0.38370996  0.13086246  1
  O  O329  1  0.10379115  0.33111725  0.65637134  1
  O  O330  1  0.13910167  0.87929415  0.13164913  1
  O  O331  1  0.12490788  0.90494410  0.60867327  1
  O  O332  1  0.62269109  0.38572986  0.15390345  1
  O  O333  1  0.60034970  0.39941651  0.61454706  1
  O  O334  1  0.64183316  0.85151543  0.12878327  1
  O  O335  1  0.59521662  0.85836421  0.66419213  1
  O  O336  1  0.11802534  0.25073927  0.25562197  1
  O  O337  1  0.12378653  0.27569401  0.70359930  1
  O  O338  1  0.12300322  0.75062882  0.25731667  1
  O  O339  1  0.13119560  0.70241834  0.80673738  1
  O  O340  1  0.62866515  0.24407760  0.25681969  1
  O  O341  1  0.61482260  0.25634549  0.75233843  1
  O  O342  1  0.70027213  0.77282628  0.27890952  1
  O  O343  1  0.62690350  0.74766184  0.76807254  1
  O  O344  1  0.37448334  0.23990696  0.24572565  1
  O  O345  1  0.40535532  0.23380127  0.78311200  1
  O  O346  1  0.36635722  0.74812002  0.23727979  1
  O  O347  1  0.30271288  0.71892650  0.75318335  1
  O  O348  1  0.89303580  0.23569199  0.23776624  1
  O  O349  1  0.87924791  0.24584544  0.72449992  1
  O  O350  1  0.89828452  0.75457223  0.24091748  1
  O  O351  1  0.87317613  0.73004981  0.72183225  1
  O  O352  1  0.32180358  0.52943889  0.38596219  1
  O  O353  1  0.39885752  0.50907426  1.01247487  1
  O  O354  1  0.35784995  0.98323057  0.48549301  1
  O  O355  1  0.34897150  0.97601905  0.99925402  1
  O  O356  1  0.91150079  0.50398358  0.50113436  1
  O  O357  1  0.86343170  0.47331983  1.01791396  1
  O  O358  1  0.88915574  0.99638568  0.47744634  1
  O  O359  1  0.88494655  1.03376927  1.00082341  1
  O  O360  1  0.15286698  0.00572590  0.01714924  1
  O  O361  1  0.12531253  0.00907111  0.48508071  1
  O  O362  1  0.11862669  0.48868940  0.00482745  1
  O  O363  1  0.10123679  0.50284474  0.47485408  1
  O  O364  1  0.61790938  -0.00015227  0.00119998  1
  O  O365  1  0.61129312  0.04067090  0.45709127  1
  O  O366  1  0.61880817  0.52422711  0.02277633  1
  O  O367  1  0.63337117  0.50520886  0.52134859  1
  O  O368  1  0.35255014  0.39052132  0.13448346  1
  O  O369  1  0.38383030  0.38466792  0.60679035  1
  O  O370  1  0.37034490  0.86327964  0.12641927  1
  O  O371  1  0.38068792  0.88429164  0.60925447  1
  O  O372  1  0.87898725  0.34514770  0.12232606  1
  O  O373  1  0.88917850  0.36581220  0.62317590  1
  O  O374  1  0.90191760  0.86361800  0.11047094  1
  O  O375  1  0.86579902  0.86729622  0.63596666  1
  O  O376  1  0.12343524  0.13730192  0.36475072  1
  O  O377  1  0.14380047  0.12363647  0.89676107  1
  O  O378  1  0.11783628  0.63661985  0.37051047  1
  O  O379  1  0.17240283  0.63243872  0.84148693  1
  O  O380  1  0.60222576  0.10422292  0.39897188  1
  O  O381  1  0.61704387  0.12051940  0.89675401  1
  O  O382  1  0.66861966  0.64856949  0.38596629  1
  O  O383  1  0.62743104  0.63345508  0.88890562  1
