# generated using pymatgen
data_VZnO4
_symmetry_space_group_name_H-M   'P 1'
_cell_length_a   17.08828332
_cell_length_b   17.12759528
_cell_length_c   16.97549865
_cell_angle_alpha   89.93160768
_cell_angle_beta   89.86912764
_cell_angle_gamma   90.33963243
_symmetry_Int_Tables_number   1
_chemical_formula_structural   VZnO4
_chemical_formula_sum   'V64 Zn64 O256'
_cell_volume   4968.30545701
_cell_formula_units_Z   64
loop_
 _symmetry_equiv_pos_site_id
 _symmetry_equiv_pos_as_xyz
  1  'x, y, z'
loop_
 _atom_site_type_symbol
 _atom_site_label
 _atom_site_symmetry_multiplicity
 _atom_site_fract_x
 _atom_site_fract_y
 _atom_site_fract_z
 _atom_site_occupancy
  V  V0  1  0.02634813  0.83527964  0.87574987  1
  V  V1  1  0.13277610  0.49479973  0.63232825  1
  V  V2  1  0.00807840  -0.01526481  0.00305067  1
  V  V3  1  0.85814205  0.76168970  0.10445870  1
  V  V4  1  0.38832077  0.00177503  0.37435192  1
  V  V5  1  0.24616170  0.11113108  0.36261926  1
  V  V6  1  0.12384727  0.39070293  0.27936756  1
  V  V7  1  0.38420269  0.37442392  0.00029059  1
  V  V8  1  0.62447008  0.48077133  0.13306193  1
  V  V9  1  0.39322735  0.25441601  0.16137206  1
  V  V10  1  0.88372555  0.25377789  0.62971410  1
  V  V11  1  0.00346233  0.10168883  0.62681878  1
  V  V12  1  0.73570845  0.48614057  0.75442504  1
  V  V13  1  0.87417543  0.61960538  0.23194504  1
  V  V14  1  0.48995478  -0.01421334  -0.00607283  1
  V  V15  1  0.74275840  0.23545386  0.50093329  1
  V  V16  1  0.39714505  0.84864907  0.50086396  1
  V  V17  1  0.74949417  0.13955578  0.87878178  1
  V  V18  1  0.75775671  0.61517799  0.38712384  1
  V  V19  1  0.00507906  0.49640288  0.50028360  1
  V  V20  1  0.14866539  0.25192834  0.87785191  1
  V  V21  1  0.52196320  0.50931755  0.51604163  1
  V  V22  1  0.87909744  0.37976324  0.49081280  1
  V  V23  1  0.22563007  0.91985901  0.62038509  1
  V  V24  1  0.51890856  0.63358179  0.64137760  1
  V  V25  1  0.12128449  0.50463206  0.11832888  1
  V  V26  1  0.88140884  0.62395559  0.75122469  1
  V  V27  1  0.16257448  0.72056815  0.85429716  1
  V  V28  1  0.75372236  0.48645077  0.24591502  1
  V  V29  1  0.88377429  0.48631397  0.87519763  1
  V  V30  1  0.36852463  0.11634466  0.74763596  1
  V  V31  1  0.73799398  0.37576213  0.62700353  1
  V  V32  1  0.76187357  0.01928105  0.25293396  1
  V  V33  1  0.73975968  0.62705948  0.87640707  1
  V  V34  1  0.61018071  0.00708847  0.59543654  1
  V  V35  1  -0.00695815  0.75484323  0.25255781  1
  V  V36  1  0.86615748  -0.00541481  0.89373769  1
  V  V37  1  0.62163807  0.13418571  0.02213027  1
  V  V38  1  0.87510097  0.75393842  0.62912305  1
  V  V39  1  0.62038948  0.26741558  0.37208264  1
  V  V40  1  0.12106372  0.23687599  0.39158904  1
  V  V41  1  0.50754668  0.48903841  -0.00415200  1
  V  V42  1  0.10857111  0.61164125  -0.00728615  1
  V  V43  1  0.87426779  0.90897707  0.45796470  1
  V  V44  1  0.35899458  0.85545783  -0.00639102  1
  V  V45  1  0.37066317  0.50559689  0.39821314  1
  V  V46  1  0.87611667  0.13259637  0.75805947  1
  V  V47  1  0.25197894  0.52456621  0.26168680  1
  V  V48  1  0.25918074  0.72075609  0.01318349  1
  V  V49  1  0.37813660  0.75020892  0.65268072  1
  V  V50  1  0.09389671  0.36773862  0.75058417  1
  V  V51  1  0.50568919  0.74425764  0.22580420  1
  V  V52  1  0.63883661  0.84985786  0.26689022  1
  V  V53  1  0.88127263  0.37409135  0.02215154  1
  V  V54  1  0.62676511  0.62565031  0.00893411  1
  V  V55  1  0.75808791  0.26044856  0.02293933  1
  V  V56  1  0.61424935  0.26012610  0.86891280  1
  V  V57  1  0.74085679  -0.00303243  0.74786512  1
  V  V58  1  0.04924193  0.66193439  0.58923515  1
  V  V59  1  0.38923913  0.63033862  0.24978243  1
  V  V60  1  0.62428967  0.72636497  0.40159916  1
  V  V61  1  0.25604227  0.37739727  0.13418375  1
  V  V62  1  0.63543030  -0.03542600  0.10991656  1
  V  V63  1  0.27565201  0.26116637  0.49445460  1
  Zn  Zn64  1  0.17039628  0.20757499  0.19622649  1
  Zn  Zn65  1  0.18311047  0.19867570  0.67227151  1
  Zn  Zn66  1  0.16950508  0.77259693  0.17177084  1
  Zn  Zn67  1  0.16993114  0.76604292  0.65047047  1
  Zn  Zn68  1  0.68993176  0.19552631  0.20162145  1
  Zn  Zn69  1  0.68443044  0.18341671  0.68644278  1
  Zn  Zn70  1  0.69324065  0.67300687  0.18792137  1
  Zn  Zn71  1  0.71665003  0.67101221  0.67108643  1
  Zn  Zn72  1  0.30251903  0.32939874  0.32205293  1
  Zn  Zn73  1  0.33744617  0.32171888  0.79977632  1
  Zn  Zn74  1  0.34869906  0.83384616  0.29720727  1
  Zn  Zn75  1  0.36332724  0.88609182  0.78692976  1
  Zn  Zn76  1  0.80859651  0.30535333  0.31772722  1
  Zn  Zn77  1  0.80722115  0.31217119  0.81428975  1
  Zn  Zn78  1  0.81107237  0.79299442  0.31671188  1
  Zn  Zn79  1  0.74902950  0.84004171  0.86318380  1
  Zn  Zn80  1  0.20436308  0.44682100  0.45649439  1
  Zn  Zn81  1  0.17445143  0.40385121  0.95527088  1
  Zn  Zn82  1  0.24493297  0.92148655  0.43557140  1
  Zn  Zn83  1  0.19343144  0.92986624  1.05504883  1
  Zn  Zn84  1  0.69536484  0.44103939  0.43795121  1
  Zn  Zn85  1  0.68904637  0.43180885  0.94222012  1
  Zn  Zn86  1  0.70685221  0.92357424  0.43629685  1
  Zn  Zn87  1  0.57180519  0.91228636  0.82107075  1
  Zn  Zn88  1  0.31417183  0.09601723  0.04567674  1
  Zn  Zn89  1  0.31236731  0.07863023  0.54729944  1
  Zn  Zn90  1  0.32182394  0.55309942  0.07244906  1
  Zn  Zn91  1  0.32443998  0.56713199  0.59895946  1
  Zn  Zn92  1  0.77712675  0.04659531  0.04980615  1
  Zn  Zn93  1  0.81659767  0.05558247  0.56287936  1
  Zn  Zn94  1  0.80724132  0.55241727  0.05943474  1
  Zn  Zn95  1  0.81718628  0.55431632  0.56822092  1
  Zn  Zn96  1  0.44361313  0.44677176  0.20115795  1
  Zn  Zn97  1  0.44232254  0.41809838  0.64487348  1
  Zn  Zn98  1  0.33388229  0.98002107  0.16291477  1
  Zn  Zn99  1  0.48521107  0.92420851  0.65339511  1
  Zn  Zn100  1  0.94437546  0.44633656  0.19774083  1
  Zn  Zn101  1  0.93312855  0.44313893  0.68378708  1
  Zn  Zn102  1  0.91674702  0.92507811  0.19158324  1
  Zn  Zn103  1  0.92829657  0.93532421  0.72092748  1
  Zn  Zn104  1  0.00929604  0.26402958  0.24649767  1
  Zn  Zn105  1  0.03064096  0.12412574  0.85915128  1
  Zn  Zn106  1  0.05761040  0.56882401  0.30982654  1
  Zn  Zn107  1  0.06548798  0.55487053  0.80821910  1
  Zn  Zn108  1  0.49878633  -0.03965064  0.24182778  1
  Zn  Zn109  1  0.56786870  0.08000514  0.82423116  1
  Zn  Zn110  1  0.56166129  0.54869614  0.31887316  1
  Zn  Zn111  1  0.55675339  0.55107020  0.81640905  1
  Zn  Zn112  1  0.41697430  0.20767310  0.36638911  1
  Zn  Zn113  1  0.44216197  0.19917164  0.96282597  1
  Zn  Zn114  1  0.44755786  0.67149441  0.43839091  1
  Zn  Zn115  1  0.44596394  0.68010036  0.94579508  1
  Zn  Zn116  1  0.95769267  0.20120961  0.46010237  1
  Zn  Zn117  1  0.98832828  0.33499563  0.88732750  1
  Zn  Zn118  1  0.93280564  0.68735222  0.43828968  1
  Zn  Zn119  1  0.92472569  0.67742239  0.93775119  1
  Zn  Zn120  1  0.07062822  0.30265207  0.06459069  1
  Zn  Zn121  1  0.06416989  0.32194238  0.56495157  1
  Zn  Zn122  1  0.02551642  0.83238534  0.08478292  1
  Zn  Zn123  1  0.02157458  0.89147089  0.58949532  1
  Zn  Zn124  1  0.56440080  0.30677490  0.07415107  1
  Zn  Zn125  1  0.56897295  0.33583681  0.51836672  1
  Zn  Zn126  1  0.58672678  0.82861201  -0.02047505  1
  Zn  Zn127  1  0.57231726  0.81224336  0.57121103  1
  O  O128  1  0.10699663  0.06064095  0.17264008  1
  O  O129  1  0.09701658  0.12901994  0.64431481  1
  O  O130  1  0.13040204  0.60761974  0.10200618  1
  O  O131  1  0.10906129  0.59849322  0.64737558  1
  O  O132  1  0.62578119  0.14438983  0.12170111  1
  O  O133  1  0.63211257  0.10212819  0.62998754  1
  O  O134  1  0.63557285  0.60828625  0.11053339  1
  O  O135  1  0.61981181  0.63616459  0.63302567  1
  O  O136  1  0.36556019  0.40800247  0.37773701  1
  O  O137  1  0.37920582  0.36169792  0.90348589  1
  O  O138  1  0.35678355  0.88493135  0.40146249  1
  O  O139  1  0.35429353  0.89595946  0.89999675  1
  O  O140  1  0.87122043  0.37039969  0.39342228  1
  O  O141  1  0.88025594  0.37721445  0.87539338  1
  O  O142  1  0.86913349  0.87852118  0.35944948  1
  O  O143  1  0.85477165  0.89751821  0.88502665  1
  O  O144  1  0.23402287  0.01063319  0.36939356  1
  O  O145  1  0.18115584  -0.01949632  0.84180724  1
  O  O146  1  0.25035236  0.51043371  0.36800303  1
  O  O147  1  0.24911085  0.47875742  0.87805304  1
  O  O148  1  0.72441197  -0.01945440  0.33824686  1
  O  O149  1  0.76426209  0.02760790  0.87765646  1
  O  O150  1  0.74217227  0.50770833  0.35950774  1
  O  O151  1  0.75501490  0.48890624  0.86297212  1
  O  O152  1  0.24771596  0.49879648  0.14598493  1
  O  O153  1  0.23171006  0.50855466  0.62530291  1
  O  O154  1  0.25178569  1.01856136  0.09667159  1
  O  O155  1  0.22764103  1.01766758  0.60086500  1
  O  O156  1  0.74272447  0.49526958  0.13661937  1
  O  O157  1  0.75666208  0.48322331  0.64049914  1
  O  O158  1  0.73501754  1.00065082  0.14601625  1
  O  O159  1  0.75566361  1.00568959  0.64732333  1
  O  O160  1  0.02203314  0.38464802  0.25220561  1
  O  O161  1  -0.00579384  0.36447695  0.74682167  1
  O  O162  1  -0.00859447  0.85539794  0.24296385  1
  O  O163  1  -0.00012384  0.89052555  0.79723563  1
  O  O164  1  0.51625004  0.44913244  0.28439926  1
  O  O165  1  0.50615993  0.27450960  0.66633238  1
  O  O166  1  0.51535011  0.84573926  0.25320999  1
  O  O167  1  0.47476999  0.91624329  0.76384478  1
  O  O168  1  0.42837010  0.03068434  0.19577203  1
  O  O169  1  0.47032602  0.10723028  0.76603590  1
  O  O170  1  0.49571241  0.63115950  0.25437926  1
  O  O171  1  0.50934921  0.61695700  0.74171577  1
  O  O172  1  0.95906367  0.13849385  0.25745987  1
  O  O173  1  0.97842180  0.12166529  0.74681401  1
  O  O174  1  0.97483075  0.61620797  0.25294017  1
  O  O175  1  0.97808848  0.60396062  0.75672308  1
  O  O176  1  0.39071275  0.27897689  0.03915149  1
  O  O177  1  0.37304237  0.25094260  0.46775066  1
  O  O178  1  0.37004131  0.74790305  -0.00612813  1
  O  O179  1  0.38238066  0.75135035  0.49010834  1
  O  O180  1  0.86193966  0.26573521  0.01039701  1
  O  O181  1  0.86790981  0.25956815  0.51037157  1
  O  O182  1  0.86822407  0.74576452  0.00384386  1
  O  O183  1  0.88451274  0.73631374  0.53010616  1
  O  O184  1  0.12121012  0.26007194  0.49111272  1
  O  O185  1  0.14587763  0.29161145  0.97819214  1
  O  O186  1  0.11662718  0.72549453  0.55272151  1
  O  O187  1  0.14898095  0.71161950  0.98686572  1
  O  O188  1  0.63908860  0.24458398  0.50122337  1
  O  O189  1  0.63635176  0.24695671  1.00178796  1
  O  O190  1  0.62834166  0.74232238  0.49956514  1
  O  O191  1  0.62216572  0.72225629  1.00258762  1
  O  O192  1  0.49276696  0.26077632  0.15219601  1
  O  O193  1  0.50159154  0.24064694  0.60153473  1
  O  O194  1  0.50040962  0.74255974  0.13093338  1
  O  O195  1  0.49978494  0.73884462  0.62930215  1
  O  O196  1  1.06812917  0.23161045  0.15086034  1
  O  O197  1  0.98283054  0.25159438  0.62029273  1
  O  O198  1  0.96749569  0.74843628  0.13141116  1
  O  O199  1  0.98940489  0.71727054  0.64522531  1
  O  O200  1  0.01466636  0.24207197  0.37249239  1
  O  O201  1  0.03341324  0.23654240  0.87263006  1
  O  O202  1  -0.01342570  0.73998382  0.35431346  1
  O  O203  1  -0.00558766  0.74151061  0.87268962  1
  O  O204  1  0.52613677  0.23428089  0.37837464  1
  O  O205  1  0.51577880  0.24421521  0.88931457  1
  O  O206  1  0.52602002  0.73184101  0.37606919  1
  O  O207  1  0.50576389  0.76569909  0.88429317  1
  O  O208  1  0.26127479  0.14085171  0.46561134  1
  O  O209  1  0.33623749  0.16499019  0.96079552  1
  O  O210  1  0.18309290  0.64791487  0.41976239  1
  O  O211  1  0.27495991  0.62128349  0.99644443  1
  O  O212  1  0.75796082  0.14030819  0.50772998  1
  O  O213  1  0.75040312  0.14807921  0.99807160  1
  O  O214  1  0.75631414  0.60256903  0.48661815  1
  O  O215  1  0.73886564  0.60767116  0.98416126  1
  O  O216  1  0.27508351  0.39245376  0.02728477  1
  O  O217  1  0.25757072  0.36074543  0.50214324  1
  O  O218  1  0.25228017  0.83590290  -0.00270249  1
  O  O219  1  0.27360779  0.88049231  0.53584980  1
  O  O220  1  0.76076496  0.36503027  0.00340652  1
  O  O221  1  0.76488600  0.37815776  0.51396203  1
  O  O222  1  0.64656480  0.87130984  -0.10609676  1
  O  O223  1  0.78810395  0.87251671  0.49841988  1
  O  O224  1  0.13368410  0.50616565  0.24643717  1
  O  O225  1  0.11791575  0.47841351  0.74289445  1
  O  O226  1  0.08185746  1.02980135  0.23297971  1
  O  O227  1  0.13694762  0.99649707  0.78745732  1
  O  O228  1  0.64213128  0.50625564  0.23764790  1
  O  O229  1  0.63847380  0.49202789  0.75472087  1
  O  O230  1  0.61613864  0.94831763  0.22058994  1
  O  O231  1  0.63816534  1.00666874  0.76652872  1
  O  O232  1  0.35426142  -0.05254495  0.27355169  1
  O  O233  1  0.35942261  0.01278591  0.74875282  1
  O  O234  1  0.36219827  0.51381523  0.26368808  1
  O  O235  1  0.34805961  0.55721040  0.76419795  1
  O  O236  1  0.86027476  0.00469703  0.24532053  1
  O  O237  1  0.86311251  0.01756555  0.76846914  1
  O  O238  1  0.86327260  0.50724274  0.24625035  1
  O  O239  1  0.86459417  0.49526854  0.76281336  1
  O  O240  1  0.12636427  0.40278215  0.37630104  1
  O  O241  1  0.10543006  0.37689256  0.85748568  1
  O  O242  1  0.17220825  0.83301935  0.31984960  1
  O  O243  1  0.12814759  0.82277557  0.87271877  1
  O  O244  1  0.61569237  0.36450935  0.40617312  1
  O  O245  1  0.62975509  0.35808816  0.88010317  1
  O  O246  1  0.63925696  0.84248718  0.37030178  1
  O  O247  1  0.58266058  0.78305586  0.77622600  1
  O  O248  1  0.36406161  0.16373095  0.13454947  1
  O  O249  1  0.37706879  0.11212593  0.64272932  1
  O  O250  1  0.37911768  0.61516478  0.15178303  1
  O  O251  1  0.39237004  0.64406684  0.63628705  1
  O  O252  1  0.93858226  0.13022943  0.09131403  1
  O  O253  1  0.87827612  0.13592128  0.63693523  1
  O  O254  1  0.87189315  0.61639449  0.13018378  1
  O  O255  1  0.85750358  0.62531180  0.64562534  1
  O  O256  1  0.25207668  0.27751972  0.14479232  1
  O  O257  1  0.25512941  0.22914469  0.59091364  1
  O  O258  1  0.25363996  0.72511407  0.11219610  1
  O  O259  1  0.28021109  0.74670274  0.63094134  1
  O  O260  1  0.75094717  0.25273680  0.12111937  1
  O  O261  1  0.75527787  0.25934329  0.61677710  1
  O  O262  1  0.76289418  0.73116987  0.12276444  1
  O  O263  1  0.77500134  0.76072431  0.64482867  1
  O  O264  1  0.23414999  0.25863863  0.38559470  1
  O  O265  1  0.24273611  0.28493090  0.85174641  1
  O  O266  1  0.18731313  0.82554327  0.39549016  1
  O  O267  1  0.25697577  0.72494370  0.87490601  1
  O  O268  1  0.74148387  0.25473713  0.39495424  1
  O  O269  1  0.74332497  0.24829690  0.88460240  1
  O  O270  1  0.73657717  0.72308892  0.37288538  1
  O  O271  1  0.74853530  0.72418564  0.86812362  1
  O  O272  1  -0.00624450  0.11450048  0.04625063  1
  O  O273  1  -0.01061272  0.11881929  0.52754859  1
  O  O274  1  0.01163691  0.61913248  -0.00776644  1
  O  O275  1  -0.00295525  0.61301800  0.50990023  1
  O  O276  1  0.52316386  0.12289703  0.00455998  1
  O  O277  1  0.58522621  0.09570668  0.42036720  1
  O  O278  1  0.51890625  0.60344865  -0.00476828  1
  O  O279  1  0.50483842  0.61562452  0.52100669  1
  O  O280  1  0.48524560  0.40550165  0.53761948  1
  O  O281  1  0.49696226  0.38216651  1.01506328  1
  O  O282  1  0.49397247  0.86195980  0.48860434  1
  O  O283  1  0.48095913  0.88088492  0.99270306  1
  O  O284  1  0.98791122  0.38227498  0.50069439  1
  O  O285  1  0.98389975  0.35996095  1.00480216  1
  O  O286  1  0.96514519  0.87943322  0.49503977  1
  O  O287  1  1.00253755  0.87844671  0.97157352  1
  O  O288  1  0.48078818  0.51113524  0.41460249  1
  O  O289  1  0.51623052  0.48175539  0.89670864  1
  O  O290  1  0.48457601  0.99603154  0.35782725  1
  O  O291  1  0.53088688  1.00118635  0.90053122  1
  O  O292  1  1.01644807  0.51273758  0.40123700  1
  O  O293  1  0.98087973  0.49805677  0.87529719  1
  O  O294  1  1.06544415  0.94256783  0.36404441  1
  O  O295  1  0.97632327  1.02802889  0.90118583  1
  O  O296  1  -0.01703598  -0.03700247  0.09897989  1
  O  O297  1  -0.00623328  -0.00061319  0.63809052  1
  O  O298  1  0.02445360  0.49459785  0.12917376  1
  O  O299  1  0.00637982  0.49370760  0.61306779  1
  O  O300  1  0.53535525  -0.01083615  0.09459867  1
  O  O301  1  0.50996467  0.01491312  0.58529132  1
  O  O302  1  0.52096625  0.49647199  0.12311009  1
  O  O303  1  0.49379988  0.52046934  0.62398919  1
  O  O304  1  0.23500161  0.39537933  0.25170559  1
  O  O305  1  0.26826150  0.45387722  0.81174251  1
  O  O306  1  0.23346848  0.80927273  0.26905262  1
  O  O307  1  0.27240991  0.89834528  0.70682167  1
  O  O308  1  0.76046035  0.38892696  0.25855919  1
  O  O309  1  0.74952736  0.37691577  0.73839435  1
  O  O310  1  0.73360636  0.84727258  0.24176262  1
  O  O311  1  0.75546023  0.90073293  0.76322210  1
  O  O312  1  0.22929039  0.14000812  0.26551919  1
  O  O313  1  0.26785582  0.13352690  0.72738843  1
  O  O314  1  0.25873018  0.62200514  0.25562749  1
  O  O315  1  0.35418736  0.60896867  0.81731461  1
  O  O316  1  0.74686541  0.11780025  0.25860716  1
  O  O317  1  0.75692863  0.12443226  0.76111599  1
  O  O318  1  0.76302763  0.61061432  0.25592443  1
  O  O319  1  0.75313985  0.60249710  0.76177273  1
  O  O320  1  0.36093742  0.10396705  0.34950666  1
  O  O321  1  0.33887924  0.10612469  0.84823517  1
  O  O322  1  0.37991601  0.61437561  0.36389403  1
  O  O323  1  0.41432974  0.59649452  0.86989882  1
  O  O324  1  0.89029141  0.16512018  0.26688091  1
  O  O325  1  0.86735922  0.14467650  0.86035759  1
  O  O326  1  0.85923549  0.62565566  0.36993730  1
  O  O327  1  0.85908265  0.60335534  0.87185817  1
  O  O328  1  0.14546050  0.39212046  0.12442800  1
  O  O329  1  0.12135558  0.38264152  0.64094971  1
  O  O330  1  0.12895217  0.85875534  0.11324029  1
  O  O331  1  0.12853233  0.87587275  0.62591855  1
  O  O332  1  0.62967331  0.38253000  0.13063488  1
  O  O333  1  0.64203836  0.36895068  0.61484250  1
  O  O334  1  0.64504482  0.87453054  0.07545200  1
  O  O335  1  0.60248402  0.90326584  0.63356789  1
  O  O336  1  0.13092305  0.28249575  0.28481404  1
  O  O337  1  0.13386557  0.27137149  0.74781114  1
  O  O338  1  0.08769510  0.72451296  0.23206821  1
  O  O339  1  0.15301684  0.72132511  0.75459685  1
  O  O340  1  0.64386866  0.26653525  0.27461463  1
  O  O341  1  0.62792104  0.23997773  0.76923964  1
  O  O342  1  0.61863905  0.74466762  0.24117324  1
  O  O343  1  0.55034362  0.73390122  0.82312725  1
  O  O344  1  0.37761723  0.26072005  0.26779567  1
  O  O345  1  0.38291450  0.21770610  0.76093196  1
  O  O346  1  0.39476695  0.73971441  0.25732266  1
  O  O347  1  0.38302826  0.77182833  0.74896959  1
  O  O348  1  0.88861322  0.25206430  0.25255039  1
  O  O349  1  0.86507119  0.24349829  0.73693500  1
  O  O350  1  0.87349263  0.73005931  0.24066326  1
  O  O351  1  0.87596059  0.72198075  0.75613656  1
  O  O352  1  0.34306739  0.52036209  0.49517311  1
  O  O353  1  0.39999824  0.48851685  1.01505252  1
  O  O354  1  0.37495243  1.00983758  0.47663368  1
  O  O355  1  0.39991567  1.02135686  0.99842073  1
  O  O356  1  0.88823093  0.48548321  0.50789423  1
  O  O357  1  0.86398319  0.48059481  0.98598499  1
  O  O358  1  0.86561700  1.01018434  0.47308082  1
  O  O359  1  0.86599824  1.00837585  0.99625725  1
  O  O360  1  0.10478109  -0.00242993  0.00036648  1
  O  O361  1  0.03340321  0.00074159  0.38981179  1
  O  O362  1  0.13349183  0.50127541  0.00625571  1
  O  O363  1  0.11580688  0.48869505  0.52012574  1
  O  O364  1  0.65811241  0.03018666  0.02070186  1
  O  O365  1  0.65353346  -0.00575989  0.50491059  1
  O  O366  1  0.62255020  0.49431854  0.01400785  1
  O  O367  1  0.61935457  0.49825619  0.50574591  1
  O  O368  1  0.36676406  0.37662768  0.15217450  1
  O  O369  1  0.36836646  0.37543235  0.70895209  1
  O  O370  1  0.35922649  0.89268878  0.08843645  1
  O  O371  1  0.40133051  0.85465914  0.61076095  1
  O  O372  1  0.88209447  0.38737661  0.11951746  1
  O  O373  1  0.86874629  0.36146179  0.62218640  1
  O  O374  1  0.85450929  0.86103398  0.11854324  1
  O  O375  1  0.91442593  0.84913870  0.64747297  1
  O  O376  1  0.13353428  0.13855344  0.38341107  1
  O  O377  1  0.14805692  0.15142992  0.87854397  1
  O  O378  1  0.12869882  0.66212557  0.37394789  1
  O  O379  1  0.12849243  0.61536253  0.88002108  1
  O  O380  1  0.63717384  0.12760363  0.38134726  1
  O  O381  1  0.63810931  0.14037094  0.89222374  1
  O  O382  1  0.63405929  0.62182351  0.37688627  1
  O  O383  1  0.63681683  0.60949155  0.88199416  1
