# generated using pymatgen
data_VZnO4
_symmetry_space_group_name_H-M   'P 1'
_cell_length_a   17.11547791
_cell_length_b   16.96513299
_cell_length_c   16.92822590
_cell_angle_alpha   89.59481598
_cell_angle_beta   90.45578936
_cell_angle_gamma   89.80813584
_symmetry_Int_Tables_number   1
_chemical_formula_structural   VZnO4
_chemical_formula_sum   'V64 Zn64 O256'
_cell_volume   4915.08038962
_cell_formula_units_Z   64
loop_
 _symmetry_equiv_pos_site_id
 _symmetry_equiv_pos_as_xyz
  1  'x, y, z'
loop_
 _atom_site_type_symbol
 _atom_site_label
 _atom_site_symmetry_multiplicity
 _atom_site_fract_x
 _atom_site_fract_y
 _atom_site_fract_z
 _atom_site_occupancy
  V  V0  1  0.13850652  0.63716205  -0.00381590  1
  V  V1  1  0.88353306  0.87574340  0.53375754  1
  V  V2  1  0.61200931  0.23876191  0.89552422  1
  V  V3  1  0.24061963  0.24678867  0.50529037  1
  V  V4  1  -0.02716786  0.85803412  0.35546656  1
  V  V5  1  0.63591590  0.36094568  0.75419358  1
  V  V6  1  0.66502459  0.51097847  0.64615649  1
  V  V7  1  0.69584047  0.89408795  0.12003308  1
  V  V8  1  -0.01111028  0.61723400  0.12764581  1
  V  V9  1  0.52418395  0.62388817  0.13136669  1
  V  V10  1  0.07566449  0.15145033  0.52969065  1
  V  V11  1  0.36456935  -0.00600046  0.81770309  1
  V  V12  1  0.63898480  0.76887815  0.36808680  1
  V  V13  1  0.26054889  0.49640580  0.24041169  1
  V  V14  1  0.11910670  0.59246538  0.50028359  1
  V  V15  1  0.34773441  0.85538510  0.00105879  1
  V  V16  1  0.01252906  0.35433343  0.88755678  1
  V  V17  1  0.38650179  0.50566453  0.36512599  1
  V  V18  1  0.64203471  0.63149873  0.51345971  1
  V  V19  1  0.75991403  0.75694955  0.52307924  1
  V  V20  1  0.38815320  0.73751313  0.62547523  1
  V  V21  1  0.22984565  0.85300168  0.13456012  1
  V  V22  1  0.10076269  0.72865575  0.36417459  1
  V  V23  1  0.38212989  0.73470051  0.15971814  1
  V  V24  1  0.38100281  0.36714331  -0.01568258  1
  V  V25  1  0.88001345  0.76642002  0.11851538  1
  V  V26  1  -0.04351732  0.37193339  0.37835820  1
  V  V27  1  0.11972711  0.88032090  0.25932221  1
  V  V28  1  0.36009871  0.50914086  0.87398045  1
  V  V29  1  0.52073456  0.39238638  0.38009662  1
  V  V30  1  0.37569228  0.15470027  0.71712730  1
  V  V31  1  0.70412466  0.36933050  0.17357765  1
  V  V32  1  0.41211285  0.62403630  0.75584238  1
  V  V33  1  0.12810797  0.38591987  0.73713136  1
  V  V34  1  0.76735963  0.00226415  0.24579400  1
  V  V35  1  0.46810803  0.00553598  -0.00330815  1
  V  V36  1  0.37454083  0.39095609  0.52457234  1
  V  V37  1  0.52043476  0.11144610  0.62308901  1
  V  V38  1  0.38773832  0.11666766  0.30812606  1
  V  V39  1  0.87407408  -0.01772319  0.87710025  1
  V  V40  1  0.48657320  0.86838093  0.85851868  1
  V  V41  1  0.00267207  0.60742192  0.63534527  1
  V  V42  1  0.49395505  0.26055909  0.24931355  1
  V  V43  1  0.50818319  0.50995671  -0.00274264  1
  V  V44  1  0.87296335  0.13511249  0.74413782  1
  V  V45  1  0.62411724  0.87333187  0.74143868  1
  V  V46  1  0.50874052  0.51997267  0.53518935  1
  V  V47  1  0.86079555  0.40082009  0.51390299  1
  V  V48  1  0.62612456  0.75731995  0.90158348  1
  V  V49  1  0.00635677  0.25020784  0.73928311  1
  V  V50  1  0.76701010  0.11787963  0.38882656  1
  V  V51  1  0.27282803  0.35727549  0.11485214  1
  V  V52  1  0.13162620  0.49428968  0.11033262  1
  V  V53  1  0.14164983  0.35315832  0.24401203  1
  V  V54  1  0.74611371  0.12485848  0.88573784  1
  V  V55  1  0.73712414  0.60692049  0.89732387  1
  V  V56  1  0.85495437  0.34629732  0.00381066  1
  V  V57  1  -0.02779219  0.74039891  0.77279167  1
  V  V58  1  0.04453614  0.00584355  0.02482850  1
  V  V59  1  0.24691689  0.13353574  0.85112059  1
  V  V60  1  0.88742178  0.48894025  0.88071221  1
  V  V61  1  0.25175946  0.61987497  0.37721746  1
  V  V62  1  0.74189553  -0.00564059  0.73793604  1
  V  V63  1  0.39775222  0.88104677  0.49506977  1
  Zn  Zn64  1  0.23207671  0.16234230  0.18318748  1
  Zn  Zn65  1  0.18409958  0.19761575  0.67777348  1
  Zn  Zn66  1  0.18876513  0.67525618  0.18854218  1
  Zn  Zn67  1  0.18717625  0.69843161  0.66151807  1
  Zn  Zn68  1  0.70945963  0.21956357  0.24602302  1
  Zn  Zn69  1  0.68677182  0.18064005  0.69386279  1
  Zn  Zn70  1  0.70288399  0.69957330  0.16765889  1
  Zn  Zn71  1  0.69208657  0.68649644  0.71472438  1
  Zn  Zn72  1  0.28524134  0.27496892  0.31114759  1
  Zn  Zn73  1  0.31231471  0.31944899  0.79745070  1
  Zn  Zn74  1  0.30370326  0.80519277  0.32359600  1
  Zn  Zn75  1  0.30760323  0.79899250  0.77139431  1
  Zn  Zn76  1  0.77191129  0.33217282  0.36925389  1
  Zn  Zn77  1  0.80928498  0.30982689  0.82275261  1
  Zn  Zn78  1  0.78309319  0.79631836  0.28964093  1
  Zn  Zn79  1  0.79524206  0.78925061  0.82267919  1
  Zn  Zn80  1  0.20376733  0.41918001  0.42900736  1
  Zn  Zn81  1  0.19061982  0.42755447  0.92882515  1
  Zn  Zn82  1  0.01226691  0.99135085  0.48815869  1
  Zn  Zn83  1  0.25356869  1.02535639  1.02409956  1
  Zn  Zn84  1  0.69797888  0.48974007  0.42465711  1
  Zn  Zn85  1  0.68315328  0.41940446  0.94397855  1
  Zn  Zn86  1  0.71260587  0.93121089  0.42873835  1
  Zn  Zn87  1  0.65879958  0.95795230  0.92797728  1
  Zn  Zn88  1  0.33718258  0.17301138  0.03750175  1
  Zn  Zn89  1  0.36021157  0.08739111  0.51422238  1
  Zn  Zn90  1  0.31899165  0.57120427  0.05493987  1
  Zn  Zn91  1  0.33032220  0.59389330  0.54741001  1
  Zn  Zn92  1  0.78865898  0.02004535  0.03868039  1
  Zn  Zn93  1  0.82411384  0.05350514  0.56696853  1
  Zn  Zn94  1  0.80706109  0.53077472  0.06600142  1
  Zn  Zn95  1  0.83036542  0.57765198  0.57173244  1
  Zn  Zn96  1  0.45192215  0.43951600  0.18414264  1
  Zn  Zn97  1  0.45380219  0.43429525  0.70842221  1
  Zn  Zn98  1  0.36594157  1.01401218  0.16386627  1
  Zn  Zn99  1  0.44997243  0.93416916  0.66174266  1
  Zn  Zn100  1  0.86264506  0.40001043  0.20151698  1
  Zn  Zn101  1  0.92241833  0.42808572  0.69868200  1
  Zn  Zn102  1  0.94858153  0.94395158  0.17213307  1
  Zn  Zn103  1  0.93189754  0.91201060  0.74370972  1
  Zn  Zn104  1  -0.06495797  0.04956657  0.32379127  1
  Zn  Zn105  1  0.04600663  0.07548846  0.84416284  1
  Zn  Zn106  1  0.06992359  0.53460940  0.30457093  1
  Zn  Zn107  1  0.06070495  0.55935844  0.82039416  1
  Zn  Zn108  1  0.58900163  0.10731638  0.27774561  1
  Zn  Zn109  1  0.55428615  0.06195772  0.80832497  1
  Zn  Zn110  1  0.55679704  0.60842534  0.33795284  1
  Zn  Zn111  1  0.56340285  0.52700356  0.81354664  1
  Zn  Zn112  1  0.43758876  0.23347042  0.43394277  1
  Zn  Zn113  1  0.43428500  0.17881284  0.90271491  1
  Zn  Zn114  1  0.46533316  0.71962165  0.45369330  1
  Zn  Zn115  1  0.43689943  0.68761661  0.93525145  1
  Zn  Zn116  1  0.92752747  0.21530407  0.42958299  1
  Zn  Zn117  1  0.93990989  0.17114322  0.93885669  1
  Zn  Zn118  1  0.94790681  0.69447118  0.46715707  1
  Zn  Zn119  1  0.93053889  0.66498897  0.95896411  1
  Zn  Zn120  1  0.01319485  0.35159048  0.10230092  1
  Zn  Zn121  1  0.04754704  0.32959382  0.55702493  1
  Zn  Zn122  1  0.05359530  0.81362551  0.05308518  1
  Zn  Zn123  1  0.07830428  0.81341362  0.53164434  1
  Zn  Zn124  1  0.54789770  0.31312432  0.06673934  1
  Zn  Zn125  1  0.58017411  0.33944092  0.56542642  1
  Zn  Zn126  1  0.52292055  0.82644748  0.06745944  1
  Zn  Zn127  1  0.56346626  0.80744447  0.56659187  1
  O  O128  1  0.07685685  0.19424056  0.13171375  1
  O  O129  1  0.10576457  0.13148134  0.62471597  1
  O  O130  1  0.13204272  0.60572908  0.11647960  1
  O  O131  1  0.12551131  0.61450829  0.60642830  1
  O  O132  1  0.61814900  0.12427369  0.10011149  1
  O  O133  1  0.61915758  0.11664088  0.63166675  1
  O  O134  1  0.61953537  0.63885565  0.11392242  1
  O  O135  1  0.64605191  0.62491417  0.62497965  1
  O  O136  1  0.39781502  0.40628357  0.40210145  1
  O  O137  1  0.37120012  0.38785718  0.87904153  1
  O  O138  1  0.33984551  0.84148890  0.42314505  1
  O  O139  1  0.37796080  0.88235329  0.82696368  1
  O  O140  1  0.87197513  0.37622160  0.30812421  1
  O  O141  1  0.88713724  0.36372347  0.89158309  1
  O  O142  1  0.87662936  0.84329775  0.34197200  1
  O  O143  1  0.85674775  0.88440533  0.86338477  1
  O  O144  1  0.24280939  -0.02305767  0.38947228  1
  O  O145  1  0.26939982  0.00915285  0.83804268  1
  O  O146  1  0.26635055  0.49618338  0.36076136  1
  O  O147  1  0.26250876  0.50023751  0.87152007  1
  O  O148  1  0.76766158  0.00594937  0.36261844  1
  O  O149  1  0.74935454  0.00898335  0.86766866  1
  O  O150  1  0.75820530  0.51569791  0.31662659  1
  O  O151  1  0.72209196  0.50887475  0.88017514  1
  O  O152  1  0.26407950  0.50479913  0.13621496  1
  O  O153  1  0.25831681  0.51480683  0.65264461  1
  O  O154  1  0.27686033  0.93965992  0.14692725  1
  O  O155  1  0.23514081  0.99566228  0.56657410  1
  O  O156  1  0.77000334  0.44859332  0.14603910  1
  O  O157  1  0.76219853  0.51151810  0.63536405  1
  O  O158  1  0.74363317  1.00728347  0.14252903  1
  O  O159  1  0.74700542  1.00196836  0.63876176  1
  O  O160  1  0.04712008  0.34254705  0.21180041  1
  O  O161  1  -0.00262084  0.35981555  0.76310923  1
  O  O162  1  0.00412985  0.87022425  0.25179442  1
  O  O163  1  0.01126217  0.83473192  0.76444573  1
  O  O164  1  0.49988770  0.37269237  0.27056414  1
  O  O165  1  0.54397427  0.41465651  0.77180888  1
  O  O166  1  0.52056250  0.94434361  0.25927634  1
  O  O167  1  0.51126429  0.88788806  0.75161211  1
  O  O168  1  0.47603761  0.13907153  0.25504819  1
  O  O169  1  0.49010963  0.12025000  0.72731197  1
  O  O170  1  0.52264827  0.60839977  0.23099876  1
  O  O171  1  0.50896310  0.62045803  0.76180809  1
  O  O172  1  1.02145421  0.11874709  0.28480598  1
  O  O173  1  0.98242950  0.14040435  0.76168371  1
  O  O174  1  1.01776753  0.59676175  0.22328209  1
  O  O175  1  1.01652576  0.63568962  0.74265386  1
  O  O176  1  0.38799918  0.26407494  -0.01854141  1
  O  O177  1  0.36611640  0.28732076  0.50575457  1
  O  O178  1  0.35637163  0.77151540  -0.05362182  1
  O  O179  1  0.37604324  0.70757780  0.52455545  1
  O  O180  1  0.87921917  0.24796368  -0.00587986  1
  O  O181  1  0.86506958  0.31081117  0.44187471  1
  O  O182  1  0.86215756  0.73127812  0.02588377  1
  O  O183  1  0.86390740  0.75572787  0.51255356  1
  O  O184  1  0.12431447  0.24373202  0.50221662  1
  O  O185  1  0.13370290  0.14162155  1.11930184  1
  O  O186  1  0.11953794  0.72601139  0.47257049  1
  O  O187  1  0.11853858  0.73586593  1.00918624  1
  O  O188  1  0.68225425  0.26778691  0.53642944  1
  O  O189  1  0.60029070  0.24212658  0.99475355  1
  O  O190  1  0.63750936  0.74154690  0.50244312  1
  O  O191  1  0.59130810  0.76786089  0.99413230  1
  O  O192  1  0.47790091  0.26597550  0.15107369  1
  O  O193  1  0.52046482  0.23905788  0.58978361  1
  O  O194  1  0.48848498  0.73097823  0.13073065  1
  O  O195  1  0.48771540  0.74812419  0.63073628  1
  O  O196  1  1.05468088  0.23603782  0.06948141  1
  O  O197  1  0.98883030  0.26238319  0.64243401  1
  O  O198  1  0.98140308  0.73086163  0.13072615  1
  O  O199  1  1.01768188  0.73834550  0.64388308  1
  O  O200  1  0.00235236  0.28471290  0.36436664  1
  O  O201  1  -0.00012140  0.25224041  0.86948222  1
  O  O202  1  -0.00461744  0.73730351  0.36826004  1
  O  O203  1  -0.02397302  0.72142381  0.87201318  1
  O  O204  1  0.53085027  0.29511148  0.40737836  1
  O  O205  1  0.51865455  0.23441829  0.85889799  1
  O  O206  1  0.54345330  0.71943659  0.37212925  1
  O  O207  1  0.49885666  0.76711288  0.86886826  1
  O  O208  1  0.26445690  0.15056209  0.49317476  1
  O  O209  1  0.26558891  0.12027747  0.95328782  1
  O  O210  1  0.23449521  0.60507844  0.48474829  1
  O  O211  1  0.23972824  0.63300096  1.00260370  1
  O  O212  1  0.76289280  0.11131227  0.48805193  1
  O  O213  1  0.75028542  0.11576730  0.98511192  1
  O  O214  1  0.75217605  0.64335130  0.51333397  1
  O  O215  1  0.75238618  0.61078387  0.99866646  1
  O  O216  1  0.27038171  0.37621861  0.00458119  1
  O  O217  1  0.28068149  0.42247898  0.52043317  1
  O  O218  1  0.24492320  0.84845999  0.02854911  1
  O  O219  1  0.23898452  0.92433533  0.55504451  1
  O  O220  1  0.75494365  0.34949321  0.00225427  1
  O  O221  1  0.75950316  0.40455849  0.46621665  1
  O  O222  1  0.71631153  0.92779454  0.02237579  1
  O  O223  1  0.77500800  0.87296153  0.50816726  1
  O  O224  1  0.15138040  0.48233129  0.23272683  1
  O  O225  1  0.11414634  0.48385205  0.75628576  1
  O  O226  1  0.12334417  0.97538197  0.26282912  1
  O  O227  1  0.15005023  0.91375400  0.68270920  1
  O  O228  1  0.71573029  0.56590758  0.27332088  1
  O  O229  1  0.65081374  0.53151232  0.74379462  1
  O  O230  1  0.58000899  1.07965748  0.14298330  1
  O  O231  1  0.63341513  0.99105743  0.75762465  1
  O  O232  1  0.37706893  0.02102093  0.27946421  1
  O  O233  1  0.37209890  -0.00017964  0.71745214  1
  O  O234  1  0.37519899  0.49522305  0.25962960  1
  O  O235  1  0.38813291  0.50967008  0.76704714  1
  O  O236  1  0.86970179  0.00614982  0.23823782  1
  O  O237  1  0.85353439  0.00264134  0.75506215  1
  O  O238  1  0.88890606  0.60931880  0.31623485  1
  O  O239  1  0.86098744  0.47437932  0.78361758  1
  O  O240  1  0.13758840  0.37966451  0.34052540  1
  O  O241  1  0.11385605  0.37101794  0.86522836  1
  O  O242  1  0.10120742  0.84246330  0.36390291  1
  O  O243  1  0.16266530  0.77038602  0.82063873  1
  O  O244  1  0.61133705  0.42713971  0.37948704  1
  O  O245  1  0.63215528  0.34239194  0.87268578  1
  O  O246  1  0.62883634  0.86759764  0.38418407  1
  O  O247  1  0.59707751  0.87887529  0.87036689  1
  O  O248  1  0.29920463  0.09520897  0.11323796  1
  O  O249  1  0.39400224  0.13387516  0.61529209  1
  O  O250  1  0.37320508  0.63674722  0.13538512  1
  O  O251  1  0.37716962  0.62466233  0.65109291  1
  O  O252  1  0.92709873  0.17660479  0.20964560  1
  O  O253  1  0.87140681  0.12072919  0.64529970  1
  O  O254  1  0.89486847  0.58600962  0.12147580  1
  O  O255  1  0.90884863  0.64054952  0.62106573  1
  O  O256  1  0.27817859  0.25732912  0.11380898  1
  O  O257  1  0.24100085  0.26844840  0.60356147  1
  O  O258  1  0.26868369  0.75183179  0.14952974  1
  O  O259  1  0.28162410  0.76143671  0.65782267  1
  O  O260  1  0.74271470  0.27612080  0.15426169  1
  O  O261  1  0.73108645  0.24997279  0.59057507  1
  O  O262  1  0.72270619  0.79853828  0.10974698  1
  O  O263  1  0.74310480  0.75684869  0.62054929  1
  O  O264  1  0.24551394  0.30434462  0.41540308  1
  O  O265  1  0.25790115  0.23380404  0.85098308  1
  O  O266  1  0.23571455  0.71903111  0.36729205  1
  O  O267  1  0.19870246  0.70626577  0.78769299  1
  O  O268  1  0.73869842  0.21567303  0.36012396  1
  O  O269  1  0.73726741  0.22933310  0.87162105  1
  O  O270  1  0.73999740  0.75628329  0.40072081  1
  O  O271  1  0.72067523  0.78565033  0.91067553  1
  O  O272  1  0.01742208  0.08813796  -0.04166750  1
  O  O273  1  -0.02438972  0.16486208  0.51880436  1
  O  O274  1  0.01666204  0.61531132  0.02408316  1
  O  O275  1  0.01296589  0.61225120  0.51258948  1
  O  O276  1  0.43355429  0.10486219  -0.00941253  1
  O  O277  1  0.51550473  0.18235986  0.52948579  1
  O  O278  1  0.49214551  0.61832918  0.00901265  1
  O  O279  1  0.52678423  0.62348817  0.50764943  1
  O  O280  1  0.51074038  0.41178926  0.50332326  1
  O  O281  1  0.48169760  0.39173107  1.00579087  1
  O  O282  1  0.49167832  0.83907451  0.48052317  1
  O  O283  1  0.46764188  0.88437143  0.97090546  1
  O  O284  1  0.97353308  0.38620723  0.48999672  1
  O  O285  1  1.01549131  0.36054761  0.98689062  1
  O  O286  1  0.97468643  0.84704438  0.47780129  1
  O  O287  1  1.01864078  0.90854056  1.00444287  1
  O  O288  1  0.48975155  0.51716600  0.37019549  1
  O  O289  1  0.48682868  0.51036056  0.89349993  1
  O  O290  1  0.56126690  0.98719104  0.30295338  1
  O  O291  1  0.46841236  0.99605702  0.86578289  1
  O  O292  1  1.00189948  0.45638839  0.34701895  1
  O  O293  1  0.98975296  0.48037633  0.87749238  1
  O  O294  1  0.98314659  0.96134009  0.37754690  1
  O  O295  1  0.97232058  0.98663018  0.84017805  1
  O  O296  1  0.00699687  0.02250443  0.11821636  1
  O  O297  1  0.09741952  -0.04613823  0.65157014  1
  O  O298  1  0.03434830  0.48017687  0.11673197  1
  O  O299  1  -0.01050829  0.50989242  0.64867649  1
  O  O300  1  0.45302547  -0.01202755  0.09601651  1
  O  O301  1  0.50582688  0.01454317  0.60086799  1
  O  O302  1  0.49471093  0.51580099  0.11118510  1
  O  O303  1  0.50887827  0.51669802  0.63302885  1
  O  O304  1  0.26731474  0.38117291  0.23207590  1
  O  O305  1  0.22751393  0.37348480  0.74733761  1
  O  O306  1  0.22321823  0.85275169  0.25699037  1
  O  O307  1  0.20925229  0.83299643  0.82463935  1
  O  O308  1  0.70461772  0.36521897  0.27572227  1
  O  O309  1  0.73416853  0.37614475  0.76693980  1
  O  O310  1  0.73440423  0.90250920  0.23996792  1
  O  O311  1  0.73461524  0.88687957  0.75461869  1
  O  O312  1  0.29550988  0.15656666  0.28095355  1
  O  O313  1  0.27160649  0.13870299  0.72507503  1
  O  O314  1  0.24593338  0.60209231  0.26305445  1
  O  O315  1  0.23779139  0.55909385  0.70612691  1
  O  O316  1  0.70970361  0.09643244  0.26484400  1
  O  O317  1  0.75645804  0.11494265  0.75491517  1
  O  O318  1  0.75204266  0.59399022  0.20980242  1
  O  O319  1  0.75934145  0.66747698  0.80788058  1
  O  O320  1  0.40749903  0.12365305  0.41095002  1
  O  O321  1  0.37203917  0.11545698  0.82770160  1
  O  O322  1  0.35760258  0.61173826  0.38433803  1
  O  O323  1  0.37455746  0.61848263  0.86199382  1
  O  O324  1  0.87032103  0.13010496  0.37267297  1
  O  O325  1  0.85942920  0.11383439  0.86490448  1
  O  O326  1  0.85974797  0.62927215  0.37971369  1
  O  O327  1  0.86416129  0.59017682  0.89548612  1
  O  O328  1  0.16488374  0.38326836  0.12186675  1
  O  O329  1  0.10858775  0.37923944  0.63730667  1
  O  O330  1  0.12484993  0.85565711  0.14511010  1
  O  O331  1  0.06673860  0.92311455  0.56962148  1
  O  O332  1  0.61152761  0.37812411  0.13394317  1
  O  O333  1  0.63513039  0.40304712  0.64536983  1
  O  O334  1  0.59713817  0.89206986  0.12650195  1
  O  O335  1  0.61758439  0.87056704  0.64150737  1
  O  O336  1  0.18100376  0.25728451  0.24518238  1
  O  O337  1  0.10843726  0.25752093  0.74482528  1
  O  O338  1  0.11835893  0.72544345  0.26352216  1
  O  O339  1  0.09334403  0.77057638  0.64191897  1
  O  O340  1  0.59156195  0.22663887  0.26473328  1
  O  O341  1  0.62141710  0.26414525  0.73158344  1
  O  O342  1  0.66441637  0.75130495  0.26985851  1
  O  O343  1  0.63118774  0.77172274  0.77156064  1
  O  O344  1  0.40473370  0.25544641  0.30995686  1
  O  O345  1  0.38434587  0.25271542  0.73386353  1
  O  O346  1  0.38424266  0.75382142  0.25802842  1
  O  O347  1  0.39432045  0.72788926  0.75168933  1
  O  O348  1  0.98958866  0.18502957  0.24992395  1
  O  O349  1  0.86838584  0.23791580  0.75355320  1
  O  O350  1  0.82441384  0.73264335  0.20137584  1
  O  O351  1  0.87614390  0.75483421  0.74930715  1
  O  O352  1  0.40393869  0.51521460  0.50689856  1
  O  O353  1  0.37662842  0.49878522  0.98472618  1
  O  O354  1  0.38980222  0.98017394  0.49025550  1
  O  O355  1  0.34468087  0.96105523  0.97855232  1
  O  O356  1  0.87332969  0.50067584  0.49998271  1
  O  O357  1  0.85808396  0.46362124  0.98579383  1
  O  O358  1  0.89573053  0.97982602  0.51549735  1
  O  O359  1  0.87903705  0.99916874  0.97759859  1
  O  O360  1  0.14439537  0.00258533  0.02783772  1
  O  O361  1  0.09365695  0.06884328  0.47378253  1
  O  O362  1  0.14954483  0.49873010  0.00997116  1
  O  O363  1  0.12532571  0.49434484  0.48827087  1
  O  O364  1  0.56691737  0.00897667  -0.01534686  1
  O  O365  1  0.61974445  0.02756844  0.44607066  1
  O  O366  1  0.60469906  0.48893073  -0.00525027  1
  O  O367  1  0.62730663  0.51545328  0.53362958  1
  O  O368  1  0.37300586  0.38596950  0.10974175  1
  O  O369  1  0.39902700  0.39015956  0.62295610  1
  O  O370  1  0.38781689  0.82983167  0.09601457  1
  O  O371  1  0.38517185  0.85702649  0.59996405  1
  O  O372  1  0.89802407  0.36150637  0.10199600  1
  O  O373  1  0.86214787  0.38017842  0.61220235  1
  O  O374  1  0.88494375  0.86717894  0.11910667  1
  O  O375  1  0.89795924  0.87256333  0.63051861  1
  O  O376  1  0.21223239  0.04049183  0.37434789  1
  O  O377  1  0.15049549  0.11198571  0.83271912  1
  O  O378  1  0.12434602  0.61106082  0.37920922  1
  O  O379  1  0.11574021  0.61331141  0.90087275  1
  O  O380  1  0.63012506  0.09201868  0.40649769  1
  O  O381  1  0.63372487  0.12834233  0.86717647  1
  O  O382  1  0.64842197  0.59796005  0.41114182  1
  O  O383  1  0.63484870  0.65086448  0.89219822  1
