# generated using pymatgen
data_VZnO4
_symmetry_space_group_name_H-M   'P 1'
_cell_length_a   16.99595348
_cell_length_b   16.95132514
_cell_length_c   16.99576003
_cell_angle_alpha   89.84074083
_cell_angle_beta   90.57735750
_cell_angle_gamma   89.69055479
_symmetry_Int_Tables_number   1
_chemical_formula_structural   VZnO4
_chemical_formula_sum   'V64 Zn64 O256'
_cell_volume   4896.20564467
_cell_formula_units_Z   64
loop_
 _symmetry_equiv_pos_site_id
 _symmetry_equiv_pos_as_xyz
  1  'x, y, z'
loop_
 _atom_site_type_symbol
 _atom_site_label
 _atom_site_symmetry_multiplicity
 _atom_site_fract_x
 _atom_site_fract_y
 _atom_site_fract_z
 _atom_site_occupancy
  V  V0  1  0.25399095  0.88330415  0.12140515  1
  V  V1  1  0.75495077  0.62606765  0.85032239  1
  V  V2  1  0.76615024  0.87458087  0.14696594  1
  V  V3  1  0.50042331  0.87679795  0.86969575  1
  V  V4  1  0.87596522  0.34719734  -0.00425018  1
  V  V5  1  0.24762959  0.74443159  0.48746514  1
  V  V6  1  0.01397511  0.01141460  0.49732325  1
  V  V7  1  0.62210992  -0.00206646  0.13112492  1
  V  V8  1  0.88831096  0.75421372  0.62933578  1
  V  V9  1  0.05861845  0.42281207  0.26926537  1
  V  V10  1  0.22135753  0.37635179  0.15722549  1
  V  V11  1  0.01135576  0.12591887  0.62886905  1
  V  V12  1  0.49434117  0.24467947  0.22951377  1
  V  V13  1  0.23758844  0.74345240  0.00641233  1
  V  V14  1  0.63669489  0.37883419  0.75333611  1
  V  V15  1  0.11452925  0.00712434  0.13211974  1
  V  V16  1  -0.01750031  0.49645963  0.51117392  1
  V  V17  1  0.74826572  0.62080018  0.33531501  1
  V  V18  1  0.28926250  0.25230354  0.49586723  1
  V  V19  1  0.37799971  0.86689577  0.49842382  1
  V  V20  1  0.34328189  0.34913537  0.00860607  1
  V  V21  1  0.51423370  -0.01038933  0.49339695  1
  V  V22  1  0.86184464  0.37006332  0.48654841  1
  V  V23  1  0.37133466  0.01316674  0.37990599  1
  V  V24  1  0.86942441  0.23543214  0.63524606  1
  V  V25  1  0.62598256  0.10731692  0.00004274  1
  V  V26  1  0.12177611  0.86374848  0.25764284  1
  V  V27  1  0.25536681  0.45173927  0.73017597  1
  V  V28  1  -0.01212440  0.12934750  0.14761947  1
  V  V29  1  0.62530753  0.62055535  0.51070891  1
  V  V30  1  0.24585373  0.63137278  0.86633877  1
  V  V31  1  0.25027419  0.01311197  0.73900170  1
  V  V32  1  0.85154581  0.13224079  0.26077950  1
  V  V33  1  0.86319925  -0.00396081  0.37695038  1
  V  V34  1  0.38583268  0.87569530  0.00178732  1
  V  V35  1  0.63996847  0.23399424  0.87863783  1
  V  V36  1  0.37865465  0.01412051  0.88002972  1
  V  V37  1  0.90491749  0.61975615  0.74772061  1
  V  V38  1  0.75324980  0.88971755  0.62223026  1
  V  V39  1  -0.00627077  0.00164843  -0.00538928  1
  V  V40  1  0.62483368  0.88878132  0.74719957  1
  V  V41  1  0.75831838  0.74971722  0.00241997  1
  V  V42  1  0.24842984  0.01683781  0.25965519  1
  V  V43  1  0.77239452  0.11378215  0.88058029  1
  V  V44  1  0.62306745  0.74795150  0.87343493  1
  V  V45  1  0.75008778  0.38273472  0.13308089  1
  V  V46  1  0.24787225  0.86792493  0.62464074  1
  V  V47  1  0.75439863  0.38318479  0.63169676  1
  V  V48  1  0.40764945  0.50455142  0.36084103  1
  V  V49  1  -0.00618222  0.52388275  -0.02727113  1
  V  V50  1  0.58859209  0.86769130  0.24602539  1
  V  V51  1  0.12010090  0.61864501  0.52401454  1
  V  V52  1  0.24753109  0.59623149  0.36847115  1
  V  V53  1  0.75267557  0.73971616  0.50889100  1
  V  V54  1  0.63976840  0.51349547  0.07629231  1
  V  V55  1  0.00325033  0.86233244  0.38555147  1
  V  V56  1  0.87542041  0.88011234  -0.02326926  1
  V  V57  1  0.78349914  0.00111310  0.75636535  1
  V  V58  1  0.38210331  0.12187792  0.72521962  1
  V  V59  1  0.52698430  0.10028698  0.61890876  1
  V  V60  1  0.12343384  0.23119170  0.38386061  1
  V  V61  1  0.51159293  0.23928626  0.73943323  1
  V  V62  1  0.50456478  0.35897344  0.88891198  1
  V  V63  1  0.13016741  0.86853642  0.76592345  1
  Zn  Zn64  1  0.17172527  0.19864425  0.19664084  1
  Zn  Zn65  1  0.21092082  0.18493210  0.62197462  1
  Zn  Zn66  1  0.22911285  0.70299857  0.20525914  1
  Zn  Zn67  1  0.19856795  0.68906884  0.69295975  1
  Zn  Zn68  1  0.68653671  0.19227513  0.18354270  1
  Zn  Zn69  1  0.70072131  0.17998754  0.68882891  1
  Zn  Zn70  1  0.66798673  0.69361115  0.17196244  1
  Zn  Zn71  1  0.60297436  0.71101319  0.67556787  1
  Zn  Zn72  1  0.28039159  0.36958403  0.36369244  1
  Zn  Zn73  1  0.32568707  0.30492535  0.80420368  1
  Zn  Zn74  1  0.30895152  0.82764171  0.31530823  1
  Zn  Zn75  1  0.30228407  0.82018496  0.82342668  1
  Zn  Zn76  1  0.86246167  0.34569316  0.27570567  1
  Zn  Zn77  1  0.82338363  0.30174389  0.81296081  1
  Zn  Zn78  1  0.81918884  0.80068596  0.33279644  1
  Zn  Zn79  1  0.81260515  0.80710647  0.80555899  1
  Zn  Zn80  1  0.15339357  0.40335227  0.46929312  1
  Zn  Zn81  1  0.21219451  0.52991512  1.02076701  1
  Zn  Zn82  1  0.18717602  0.93993765  0.43888672  1
  Zn  Zn83  1  0.19181104  0.97365142  0.93789141  1
  Zn  Zn84  1  0.72597947  0.47161399  0.44987032  1
  Zn  Zn85  1  0.70183878  0.42938307  0.92445885  1
  Zn  Zn86  1  0.68730906  0.90645436  0.41971178  1
  Zn  Zn87  1  0.69442001  0.93502678  0.93412612  1
  Zn  Zn88  1  0.29999324  0.06741816  0.05406544  1
  Zn  Zn89  1  0.31765525  0.05916427  0.55823293  1
  Zn  Zn90  1  0.36552614  0.50840046  -0.09671228  1
  Zn  Zn91  1  0.32730494  0.45698861  0.53532724  1
  Zn  Zn92  1  0.81084067  0.05510460  0.07236466  1
  Zn  Zn93  1  0.81186192  0.05979546  0.54898566  1
  Zn  Zn94  1  0.80549809  0.54095989  0.00379316  1
  Zn  Zn95  1  0.81532111  0.56606727  0.57986460  1
  Zn  Zn96  1  0.38475363  0.42193665  0.19287529  1
  Zn  Zn97  1  0.45013315  0.45553442  0.75294925  1
  Zn  Zn98  1  0.42595112  0.97926581  0.17270978  1
  Zn  Zn99  1  0.43648076  0.81697760  0.67989781  1
  Zn  Zn100  1  0.95541490  0.43305377  0.12841640  1
  Zn  Zn101  1  0.92580783  0.44045520  0.68360580  1
  Zn  Zn102  1  0.93495996  0.93818784  0.20617224  1
  Zn  Zn103  1  0.94703585  0.93183995  0.67405385  1
  Zn  Zn104  1  0.06386651  0.06101908  0.32218653  1
  Zn  Zn105  1  0.03689687  0.02279328  0.78898034  1
  Zn  Zn106  1  0.05742580  0.57253648  0.36107285  1
  Zn  Zn107  1  0.08790651  0.55467982  0.80686089  1
  Zn  Zn108  1  0.56135220  0.04832843  0.31487343  1
  Zn  Zn109  1  0.56288619  0.05795199  0.81496298  1
  Zn  Zn110  1  0.54671304  0.62754757  0.35519596  1
  Zn  Zn111  1  0.57926554  0.54278791  0.86314430  1
  Zn  Zn112  1  0.47502981  0.18494554  0.43223053  1
  Zn  Zn113  1  0.44757394  0.18981796  0.94513788  1
  Zn  Zn114  1  0.40314919  0.63842573  0.47973404  1
  Zn  Zn115  1  0.42001225  0.68401390  0.82189178  1
  Zn  Zn116  1  0.92642270  0.18347396  0.43272450  1
  Zn  Zn117  1  0.93083101  0.17772000  0.96339415  1
  Zn  Zn118  1  0.92488793  0.67484409  0.43522755  1
  Zn  Zn119  1  0.94089407  0.70846222  0.91594217  1
  Zn  Zn120  1  0.06973955  0.31227968  0.08956923  1
  Zn  Zn121  1  0.02658221  0.28258956  0.52058061  1
  Zn  Zn122  1  0.07023404  0.83533697  0.05309879  1
  Zn  Zn123  1  0.07139665  0.81533290  0.56144455  1
  Zn  Zn124  1  0.60698059  0.31245428  0.06392440  1
  Zn  Zn125  1  0.57106529  0.31378634  0.57420412  1
  Zn  Zn126  1  0.57322461  0.81703415  0.05914608  1
  Zn  Zn127  1  0.53417897  0.77154396  0.52003773  1
  O  O128  1  0.11181562  0.11057798  0.13733064  1
  O  O129  1  0.11021160  0.13856521  0.62444757  1
  O  O130  1  0.05013429  0.67502416  0.12359696  1
  O  O131  1  0.15914457  0.61442157  0.61652616  1
  O  O132  1  0.64682237  0.10937764  0.10913180  1
  O  O133  1  0.62473034  0.11445557  0.63019476  1
  O  O134  1  0.62615361  0.60861493  0.10762234  1
  O  O135  1  0.61933112  0.61818560  0.61035335  1
  O  O136  1  0.39273801  0.40400852  0.37414196  1
  O  O137  1  0.40478870  0.33597347  0.88025920  1
  O  O138  1  0.36390849  0.88522203  0.39432932  1
  O  O139  1  0.38384948  0.88190818  0.88636019  1
  O  O140  1  0.84888415  0.36937713  0.38924675  1
  O  O141  1  0.88829477  0.34445237  0.89420989  1
  O  O142  1  0.89675052  0.88477212  0.36180860  1
  O  O143  1  0.87420248  0.87934223  0.87848477  1
  O  O144  1  0.25318118  0.00268990  0.36755707  1
  O  O145  1  0.27531685  -0.00304989  0.85028270  1
  O  O146  1  0.24479319  0.49777529  0.37578425  1
  O  O147  1  0.24637626  0.53237043  0.91398822  1
  O  O148  1  0.76632199  -0.02106728  0.37683079  1
  O  O149  1  0.75862750  0.00481091  0.86644614  1
  O  O150  1  0.76638733  0.52389614  0.36077410  1
  O  O151  1  0.75427239  0.52941630  0.89185407  1
  O  O152  1  0.21989898  0.46860675  0.11421868  1
  O  O153  1  0.27772448  0.47279276  0.63436968  1
  O  O154  1  0.23237041  0.99575831  0.13987815  1
  O  O155  1  0.25981501  0.99060976  0.63493423  1
  O  O156  1  0.74368623  0.49908207  0.09250944  1
  O  O157  1  0.75766794  0.48208600  0.63721155  1
  O  O158  1  0.74502759  0.97901238  0.12977529  1
  O  O159  1  0.76861301  0.99579789  0.64738944  1
  O  O160  1  -0.04167540  0.40065668  0.24520642  1
  O  O161  1  0.00988594  0.37734213  0.75819582  1
  O  O162  1  0.01576591  0.87402992  0.26223870  1
  O  O163  1  0.03605812  0.91278882  0.74511692  1
  O  O164  1  0.47967813  0.34848058  0.22429439  1
  O  O165  1  0.52121424  0.35679626  0.75704919  1
  O  O166  1  0.49247386  0.89156865  0.22932120  1
  O  O167  1  0.51724129  0.87599922  0.75772895  1
  O  O168  1  0.50371163  0.14042435  0.23523565  1
  O  O169  1  0.50343368  0.11904550  0.73560854  1
  O  O170  1  0.47240942  0.67020896  0.26566571  1
  O  O171  1  0.49441154  0.60241774  0.77582971  1
  O  O172  1  0.99649623  0.12157838  0.24902283  1
  O  O173  1  0.99783743  0.10932827  0.72684210  1
  O  O174  1  0.97641962  0.67372233  0.24333106  1
  O  O175  1  1.00325185  0.62339105  0.75693230  1
  O  O176  1  0.38575539  0.25329007  0.00902221  1
  O  O177  1  0.38852504  0.24766878  0.47954496  1
  O  O178  1  0.35370891  0.78177784  0.00677503  1
  O  O179  1  0.36798251  0.76079453  0.49700824  1
  O  O180  1  0.86822857  0.24925026  0.01885790  1
  O  O181  1  0.87635355  0.26701134  0.50791652  1
  O  O182  1  0.86700031  0.76893858  -0.00681001  1
  O  O183  1  0.86543821  0.73047202  0.51940495  1
  O  O184  1  0.13339787  0.28894499  0.48899288  1
  O  O185  1  0.11931204  0.30782561  0.95201150  1
  O  O186  1  0.14478125  0.73880741  0.51397802  1
  O  O187  1  0.14050303  0.76676797  1.00170213  1
  O  O188  1  0.58082940  0.25884689  0.47675825  1
  O  O189  1  0.63810486  0.23076592  0.98189531  1
  O  O190  1  0.64546608  0.73931302  0.51238826  1
  O  O191  1  0.64629979  0.76818011  0.98167576  1
  O  O192  1  0.52816998  0.24957791  0.12968002  1
  O  O193  1  0.51547463  0.23304794  0.63541308  1
  O  O194  1  0.50363256  0.73790150  0.11113776  1
  O  O195  1  0.51022371  0.75270632  0.62766129  1
  O  O196  1  1.00496206  0.22511007  0.12946182  1
  O  O197  1  0.98505054  0.23468995  0.61571625  1
  O  O198  1  1.00912831  0.73207748  0.10109738  1
  O  O199  1  0.98553599  0.77159813  0.62302647  1
  O  O200  1  0.01667720  0.24600878  0.40418177  1
  O  O201  1  0.01203193  0.21146399  0.87797290  1
  O  O202  1  -0.00672024  0.76340235  0.39105787  1
  O  O203  1  -0.01334824  0.78686822  0.85549792  1
  O  O204  1  0.47224903  0.25296501  0.32897855  1
  O  O205  1  0.52511668  0.24184984  0.86414567  1
  O  O206  1  0.43444035  0.73300669  0.29086066  1
  O  O207  1  0.51885320  0.75928034  0.87592950  1
  O  O208  1  0.26088117  0.14821169  0.51792903  1
  O  O209  1  0.21991448  0.07442790  0.98210085  1
  O  O210  1  0.26663258  0.64320643  0.49294782  1
  O  O211  1  0.23832194  0.64664328  1.03071729  1
  O  O212  1  0.71895493  0.11334972  0.51773604  1
  O  O213  1  0.74994833  0.11031588  0.98433986  1
  O  O214  1  0.74398881  0.63035142  0.50878017  1
  O  O215  1  0.76735028  0.65007932  1.00236788  1
  O  O216  1  0.25817238  0.35017456  -0.03860600  1
  O  O217  1  0.26763790  0.37679442  0.48034643  1
  O  O218  1  0.24334079  0.88853435  0.01780087  1
  O  O219  1  0.25224253  0.86905117  0.50940255  1
  O  O220  1  0.77012175  0.37603850  -0.00458809  1
  O  O221  1  0.75304837  0.37991476  0.51744322  1
  O  O222  1  0.76783061  0.87438187  0.00089528  1
  O  O223  1  0.73868215  0.91177893  0.52861884  1
  O  O224  1  0.06132714  0.52423932  0.26243039  1
  O  O225  1  0.16581749  0.49226979  0.75471505  1
  O  O226  1  0.13278495  0.99432034  0.24976156  1
  O  O227  1  0.15368571  1.02302231  0.75757525  1
  O  O228  1  0.52078196  0.51006796  0.14312100  1
  O  O229  1  0.62844746  0.47551099  0.77102142  1
  O  O230  1  0.62073466  0.99338848  0.23752400  1
  O  O231  1  0.63263228  0.98945004  0.75594279  1
  O  O232  1  0.35748498  -0.00287762  0.26856271  1
  O  O233  1  0.37662816  0.02101439  0.75719868  1
  O  O234  1  0.37475077  0.50770477  0.26044399  1
  O  O235  1  0.34369802  0.47068802  0.78892471  1
  O  O236  1  0.87813669  0.01426765  0.26870950  1
  O  O237  1  0.88130476  -0.00858529  0.75760382  1
  O  O238  1  0.90045123  0.55859666  0.17774848  1
  O  O239  1  0.88353444  0.52103198  0.74929398  1
  O  O240  1  0.09623770  0.39978480  0.35989421  1
  O  O241  1  0.09117881  0.33565007  0.89121781  1
  O  O242  1  0.11715629  0.87762593  0.36706379  1
  O  O243  1  0.14803126  0.89377513  0.86248777  1
  O  O244  1  0.65978518  0.26636486  0.44149077  1
  O  O245  1  0.63272150  0.35112496  0.86692585  1
  O  O246  1  0.60804317  0.87570362  0.34505933  1
  O  O247  1  0.61949601  0.87406154  0.86858998  1
  O  O248  1  0.37876804  0.07650243  0.12734818  1
  O  O249  1  0.40134886  0.11513139  0.62634612  1
  O  O250  1  0.42633997  0.63470811  0.08318287  1
  O  O251  1  0.48715438  0.60009679  0.69096651  1
  O  O252  1  0.87921392  0.11516001  0.14749558  1
  O  O253  1  0.87483655  0.13414316  0.61554956  1
  O  O254  1  0.87115614  0.60804796  0.13200050  1
  O  O255  1  0.87889957  0.63856777  0.64084666  1
  O  O256  1  0.18144277  0.28273795  0.11673861  1
  O  O257  1  0.27312826  0.27562494  0.59641854  1
  O  O258  1  0.25098032  0.77454243  0.12269801  1
  O  O259  1  0.25844663  0.76531173  0.62337801  1
  O  O260  1  0.71137042  0.28388126  0.12191367  1
  O  O261  1  0.76277630  0.25411347  0.62687117  1
  O  O262  1  0.74251268  0.76827217  0.10728201  1
  O  O263  1  0.76043454  0.77294963  0.60992315  1
  O  O264  1  0.23929857  0.25596716  0.39447769  1
  O  O265  1  0.23578753  0.22002702  0.86443496  1
  O  O266  1  0.24678394  0.75864887  0.38818625  1
  O  O267  1  0.25644844  0.74126421  0.89866788  1
  O  O268  1  0.69285697  0.20359301  0.42065114  1
  O  O269  1  0.74569611  0.22579466  0.86193608  1
  O  O270  1  0.75211123  0.80370019  0.42740080  1
  O  O271  1  0.74685069  0.74319176  0.87991771  1
  O  O272  1  -0.01282561  0.10297347  0.02904385  1
  O  O273  1  -0.00309943  0.11516931  0.50428618  1
  O  O274  1  -0.01834755  0.62297009  -0.02550449  1
  O  O275  1  0.02642211  0.64394087  0.53305192  1
  O  O276  1  0.52794060  0.12173405  -0.00557385  1
  O  O277  1  0.50535892  0.10266213  0.51146234  1
  O  O278  1  0.48064131  0.67836583  0.05901237  1
  O  O279  1  0.52287578  0.65940722  0.47096428  1
  O  O280  1  0.49241122  0.40674348  0.55969927  1
  O  O281  1  0.52940673  0.35239676  0.98451777  1
  O  O282  1  0.48558238  0.87737881  0.50048342  1
  O  O283  1  0.49038424  0.87030705  0.99216809  1
  O  O284  1  0.97560996  0.39123344  0.49541609  1
  O  O285  1  0.98286803  0.36398653  1.03520282  1
  O  O286  1  1.01107143  0.88554374  0.48902643  1
  O  O287  1  0.98215666  0.88681245  1.00644910  1
  O  O288  1  0.50704869  0.52151816  0.35215035  1
  O  O289  1  0.49516862  0.46484256  0.86735413  1
  O  O290  1  0.48170916  0.99593764  0.38437403  1
  O  O291  1  0.48859781  0.98762794  0.86929689  1
  O  O292  1  0.96341658  0.56496301  0.42459653  1
  O  O293  1  1.02145043  0.49747283  0.88018178  1
  O  O294  1  0.99720257  0.99384442  0.38681274  1
  O  O295  1  1.00812837  1.01425229  0.89826708  1
  O  O296  1  0.00729362  0.00238581  0.13991248  1
  O  O297  1  -0.00656326  0.01127697  0.60565995  1
  O  O298  1  0.03824576  0.51867665  0.08398281  1
  O  O299  1  -0.01613266  0.50691682  0.61053756  1
  O  O300  1  0.52513498  -0.00141396  0.11295896  1
  O  O301  1  0.51728603  -0.00242561  0.60821041  1
  O  O302  1  0.46877965  0.46624462  0.11243537  1
  O  O303  1  0.47603168  0.52784252  0.66338882  1
  O  O304  1  0.25407378  0.37339261  0.25217544  1
  O  O305  1  0.24476505  0.34988533  0.74393684  1
  O  O306  1  0.24038791  0.88671309  0.24249126  1
  O  O307  1  0.24517603  0.88894865  0.74041904  1
  O  O308  1  0.76024467  0.38976604  0.23233758  1
  O  O309  1  0.74518906  0.36454539  0.74822173  1
  O  O310  1  0.75879404  0.85230669  0.24501669  1
  O  O311  1  0.74799050  0.89087349  0.75392398  1
  O  O312  1  0.24054642  0.11434680  0.24464541  1
  O  O313  1  0.27311078  0.12277026  0.71787000  1
  O  O314  1  0.22657219  0.61683768  0.27048596  1
  O  O315  1  0.26447475  0.63180060  0.76719872  1
  O  O316  1  0.75226427  0.12865517  0.24921272  1
  O  O317  1  0.75805119  0.10639137  0.76212992  1
  O  O318  1  0.73653165  0.62681549  0.23638236  1
  O  O319  1  0.73927948  0.62034219  0.75586714  1
  O  O320  1  0.37732698  0.11049405  0.38567032  1
  O  O321  1  0.38881249  0.11450920  0.87954435  1
  O  O322  1  0.35294873  0.61408345  0.36990155  1
  O  O323  1  0.36366140  0.62307619  0.89468033  1
  O  O324  1  0.86405878  0.11237629  0.37051856  1
  O  O325  1  0.87019066  0.12463749  0.88131458  1
  O  O326  1  0.83180530  0.68548298  0.35672319  1
  O  O327  1  0.86322752  0.64179009  0.84960746  1
  O  O328  1  0.10603407  0.38921719  0.18338026  1
  O  O329  1  0.06086448  0.33210137  0.73107242  1
  O  O330  1  0.12832540  0.88586017  0.14191316  1
  O  O331  1  0.14420300  0.87660312  0.63083966  1
  O  O332  1  0.63335832  0.41344493  0.11715820  1
  O  O333  1  0.64194459  0.36956156  0.64278034  1
  O  O334  1  0.63393681  0.88423524  0.13310363  1
  O  O335  1  0.64479531  0.87321897  0.64679167  1
  O  O336  1  0.12287520  0.25175345  0.28434924  1
  O  O337  1  0.18059779  0.20831835  0.81786370  1
  O  O338  1  0.13658840  0.76635981  0.24902179  1
  O  O339  1  0.13499291  0.76971690  0.75274879  1
  O  O340  1  0.59863571  0.24967937  0.25053258  1
  O  O341  1  0.62665596  0.24326237  0.75786080  1
  O  O342  1  0.60297633  0.76739836  0.22742364  1
  O  O343  1  0.63897541  0.76714968  0.76767389  1
  O  O344  1  0.39947575  0.22709818  0.19629019  1
  O  O345  1  0.39727188  0.22550246  0.75582776  1
  O  O346  1  0.36799370  0.75197034  0.24693806  1
  O  O347  1  0.37841540  0.76713684  0.76085699  1
  O  O348  1  0.87076560  0.23126951  0.26594846  1
  O  O349  1  0.88125838  0.24329924  0.73467283  1
  O  O350  1  0.93104353  0.72625591  0.22132643  1
  O  O351  1  0.87387266  0.74339812  0.73498965  1
  O  O352  1  0.39553754  0.52369704  0.47776338  1
  O  O353  1  0.38397472  0.44259496  0.99426551  1
  O  O354  1  0.37743442  0.98904699  0.49206624  1
  O  O355  1  0.36963575  0.99103169  0.98298319  1
  O  O356  1  0.86626704  0.48442270  0.51056060  1
  O  O357  1  0.89980478  0.48258638  0.99696593  1
  O  O358  1  0.88552055  1.00107940  0.48273329  1
  O  O359  1  0.88229783  0.98911173  1.00383031  1
  O  O360  1  0.10109277  -0.01583174  0.02525190  1
  O  O361  1  0.11391418  0.00323800  0.49826101  1
  O  O362  1  0.09076355  0.49546683  0.02270886  1
  O  O363  1  0.09418962  0.50348622  0.50183603  1
  O  O364  1  0.63452566  0.00232480  0.00482993  1
  O  O365  1  0.60847905  -0.01877341  0.47416394  1
  O  O366  1  0.62013192  0.50425416  -0.02435944  1
  O  O367  1  0.62996009  0.52268043  0.48536426  1
  O  O368  1  0.32484023  0.35656759  0.11774974  1
  O  O369  1  0.42814385  0.39458078  0.59648390  1
  O  O370  1  0.36035441  0.89815317  0.11214394  1
  O  O371  1  0.36411196  0.87871886  0.60789639  1
  O  O372  1  0.85300548  0.37748231  0.11546281  1
  O  O373  1  0.86388338  0.36202087  0.62808273  1
  O  O374  1  0.86665602  0.87620540  0.13524257  1
  O  O375  1  0.86367101  0.86662321  0.63279890  1
  O  O376  1  0.12821865  0.13085510  0.38734591  1
  O  O377  1  0.07135506  0.16691006  0.88142375  1
  O  O378  1  0.14571794  0.62041882  0.41146740  1
  O  O379  1  0.14427342  0.63562650  0.86812683  1
  O  O380  1  0.56667639  0.14108718  0.37329569  1
  O  O381  1  0.63602117  0.12151187  0.88059225  1
  O  O382  1  0.65696939  0.64903203  0.37588871  1
  O  O383  1  0.63489360  0.64275027  0.87340009  1
