# generated using pymatgen
data_VZnO4
_symmetry_space_group_name_H-M   'P 1'
_cell_length_a   16.91501399
_cell_length_b   16.93125689
_cell_length_c   16.94656938
_cell_angle_alpha   90.44175969
_cell_angle_beta   89.89895217
_cell_angle_gamma   89.86425158
_symmetry_Int_Tables_number   1
_chemical_formula_structural   VZnO4
_chemical_formula_sum   'V64 Zn64 O256'
_cell_volume   4853.20389287
_cell_formula_units_Z   64
loop_
 _symmetry_equiv_pos_site_id
 _symmetry_equiv_pos_as_xyz
  1  'x, y, z'
loop_
 _atom_site_type_symbol
 _atom_site_label
 _atom_site_symmetry_multiplicity
 _atom_site_fract_x
 _atom_site_fract_y
 _atom_site_fract_z
 _atom_site_occupancy
  V  V0  1  0.00216491  0.49280177  0.49405213  1
  V  V1  1  0.86014389  0.75039456  0.11261832  1
  V  V2  1  0.61605249  0.23966242  0.87676039  1
  V  V3  1  0.75452362  0.23385089  0.51022768  1
  V  V4  1  0.38516775  0.38810841  0.51539449  1
  V  V5  1  0.74970964  0.87702916  0.61726568  1
  V  V6  1  0.50288384  0.85876355  0.36846077  1
  V  V7  1  0.11934808  0.38772055  0.26646954  1
  V  V8  1  0.36693766  0.01175496  0.36426291  1
  V  V9  1  0.00233486  0.24564752  0.26064762  1
  V  V10  1  0.73922033  0.88410396  0.11992398  1
  V  V11  1  0.49731525  0.09443865  0.09970748  1
  V  V12  1  0.11633954  0.51954806  0.63071732  1
  V  V13  1  0.12727385  0.89857799  0.74888796  1
  V  V14  1  0.62932545  0.61754182  0.00890461  1
  V  V15  1  0.76810622  -0.00421651  0.75132817  1
  V  V16  1  0.00586262  0.76563346  0.25923554  1
  V  V17  1  0.25199494  0.75022864  -0.00052273  1
  V  V18  1  0.12168271  0.35414876  0.75395944  1
  V  V19  1  0.48717986  0.36964555  0.86534606  1
  V  V20  1  0.63348218  0.73522900  0.86537739  1
  V  V21  1  0.01721124  -0.00302546  0.01617765  1
  V  V22  1  0.23946286  0.51418785  0.23697663  1
  V  V23  1  0.50918740  0.86026051  0.85361129  1
  V  V24  1  -0.00600420  0.63100915  0.12152279  1
  V  V25  1  0.63139112  0.91171018  0.26124473  1
  V  V26  1  0.49434453  0.50248872  0.00529105  1
  V  V27  1  0.77433724  0.36505999  0.62679674  1
  V  V28  1  0.87401825  0.63390959  0.26249449  1
  V  V29  1  0.11829634  0.63492320  0.48194038  1
  V  V30  1  0.48899069  0.02297928  0.50876552  1
  V  V31  1  0.24543237  0.74040532  0.48616197  1
  V  V32  1  -0.00577319  0.87825316  0.87503034  1
  V  V33  1  -0.00543001  0.36778855  0.87132146  1
  V  V34  1  0.87615596  0.47798688  0.38045315  1
  V  V35  1  0.84679147  0.01999463  0.39837955  1
  V  V36  1  0.61832200  0.25694028  0.38563352  1
  V  V37  1  0.77067717  0.48168688  0.22853630  1
  V  V38  1  0.74848630  0.50836044  0.74632972  1
  V  V39  1  0.21839479  0.36126661  0.60490598  1
  V  V40  1  0.62242451  0.61093417  0.48977819  1
  V  V41  1  0.12859480  0.74801799  0.86601924  1
  V  V42  1  0.39718740  0.61347485  0.25339148  1
  V  V43  1  0.36373278  0.36514362  -0.00179775  1
  V  V44  1  0.39114402  0.73412766  0.12779700  1
  V  V45  1  0.13093649  0.62132027  0.00332413  1
  V  V46  1  0.48410335  0.26716707  0.25798333  1
  V  V47  1  0.48196079  0.23711901  0.72863152  1
  V  V48  1  0.37733931  0.86946858  0.49386865  1
  V  V49  1  0.62367451  0.37325969  0.73991318  1
  V  V50  1  0.24985288  0.51143255  0.74704580  1
  V  V51  1  -0.01201398  0.50569508  -0.00421431  1
  V  V52  1  0.37440853  -0.00791622  0.86219202  1
  V  V53  1  0.24435344  0.87821299  0.13594873  1
  V  V54  1  0.38202828  0.73486449  0.63098534  1
  V  V55  1  0.86206970  0.12306710  0.24802037  1
  V  V56  1  0.22723092  0.37460599  0.10945063  1
  V  V57  1  0.24907668  0.88043771  0.62817380  1
  V  V58  1  0.63293553  0.37835791  0.23609482  1
  V  V59  1  0.87916087  0.86468350  0.49048339  1
  V  V60  1  0.88058648  0.52236819  0.85149241  1
  V  V61  1  0.36756419  0.51405960  0.86562713  1
  V  V62  1  0.90749323  0.15921224  0.76514415  1
  V  V63  1  0.39419720  0.87315427  0.00239313  1
  Zn  Zn64  1  0.20235281  0.21715832  0.20700249  1
  Zn  Zn65  1  0.19990079  0.18135006  0.68656998  1
  Zn  Zn66  1  0.18420951  0.69896790  0.18341913  1
  Zn  Zn67  1  0.19884128  0.69476721  0.67844774  1
  Zn  Zn68  1  0.65203557  0.12344167  0.22983992  1
  Zn  Zn69  1  0.75577072  0.20754363  0.73659637  1
  Zn  Zn70  1  0.69986990  0.64993077  0.16801987  1
  Zn  Zn71  1  0.67879729  0.69100062  0.67675484  1
  Zn  Zn72  1  0.36051191  0.42816820  0.33028470  1
  Zn  Zn73  1  0.30216449  0.31169938  0.80725188  1
  Zn  Zn74  1  0.31966359  0.80139741  0.30609425  1
  Zn  Zn75  1  0.31396766  0.81019466  0.81171056  1
  Zn  Zn76  1  0.80702302  0.30222359  0.32081302  1
  Zn  Zn77  1  0.81259943  0.31166085  0.88933585  1
  Zn  Zn78  1  0.85449217  0.88901995  0.26859967  1
  Zn  Zn79  1  0.78939440  0.83982932  0.83052898  1
  Zn  Zn80  1  0.20811773  0.46353279  0.43769329  1
  Zn  Zn81  1  0.18202959  0.44091070  0.92884471  1
  Zn  Zn82  1  0.19391063  0.91431470  0.42230959  1
  Zn  Zn83  1  0.19502296  0.93312956  0.94067512  1
  Zn  Zn84  1  0.69819749  0.42487833  0.44048612  1
  Zn  Zn85  1  0.64783050  0.38406066  0.97735096  1
  Zn  Zn86  1  0.67793002  0.95043306  0.45273258  1
  Zn  Zn87  1  0.68237431  0.93383443  0.93876922  1
  Zn  Zn88  1  0.32058847  0.06505556  0.17569255  1
  Zn  Zn89  1  0.38054697  0.07368555  0.68433645  1
  Zn  Zn90  1  0.31494681  0.55696166  0.06308990  1
  Zn  Zn91  1  0.30445491  0.55895018  0.55965149  1
  Zn  Zn92  1  0.85225957  0.02383926  0.09863452  1
  Zn  Zn93  1  0.81914929  0.07179333  0.59028793  1
  Zn  Zn94  1  0.77802189  0.48356014  0.01207934  1
  Zn  Zn95  1  0.80863716  0.55188172  0.56010419  1
  Zn  Zn96  1  0.43920688  0.41251837  0.18039959  1
  Zn  Zn97  1  0.41202867  0.39952076  0.68808053  1
  Zn  Zn98  1  0.44086324  0.92633530  0.18772944  1
  Zn  Zn99  1  0.44448887  0.91669721  0.67887804  1
  Zn  Zn100  1  0.94163607  0.43830367  0.18087038  1
  Zn  Zn101  1  0.94564261  0.43239050  0.68503164  1
  Zn  Zn102  1  0.99939585  0.97911319  0.23163077  1
  Zn  Zn103  1  0.93655061  0.92102196  0.68392032  1
  Zn  Zn104  1  0.18957088  0.05065354  0.30297923  1
  Zn  Zn105  1  0.05432071  0.08845923  0.85694526  1
  Zn  Zn106  1  0.05627695  0.56757550  0.31013501  1
  Zn  Zn107  1  0.06762347  0.57105558  0.81809032  1
  Zn  Zn108  1  0.53279421  0.08467550  0.33298038  1
  Zn  Zn109  1  0.55726975  0.04812543  0.92770529  1
  Zn  Zn110  1  0.56757656  0.53156627  0.30035154  1
  Zn  Zn111  1  0.57066525  0.54792263  0.82841422  1
  Zn  Zn112  1  0.42312571  0.20160629  0.43044254  1
  Zn  Zn113  1  0.41950112  0.18068752  0.93314019  1
  Zn  Zn114  1  0.43608160  0.68335760  0.43253085  1
  Zn  Zn115  1  0.44241636  0.68638403  0.93325517  1
  Zn  Zn116  1  0.91946603  0.21086842  0.41916760  1
  Zn  Zn117  1  0.90151608  0.11424205  0.95094682  1
  Zn  Zn118  1  0.94116764  0.68825923  0.43861652  1
  Zn  Zn119  1  0.93724075  0.69726077  0.93334697  1
  Zn  Zn120  1  0.04261123  0.31694309  0.05679199  1
  Zn  Zn121  1  0.08085346  0.31683448  0.44170451  1
  Zn  Zn122  1  0.05806706  0.81639848  0.06565234  1
  Zn  Zn123  1  0.05490561  0.92309184  0.56328191  1
  Zn  Zn124  1  0.58238188  0.25554267  0.09234915  1
  Zn  Zn125  1  0.55659542  0.31288122  0.56253211  1
  Zn  Zn126  1  0.57790553  0.80152573  0.06927938  1
  Zn  Zn127  1  0.56229738  0.80228368  0.55321944  1
  O  O128  1  0.12234221  0.17711314  0.06380072  1
  O  O129  1  0.08155252  0.12799515  0.62615673  1
  O  O130  1  0.10865138  0.63675910  0.11023533  1
  O  O131  1  0.12581488  0.62037085  0.62067280  1
  O  O132  1  0.58395030  0.14697506  0.14041175  1
  O  O133  1  0.60162895  0.08533650  0.66599196  1
  O  O134  1  0.61243892  0.61402954  0.11006327  1
  O  O135  1  0.62303852  0.62364077  0.59522082  1
  O  O136  1  0.45762591  0.42677890  0.40347330  1
  O  O137  1  0.37100818  0.38303396  0.87525714  1
  O  O138  1  0.39064263  0.87026336  0.37208216  1
  O  O139  1  0.39262674  0.85799355  0.88552809  1
  O  O140  1  0.88299320  0.37907527  0.37622323  1
  O  O141  1  0.89364128  0.39727540  0.86537345  1
  O  O142  1  0.86943325  0.91316307  0.38656008  1
  O  O143  1  0.89867760  0.85232966  0.86048985  1
  O  O144  1  0.26366765  -0.01596615  0.36534946  1
  O  O145  1  0.27605679  -0.03083269  0.87374900  1
  O  O146  1  0.26168015  0.48514661  0.33990641  1
  O  O147  1  0.25404494  0.50231802  0.85804601  1
  O  O148  1  0.74718163  0.02326961  0.39183151  1
  O  O149  1  0.74020997  -0.05021901  0.84173302  1
  O  O150  1  0.77443705  0.49011829  0.37978396  1
  O  O151  1  0.77472201  0.50643521  0.85263393  1
  O  O152  1  0.24818964  0.49293068  0.12980589  1
  O  O153  1  0.22898418  0.49291024  0.63095993  1
  O  O154  1  0.26781645  0.97556934  0.12442793  1
  O  O155  1  0.26887562  0.97419921  0.62063732  1
  O  O156  1  0.78844264  0.47822970  0.13127031  1
  O  O157  1  0.76370631  0.47972762  0.63790878  1
  O  O158  1  0.75127256  0.98385949  0.12907610  1
  O  O159  1  0.74618972  0.98470745  0.63798490  1
  O  O160  1  0.01736519  0.39082275  0.25276503  1
  O  O161  1  0.01213400  0.37433623  0.75860321  1
  O  O162  1  -0.02542485  0.86465572  0.24995402  1
  O  O163  1  0.02212401  0.87071360  0.75622317  1
  O  O164  1  0.53871613  0.42479688  0.24884352  1
  O  O165  1  0.50449188  0.38916463  0.75711486  1
  O  O166  1  0.51752354  0.87798713  0.26159333  1
  O  O167  1  0.51129385  0.86372142  0.75363157  1
  O  O168  1  0.46503293  0.16993045  0.27523771  1
  O  O169  1  0.46135324  0.14152488  0.74164304  1
  O  O170  1  0.49614801  0.60412598  0.24907971  1
  O  O171  1  0.50825383  0.60056016  0.72633457  1
  O  O172  1  1.01943327  0.15082681  0.24734813  1
  O  O173  1  1.00995141  0.15202711  0.77494270  1
  O  O174  1  0.98951712  0.62922686  0.23929148  1
  O  O175  1  0.99309542  0.63627907  0.73078206  1
  O  O176  1  0.36882609  0.26631106  -0.01194498  1
  O  O177  1  0.37386625  0.30055599  0.46584388  1
  O  O178  1  0.36687417  0.74163857  0.00668611  1
  O  O179  1  0.36552623  0.75203594  0.49610594  1
  O  O180  1  0.85294925  0.22124229  -0.02565353  1
  O  O181  1  0.85658236  0.23829683  0.50642064  1
  O  O182  1  0.87539243  0.75108115  0.01422422  1
  O  O183  1  0.86766265  0.76733478  0.47112277  1
  O  O184  1  0.12512196  0.21444025  0.47780729  1
  O  O185  1  0.09928360  0.22972618  1.00488570  1
  O  O186  1  0.13662952  0.74005329  0.49910507  1
  O  O187  1  0.13912461  0.74539606  0.99704665  1
  O  O188  1  0.62633394  0.25821864  0.49172675  1
  O  O189  1  0.61139748  0.26690036  0.98112758  1
  O  O190  1  0.62606312  0.71595545  0.48168634  1
  O  O191  1  0.62444009  0.72389663  0.99737250  1
  O  O192  1  0.48734471  0.28399052  0.15642386  1
  O  O193  1  0.50030055  0.24170943  0.63035697  1
  O  O194  1  0.48906799  0.74283502  0.12138276  1
  O  O195  1  0.48227336  0.75017102  0.61458284  1
  O  O196  1  0.97655993  0.28054656  0.14742437  1
  O  O197  1  1.02895952  0.16681164  0.59452804  1
  O  O198  1  0.98485953  0.74922732  0.13201981  1
  O  O199  1  0.97656281  0.70786190  0.73173495  1
  O  O200  1  0.00611594  0.26119086  0.36774473  1
  O  O201  1  -0.00901734  0.27398538  0.89134440  1
  O  O202  1  -0.00019031  0.74544226  0.35656154  1
  O  O203  1  0.02322309  0.76093696  0.88547304  1
  O  O204  1  0.51289530  0.26631421  0.38428307  1
  O  O205  1  0.48472833  0.26241430  0.86246275  1
  O  O206  1  0.50474319  0.75999020  0.37082304  1
  O  O207  1  0.50862978  0.75276388  0.87241799  1
  O  O208  1  0.16830561  0.05321067  0.54287607  1
  O  O209  1  0.17410204  0.12746451  1.04431727  1
  O  O210  1  0.23813669  0.63350078  0.49706891  1
  O  O211  1  0.23697142  0.63139217  1.00902865  1
  O  O212  1  0.73883842  0.13751711  0.52972860  1
  O  O213  1  0.79014224  0.20568714  1.03640459  1
  O  O214  1  0.72823296  0.60942170  0.49127321  1
  O  O215  1  0.72587321  0.58668207  1.00509599  1
  O  O216  1  0.25319099  0.38560934  -0.00232737  1
  O  O217  1  0.19712985  0.37098795  0.50690919  1
  O  O218  1  0.26397659  0.85792433  0.00774528  1
  O  O219  1  0.25252815  0.86165398  0.50509272  1
  O  O220  1  0.75915420  0.38057428  -0.02951766  1
  O  O221  1  0.74791449  0.36529229  0.52486530  1
  O  O222  1  0.73077900  0.86730951  0.02220075  1
  O  O223  1  0.76180573  0.89044146  0.50597777  1
  O  O224  1  0.13000062  0.50098503  0.24862927  1
  O  O225  1  0.12823621  0.51230857  0.74066355  1
  O  O226  1  0.22813925  1.11220111  0.22162552  1
  O  O227  1  0.13172492  0.99374030  0.76226374  1
  O  O228  1  0.66631976  0.49362653  0.24480397  1
  O  O229  1  0.64066493  0.48478335  0.76226867  1
  O  O230  1  0.61560956  1.01158761  0.25769495  1
  O  O231  1  0.59483132  1.02531114  0.70471108  1
  O  O232  1  0.38411618  0.00187514  0.26049229  1
  O  O233  1  0.38410742  -0.02038524  0.75871466  1
  O  O234  1  0.36670992  0.50805160  0.23679158  1
  O  O235  1  0.35659748  0.48752748  0.75149595  1
  O  O236  1  0.88690053  0.01235922  0.26591274  1
  O  O237  1  0.86709006  -0.01393260  0.74821337  1
  O  O238  1  0.87916454  0.49780652  0.26378204  1
  O  O239  1  0.87709991  0.50630200  0.74666217  1
  O  O240  1  0.13168012  0.38956461  0.36705267  1
  O  O241  1  0.11428036  0.37971411  0.86058200  1
  O  O242  1  0.09601543  0.92042912  0.35970593  1
  O  O243  1  0.12961255  0.86340069  0.86082445  1
  O  O244  1  0.64250433  0.36326122  0.36311361  1
  O  O245  1  0.59626425  0.36938931  0.86785710  1
  O  O246  1  0.61263373  0.89110033  0.36917907  1
  O  O247  1  0.61118402  0.85313553  0.88445942  1
  O  O248  1  0.40692038  0.12454357  0.13219851  1
  O  O249  1  0.27942456  0.11244353  0.70181342  1
  O  O250  1  0.37561194  0.62935813  0.12885453  1
  O  O251  1  0.36791970  0.63491385  0.61136701  1
  O  O252  1  0.88867977  0.11970657  0.15091060  1
  O  O253  1  0.87359371  0.13177682  0.67053380  1
  O  O254  1  0.88461233  0.63922884  0.13206127  1
  O  O255  1  0.86855839  0.64624860  0.59862887  1
  O  O256  1  0.24275438  0.27547835  0.11972805  1
  O  O257  1  0.21785636  0.26251156  0.61095033  1
  O  O258  1  0.26034517  0.75237384  0.11348674  1
  O  O259  1  0.26047586  0.75587222  0.60730735  1
  O  O260  1  0.77702214  0.26194572  0.08204616  1
  O  O261  1  0.74416528  0.26001525  0.62909024  1
  O  O262  1  0.75849908  0.73833381  0.12663142  1
  O  O263  1  0.76601552  0.73682099  0.61193321  1
  O  O264  1  0.24779260  0.27698944  0.37290236  1
  O  O265  1  0.26012907  0.22537499  0.87745531  1
  O  O266  1  0.25131094  0.75709014  0.38733245  1
  O  O267  1  0.24389126  0.75292033  0.89019829  1
  O  O268  1  0.74188536  0.24765181  0.40038977  1
  O  O269  1  0.71543913  0.24751927  0.85200018  1
  O  O270  1  0.68162240  0.74044990  0.31307265  1
  O  O271  1  0.73323578  0.75353627  0.87557058  1
  O  O272  1  0.01620628  0.09656140  -0.03032668  1
  O  O273  1  0.11820753  0.15970429  0.41826527  1
  O  O274  1  0.00592067  0.62342899  0.00286758  1
  O  O275  1  0.01382165  0.62315710  0.49858257  1
  O  O276  1  0.49384461  0.12005232  -0.00161247  1
  O  O277  1  0.47885960  0.12180197  0.49516121  1
  O  O278  1  0.50140604  0.60657080  -0.00792264  1
  O  O279  1  0.51755655  0.61709078  0.49102027  1
  O  O280  1  0.47333942  0.39751190  0.56663301  1
  O  O281  1  0.47727386  0.38595263  0.97818805  1
  O  O282  1  0.49311542  0.86914866  0.48502981  1
  O  O283  1  0.49420878  0.85880384  1.00794873  1
  O  O284  1  1.01597782  0.39457077  0.49865950  1
  O  O285  1  1.00632235  0.40053147  0.98466398  1
  O  O286  1  0.98095733  0.87729901  0.49322658  1
  O  O287  1  1.00393554  0.88326953  0.98703906  1
  O  O288  1  0.49969811  0.49157761  0.40297826  1
  O  O289  1  0.47884789  0.49124497  0.86989574  1
  O  O290  1  0.48133616  1.00026228  0.38790648  1
  O  O291  1  0.49240175  0.96760715  0.87733953  1
  O  O292  1  0.99496315  0.50517528  0.38786437  1
  O  O293  1  0.99578474  0.50628561  0.87666872  1
  O  O294  1  1.09432159  0.98282659  0.30576712  1
  O  O295  1  1.00598232  0.97828738  0.86966912  1
  O  O296  1  0.00962216  -0.00259050  0.11802765  1
  O  O297  1  0.00307228  -0.00644776  0.63121410  1
  O  O298  1  -0.01359722  0.51314844  0.10362076  1
  O  O299  1  0.01139236  0.50250524  0.61442269  1
  O  O300  1  0.50347040  -0.00347349  0.12052819  1
  O  O301  1  0.45576782  0.01148560  0.61031967  1
  O  O302  1  0.48275161  0.48939437  0.10176573  1
  O  O303  1  0.48874807  0.55240343  0.67407176  1
  O  O304  1  0.22259748  0.38751548  0.22415392  1
  O  O305  1  0.22974478  0.38211700  0.74578277  1
  O  O306  1  0.25577091  0.86109402  0.23547257  1
  O  O307  1  0.23884436  0.86395447  0.73685730  1
  O  O308  1  0.75395400  0.37636004  0.24965669  1
  O  O309  1  0.73328870  0.37345522  0.73723700  1
  O  O310  1  0.73252198  0.89154327  0.26143833  1
  O  O311  1  0.76685533  0.86187879  0.71889630  1
  O  O312  1  0.27740266  0.23905235  0.31711416  1
  O  O313  1  0.21620082  0.16541609  0.84151856  1
  O  O314  1  0.24369543  0.61528154  0.23712943  1
  O  O315  1  0.25365531  0.60898708  0.73746157  1
  O  O316  1  0.76314264  0.13051299  0.24484858  1
  O  O317  1  0.73657465  0.09231657  0.75404211  1
  O  O318  1  0.77381852  0.60119584  0.24047098  1
  O  O319  1  0.73925994  0.60460442  0.72920938  1
  O  O320  1  0.36130011  0.10994432  0.38361910  1
  O  O321  1  0.37913587  0.09125907  0.87758163  1
  O  O322  1  0.38015068  0.62395125  0.35297663  1
  O  O323  1  0.37650977  0.61216868  0.86624278  1
  O  O324  1  0.88649909  0.11558430  0.36670935  1
  O  O325  1  0.87080645  0.10635846  0.84269828  1
  O  O326  1  0.88068863  0.61791343  0.36268336  1
  O  O327  1  0.88940926  0.62265091  0.86091847  1
  O  O328  1  0.12669889  0.38325660  0.10118773  1
  O  O329  1  0.11931669  0.38862312  0.64617675  1
  O  O330  1  0.14424192  0.86902833  0.11982650  1
  O  O331  1  0.13711649  0.87990814  0.63491194  1
  O  O332  1  0.63658516  0.35634654  0.13724149  1
  O  O333  1  0.61535667  0.37647653  0.64146398  1
  O  O334  1  0.63447817  0.86384882  0.15394921  1
  O  O335  1  0.65319774  0.84297365  0.60605296  1
  O  O336  1  0.11227933  0.27703807  0.24585125  1
  O  O337  1  0.13092884  0.25546060  0.74755497  1
  O  O338  1  0.10439910  0.75629207  0.24010784  1
  O  O339  1  0.13579983  0.73347022  0.76705601  1
  O  O340  1  0.59814963  0.27572966  0.26084430  1
  O  O341  1  0.59591281  0.26415434  0.75777839  1
  O  O342  1  0.63606438  0.71168496  0.26265723  1
  O  O343  1  0.62443162  0.73173308  0.76457480  1
  O  O344  1  0.40377209  0.33493736  0.27698715  1
  O  O345  1  0.38799521  0.28697426  0.73382108  1
  O  O346  1  0.37749115  0.72867620  0.23586005  1
  O  O347  1  0.36637903  0.74785403  0.73053920  1
  O  O348  1  0.88790381  0.23300763  0.26919259  1
  O  O349  1  0.85831660  0.25170191  0.78340242  1
  O  O350  1  0.87596574  0.73636585  0.25073118  1
  O  O351  1  0.84070797  0.70853631  0.63687238  1
  O  O352  1  0.32986647  0.47413672  0.48526392  1
  O  O353  1  0.37259089  0.49890159  0.97856011  1
  O  O354  1  0.37600323  0.97662215  0.48171873  1
  O  O355  1  0.38125354  0.97007484  0.99280563  1
  O  O356  1  0.89131905  0.50429476  0.49296710  1
  O  O357  1  0.88750304  0.51290823  0.97677940  1
  O  O358  1  0.87094080  1.02506168  0.49691931  1
  O  O359  1  0.89983335  1.00932482  1.00070283  1
  O  O360  1  0.11839936  -0.01223786  -0.00145322  1
  O  O361  1  0.12941271  0.00454388  0.50049926  1
  O  O362  1  0.11588135  0.51912709  -0.01051804  1
  O  O363  1  0.12054405  0.51771198  0.50725591  1
  O  O364  1  0.64198503  0.02038589  -0.00756957  1
  O  O365  1  0.58760841  0.00084401  0.50800534  1
  O  O366  1  0.59891013  0.49258802  -0.01217950  1
  O  O367  1  0.62532474  0.50635743  0.50332752  1
  O  O368  1  0.35986678  0.38172670  0.09971347  1
  O  O369  1  0.32890751  0.37630035  0.60732602  1
  O  O370  1  0.37479061  0.85464220  0.11714260  1
  O  O371  1  0.36840162  0.85769563  0.61052742  1
  O  O372  1  0.91280085  0.33433151  0.13599525  1
  O  O373  1  0.87355210  0.36198947  0.63167644  1
  O  O374  1  0.84574648  0.85710559  0.14523513  1
  O  O375  1  0.86718097  0.86978085  0.60130510  1
  O  O376  1  0.18509367  0.12257850  0.40290773  1
  O  O377  1  0.17169038  0.12608110  0.89080165  1
  O  O378  1  0.12585035  0.62286034  0.38359785  1
  O  O379  1  0.12205575  0.63967490  0.89163584  1
  O  O380  1  0.62234754  0.15521388  0.34607911  1
  O  O381  1  0.59422205  0.14364048  0.86953081  1
  O  O382  1  0.62201112  0.59853926  0.38639944  1
  O  O383  1  0.62122001  0.62908103  0.88558345  1
