# generated using pymatgen
data_VZnO4
_symmetry_space_group_name_H-M   'P 1'
_cell_length_a   16.91461544
_cell_length_b   16.88512205
_cell_length_c   16.90257072
_cell_angle_alpha   89.98707628
_cell_angle_beta   90.16885265
_cell_angle_gamma   89.71619619
_symmetry_Int_Tables_number   1
_chemical_formula_structural   VZnO4
_chemical_formula_sum   'V64 Zn64 O256'
_cell_volume   4827.38423433
_cell_formula_units_Z   64
loop_
 _symmetry_equiv_pos_site_id
 _symmetry_equiv_pos_as_xyz
  1  'x, y, z'
loop_
 _atom_site_type_symbol
 _atom_site_label
 _atom_site_symmetry_multiplicity
 _atom_site_fract_x
 _atom_site_fract_y
 _atom_site_fract_z
 _atom_site_occupancy
  V  V0  1  0.25273491  0.87978933  0.13222890  1
  V  V1  1  0.38813520  0.23156415  0.61231234  1
  V  V2  1  0.00057226  0.02054647  0.00496334  1
  V  V3  1  0.63200415  0.37696921  0.74099917  1
  V  V4  1  0.86720529  0.59845950  0.25986966  1
  V  V5  1  0.25056455  0.75787849  0.00306386  1
  V  V6  1  0.21662963  0.51199536  0.73899602  1
  V  V7  1  0.51441837  0.00675742  0.00175369  1
  V  V8  1  0.62784279  0.88246085  0.74576963  1
  V  V9  1  0.36876374  -0.00289236  0.39012199  1
  V  V10  1  0.25564551  0.76696795  0.50084679  1
  V  V11  1  0.00275163  0.63298351  0.13148983  1
  V  V12  1  0.88128760  0.12842683  0.24383166  1
  V  V13  1  0.13527115  0.88150316  0.74543554  1
  V  V14  1  0.25339144  0.01358562  0.25214730  1
  V  V15  1  0.50240370  0.62439541  0.10675490  1
  V  V16  1  0.25240654  0.48501256  0.25203073  1
  V  V17  1  0.85970834  0.37659886  0.50516473  1
  V  V18  1  0.50609163  0.25574104  0.76042733  1
  V  V19  1  -0.02568048  0.24328097  0.75081734  1
  V  V20  1  0.37554334  0.25045218  0.15846186  1
  V  V21  1  -0.00584216  0.49193718  0.00435053  1
  V  V22  1  0.62367832  0.48720235  0.09164881  1
  V  V23  1  -0.01204883  0.87637925  0.37934823  1
  V  V24  1  0.59554614  0.38210117  0.25503868  1
  V  V25  1  0.13179273  0.34710780  0.73351618  1
  V  V26  1  0.27143157  0.38671364  0.61948256  1
  V  V27  1  0.73052045  0.86925837  0.13276968  1
  V  V28  1  0.63729174  0.14305708  0.00152950  1
  V  V29  1  0.12872163  0.61360130  0.00428264  1
  V  V30  1  -0.01430729  0.12358939  0.62246017  1
  V  V31  1  0.49822472  0.75539911  0.75930750  1
  V  V32  1  0.01157966  0.38039038  0.87567407  1
  V  V33  1  0.36828007  0.76547611  0.62357082  1
  V  V34  1  0.25053778  0.36378997  0.11808895  1
  V  V35  1  0.36537910  0.89657893  -0.00502179  1
  V  V36  1  0.52468503  -0.00610985  0.50542263  1
  V  V37  1  0.37306339  0.62094324  0.74894678  1
  V  V38  1  0.62020968  0.24184273  0.35814982  1
  V  V39  1  0.12821419  0.35883790  0.26407531  1
  V  V40  1  0.13379275  0.00208634  0.62287169  1
  V  V41  1  -0.01630258  0.87572976  0.88295261  1
  V  V42  1  0.37012158  0.63455601  0.23141148  1
  V  V43  1  0.11926388  0.62258115  0.50440048  1
  V  V44  1  0.49777709  0.88214107  0.87892440  1
  V  V45  1  0.49433837  0.12207383  0.13993476  1
  V  V46  1  0.50175934  0.85735211  0.36037757  1
  V  V47  1  -0.01393909  -0.00339808  0.50033558  1
  V  V48  1  0.11368626  0.88181786  0.24587061  1
  V  V49  1  -0.01469801  0.75917456  0.73232618  1
  V  V50  1  0.38347295  0.11897383  0.76360269  1
  V  V51  1  0.25749452  0.62068939  0.37546691  1
  V  V52  1  0.75382909  0.22638402  0.50022000  1
  V  V53  1  -0.00706712  0.62320932  0.61863111  1
  V  V54  1  0.12048501  0.75608161  0.87551187  1
  V  V55  1  0.72019462  0.75643778  -0.00920498  1
  V  V56  1  0.12386943  0.75611519  0.37233585  1
  V  V57  1  0.24633996  0.62248322  0.87121026  1
  V  V58  1  0.74839879  0.01505328  0.75054063  1
  V  V59  1  0.51090070  0.62039878  0.62277075  1
  V  V60  1  -0.00103836  0.37930334  0.39262133  1
  V  V61  1  0.86224264  0.02455193  0.87888302  1
  V  V62  1  0.13365501  0.23573711  0.40525001  1
  V  V63  1  0.45083413  0.46568138  0.44108201  1
  Zn  Zn64  1  0.25933273  0.21564555  0.28434568  1
  Zn  Zn65  1  0.20298105  0.17677048  0.65090471  1
  Zn  Zn66  1  0.18538562  0.69358731  0.19005245  1
  Zn  Zn67  1  0.18124595  0.69978176  0.68511271  1
  Zn  Zn68  1  0.66361082  0.15811147  0.21625641  1
  Zn  Zn69  1  0.68653135  0.18981286  0.68488135  1
  Zn  Zn70  1  0.69004566  0.66873370  0.17112460  1
  Zn  Zn71  1  0.68095742  0.69298717  0.70338527  1
  Zn  Zn72  1  0.31727373  0.32213874  0.44023144  1
  Zn  Zn73  1  0.28337546  0.24181444  0.80094020  1
  Zn  Zn74  1  0.31937354  0.81370168  0.31572361  1
  Zn  Zn75  1  0.31478224  0.81640375  0.81691919  1
  Zn  Zn76  1  0.81953404  0.29952439  0.32959863  1
  Zn  Zn77  1  0.82689097  0.36537039  0.78376374  1
  Zn  Zn78  1  0.85477438  0.77681778  0.20919114  1
  Zn  Zn79  1  0.80644000  0.80469668  0.81359703  1
  Zn  Zn80  1  0.18213176  0.44230168  0.44182164  1
  Zn  Zn81  1  0.22512572  0.39697459  0.90080876  1
  Zn  Zn82  1  0.18113973  0.94735876  0.43601584  1
  Zn  Zn83  1  0.17204014  0.94033625  0.94198500  1
  Zn  Zn84  1  0.64617620  0.37375280  0.47215126  1
  Zn  Zn85  1  0.67988446  0.44745646  0.89318926  1
  Zn  Zn86  1  0.66817984  0.92762516  0.42635243  1
  Zn  Zn87  1  0.68833041  0.93393434  0.93833271  1
  Zn  Zn88  1  0.30136644  0.07201437  0.07588035  1
  Zn  Zn89  1  0.31256365  0.06290053  0.56490224  1
  Zn  Zn90  1  0.28965664  0.55878553  0.06861918  1
  Zn  Zn91  1  0.31191764  0.57167272  0.56449328  1
  Zn  Zn92  1  0.80954599  0.04770905  0.06197630  1
  Zn  Zn93  1  0.80570543  0.05064395  0.56528742  1
  Zn  Zn94  1  0.83281635  0.52179484  0.10662707  1
  Zn  Zn95  1  0.83332531  0.55245085  0.57669719  1
  Zn  Zn96  1  0.43118399  0.44816714  0.18171494  1
  Zn  Zn97  1  0.48543850  0.39854980  0.62619121  1
  Zn  Zn98  1  0.43645830  0.93872388  0.18802822  1
  Zn  Zn99  1  0.44068971  0.94405179  0.68498223  1
  Zn  Zn100  1  0.97619540  0.44521758  0.19834330  1
  Zn  Zn101  1  0.95577372  0.42480492  0.66082174  1
  Zn  Zn102  1  0.92225537  0.93620576  0.17392608  1
  Zn  Zn103  1  0.92670253  0.93799829  0.69012440  1
  Zn  Zn104  1  0.06675377  0.06219180  0.31703245  1
  Zn  Zn105  1  0.05157127  0.05802056  0.80770274  1
  Zn  Zn106  1  0.07443057  0.55565691  0.31816109  1
  Zn  Zn107  1  0.03749499  0.57452758  0.81314314  1
  Zn  Zn108  1  0.53288947  0.08117632  0.34771414  1
  Zn  Zn109  1  0.56944612  0.07092905  0.81741975  1
  Zn  Zn110  1  0.56015948  0.56546818  0.29004987  1
  Zn  Zn111  1  0.50512363  0.50195127  0.76169649  1
  Zn  Zn112  1  0.43274358  0.18068735  0.42979259  1
  Zn  Zn113  1  0.45218794  0.18910032  0.93230802  1
  Zn  Zn114  1  0.46511598  0.65408971  0.41773723  1
  Zn  Zn115  1  0.42875953  0.69438657  0.93805997  1
  Zn  Zn116  1  0.94636439  0.19223423  0.43857626  1
  Zn  Zn117  1  0.93407004  0.19961329  0.93298123  1
  Zn  Zn118  1  0.93851701  0.67450427  0.39793773  1
  Zn  Zn119  1  0.93774985  0.67144862  0.92513569  1
  Zn  Zn120  1  0.09143213  0.31860049  0.05648484  1
  Zn  Zn121  1  0.05737190  0.30734382  0.56607987  1
  Zn  Zn122  1  0.05806011  0.81657449  0.06448709  1
  Zn  Zn123  1  0.06696433  0.81820384  0.55710049  1
  Zn  Zn124  1  0.56475161  0.29974571  0.08336953  1
  Zn  Zn125  1  0.56761124  0.18152032  0.54802110  1
  Zn  Zn126  1  0.55802093  0.81267023  0.07044028  1
  Zn  Zn127  1  0.55036408  0.81791371  0.56869403  1
  O  O128  1  0.16663833  0.16839649  0.04292074  1
  O  O129  1  0.10739646  0.10430900  0.63939312  1
  O  O130  1  0.12881962  0.63091100  0.10852290  1
  O  O131  1  0.11950072  0.64108309  0.60796660  1
  O  O132  1  0.60223621  0.12963404  0.12244602  1
  O  O133  1  0.61225280  0.12433782  0.63257849  1
  O  O134  1  0.61063799  0.60374532  0.10877354  1
  O  O135  1  0.60909252  0.63050675  0.64257261  1
  O  O136  1  0.39337735  0.39663668  0.39470197  1
  O  O137  1  0.34700148  0.44618430  0.94678763  1
  O  O138  1  0.38039667  0.88761880  0.37319278  1
  O  O139  1  0.38148356  0.88225453  0.88380271  1
  O  O140  1  0.89338511  0.36935237  0.38055378  1
  O  O141  1  0.91409590  0.39261028  0.85371980  1
  O  O142  1  0.89387751  0.87210395  0.36434532  1
  O  O143  1  0.88472679  0.86790791  0.87630012  1
  O  O144  1  0.25738828  -0.00485211  0.36408310  1
  O  O145  1  0.21323707  0.03759324  0.86906766  1
  O  O146  1  0.24758038  0.51543018  0.37158791  1
  O  O147  1  0.23689665  0.51308358  0.85230305  1
  O  O148  1  0.74170138  -0.00191297  0.35741676  1
  O  O149  1  0.75823998  -0.00158540  0.87469324  1
  O  O150  1  0.65124737  0.62395641  0.39353540  1
  O  O151  1  0.75521870  0.54515646  0.86677020  1
  O  O152  1  0.25019576  0.47891342  0.14084440  1
  O  O153  1  0.24662943  0.50628811  0.63602602  1
  O  O154  1  0.24155537  0.98960382  0.13648769  1
  O  O155  1  0.23306447  1.00196716  0.62629270  1
  O  O156  1  0.72308528  0.49948738  0.10777405  1
  O  O157  1  0.79410786  0.49802691  0.67620377  1
  O  O158  1  0.76369625  0.96803875  0.12554796  1
  O  O159  1  0.75514318  0.99509314  0.64961533  1
  O  O160  1  0.02357419  0.36865604  0.26694637  1
  O  O161  1  0.01694859  0.35392062  0.73662422  1
  O  O162  1  0.01072078  0.88905019  0.26043540  1
  O  O163  1  0.00168114  0.86913819  0.75904392  1
  O  O164  1  0.49622284  0.38240668  0.25502851  1
  O  O165  1  0.51299611  0.36893671  0.73546402  1
  O  O166  1  0.48641615  0.86927263  0.25877292  1
  O  O167  1  0.50064479  0.87555369  0.76059838  1
  O  O168  1  0.49468277  0.10038732  0.23589193  1
  O  O169  1  0.49969025  0.14207279  0.75747735  1
  O  O170  1  0.47383114  0.61859926  0.22874197  1
  O  O171  1  0.48216326  0.63804799  0.75275070  1
  O  O172  1  0.98788687  0.12341062  0.24168221  1
  O  O173  1  0.99298041  0.13722990  0.74902336  1
  O  O174  1  1.01897019  0.60302967  0.22951435  1
  O  O175  1  1.01585016  0.65190092  0.72525159  1
  O  O176  1  0.41316953  0.28590517  -0.00175086  1
  O  O177  1  0.38016518  0.24729149  0.50680665  1
  O  O178  1  0.35438411  0.76919705  -0.00748462  1
  O  O179  1  0.36202533  0.74866309  0.51476814  1
  O  O180  1  0.86359476  0.27833330  -0.01079524  1
  O  O181  1  0.85902190  0.25211518  0.48306078  1
  O  O182  1  0.85104569  0.70566031  -0.00544062  1
  O  O183  1  0.83100648  0.69431129  0.47396929  1
  O  O184  1  0.12905239  0.24313832  0.50570062  1
  O  O185  1  0.12778892  0.22270066  0.99838061  1
  O  O186  1  0.13890939  0.74974592  0.49249136  1
  O  O187  1  0.13104505  0.75288856  0.98922697  1
  O  O188  1  0.63615760  0.24922243  0.47987081  1
  O  O189  1  0.62651394  0.24422751  1.00844659  1
  O  O190  1  0.66222277  0.75381439  0.54191087  1
  O  O191  1  0.61993317  0.74741421  0.99280545  1
  O  O192  1  0.48472614  0.23723619  0.13974025  1
  O  O193  1  0.48955519  0.25907695  0.61620694  1
  O  O194  1  0.50737768  0.72494493  0.12216527  1
  O  O195  1  0.48582308  0.74532313  0.63695848  1
  O  O196  1  0.98404123  0.28223753  0.11542353  1
  O  O197  1  1.00135930  0.23227826  0.63770005  1
  O  O198  1  1.01024337  0.73347167  0.12569670  1
  O  O199  1  0.99563851  0.76383439  0.63005476  1
  O  O200  1  0.02211601  0.26307798  0.38808041  1
  O  O201  1  0.00152651  0.26065028  0.85639502  1
  O  O202  1  0.01236925  0.76463208  0.38595161  1
  O  O203  1  0.00509250  0.75958161  0.87056477  1
  O  O204  1  0.51964310  0.23726159  0.37632772  1
  O  O205  1  0.50236582  0.26615779  0.85901047  1
  O  O206  1  0.48643310  0.75811607  0.38083739  1
  O  O207  1  0.48537257  0.76438275  0.86694131  1
  O  O208  1  0.24752069  0.15125611  0.55105384  1
  O  O209  1  0.22931153  0.13820699  1.00541985  1
  O  O210  1  0.24248016  0.63392378  0.48861606  1
  O  O211  1  0.24326808  0.63604211  0.99184425  1
  O  O212  1  0.75657193  0.12508300  0.49410798  1
  O  O213  1  0.73401256  0.12302951  1.02390972  1
  O  O214  1  0.78490406  0.63730253  0.48896102  1
  O  O215  1  0.78857772  0.65580078  0.99664828  1
  O  O216  1  0.22642693  0.37143435  0.02185406  1
  O  O217  1  0.25439090  0.39118624  0.51579491  1
  O  O218  1  0.24583156  0.87789958  0.00622667  1
  O  O219  1  0.24721745  0.86463641  0.49359981  1
  O  O220  1  0.76354040  0.36520742  -0.02155668  1
  O  O221  1  0.75675884  0.36259736  0.49344368  1
  O  O222  1  0.73873998  0.86081629  0.01124351  1
  O  O223  1  0.76342861  0.85348253  0.45207936  1
  O  O224  1  0.14330387  0.48058289  0.26157330  1
  O  O225  1  0.11830643  0.51875683  0.74172159  1
  O  O226  1  0.13713354  0.98620580  0.26133842  1
  O  O227  1  0.11287908  0.98582912  0.74142121  1
  O  O228  1  0.62613929  0.48082795  0.25413893  1
  O  O229  1  0.60881414  0.46916058  0.79602154  1
  O  O230  1  0.72539749  0.98203286  0.28680820  1
  O  O231  1  0.63555855  0.99175463  0.76402312  1
  O  O232  1  0.35504010  -0.00236913  0.24919129  1
  O  O233  1  0.38738267  0.01960513  0.74949215  1
  O  O234  1  0.35622325  0.51420696  0.24971717  1
  O  O235  1  0.37662419  0.52194894  0.75467575  1
  O  O236  1  0.88316904  0.02359653  0.24339332  1
  O  O237  1  0.85994764  -0.00289850  0.76948050  1
  O  O238  1  0.87914526  0.49738176  0.21320106  1
  O  O239  1  0.85334700  0.46942676  0.72149527  1
  O  O240  1  0.12530679  0.36444483  0.38089109  1
  O  O241  1  0.12075046  0.37444902  0.84230736  1
  O  O242  1  0.12223009  0.87004097  0.36681846  1
  O  O243  1  0.11329041  0.87272171  0.86482385  1
  O  O244  1  0.62225763  0.36072825  0.35789746  1
  O  O245  1  0.48474126  0.44347650  0.90908406  1
  O  O246  1  0.60449901  0.86674948  0.36085706  1
  O  O247  1  0.60304071  0.88215670  0.87310403  1
  O  O248  1  0.37924664  0.14407547  0.11923875  1
  O  O249  1  0.39125017  0.13114916  0.62750929  1
  O  O250  1  0.36242555  0.62337856  0.12813703  1
  O  O251  1  0.37521070  0.63784595  0.63910022  1
  O  O252  1  0.87761808  0.13062124  0.13847462  1
  O  O253  1  0.88728695  0.11502009  0.62843176  1
  O  O254  1  0.90025619  0.62141716  0.12837828  1
  O  O255  1  0.89319460  0.63913317  0.61671696  1
  O  O256  1  0.26743840  0.25751086  0.13425720  1
  O  O257  1  0.28461513  0.28048898  0.63336833  1
  O  O258  1  0.23706035  0.76822135  0.11357251  1
  O  O259  1  0.25698143  0.75183621  0.61470988  1
  O  O260  1  0.77271374  0.31819161  0.16024693  1
  O  O261  1  0.74448805  0.24024112  0.60074761  1
  O  O262  1  0.73777485  0.75007148  0.10656734  1
  O  O263  1  0.71663826  0.75279377  0.59471510  1
  O  O264  1  0.24239781  0.25124035  0.39160841  1
  O  O265  1  0.29088776  0.30999091  0.88100705  1
  O  O266  1  0.24500474  0.74554168  0.38461744  1
  O  O267  1  0.23687664  0.74647913  0.87926940  1
  O  O268  1  0.73512869  0.24565667  0.37748797  1
  O  O269  1  0.79649319  0.30194716  0.94941112  1
  O  O270  1  0.75476979  0.79378473  0.40895102  1
  O  O271  1  0.74058283  0.75811711  0.89037412  1
  O  O272  1  -0.00990065  0.12218694  -0.00501639  1
  O  O273  1  -0.00441601  0.11377308  0.51303947  1
  O  O274  1  0.01398919  0.61215198  0.00684290  1
  O  O275  1  0.01162595  0.63985320  0.50367369  1
  O  O276  1  0.50636659  0.11809062  0.00785292  1
  O  O277  1  0.51259184  0.10388616  0.47742422  1
  O  O278  1  0.47322271  0.62007814  0.00891647  1
  O  O279  1  0.50318881  0.63427454  0.52426678  1
  O  O280  1  0.50097686  0.38858898  0.51175598  1
  O  O281  1  0.46703009  0.33811576  1.01037829  1
  O  O282  1  0.50875375  0.88410728  0.48778225  1
  O  O283  1  0.48633890  0.89053556  1.00098826  1
  O  O284  1  0.99142266  0.37328447  0.49830465  1
  O  O285  1  1.02028663  0.37759397  0.98525809  1
  O  O286  1  0.99752440  0.88413521  0.49138515  1
  O  O287  1  1.00307797  0.87906035  0.98431252  1
  O  O288  1  0.49017515  0.54223396  0.37815431  1
  O  O289  1  0.48008361  0.51333306  0.88596150  1
  O  O290  1  0.48825118  0.98377679  0.38691205  1
  O  O291  1  0.49842215  0.99974663  0.89581196  1
  O  O292  1  1.01580679  0.47864122  0.37965715  1
  O  O293  1  1.02704079  0.48799811  0.89364853  1
  O  O294  1  1.00913653  0.99084837  0.39133478  1
  O  O295  1  0.98284646  0.99201075  0.87603139  1
  O  O296  1  -0.01348442  -0.00224374  0.10301710  1
  O  O297  1  -0.00045752  0.00346723  0.61747176  1
  O  O298  1  0.02154782  0.49588322  0.10457852  1
  O  O299  1  -0.00113105  0.52309511  0.62780471  1
  O  O300  1  0.48019127  0.01230538  0.10856090  1
  O  O301  1  0.49473192  -0.00355552  0.60113668  1
  O  O302  1  0.50736557  0.50647868  0.11878544  1
  O  O303  1  0.49836708  0.51858135  0.64504522  1
  O  O304  1  0.25174812  0.38166031  0.26018656  1
  O  O305  1  0.23241579  0.40011929  0.73575287  1
  O  O306  1  0.24425810  0.87583201  0.23859353  1
  O  O307  1  0.23399194  0.87689065  0.75997823  1
  O  O308  1  0.78473144  0.35726169  0.22189004  1
  O  O309  1  0.71916797  0.37023887  0.80718755  1
  O  O310  1  0.75542259  0.83845761  0.22934351  1
  O  O311  1  0.72943668  0.87186024  0.75823606  1
  O  O312  1  0.23922042  0.11129758  0.24279272  1
  O  O313  1  0.28066424  0.14634231  0.74145959  1
  O  O314  1  0.24564516  0.61877577  0.25920878  1
  O  O315  1  0.24883763  0.62368560  0.75002490  1
  O  O316  1  0.77712013  0.13290626  0.24223266  1
  O  O317  1  0.74105433  0.11391192  0.75411778  1
  O  O318  1  0.76986913  0.61272095  0.23713871  1
  O  O319  1  0.75890173  0.63512080  0.76782487  1
  O  O320  1  0.38223931  0.09870184  0.36840969  1
  O  O321  1  0.37895901  0.13478184  0.86480379  1
  O  O322  1  0.35719436  0.63298965  0.36575438  1
  O  O323  1  0.35433780  0.64037661  0.86094973  1
  O  O324  1  0.88647672  0.12925931  0.34902141  1
  O  O325  1  0.86581695  0.12372782  0.87506747  1
  O  O326  1  0.88727233  0.57825348  0.35838428  1
  O  O327  1  0.93129832  0.59661527  0.84566739  1
  O  O328  1  0.14252712  0.35765175  0.15186068  1
  O  O329  1  0.13251159  0.37049909  0.63123470  1
  O  O330  1  0.12594711  0.87534021  0.14111796  1
  O  O331  1  0.12286207  0.88122004  0.63873954  1
  O  O332  1  0.61220268  0.38601229  0.13773179  1
  O  O333  1  0.65382189  0.39813240  0.64901345  1
  O  O334  1  0.62830929  0.87657597  0.13193781  1
  O  O335  1  0.61295263  0.87912310  0.64725332  1
  O  O336  1  0.14413767  0.25851772  0.27292215  1
  O  O337  1  0.15257797  0.24891712  0.73570740  1
  O  O338  1  0.13011268  0.76612194  0.26242670  1
  O  O339  1  0.11721792  0.76500213  0.75730958  1
  O  O340  1  0.62961762  0.27001815  0.24823518  1
  O  O341  1  0.61580738  0.26376138  0.74232602  1
  O  O342  1  0.61922358  0.67263602  0.27290264  1
  O  O343  1  0.60647398  0.76495445  0.75493998  1
  O  O344  1  0.36973080  0.24149895  0.25684708  1
  O  O345  1  0.39831102  0.24584990  0.73349643  1
  O  O346  1  0.35622694  0.73348417  0.24384145  1
  O  O347  1  0.37441722  0.75010303  0.74103254  1
  O  O348  1  0.88544904  0.23375073  0.24454559  1
  O  O349  1  0.87719406  0.26199139  0.74999092  1
  O  O350  1  0.89932973  0.70133956  0.27412383  1
  O  O351  1  0.88685783  0.75517054  0.74843658  1
  O  O352  1  0.38816398  0.51628054  0.50057864  1
  O  O353  1  0.36666153  0.49078411  1.00338030  1
  O  O354  1  0.36387900  0.99659349  0.49139960  1
  O  O355  1  0.35808835  0.99788002  1.00148151  1
  O  O356  1  0.86112505  0.47879804  0.49894581  1
  O  O357  1  0.89515684  0.49147553  1.00886527  1
  O  O358  1  0.88657276  0.99842879  0.49790316  1
  O  O359  1  0.88126632  1.00367761  0.98260428  1
  O  O360  1  0.10185112  0.00820965  -0.00574517  1
  O  O361  1  0.11396401  -0.00868529  0.51766608  1
  O  O362  1  0.14225345  0.51724178  -0.00281273  1
  O  O363  1  0.12715417  0.52383163  0.49996055  1
  O  O364  1  0.61390150  0.00170683  0.00848276  1
  O  O365  1  0.62715343  -0.00673025  0.50565950  1
  O  O366  1  0.62199721  0.46758185  -0.00755206  1
  O  O367  1  0.55894057  0.45144842  0.49047684  1
  O  O368  1  0.36437697  0.36190698  0.13592714  1
  O  O369  1  0.36818348  0.40385202  0.62848977  1
  O  O370  1  0.35572676  0.87951258  0.11544628  1
  O  O371  1  0.37575863  0.86382171  0.63083824  1
  O  O372  1  0.93498430  0.33680183  0.13112665  1
  O  O373  1  0.88066191  0.36031939  0.60401273  1
  O  O374  1  0.87458728  0.84860556  0.12809308  1
  O  O375  1  0.84451446  0.90034958  0.62374628  1
  O  O376  1  0.12125738  0.13799520  0.38026084  1
  O  O377  1  0.16190975  0.09281776  0.85947514  1
  O  O378  1  0.13037582  0.63798468  0.38257384  1
  O  O379  1  0.12737502  0.63732620  0.88369714  1
  O  O380  1  0.62982255  0.13670463  0.32748425  1
  O  O381  1  0.62525875  0.12507804  0.90173941  1
  O  O382  1  0.66918480  0.67667095  0.34257011  1
  O  O383  1  0.71513189  0.59941724  0.82755050  1
