# generated using pymatgen
data_VZnO4
_symmetry_space_group_name_H-M   'P 1'
_cell_length_a   17.07436174
_cell_length_b   17.09524433
_cell_length_c   17.03278996
_cell_angle_alpha   90.02213077
_cell_angle_beta   90.19672706
_cell_angle_gamma   89.32745300
_symmetry_Int_Tables_number   1
_chemical_formula_structural   VZnO4
_chemical_formula_sum   'V64 Zn64 O256'
_cell_volume   4971.33552351
_cell_formula_units_Z   64
loop_
 _symmetry_equiv_pos_site_id
 _symmetry_equiv_pos_as_xyz
  1  'x, y, z'
loop_
 _atom_site_type_symbol
 _atom_site_label
 _atom_site_symmetry_multiplicity
 _atom_site_fract_x
 _atom_site_fract_y
 _atom_site_fract_z
 _atom_site_occupancy
  V  V0  1  0.61827831  -0.02110305  0.13443947  1
  V  V1  1  0.49652822  0.51383415  0.51177068  1
  V  V2  1  0.24533198  0.49870507  0.76523261  1
  V  V3  1  0.63466914  0.25025954  0.87291400  1
  V  V4  1  0.02925878  -0.01046253  0.49340587  1
  V  V5  1  -0.01602698  0.00942203  0.02132191  1
  V  V6  1  0.26985971  0.38060865  0.62164013  1
  V  V7  1  0.75096809  0.39008623  0.63192717  1
  V  V8  1  0.00585300  0.49680735  0.49463062  1
  V  V9  1  0.11489536  0.88330780  0.24674509  1
  V  V10  1  0.77174762  0.00318059  0.74555677  1
  V  V11  1  0.49062700  0.01878860  -0.00508535  1
  V  V12  1  0.38481861  0.50722133  0.88109001  1
  V  V13  1  0.50629772  0.24280718  0.75282822  1
  V  V14  1  -0.03033951  0.86543287  0.38197409  1
  V  V15  1  0.22986439  0.00409118  0.75969345  1
  V  V16  1  0.50180559  0.49300377  0.01416695  1
  V  V17  1  0.86383918  0.61824729  0.22285462  1
  V  V18  1  0.38688116  0.24018467  0.63278080  1
  V  V19  1  0.26659412  0.87974270  0.13071786  1
  V  V20  1  0.13133342  0.86064935  0.72988318  1
  V  V21  1  0.36132554  0.37010692  -0.00431313  1
  V  V22  1  0.51293269  0.74230156  0.75405545  1
  V  V23  1  0.02989390  0.37536453  0.85644905  1
  V  V24  1  0.60249891  0.38962280  0.23760647  1
  V  V25  1  0.00455241  0.62869637  0.63054969  1
  V  V26  1  0.12420530  0.46677521  0.15590226  1
  V  V27  1  0.00764172  0.64538118  0.12350658  1
  V  V28  1  0.12523356  0.61100233  -0.00590540  1
  V  V29  1  0.12949979  0.75436019  0.88860981  1
  V  V30  1  0.37130795  0.63101901  0.74641164  1
  V  V31  1  0.26270680  0.23668677  0.49690089  1
  V  V32  1  0.12034339  0.48467229  0.63091286  1
  V  V33  1  0.76512525  0.12666452  0.87757107  1
  V  V34  1  0.75932938  0.08457046  0.39272588  1
  V  V35  1  0.09252402  0.27603981  0.40319215  1
  V  V36  1  0.63443860  0.61785947  0.48724827  1
  V  V37  1  0.48818588  0.86695891  0.36093483  1
  V  V38  1  0.61934405  0.09588557  0.51492037  1
  V  V39  1  0.59875257  0.64755426  0.00569035  1
  V  V40  1  0.01492982  0.13870524  0.13133241  1
  V  V41  1  0.76102635  0.62482078  0.89503653  1
  V  V42  1  0.87078130  0.59418375  0.75238123  1
  V  V43  1  0.61995272  0.39711533  0.74770209  1
  V  V44  1  0.86433996  0.37219056  -0.04499958  1
  V  V45  1  -0.01314939  0.88812335  0.87007948  1
  V  V46  1  0.81168929  0.38283692  0.15296210  1
  V  V47  1  0.86092234  0.52481768  0.38472476  1
  V  V48  1  0.35598501  0.84888966  0.51407654  1
  V  V49  1  0.37861973  0.05474970  0.32594065  1
  V  V50  1  0.87819219  0.37416307  0.49501516  1
  V  V51  1  0.50512848  0.38058883  0.38938684  1
  V  V52  1  0.48614568  0.88319741  0.87233956  1
  V  V53  1  0.61918819  0.90078523  0.74620872  1
  V  V54  1  -0.01633293  0.74696966  0.75529148  1
  V  V55  1  0.86305516  0.86602699  0.00486612  1
  V  V56  1  0.00438891  0.22660841  0.74932844  1
  V  V57  1  0.88058239  0.23847930  0.62078166  1
  V  V58  1  0.73358862  0.25682113  0.49472431  1
  V  V59  1  0.16213745  0.74658566  0.35995241  1
  V  V60  1  0.39994975  0.25358212  0.12789935  1
  V  V61  1  0.85649639  0.11050209  0.23936098  1
  V  V62  1  0.36466621  0.49771031  0.37207146  1
  V  V63  1  0.39044841  0.63370663  0.25712661  1
  Zn  Zn64  1  0.07339671  0.29669566  0.22228307  1
  Zn  Zn65  1  0.20898465  0.21420042  0.73185328  1
  Zn  Zn66  1  0.18992082  0.70946602  0.16408218  1
  Zn  Zn67  1  0.17795957  0.67414600  0.70110664  1
  Zn  Zn68  1  0.75561238  0.26854816  0.28003965  1
  Zn  Zn69  1  0.69196738  0.19482824  0.69138194  1
  Zn  Zn70  1  0.68613923  0.54048307  0.16558641  1
  Zn  Zn71  1  0.69248910  0.68464850  0.69347427  1
  Zn  Zn72  1  0.37419880  0.27275878  0.33509868  1
  Zn  Zn73  1  0.32570313  0.32839273  0.80910696  1
  Zn  Zn74  1  0.32247901  0.82156373  0.30400781  1
  Zn  Zn75  1  0.30576129  0.81204890  0.82565736  1
  Zn  Zn76  1  0.91541829  0.30588715  0.30971294  1
  Zn  Zn77  1  0.81611029  0.30521784  0.79746975  1
  Zn  Zn78  1  0.86865502  0.73687515  0.36681380  1
  Zn  Zn79  1  0.77862266  0.82646800  0.85223120  1
  Zn  Zn80  1  0.19291739  0.43404269  0.44667988  1
  Zn  Zn81  1  0.17472724  0.42268637  0.93683701  1
  Zn  Zn82  1  0.21684519  0.94493372  0.40124155  1
  Zn  Zn83  1  0.16212945  0.95294121  0.93316809  1
  Zn  Zn84  1  0.68552887  0.44180679  0.44036450  1
  Zn  Zn85  1  0.68544581  0.44763159  0.92256558  1
  Zn  Zn86  1  0.67270804  0.92502605  0.44700607  1
  Zn  Zn87  1  0.68027106  0.95120548  0.92641751  1
  Zn  Zn88  1  0.33415962  0.06395821  0.10669292  1
  Zn  Zn89  1  0.32090136  0.05620320  0.59882474  1
  Zn  Zn90  1  0.29065242  0.54816622  0.05935502  1
  Zn  Zn91  1  0.31921478  0.56023426  0.56812414  1
  Zn  Zn92  1  0.79693660  0.05272203  0.05314921  1
  Zn  Zn93  1  0.76959289  0.08749118  0.59553112  1
  Zn  Zn94  1  0.83802864  0.53772668  0.04934870  1
  Zn  Zn95  1  0.81814613  0.56951143  0.56667916  1
  Zn  Zn96  1  0.42422159  0.43826542  0.19039959  1
  Zn  Zn97  1  0.44172586  0.44737116  0.69491048  1
  Zn  Zn98  1  0.44707407  0.95312283  0.18446128  1
  Zn  Zn99  1  0.39279199  0.90150496  0.71254038  1
  Zn  Zn100  1  0.96536730  0.45464558  0.21199513  1
  Zn  Zn101  1  0.94172907  0.41831892  0.69139776  1
  Zn  Zn102  1  0.92255259  0.92103200  0.19268678  1
  Zn  Zn103  1  0.94405410  0.93058034  0.67843576  1
  Zn  Zn104  1  0.01026661  0.03185351  0.29086349  1
  Zn  Zn105  1  0.05901108  0.05254311  0.67639852  1
  Zn  Zn106  1  0.07673283  0.57344492  0.29906983  1
  Zn  Zn107  1  0.06510192  0.56653542  0.81720713  1
  Zn  Zn108  1  0.57775270  0.02345290  0.33827165  1
  Zn  Zn109  1  0.55847840  0.06888316  0.82107598  1
  Zn  Zn110  1  0.56120737  0.56141187  0.31644356  1
  Zn  Zn111  1  0.56959467  0.57320977  0.82885378  1
  Zn  Zn112  1  0.45215750  0.18857005  0.45543523  1
  Zn  Zn113  1  0.47635939  0.21828090  0.96341799  1
  Zn  Zn114  1  0.44310087  0.68760644  0.43128246  1
  Zn  Zn115  1  0.44241937  0.68022594  0.91900965  1
  Zn  Zn116  1  0.93710309  0.16922625  0.45889442  1
  Zn  Zn117  1  0.93857965  0.19563055  0.94038379  1
  Zn  Zn118  1  1.04485728  0.68539068  0.45354588  1
  Zn  Zn119  1  0.93679778  0.68222463  0.93834183  1
  Zn  Zn120  1  -0.00465780  0.33596389  0.06589608  1
  Zn  Zn121  1  0.09200760  0.27774462  0.59510916  1
  Zn  Zn122  1  0.05015290  0.82267856  0.06122610  1
  Zn  Zn123  1  0.14573528  0.85419542  0.52088359  1
  Zn  Zn124  1  0.56866576  0.32622638  0.05223477  1
  Zn  Zn125  1  0.56007200  0.32781197  0.57268878  1
  Zn  Zn126  1  0.57717268  0.85281151  0.03328560  1
  Zn  Zn127  1  0.54691499  0.81198995  0.58689358  1
  O  O128  1  0.10686744  0.11480392  0.13138692  1
  O  O129  1  0.14905452  0.08898150  0.60180066  1
  O  O130  1  0.11635755  0.63991494  0.10781447  1
  O  O131  1  0.10933329  0.60579784  0.63806308  1
  O  O132  1  0.61405431  0.16825251  0.17617601  1
  O  O133  1  0.64819289  0.12732868  0.60996528  1
  O  O134  1  0.64157175  0.60987319  0.08725538  1
  O  O135  1  0.61988189  0.66116419  0.59977264  1
  O  O136  1  0.38633585  0.39359403  0.37253548  1
  O  O137  1  0.37118005  0.39819534  0.88383361  1
  O  O138  1  0.38409345  0.87113374  0.39301698  1
  O  O139  1  0.38611926  0.88948123  0.83092671  1
  O  O140  1  0.87567412  0.38757081  0.39652291  1
  O  O141  1  0.89474158  0.35995513  0.85686992  1
  O  O142  1  0.87185875  0.86185683  0.37191482  1
  O  O143  1  0.88752464  0.86746053  0.86832800  1
  O  O144  1  0.29367943  0.01636847  0.36418501  1
  O  O145  1  0.23881918  -0.01412039  0.85823518  1
  O  O146  1  0.26677360  0.49814461  0.39568810  1
  O  O147  1  0.24826168  0.49564212  0.86445863  1
  O  O148  1  0.76191191  -0.01299967  0.41284589  1
  O  O149  1  0.74125300  0.02119744  0.85892621  1
  O  O150  1  0.76593488  0.50084731  0.38266398  1
  O  O151  1  0.74195049  0.52876169  0.86645610  1
  O  O152  1  0.21324977  0.49023973  0.11521110  1
  O  O153  1  0.24089637  0.49065523  0.61977986  1
  O  O154  1  0.23708907  0.99023921  0.09952648  1
  O  O155  1  0.20059937  1.03309055  0.60238361  1
  O  O156  1  0.76768909  0.47418213  0.11683088  1
  O  O157  1  0.75783649  0.48683429  0.62150145  1
  O  O158  1  0.71071184  1.00767309  0.10761290  1
  O  O159  1  0.75053747  0.99103127  0.64663756  1
  O  O160  1  -0.00116263  0.36597420  0.27289537  1
  O  O161  1  0.00373964  0.34427165  0.75072606  1
  O  O162  1  0.00399516  0.87340762  0.27046924  1
  O  O163  1  0.00673603  0.85856039  0.74922796  1
  O  O164  1  0.50108313  0.38578953  0.26485112  1
  O  O165  1  0.51862648  0.37609135  0.74067133  1
  O  O166  1  0.47594328  0.87405853  0.26168833  1
  O  O167  1  0.50784878  0.86437584  0.74992120  1
  O  O168  1  0.56283303  0.17185204  0.22561429  1
  O  O169  1  0.50395014  0.14497423  0.75081205  1
  O  O170  1  0.48791570  0.61390411  0.24279574  1
  O  O171  1  0.48459139  0.63704203  0.77425182  1
  O  O172  1  0.97853451  0.12342682  0.23183717  1
  O  O173  1  0.99718710  0.12824668  0.72819550  1
  O  O174  1  1.00332164  0.62602816  0.22683863  1
  O  O175  1  0.98984574  0.62949322  0.75008552  1
  O  O176  1  0.37554381  0.27248069  -0.02352468  1
  O  O177  1  0.37451193  0.25189724  0.52650139  1
  O  O178  1  0.37875534  0.74368320  0.01517954  1
  O  O179  1  0.37554924  0.75239899  0.49797626  1
  O  O180  1  0.89899507  0.28337159  0.00259847  1
  O  O181  1  0.86409272  0.26718882  0.50364687  1
  O  O182  1  0.88095640  0.76878350  -0.00877777  1
  O  O183  1  0.81182637  0.73073802  0.58216095  1
  O  O184  1  0.14543542  0.24368203  0.49607354  1
  O  O185  1  0.18183183  0.23757931  1.01144204  1
  O  O186  1  0.13121711  0.75937533  0.46515186  1
  O  O187  1  0.10999062  0.75625185  0.98751357  1
  O  O188  1  0.63608653  0.26652270  0.50997109  1
  O  O189  1  0.62345668  0.26964630  0.97053200  1
  O  O190  1  0.61583928  0.72129873  0.54064633  1
  O  O191  1  0.59185817  0.74599297  1.01141957  1
  O  O192  1  0.49296207  0.24249984  0.08368405  1
  O  O193  1  0.49299615  0.25835353  0.63382606  1
  O  O194  1  0.40792026  0.73635613  0.08138431  1
  O  O195  1  0.48542230  0.74739873  0.65798471  1
  O  O196  1  1.01552989  0.24075742  0.13242679  1
  O  O197  1  0.98060240  0.25264126  0.60567688  1
  O  O198  1  0.99311968  0.74338870  0.12257041  1
  O  O199  1  1.00623489  0.72839533  0.64027713  1
  O  O200  1  -0.00799262  0.25517278  0.40699010  1
  O  O201  1  0.01009484  0.22954639  0.85038230  1
  O  O202  1  -0.01831905  0.75937934  0.39148614  1
  O  O203  1  0.00167415  0.75102703  0.86099977  1
  O  O204  1  0.48398752  0.27954307  0.39142039  1
  O  O205  1  0.51627039  0.25711492  0.85910172  1
  O  O206  1  0.50770524  0.77161787  0.38610162  1
  O  O207  1  0.48256167  0.76744599  0.86063598  1
  O  O208  1  0.27300405  0.14004147  0.51535324  1
  O  O209  1  0.27452289  0.13146798  0.91262913  1
  O  O210  1  0.24465614  0.65626976  0.54396745  1
  O  O211  1  0.22458166  0.62522063  1.00354255  1
  O  O212  1  0.73621101  0.14096172  0.49484351  1
  O  O213  1  0.74881781  0.12403123  0.97561612  1
  O  O214  1  0.73361061  0.61299977  0.50573891  1
  O  O215  1  0.78514548  0.62469173  0.99184485  1
  O  O216  1  0.26195398  0.38129276  -0.00425966  1
  O  O217  1  0.25009901  0.36014306  0.52151793  1
  O  O218  1  0.23844735  0.93578432  0.03419851  1
  O  O219  1  0.25807027  0.87560278  0.48992478  1
  O  O220  1  0.76443031  0.37342441  -0.04358550  1
  O  O221  1  0.75606899  0.37347492  0.51034991  1
  O  O222  1  0.76635465  0.87892232  -0.03603016  1
  O  O223  1  0.72809680  0.81573347  0.46849333  1
  O  O224  1  0.12993090  0.48451220  0.25637235  1
  O  O225  1  0.14109650  0.50460332  0.74198288  1
  O  O226  1  0.11211975  0.98298539  0.26013581  1
  O  O227  1  0.12633407  0.97236769  0.73412691  1
  O  O228  1  0.63190348  0.49126286  0.25274852  1
  O  O229  1  0.61609426  0.49603129  0.75814251  1
  O  O230  1  0.60435550  1.01137406  0.22955095  1
  O  O231  1  0.60436879  0.99866619  0.74017715  1
  O  O232  1  0.37709289  0.04428024  0.22060073  1
  O  O233  1  0.31891882  -0.00709389  0.70243744  1
  O  O234  1  0.36905796  0.50726564  0.26573682  1
  O  O235  1  0.37018919  0.50699706  0.76616425  1
  O  O236  1  0.88765741  0.01098509  0.25704842  1
  O  O237  1  0.86954067  -0.01527392  0.74442660  1
  O  O238  1  0.89290711  0.52547704  0.27895159  1
  O  O239  1  0.88020485  0.49696858  0.75127664  1
  O  O240  1  0.11043338  0.37339391  0.40236069  1
  O  O241  1  0.13145005  0.36432810  0.85029261  1
  O  O242  1  0.14568850  0.86203816  0.35475524  1
  O  O243  1  0.10475062  0.86364856  0.87109687  1
  O  O244  1  0.60659725  0.38990007  0.37446222  1
  O  O245  1  0.63928580  0.36612916  0.84790560  1
  O  O246  1  0.58265592  0.91232755  0.38138215  1
  O  O247  1  0.59935496  0.88196401  0.85737229  1
  O  O248  1  0.34119322  0.17661345  0.10122673  1
  O  O249  1  0.38011780  0.14341440  0.64310032  1
  O  O250  1  0.33821956  0.61542482  0.15060822  1
  O  O251  1  0.37963419  0.61501699  0.64896307  1
  O  O252  1  0.84005303  0.11551657  0.14245599  1
  O  O253  1  0.87014187  0.14110765  0.59868780  1
  O  O254  1  0.89641366  0.60860619  0.12225113  1
  O  O255  1  0.89811320  0.60662791  0.64059546  1
  O  O256  1  0.23861573  0.30004818  0.20212018  1
  O  O257  1  0.27088024  0.26736578  0.64160566  1
  O  O258  1  0.24743492  0.78511550  0.10300081  1
  O  O259  1  0.23890921  0.70881485  0.59760517  1
  O  O260  1  0.76820036  0.30594617  0.11625554  1
  O  O261  1  0.76264139  0.25894910  0.61569798  1
  O  O262  1  0.73463122  0.75979521  0.14147743  1
  O  O263  1  0.75747072  0.76311184  0.61920174  1
  O  O264  1  0.27740894  0.25271792  0.40039572  1
  O  O265  1  0.25130481  0.24609759  0.83517958  1
  O  O266  1  0.25960068  0.73934340  0.36147915  1
  O  O267  1  0.22856319  0.76094350  0.88600856  1
  O  O268  1  0.74545153  0.26014166  0.39689590  1
  O  O269  1  0.74159392  0.23725312  0.85169126  1
  O  O270  1  0.74479195  0.76267256  0.41876374  1
  O  O271  1  0.74837279  0.72023689  0.85685812  1
  O  O272  1  -0.02543214  0.11981986  0.02707894  1
  O  O273  1  0.01388699  0.08937751  0.48682971  1
  O  O274  1  0.00832539  0.62822170  0.01053255  1
  O  O275  1  -0.00155119  0.60879651  0.52313058  1
  O  O276  1  0.51316179  0.11309881  -0.02357124  1
  O  O277  1  0.52167691  0.12039559  0.50775304  1
  O  O278  1  0.49896408  0.61335735  -0.00272942  1
  O  O279  1  0.50985457  0.61618319  0.49545050  1
  O  O280  1  0.50644510  0.39613257  0.49594736  1
  O  O281  1  0.47846170  0.39099353  0.99891474  1
  O  O282  1  0.47796427  0.88201951  0.51656426  1
  O  O283  1  0.47521900  0.87566635  0.97240039  1
  O  O284  1  0.98215470  0.39302563  0.51241260  1
  O  O285  1  1.02556693  0.35791602  0.95846624  1
  O  O286  1  0.99367616  0.88256544  0.48509428  1
  O  O287  1  0.98242465  0.88718822  0.98739299  1
  O  O288  1  0.48936399  0.49570047  0.38672376  1
  O  O289  1  0.48584341  0.50782474  0.88503561  1
  O  O290  1  0.46198617  1.00586040  0.35759484  1
  O  O291  1  0.49438877  0.99449735  0.88128696  1
  O  O292  1  1.00014378  0.51239801  0.39732561  1
  O  O293  1  1.01511512  0.47396637  0.84749339  1
  O  O294  1  0.99462794  0.97751598  0.38742897  1
  O  O295  1  0.99297389  0.98145667  0.85355768  1
  O  O296  1  -0.01001472  -0.00182184  0.12101065  1
  O  O297  1  0.00615187  -0.01686791  0.60134056  1
  O  O298  1  0.03342816  0.51027138  0.13049499  1
  O  O299  1  0.01461165  0.49311941  0.63208683  1
  O  O300  1  0.51143727  0.00917242  0.10620307  1
  O  O301  1  0.46442143  -0.03665624  0.54281918  1
  O  O302  1  0.48252083  0.50062167  0.11177888  1
  O  O303  1  0.49348545  0.50291672  0.61076388  1
  O  O304  1  0.26256023  0.34048521  0.25707060  1
  O  O305  1  0.26164532  0.39624186  0.73700718  1
  O  O306  1  0.24314144  0.88240174  0.23511404  1
  O  O307  1  0.23016503  0.86708797  0.75127030  1
  O  O308  1  0.81094714  0.37044024  0.25534693  1
  O  O309  1  0.74687694  0.37491258  0.73521458  1
  O  O310  1  0.73893300  0.80233219  0.20285589  1
  O  O311  1  0.72707264  0.89765818  0.77204254  1
  O  O312  1  0.23481410  0.14390624  0.22764220  1
  O  O313  1  0.21379391  0.10143491  0.74936056  1
  O  O314  1  0.27734326  0.63010917  0.20494750  1
  O  O315  1  0.25929090  0.60550919  0.74576195  1
  O  O316  1  0.75769235  0.09909681  0.28723528  1
  O  O317  1  0.75600457  0.11084281  0.74711930  1
  O  O318  1  0.76673911  0.60595778  0.21791967  1
  O  O319  1  0.77479099  0.61806363  0.72765441  1
  O  O320  1  0.39189507  0.15026111  0.36129091  1
  O  O321  1  0.30707923  0.17601024  0.86622383  1
  O  O322  1  0.38187899  0.61471848  0.36342713  1
  O  O323  1  0.36363401  0.61079851  0.87257989  1
  O  O324  1  0.85576825  0.11209382  0.40630769  1
  O  O325  1  0.86407458  0.13733913  0.87470630  1
  O  O326  1  0.86270472  0.62326370  0.39928271  1
  O  O327  1  0.87248780  0.62243238  0.85745531  1
  O  O328  1  0.10369593  0.36726863  0.13520991  1
  O  O329  1  0.13664859  0.38427960  0.63025021  1
  O  O330  1  0.11106764  0.87126715  0.14470387  1
  O  O331  1  0.12689707  0.84673184  0.63282089  1
  O  O332  1  0.60046406  0.38724955  0.13752855  1
  O  O333  1  0.64074741  0.38008464  0.63664442  1
  O  O334  1  0.61120503  0.87887575  0.13912822  1
  O  O335  1  0.62459169  0.86328958  0.65119411  1
  O  O336  1  0.12136413  0.24174997  0.31286668  1
  O  O337  1  0.10276569  0.23555768  0.70361452  1
  O  O338  1  0.13674136  0.75861167  0.25513668  1
  O  O339  1  0.11914411  0.75149416  0.76208141  1
  O  O340  1  0.65367079  0.30431762  0.25697443  1
  O  O341  1  0.61595771  0.26000125  0.74795432  1
  O  O342  1  0.69977593  0.78302366  0.26366980  1
  O  O343  1  0.61265423  0.73169291  0.75701489  1
  O  O344  1  0.40550292  0.25412548  0.22652111  1
  O  O345  1  0.39855530  0.26919753  0.74283666  1
  O  O346  1  0.38227097  0.73311844  0.25671780  1
  O  O347  1  0.35560362  0.72944189  0.75925945  1
  O  O348  1  0.85806029  0.21389404  0.27362949  1
  O  O349  1  0.88830130  0.24330829  0.72679803  1
  O  O350  1  0.86912894  0.71207781  0.25614433  1
  O  O351  1  0.88818436  0.75070286  0.74632615  1
  O  O352  1  0.38828937  0.51668936  0.49030867  1
  O  O353  1  0.37366922  0.50010185  0.99252860  1
  O  O354  1  0.38684037  0.97860138  0.52543950  1
  O  O355  1  0.39219317  1.01993132  1.01493478  1
  O  O356  1  0.88319242  0.49794744  0.49611278  1
  O  O357  1  0.89409052  0.46334763  0.98634737  1
  O  O358  1  0.83420356  0.89762811  0.55081907  1
  O  O359  1  0.88071673  0.99120736  0.99748769  1
  O  O360  1  0.07824554  0.00559398  -0.01540535  1
  O  O361  1  0.12932529  -0.03127426  0.48334669  1
  O  O362  1  0.11965418  0.51314285  -0.01886069  1
  O  O363  1  0.11233719  0.49385297  0.51731544  1
  O  O364  1  0.59923917  -0.03364302  0.00357686  1
  O  O365  1  0.62847899  -0.00328440  0.52566244  1
  O  O366  1  0.60061093  0.48180609  -0.00505969  1
  O  O367  1  0.61325465  0.51241249  0.49970706  1
  O  O368  1  0.37395110  0.35952193  0.11012205  1
  O  O369  1  0.36952423  0.38617489  0.62496692  1
  O  O370  1  0.36508742  0.88883082  0.13188952  1
  O  O371  1  0.35942708  0.85518774  0.61489342  1
  O  O372  1  0.91350396  0.38920325  0.12966938  1
  O  O373  1  0.86445020  0.36968801  0.61814280  1
  O  O374  1  0.86578812  0.87660240  0.10589605  1
  O  O375  1  0.87521820  0.86347009  0.60105512  1
  O  O376  1  0.19584801  0.11280590  0.27852227  1
  O  O377  1  0.14442193  0.18757087  0.97711629  1
  O  O378  1  0.11923305  0.64825424  0.36829380  1
  O  O379  1  0.11516068  0.64234217  0.88570181  1
  O  O380  1  0.64237174  0.09518725  0.40090708  1
  O  O381  1  0.63118392  0.14641846  0.86498169  1
  O  O382  1  0.62326292  0.62796687  0.38777554  1
  O  O383  1  0.63666841  0.62419545  0.90960832  1
