# generated using pymatgen
data_VZnO4
_symmetry_space_group_name_H-M   'P 1'
_cell_length_a   16.93625210
_cell_length_b   16.95275825
_cell_length_c   16.93479726
_cell_angle_alpha   90.03222154
_cell_angle_beta   90.05442595
_cell_angle_gamma   90.38731185
_symmetry_Int_Tables_number   1
_chemical_formula_structural   VZnO4
_chemical_formula_sum   'V64 Zn64 O256'
_cell_volume   4862.14035172
_cell_formula_units_Z   64
loop_
 _symmetry_equiv_pos_site_id
 _symmetry_equiv_pos_as_xyz
  1  'x, y, z'
loop_
 _atom_site_type_symbol
 _atom_site_label
 _atom_site_symmetry_multiplicity
 _atom_site_fract_x
 _atom_site_fract_y
 _atom_site_fract_z
 _atom_site_occupancy
  V  V0  1  0.37775537  0.87713814  0.00978372  1
  V  V1  1  0.12582619  0.49906528  0.14009592  1
  V  V2  1  0.49382816  0.38002661  0.85149276  1
  V  V3  1  0.76406518  0.50854478  0.78283236  1
  V  V4  1  0.52565769  0.74636618  0.22961126  1
  V  V5  1  0.74178038  0.01929814  0.74988817  1
  V  V6  1  0.91622088  0.69983146  0.69602989  1
  V  V7  1  0.73125712  0.25354479  0.01483661  1
  V  V8  1  0.24669533  0.86869119  0.61076716  1
  V  V9  1  0.11023372  0.01058122  0.11194699  1
  V  V10  1  0.12176971  0.48694425  0.60878706  1
  V  V11  1  0.85955459  0.50810364  0.35613045  1
  V  V12  1  0.36603989  0.73586821  0.12912690  1
  V  V13  1  0.37735641  -0.00077764  0.87962310  1
  V  V14  1  0.73914731  0.62985177  0.39372775  1
  V  V15  1  0.75998512  0.87479695  0.08695936  1
  V  V16  1  0.50105723  -0.02236154  0.50598391  1
  V  V17  1  -0.01141388  0.62769546  0.13220988  1
  V  V18  1  0.50572682  0.01761459  0.00769590  1
  V  V19  1  0.49235715  0.23856082  0.23115506  1
  V  V20  1  0.87470647  0.00998645  0.37480769  1
  V  V21  1  -0.01976796  0.13420188  0.12958527  1
  V  V22  1  0.38563374  0.12622148  0.75184534  1
  V  V23  1  0.25023891  -0.00414540  0.74447104  1
  V  V24  1  0.60710393  0.62088685  -0.03320540  1
  V  V25  1  0.24125361  -0.00676175  0.24250837  1
  V  V26  1  0.26071504  0.24696686  0.01789010  1
  V  V27  1  0.60666937  0.25901339  0.38335981  1
  V  V28  1  0.11129572  0.86805839  0.24164966  1
  V  V29  1  0.37494799  0.37736106  0.02058556  1
  V  V30  1  0.76215887  0.14071170  0.87738221  1
  V  V31  1  0.37235504  0.11884151  0.24320845  1
  V  V32  1  -0.01103546  0.52850921  0.49732099  1
  V  V33  1  0.60787333  0.24590353  0.85335564  1
  V  V34  1  -0.01396217  0.36227749  0.36241385  1
  V  V35  1  0.73902680  0.37489161  0.63230730  1
  V  V36  1  0.84944615  0.86858723  0.51172921  1
  V  V37  1  0.74428493  -0.01462580  0.25011854  1
  V  V38  1  0.87473981  0.36101264  -0.00878825  1
  V  V39  1  0.12815557  0.36239735  0.25414431  1
  V  V40  1  -0.01032495  0.86795829  0.38084253  1
  V  V41  1  0.36642854  0.63302027  0.74845875  1
  V  V42  1  0.62313796  0.11487913  0.50511082  1
  V  V43  1  0.77432340  0.66555637  0.89823874  1
  V  V44  1  0.10481470  0.88389331  0.74741304  1
  V  V45  1  0.12573723  0.74457364  0.39098497  1
  V  V46  1  0.61563013  0.37647750  0.23484581  1
  V  V47  1  0.74855203  0.25169209  0.50168121  1
  V  V48  1  0.36986808  -0.01601157  0.37431854  1
  V  V49  1  0.51690953  0.87104662  0.87331878  1
  V  V50  1  0.27494746  0.24271533  0.50375761  1
  V  V51  1  0.62118265  0.00933319  0.12993690  1
  V  V52  1  0.50325268  0.13055638  0.63113893  1
  V  V53  1  0.14064158  0.58073319  -0.04616362  1
  V  V54  1  0.48921601  0.50512368  0.01139063  1
  V  V55  1  0.23892856  0.77369207  0.00071535  1
  V  V56  1  0.86846842  0.26388177  0.14462914  1
  V  V57  1  0.63873510  0.52869570  0.62808500  1
  V  V58  1  0.51726118  0.86695458  0.35664119  1
  V  V59  1  -0.00701284  0.48596104  -0.01258131  1
  V  V60  1  0.86855389  0.38086207  0.50180451  1
  V  V61  1  0.11312782  0.76718270  0.87513249  1
  V  V62  1  0.74477944  0.12706421  0.36748062  1
  V  V63  1  0.24192531  0.13061446  0.88563922  1
  Zn  Zn64  1  0.18290738  0.17925649  0.19837379  1
  Zn  Zn65  1  0.21594984  0.19503963  0.69953945  1
  Zn  Zn66  1  0.18073630  0.68279705  0.18381559  1
  Zn  Zn67  1  0.17927227  0.70740216  0.68420462  1
  Zn  Zn68  1  0.67902130  0.19063678  0.19157239  1
  Zn  Zn69  1  0.68886999  0.18790880  0.68634292  1
  Zn  Zn70  1  0.68344432  0.70141629  0.11689594  1
  Zn  Zn71  1  0.75122563  0.68319365  0.69753748  1
  Zn  Zn72  1  0.31368195  0.31129649  0.30043042  1
  Zn  Zn73  1  0.32867558  0.30657138  0.82379652  1
  Zn  Zn74  1  0.30430988  0.80958521  0.31181216  1
  Zn  Zn75  1  0.30430100  0.82005441  0.82202911  1
  Zn  Zn76  1  0.79228442  0.32394198  0.31867503  1
  Zn  Zn77  1  0.78040144  0.34115448  0.83917843  1
  Zn  Zn78  1  0.79600414  0.81667617  0.32892600  1
  Zn  Zn79  1  0.81275204  0.83538739  0.82741991  1
  Zn  Zn80  1  0.15786654  0.43803624  0.44306611  1
  Zn  Zn81  1  0.17843280  0.41189257  0.95143838  1
  Zn  Zn82  1  0.17783815  0.93486491  0.42450741  1
  Zn  Zn83  1  0.18309329  0.94405420  0.93545584  1
  Zn  Zn84  1  0.67566923  0.44867283  0.44523447  1
  Zn  Zn85  1  0.66835748  0.42784002  0.94869789  1
  Zn  Zn86  1  0.68595350  0.93548042  0.43725245  1
  Zn  Zn87  1  0.68732449  0.95784416  0.93471702  1
  Zn  Zn88  1  0.30811726  0.05703863  0.06645719  1
  Zn  Zn89  1  0.32621805  0.04264607  0.56639087  1
  Zn  Zn90  1  0.30351372  0.55793177  0.06700000  1
  Zn  Zn91  1  0.30631389  0.46348469  0.55267300  1
  Zn  Zn92  1  0.80526899  0.07228404  0.06603921  1
  Zn  Zn93  1  0.81633921  0.06014718  0.55442118  1
  Zn  Zn94  1  0.81010068  0.55844154  0.05030308  1
  Zn  Zn95  1  0.81029277  0.56651445  0.56173995  1
  Zn  Zn96  1  0.46053951  0.44296782  0.19719800  1
  Zn  Zn97  1  0.45635505  0.44030564  0.64219743  1
  Zn  Zn98  1  0.43693619  0.93241958  0.18770390  1
  Zn  Zn99  1  0.44614260  0.88649238  0.67705960  1
  Zn  Zn100  1  0.93380972  0.44592462  0.18011251  1
  Zn  Zn101  1  0.93304304  0.44376074  0.67974234  1
  Zn  Zn102  1  0.93173108  0.94237134  0.18802802  1
  Zn  Zn103  1  0.90287004  0.94123057  0.70635686  1
  Zn  Zn104  1  0.04974790  0.06260132  0.30294793  1
  Zn  Zn105  1  0.07530429  0.07683653  0.80103830  1
  Zn  Zn106  1  0.05060751  0.56681801  0.30929073  1
  Zn  Zn107  1  0.09258395  0.48910528  0.80446492  1
  Zn  Zn108  1  0.55986198  0.05969147  0.31435994  1
  Zn  Zn109  1  0.56853299  0.05596704  0.81684395  1
  Zn  Zn110  1  0.61533414  0.57445387  0.24708954  1
  Zn  Zn111  1  0.55922031  0.54408162  0.78793631  1
  Zn  Zn112  1  0.44184866  0.15907146  0.43090428  1
  Zn  Zn113  1  0.43590076  0.19348025  0.94134071  1
  Zn  Zn114  1  0.53428380  0.64947709  0.37501109  1
  Zn  Zn115  1  0.43015566  0.69643867  0.93520972  1
  Zn  Zn116  1  0.95378507  0.20235038  0.47031575  1
  Zn  Zn117  1  0.93693914  0.09304447  0.94473541  1
  Zn  Zn118  1  0.91949097  0.69505925  0.42497368  1
  Zn  Zn119  1  0.97635906  0.64735613  0.88399720  1
  Zn  Zn120  1  0.05609802  0.30946694  0.07447890  1
  Zn  Zn121  1  0.04196711  0.32504730  0.57765974  1
  Zn  Zn122  1  0.04735522  0.81699950  0.06334706  1
  Zn  Zn123  1  0.04749783  0.81248750  0.56824239  1
  Zn  Zn124  1  0.54872731  0.31323684  0.06243607  1
  Zn  Zn125  1  0.56007810  0.31157745  0.56637135  1
  Zn  Zn126  1  0.56713283  0.81984090  0.05660920  1
  Zn  Zn127  1  0.54853866  0.79849585  0.55961501  1
  O  O128  1  0.12342742  0.11157552  0.12642641  1
  O  O129  1  0.12008505  0.14210631  0.65613881  1
  O  O130  1  0.10818693  0.60650923  0.13123281  1
  O  O131  1  0.11149281  0.60997965  0.66604402  1
  O  O132  1  0.62696696  0.10915354  0.12760584  1
  O  O133  1  0.61468226  0.12177040  0.61728298  1
  O  O134  1  0.69753562  0.59789610  0.16701299  1
  O  O135  1  0.66444731  0.62641745  0.64416183  1
  O  O136  1  0.37821427  0.40747930  0.33812977  1
  O  O137  1  0.39190779  0.37085028  0.88872817  1
  O  O138  1  0.38616636  0.87977455  0.36188564  1
  O  O139  1  0.37446115  0.88744686  0.88885816  1
  O  O140  1  0.86931485  0.39002366  0.37823352  1
  O  O141  1  0.88107991  0.35079405  0.89198424  1
  O  O142  1  0.87854685  0.88177425  0.37460035  1
  O  O143  1  0.90775143  0.88434332  0.88879237  1
  O  O144  1  0.26429483  -0.01291682  0.36537126  1
  O  O145  1  0.26041314  0.01313092  0.88046401  1
  O  O146  1  0.26628734  0.46282026  0.44722489  1
  O  O147  1  0.17667131  0.50639560  0.88418754  1
  O  O148  1  0.74419187  0.00720211  0.36338118  1
  O  O149  1  0.74431078  0.03539648  0.87102442  1
  O  O150  1  0.75473332  0.50771744  0.38031687  1
  O  O151  1  0.75441826  0.46185183  0.87257397  1
  O  O152  1  0.22578886  0.49890687  0.12580546  1
  O  O153  1  0.21527822  0.52344358  0.59462029  1
  O  O154  1  0.23328464  0.99972254  0.13682360  1
  O  O155  1  0.24664477  1.01064247  0.64468071  1
  O  O156  1  0.72504199  0.53026996  0.12757014  1
  O  O157  1  0.74775725  0.48496769  0.62430172  1
  O  O158  1  0.74058115  1.00324265  0.13939893  1
  O  O159  1  0.77119871  1.03425059  0.65276816  1
  O  O160  1  -0.01210744  0.37882044  0.26142936  1
  O  O161  1  0.00470621  0.34897475  0.68677970  1
  O  O162  1  0.00558109  0.88701527  0.26101878  1
  O  O163  1  0.00706603  0.89652896  0.74439974  1
  O  O164  1  0.49873206  0.34318753  0.24916207  1
  O  O165  1  0.48320042  0.37915023  0.75316510  1
  O  O166  1  0.50576104  0.86483639  0.24940271  1
  O  O167  1  0.49416292  0.89721369  0.77755650  1
  O  O168  1  0.48963306  0.12987963  0.25455029  1
  O  O169  1  0.49490100  0.11070186  0.74209108  1
  O  O170  1  0.51634604  0.64435223  0.25281104  1
  O  O171  1  0.47059887  0.62519775  0.76358140  1
  O  O172  1  1.00642786  0.13243787  0.23091102  1
  O  O173  1  1.06555985  0.15360435  0.71065371  1
  O  O174  1  0.98222944  0.62033999  0.23270140  1
  O  O175  1  1.09628379  0.60341183  0.74217181  1
  O  O176  1  0.37101702  0.26109865  0.01058186  1
  O  O177  1  0.38016517  0.22807135  0.50429555  1
  O  O178  1  0.36193998  0.75932935  0.00506239  1
  O  O179  1  0.36736793  0.65982317  0.45229090  1
  O  O180  1  0.85937825  0.26090557  0.01941418  1
  O  O181  1  0.85664235  0.26864451  0.48631286  1
  O  O182  1  0.92388565  0.85386984  -0.04158164  1
  O  O183  1  0.87191701  0.77189045  0.49351994  1
  O  O184  1  0.17342695  0.24242384  0.48476198  1
  O  O185  1  0.14530772  0.26524957  1.00266628  1
  O  O186  1  0.10804900  0.75236715  0.48988600  1
  O  O187  1  0.13305493  0.77718812  0.99321714  1
  O  O188  1  0.62367576  0.23834231  0.49626079  1
  O  O189  1  0.63087976  0.25537410  1.00964103  1
  O  O190  1  0.59625484  0.70921533  0.50638633  1
  O  O191  1  0.60695258  0.70997069  1.02523626  1
  O  O192  1  0.49958142  0.23545158  0.13267220  1
  O  O193  1  0.50031964  0.22750472  0.62830107  1
  O  O194  1  0.48225969  0.75661366  0.13162480  1
  O  O195  1  0.48948064  0.78745252  0.64822763  1
  O  O196  1  0.97773405  0.24821177  0.13316416  1
  O  O197  1  1.04759841  0.22668145  0.52971613  1
  O  O198  1  1.00752786  0.72573528  0.11044658  1
  O  O199  1  0.98667248  0.75009245  0.64276755  1
  O  O200  1  -0.02179085  0.26394024  0.37240620  1
  O  O201  1  -0.01043165  0.26003506  0.79148923  1
  O  O202  1  -0.00441250  0.76549294  0.36925847  1
  O  O203  1  0.01515804  0.75986793  0.88590905  1
  O  O204  1  0.50659542  0.23986480  0.38208154  1
  O  O205  1  0.50242538  0.25689064  0.87330613  1
  O  O206  1  0.50622961  0.75981143  0.34860436  1
  O  O207  1  0.49842035  0.77186344  0.88445373  1
  O  O208  1  0.27193164  0.13649896  0.50789662  1
  O  O209  1  0.26092648  0.13381750  0.99455561  1
  O  O210  1  0.30255677  0.62705177  0.44952181  1
  O  O211  1  0.22227823  0.61767336  1.00152666  1
  O  O212  1  0.73917961  0.13061723  0.49376865  1
  O  O213  1  0.74710875  0.14688835  0.99091546  1
  O  O214  1  0.74358821  0.63149443  0.49277901  1
  O  O215  1  0.72568594  0.61432162  0.97937171  1
  O  O216  1  0.26793491  0.36145306  0.00148114  1
  O  O217  1  0.29046875  0.34433860  0.51501305  1
  O  O218  1  0.25815404  0.87646862  0.00141834  1
  O  O219  1  0.22681502  0.90361125  0.51812388  1
  O  O220  1  0.75498774  0.36210406  -0.00195952  1
  O  O221  1  0.74973045  0.37045341  0.50272742  1
  O  O222  1  0.76919413  0.90577495  -0.00864905  1
  O  O223  1  0.74724440  0.86763588  0.50066461  1
  O  O224  1  0.11201097  0.49125545  0.24491896  1
  O  O225  1  0.11644296  0.45238105  0.70435251  1
  O  O226  1  0.13314973  0.99797932  0.25309102  1
  O  O227  1  0.14035235  0.99190556  0.76226007  1
  O  O228  1  0.57183139  0.47079767  0.24896823  1
  O  O229  1  0.66615941  0.50297066  0.74723697  1
  O  O230  1  0.62969390  1.00126498  0.24009254  1
  O  O231  1  0.64341411  1.00021573  0.74924523  1
  O  O232  1  0.36189780  -0.00365340  0.25117475  1
  O  O233  1  0.36067999  0.00572325  0.76555422  1
  O  O234  1  0.38047809  0.46448705  0.28792488  1
  O  O235  1  0.34653532  0.53225332  0.74574706  1
  O  O236  1  0.85324981  -0.00036413  0.26357751  1
  O  O237  1  0.92271470  0.04705518  0.77240574  1
  O  O238  1  0.86329768  0.49710570  0.25811794  1
  O  O239  1  0.85811725  0.48951777  0.74850509  1
  O  O240  1  0.09535958  0.38022474  0.36575942  1
  O  O241  1  0.12560679  0.30921735  0.93457015  1
  O  O242  1  0.10649395  0.86877850  0.36405585  1
  O  O243  1  0.12395597  0.87639433  0.86484378  1
  O  O244  1  0.61471377  0.35928052  0.39202875  1
  O  O245  1  0.60636566  0.35850242  0.87750991  1
  O  O246  1  0.61575588  0.87656732  0.36637336  1
  O  O247  1  0.61695675  0.88382936  0.88373180  1
  O  O248  1  0.37556572  0.10874654  0.14387800  1
  O  O249  1  0.39171582  0.10545359  0.64135900  1
  O  O250  1  0.37165881  0.63744648  0.11389125  1
  O  O251  1  0.38872669  0.64273753  0.64920552  1
  O  O252  1  0.87483837  0.14029946  0.13320721  1
  O  O253  1  0.97744788  0.09159406  0.59961246  1
  O  O254  1  0.89192565  0.61786751  0.09870093  1
  O  O255  1  0.84914690  0.64000345  0.63966927  1
  O  O256  1  0.24677283  0.23604467  0.11496198  1
  O  O257  1  0.26313208  0.24137849  0.60726556  1
  O  O258  1  0.25230159  0.74455976  0.10532617  1
  O  O259  1  0.23714070  0.76753447  0.60949748  1
  O  O260  1  0.75138099  0.24486783  0.12015315  1
  O  O261  1  0.74290660  0.25704408  0.60942776  1
  O  O262  1  0.75922476  0.77370588  0.08107049  1
  O  O263  1  0.84225125  0.76047092  0.74015869  1
  O  O264  1  0.28458648  0.24977334  0.39890531  1
  O  O265  1  0.26360450  0.23314196  0.88927353  1
  O  O266  1  0.22538914  0.76279531  0.37765664  1
  O  O267  1  0.24060264  0.75758482  0.89548096  1
  O  O268  1  0.73026956  0.24409816  0.38406343  1
  O  O269  1  0.72550982  0.25010697  0.88423897  1
  O  O270  1  0.74347015  0.72633187  0.36249335  1
  O  O271  1  0.74817164  0.76100204  0.88596121  1
  O  O272  1  0.00280604  0.13574578  0.02696146  1
  O  O273  1  -0.08678386  0.12825654  0.55519587  1
  O  O274  1  0.02526096  0.59537707  -0.01880906  1
  O  O275  1  -0.03140770  0.62480049  0.50167444  1
  O  O276  1  0.48785910  0.11450492  0.00704613  1
  O  O277  1  0.50371427  0.10564182  0.51562981  1
  O  O278  1  0.49398433  0.60930078  -0.02207563  1
  O  O279  1  0.53864179  0.65760242  0.49496458  1
  O  O280  1  0.47522549  0.37832095  0.54910145  1
  O  O281  1  0.48920775  0.39034116  1.00310327  1
  O  O282  1  0.50868523  0.87452223  0.48099944  1
  O  O283  1  0.49255172  0.88687231  0.99402783  1
  O  O284  1  0.97451501  0.38123345  0.48557992  1
  O  O285  1  0.98514648  0.37622815  1.00998365  1
  O  O286  1  0.99653265  0.88133687  0.48229267  1
  O  O287  1  0.98357275  0.89088063  0.99624599  1
  O  O288  1  0.49984055  0.48388456  0.42247383  1
  O  O289  1  0.50740224  0.48218568  0.87235246  1
  O  O290  1  0.49464624  0.98149888  0.37316633  1
  O  O291  1  0.49481634  1.00002348  0.89362282  1
  O  O292  1  0.97289642  0.50621765  0.38221820  1
  O  O293  1  1.01057872  0.47700097  0.88637401  1
  O  O294  1  0.97722115  0.99885203  0.36836278  1
  O  O295  1  0.97208307  1.04334169  0.83699031  1
  O  O296  1  0.00339533  0.01474648  0.13027466  1
  O  O297  1  -0.03345065  0.01759986  0.61202692  1
  O  O298  1  0.00148650  0.50702763  0.11048612  1
  O  O299  1  -0.00077150  0.50160031  0.60303275  1
  O  O300  1  0.51158729  -0.00780599  0.11831303  1
  O  O301  1  0.49586921  -0.02522923  0.60543273  1
  O  O302  1  0.49188500  0.51422662  0.11003289  1
  O  O303  1  0.54187159  0.51372610  0.66974379  1
  O  O304  1  0.22730916  0.37403304  0.26749776  1
  O  O305  1  0.22980531  0.34812380  0.76897357  1
  O  O306  1  0.22911636  0.88637477  0.25189460  1
  O  O307  1  0.24765658  0.88822644  0.74576384  1
  O  O308  1  0.71154877  0.38169499  0.26487631  1
  O  O309  1  0.76033509  0.36048781  0.73030833  1
  O  O310  1  0.73996175  0.88636670  0.25560468  1
  O  O311  1  0.80060480  0.93153296  0.76754337  1
  O  O312  1  0.26038948  0.10970069  0.25461070  1
  O  O313  1  0.26094397  0.11560155  0.76710982  1
  O  O314  1  0.25951593  0.62472759  0.23586256  1
  O  O315  1  0.26162998  0.64301171  0.73910224  1
  O  O316  1  0.73873314  0.12333546  0.26544319  1
  O  O317  1  0.74978502  0.13312547  0.76586690  1
  O  O318  1  0.82256912  0.69727253  0.21039584  1
  O  O319  1  0.76477395  0.61619104  0.80166006  1
  O  O320  1  0.38352343  0.09402373  0.35908758  1
  O  O321  1  0.37970197  0.11519647  0.86826569  1
  O  O322  1  0.46318015  0.54214380  0.39780390  1
  O  O323  1  0.36664185  0.63371961  0.85644389  1
  O  O324  1  0.85967424  0.11256235  0.38545382  1
  O  O325  1  0.85984434  0.15605985  0.87912203  1
  O  O326  1  0.85247148  0.61665383  0.36964728  1
  O  O327  1  0.86941835  0.66044967  0.92413332  1
  O  O328  1  0.11006101  0.38303177  0.14621309  1
  O  O329  1  0.13014254  0.39528306  0.55716645  1
  O  O330  1  0.10392705  0.89271930  0.13793158  1
  O  O331  1  0.12742875  0.87499723  0.64399481  1
  O  O332  1  0.61992662  0.36818866  0.13552065  1
  O  O333  1  0.63817511  0.37510567  0.62530802  1
  O  O334  1  0.64728730  0.89304465  0.10431172  1
  O  O335  1  0.65751749  0.82859021  0.64094113  1
  O  O336  1  0.12257200  0.26140015  0.24839157  1
  O  O337  1  0.17823077  0.29558427  0.74518421  1
  O  O338  1  0.12224443  0.76837355  0.24172689  1
  O  O339  1  0.12635451  0.77226925  0.76523686  1
  O  O340  1  0.60923058  0.25191638  0.26432617  1
  O  O341  1  0.61766378  0.24926973  0.75447650  1
  O  O342  1  0.62265864  0.74990218  0.20834759  1
  O  O343  1  0.67356399  0.79313350  0.70419408  1
  O  O344  1  0.38090197  0.23117065  0.25417639  1
  O  O345  1  0.37054025  0.22485119  0.75163828  1
  O  O346  1  0.35866456  0.75151357  0.22921353  1
  O  O347  1  0.36185991  0.73982141  0.76012032  1
  O  O348  1  0.85092846  0.26263131  0.24253738  1
  O  O349  1  0.96008211  0.27667175  0.72646419  1
  O  O350  1  0.86461028  0.75110270  0.23778123  1
  O  O351  1  0.95794679  0.64377656  0.76993534  1
  O  O352  1  0.40466964  0.51845267  0.56644256  1
  O  O353  1  0.37772452  0.49003931  1.00185650  1
  O  O354  1  0.39017970  0.99508090  0.48367428  1
  O  O355  1  0.38299967  0.99530830  1.00028227  1
  O  O356  1  0.87111955  0.49375543  0.49305888  1
  O  O357  1  0.88345911  0.48143380  0.99701816  1
  O  O358  1  0.85468402  0.98275194  0.47766252  1
  O  O359  1  0.87449650  1.01903485  0.99896225  1
  O  O360  1  0.12058817  -0.00414670  0.01381017  1
  O  O361  1  0.11510490  0.03949894  0.45611823  1
  O  O362  1  0.11101896  0.48311044  0.01792403  1
  O  O363  1  0.09119993  0.52549358  0.48681318  1
  O  O364  1  0.61062416  0.01154800  0.00811245  1
  O  O365  1  0.61136969  0.00488248  0.49347370  1
  O  O366  1  0.60493221  0.51382083  -0.00502006  1
  O  O367  1  0.62663026  0.51095154  0.52813474  1
  O  O368  1  0.38204086  0.38324162  0.11977556  1
  O  O369  1  0.34462746  0.40994652  0.64739540  1
  O  O370  1  0.37508070  0.86870370  0.11306064  1
  O  O371  1  0.34625521  0.88887185  0.62276759  1
  O  O372  1  0.87015121  0.36638195  0.12261357  1
  O  O373  1  0.86114676  0.37964245  0.60443403  1
  O  O374  1  0.85199724  0.88981309  0.13031860  1
  O  O375  1  0.87149777  0.88693115  0.60829321  1
  O  O376  1  0.10906546  0.09571647  0.40497808  1
  O  O377  1  0.14252829  0.12735952  0.87852764  1
  O  O378  1  0.10865531  0.64889922  0.36333478  1
  O  O379  1  0.12440699  0.65404568  0.88189323  1
  O  O380  1  0.62549576  0.12937161  0.38761324  1
  O  O381  1  0.61758858  0.14424645  0.87551602  1
  O  O382  1  0.64030617  0.60414906  0.35756809  1
  O  O383  1  0.60940466  0.62940335  0.86833947  1
