# generated using pymatgen
data_VZnO4
_symmetry_space_group_name_H-M   'P 1'
_cell_length_a   17.06637155
_cell_length_b   16.98284371
_cell_length_c   17.00192895
_cell_angle_alpha   89.89602772
_cell_angle_beta   90.22832800
_cell_angle_gamma   88.93020360
_symmetry_Int_Tables_number   1
_chemical_formula_structural   VZnO4
_chemical_formula_sum   'V64 Zn64 O256'
_cell_volume   4926.85607126
_cell_formula_units_Z   64
loop_
 _symmetry_equiv_pos_site_id
 _symmetry_equiv_pos_as_xyz
  1  'x, y, z'
loop_
 _atom_site_type_symbol
 _atom_site_label
 _atom_site_symmetry_multiplicity
 _atom_site_fract_x
 _atom_site_fract_y
 _atom_site_fract_z
 _atom_site_occupancy
  V  V0  1  0.36631978  0.88157751  0.49603876  1
  V  V1  1  -0.02965120  0.86791296  0.89380130  1
  V  V2  1  0.12154094  0.49900941  0.12416975  1
  V  V3  1  0.24383245  0.74531934  0.00379669  1
  V  V4  1  0.01879369  0.35394191  0.37024622  1
  V  V5  1  0.76535488  0.47989007  0.24717670  1
  V  V6  1  0.11892095  0.11695169  -0.00862117  1
  V  V7  1  0.76313200  0.63046784  0.36379709  1
  V  V8  1  0.63013259  0.63420526  0.01149779  1
  V  V9  1  0.37409339  0.36906804  0.49798036  1
  V  V10  1  0.24987891  -0.00701551  0.76386693  1
  V  V11  1  0.00147785  -0.01159173  0.50474183  1
  V  V12  1  0.63379941  0.47624389  0.13023420  1
  V  V13  1  0.75484563  0.73978557  0.51978347  1
  V  V14  1  0.00415034  0.61987647  0.62089227  1
  V  V15  1  0.75941748  0.62127904  0.86880309  1
  V  V16  1  -0.01464211  0.74236179  0.26306250  1
  V  V17  1  -0.02670358  0.87030636  0.37842005  1
  V  V18  1  0.88611247  0.11500032  0.28073685  1
  V  V19  1  0.87217042  0.35319655  0.48646670  1
  V  V20  1  0.51490235  0.24374632  0.24293927  1
  V  V21  1  0.13433048  0.36180205  0.24430639  1
  V  V22  1  0.71257900  -0.02068355  0.73067666  1
  V  V23  1  0.60295807  0.85585157  0.72974377  1
  V  V24  1  0.01541125  0.26984236  0.75108510  1
  V  V25  1  0.45610298  -0.00156237  -0.01033329  1
  V  V26  1  0.24431579  0.87795082  0.12544084  1
  V  V27  1  0.62353810  0.74680418  0.87900658  1
  V  V28  1  0.24739640  0.74540532  0.49675970  1
  V  V29  1  0.13470488  0.60541331  0.49258013  1
  V  V30  1  0.51455072  0.02481201  0.51283371  1
  V  V31  1  0.12471352  -0.02654101  0.63650604  1
  V  V32  1  0.14966780  0.10938875  0.49548888  1
  V  V33  1  0.37324099  0.73322882  0.13376024  1
  V  V34  1  0.37661986  0.11987536  0.22365421  1
  V  V35  1  0.50422095  0.36110547  0.87740178  1
  V  V36  1  0.62000354  0.61180776  0.50216459  1
  V  V37  1  0.26172893  0.49789597  0.23740418  1
  V  V38  1  0.62020008  0.76662667  0.38633851  1
  V  V39  1  0.86484297  0.87541702  0.53903734  1
  V  V40  1  0.10605047  0.75674547  0.87059399  1
  V  V41  1  -0.01530337  0.62419764  0.13125407  1
  V  V42  1  0.48309280  0.86990846  0.87087408  1
  V  V43  1  0.37050762  0.26896664  0.11076109  1
  V  V44  1  0.24728759  0.51627558  0.74977101  1
  V  V45  1  -0.00069875  0.49291984  0.48390179  1
  V  V46  1  0.14208702  0.27613596  0.87202409  1
  V  V47  1  0.01317299  0.12963220  0.62870400  1
  V  V48  1  0.87144985  0.22344663  0.11850176  1
  V  V49  1  0.12539838  0.86448367  0.26441339  1
  V  V50  1  0.88461608  0.13247301  0.77602255  1
  V  V51  1  0.62604830  0.37404998  0.73888145  1
  V  V52  1  0.51796338  0.37247591  0.36734338  1
  V  V53  1  0.38824258  0.50445762  0.37133027  1
  V  V54  1  0.25037890  0.85213276  0.63611492  1
  V  V55  1  0.73814893  0.00646880  0.27715267  1
  V  V56  1  0.25078338  0.62789886  0.35818399  1
  V  V57  1  0.61032117  0.88603472  0.23110929  1
  V  V58  1  0.48915577  0.62113527  0.63464096  1
  V  V59  1  0.85873771  0.76909661  0.12432673  1
  V  V60  1  0.11133304  0.63292663  0.00346073  1
  V  V61  1  0.38485531  0.16778268  0.74054076  1
  V  V62  1  0.10104930  -0.00153424  0.13458249  1
  V  V63  1  0.50586732  0.50152908  -0.00465166  1
  Zn  Zn64  1  0.20473606  0.17315337  0.16622404  1
  Zn  Zn65  1  0.19707988  0.16679646  0.69366696  1
  Zn  Zn66  1  0.17618367  0.69132019  0.18636665  1
  Zn  Zn67  1  0.15028546  0.69807637  0.67185610  1
  Zn  Zn68  1  0.70920086  0.18054717  0.20492280  1
  Zn  Zn69  1  0.74749220  0.26784517  0.76991997  1
  Zn  Zn70  1  0.66491700  0.70079272  0.20607600  1
  Zn  Zn71  1  0.67313585  0.67674789  0.69040566  1
  Zn  Zn72  1  0.33639251  0.32534504  0.28712529  1
  Zn  Zn73  1  0.32790391  0.32434765  0.81674798  1
  Zn  Zn74  1  0.31594844  0.80321400  0.30382063  1
  Zn  Zn75  1  0.27940795  0.83765235  0.84621708  1
  Zn  Zn76  1  0.84781598  0.31275018  0.29609613  1
  Zn  Zn77  1  0.75447384  0.49537901  0.73931301  1
  Zn  Zn78  1  0.79293801  0.81656819  0.30913878  1
  Zn  Zn79  1  0.79045636  0.81706613  0.81079251  1
  Zn  Zn80  1  0.20027005  0.43247497  0.41913992  1
  Zn  Zn81  1  0.18150495  0.45255503  0.93822945  1
  Zn  Zn82  1  0.18918886  0.94614517  0.43051999  1
  Zn  Zn83  1  0.16468956  0.93266154  0.94831425  1
  Zn  Zn84  1  0.70293677  0.44147897  0.42110249  1
  Zn  Zn85  1  0.66955979  0.45820778  0.91639623  1
  Zn  Zn86  1  0.68276441  0.95052005  0.46755256  1
  Zn  Zn87  1  0.67538423  0.94999299  0.89549416  1
  Zn  Zn88  1  0.29655431  0.06284814  0.05684077  1
  Zn  Zn89  1  0.35114128  0.09905976  0.56148358  1
  Zn  Zn90  1  0.30617142  0.55243874  0.04685674  1
  Zn  Zn91  1  0.32300017  0.55729576  0.55553827  1
  Zn  Zn92  1  0.78492588  0.06605026  0.09622768  1
  Zn  Zn93  1  0.83708485  0.05407568  0.60562543  1
  Zn  Zn94  1  0.77423060  0.61338227  0.09739176  1
  Zn  Zn95  1  0.82784969  0.55910194  0.56769519  1
  Zn  Zn96  1  0.45192545  0.43631303  0.18060910  1
  Zn  Zn97  1  0.46480218  0.41665233  0.67174067  1
  Zn  Zn98  1  0.42946247  0.93136561  0.17490167  1
  Zn  Zn99  1  0.42454239  0.92748988  0.67755608  1
  Zn  Zn100  1  0.94888803  0.43401922  0.19540335  1
  Zn  Zn101  1  0.93147253  0.43845641  0.65951202  1
  Zn  Zn102  1  0.92159403  0.94181595  0.19776731  1
  Zn  Zn103  1  0.94115705  0.94739957  0.71288099  1
  Zn  Zn104  1  0.07147612  0.05164288  0.31851837  1
  Zn  Zn105  1  0.05242546  0.03936674  0.81771376  1
  Zn  Zn106  1  0.06773965  0.55731737  0.30933600  1
  Zn  Zn107  1  0.05675781  0.56683260  0.80981316  1
  Zn  Zn108  1  0.51353476  0.03083868  0.30682652  1
  Zn  Zn109  1  0.52191593  0.04614384  0.78664002  1
  Zn  Zn110  1  0.57838923  0.56801213  0.30653919  1
  Zn  Zn111  1  0.56605174  0.55723266  0.80406352  1
  Zn  Zn112  1  0.48486930  0.21450381  0.46761138  1
  Zn  Zn113  1  0.43034287  0.18511343  0.92827905  1
  Zn  Zn114  1  0.43718020  0.68537382  0.43428449  1
  Zn  Zn115  1  0.45507155  0.70827644  0.97553088  1
  Zn  Zn116  1  0.95626894  0.17690654  0.44384311  1
  Zn  Zn117  1  0.96053417  0.19668172  0.94087326  1
  Zn  Zn118  1  0.93249662  0.68343576  0.45781269  1
  Zn  Zn119  1  0.92679309  0.69053655  0.94800608  1
  Zn  Zn120  1  0.07331479  0.30031379  0.05983436  1
  Zn  Zn121  1  0.07554831  0.29489625  0.54368851  1
  Zn  Zn122  1  0.04466573  0.81967484  0.07024086  1
  Zn  Zn123  1  0.06791900  0.79883974  0.54542590  1
  Zn  Zn124  1  0.55897528  0.31071974  0.06258273  1
  Zn  Zn125  1  0.56303711  0.44416924  0.54734837  1
  Zn  Zn126  1  0.55301846  0.82515505  0.05930056  1
  Zn  Zn127  1  0.54596203  0.80079636  0.54657604  1
  O  O128  1  0.12065704  0.09363629  0.16079830  1
  O  O129  1  0.12779280  0.09560870  0.61787282  1
  O  O130  1  0.10930484  0.62024334  0.12331393  1
  O  O131  1  0.12464916  0.60856766  0.59593217  1
  O  O132  1  0.65573102  0.17392604  0.04436395  1
  O  O133  1  0.58476794  0.22247196  0.59764142  1
  O  O134  1  0.64329952  0.63401894  0.11128425  1
  O  O135  1  0.62457459  0.61927903  0.60618285  1
  O  O136  1  0.38605858  0.39093957  0.36758255  1
  O  O137  1  0.40393429  0.38198469  0.87422655  1
  O  O138  1  0.33867737  0.88714357  0.38232299  1
  O  O139  1  0.38761699  0.84872145  0.86575485  1
  O  O140  1  0.91074428  0.36846928  0.37458045  1
  O  O141  1  0.88298925  0.43452970  0.88371968  1
  O  O142  1  0.87567239  0.87608085  0.37718582  1
  O  O143  1  0.87209065  0.85719973  0.87387530  1
  O  O144  1  0.28539740  -0.05066417  0.36541881  1
  O  O145  1  0.23420810  -0.05376086  0.85728811  1
  O  O146  1  0.26645946  0.50741418  0.35359801  1
  O  O147  1  0.22865781  0.52906809  0.85402152  1
  O  O148  1  0.73259128  0.00020370  0.37723864  1
  O  O149  1  0.74487747  0.00557053  0.82206726  1
  O  O150  1  0.75080994  0.51783332  0.35069376  1
  O  O151  1  0.75371711  0.51757923  0.87290573  1
  O  O152  1  0.23397075  0.51169477  0.13414073  1
  O  O153  1  0.25909930  0.50616198  0.64760382  1
  O  O154  1  0.23877406  0.97872657  0.12670827  1
  O  O155  1  0.23563242  0.96690586  0.64573305  1
  O  O156  1  0.74445927  0.50670119  0.13892723  1
  O  O157  1  0.83739834  0.50422225  0.66518930  1
  O  O158  1  0.70771983  1.06315284  0.17740731  1
  O  O159  1  0.73876365  1.02351336  0.64356473  1
  O  O160  1  0.02419425  0.37384921  0.26066082  1
  O  O161  1  0.00054875  0.36550097  0.72595149  1
  O  O162  1  -0.00363154  0.86612348  0.26996777  1
  O  O163  1  -0.06926133  0.76018101  0.72892013  1
  O  O164  1  0.49783674  0.35897430  0.25748592  1
  O  O165  1  0.51465717  0.38855937  0.76712009  1
  O  O166  1  0.51111884  0.87845496  0.24094520  1
  O  O167  1  0.49947976  0.87082196  0.75336119  1
  O  O168  1  0.48570899  0.14346708  0.26969239  1
  O  O169  1  0.47363740  0.11955650  0.71857705  1
  O  O170  1  0.56591479  0.65729460  0.24128483  1
  O  O171  1  0.50821864  0.62388915  0.73462320  1
  O  O172  1  0.98410246  0.09355536  0.26459706  1
  O  O173  1  1.01296059  0.11061002  0.73013317  1
  O  O174  1  1.00234841  0.63713063  0.24907903  1
  O  O175  1  0.99770976  0.60186735  0.71934017  1
  O  O176  1  0.39063609  0.24760137  0.01420366  1
  O  O177  1  0.38694893  0.26902407  0.48712412  1
  O  O178  1  0.34248389  0.74167208  -0.00666195  1
  O  O179  1  0.35185212  0.74732080  0.48433966  1
  O  O180  1  0.88337457  0.22899903  0.01751291  1
  O  O181  1  0.87706223  0.25307557  0.47505711  1
  O  O182  1  0.87127768  0.75138809  0.02661261  1
  O  O183  1  0.86127160  0.76745462  0.50682864  1
  O  O184  1  0.13367004  0.20917558  0.49274014  1
  O  O185  1  0.12443701  0.24443368  0.97351012  1
  O  O186  1  0.14101599  0.72916463  0.48427810  1
  O  O187  1  0.11499616  0.74140720  1.01022717  1
  O  O188  1  0.59241984  0.22832294  0.51836802  1
  O  O189  1  0.62554621  0.23227249  0.99981288  1
  O  O190  1  0.64109869  0.73589153  0.49885329  1
  O  O191  1  0.62021501  0.74445496  0.99128168  1
  O  O192  1  0.49601759  0.25282966  0.13806473  1
  O  O193  1  0.51824511  0.24348682  0.62475415  1
  O  O194  1  0.46521602  0.75524500  0.08803711  1
  O  O195  1  0.50066803  0.71957780  0.60698913  1
  O  O196  1  0.98127593  0.27539630  0.13305984  1
  O  O197  1  1.03652421  0.23184820  0.63278415  1
  O  O198  1  0.98068848  0.74291411  0.14108476  1
  O  O199  1  1.03904229  0.72100598  0.62306463  1
  O  O200  1  0.02154939  0.25513654  0.38100357  1
  O  O201  1  0.01600838  0.26318442  0.85699707  1
  O  O202  1  -0.01268908  0.75669260  0.37189117  1
  O  O203  1  -0.00503497  0.75920644  0.88344109  1
  O  O204  1  0.51269931  0.26569883  0.36637639  1
  O  O205  1  0.50717206  0.26143287  0.88473087  1
  O  O206  1  0.52343234  0.74285923  0.38467018  1
  O  O207  1  0.51238108  0.75919059  0.88495149  1
  O  O208  1  0.24626273  0.09777937  0.51584684  1
  O  O209  1  0.21073068  0.13378807  1.03975466  1
  O  O210  1  0.24789258  0.62323757  0.48670479  1
  O  O211  1  0.22258987  0.63726855  1.00729392  1
  O  O212  1  0.75007194  0.18781866  0.57433270  1
  O  O213  1  0.71687840  0.13757966  1.01199765  1
  O  O214  1  0.75676829  0.63206611  0.50177313  1
  O  O215  1  0.73491868  0.62584310  0.98505554  1
  O  O216  1  0.27746588  0.46037021  -0.01530820  1
  O  O217  1  0.27379688  0.37889303  0.48395429  1
  O  O218  1  0.22772635  0.85811246  0.01875020  1
  O  O219  1  0.24514323  0.85510661  0.50271590  1
  O  O220  1  0.76173897  0.34291291  -0.03062835  1
  O  O221  1  0.77481988  0.37680392  0.47728936  1
  O  O222  1  0.71992280  0.94875335  0.00568171  1
  O  O223  1  0.76245025  0.87585728  0.52031527  1
  O  O224  1  0.13657898  0.49282257  0.23822614  1
  O  O225  1  0.14115371  0.50343896  0.74837395  1
  O  O226  1  0.11521970  0.96993962  0.24657760  1
  O  O227  1  0.12555546  0.98052122  0.73903694  1
  O  O228  1  0.63885101  0.49273085  0.23527473  1
  O  O229  1  0.64112414  0.48958062  0.75456822  1
  O  O230  1  0.61665309  0.98682775  0.26864684  1
  O  O231  1  0.60873822  0.97851734  0.73958833  1
  O  O232  1  0.40944347  0.02035084  0.24672388  1
  O  O233  1  0.34888092  -0.01833511  0.74654916  1
  O  O234  1  0.36426249  0.49627934  0.24138743  1
  O  O235  1  0.34278153  0.53890661  0.77125011  1
  O  O236  1  0.84990481  0.00936550  0.25462101  1
  O  O237  1  0.87288496  0.04141505  0.72521020  1
  O  O238  1  0.86395371  0.49337727  0.23838537  1
  O  O239  1  0.93801700  0.46345368  0.84455025  1
  O  O240  1  0.13336457  0.36658550  0.35365321  1
  O  O241  1  0.12692810  0.37601817  0.88125972  1
  O  O242  1  0.12478264  0.86795833  0.36547198  1
  O  O243  1  0.09694123  0.85954337  0.88728252  1
  O  O244  1  0.61430648  0.39086098  0.37072680  1
  O  O245  1  0.61721037  0.37653669  0.86603534  1
  O  O246  1  0.62251293  0.86178538  0.41813698  1
  O  O247  1  0.61424085  0.86314731  0.85992836  1
  O  O248  1  0.37460776  0.12420372  0.12265858  1
  O  O249  1  0.31286029  0.14408829  0.66291190  1
  O  O250  1  0.35881883  0.63669874  0.11473255  1
  O  O251  1  0.38723206  0.62057824  0.61852829  1
  O  O252  1  0.87615128  0.11987133  0.13398401  1
  O  O253  1  0.91526556  0.13352416  0.60225725  1
  O  O254  1  0.88644414  0.61892862  0.12895448  1
  O  O255  1  0.91226729  0.63793247  0.57993333  1
  O  O256  1  0.27164838  0.25611888  0.12386173  1
  O  O257  1  0.22259342  0.29590964  0.63393209  1
  O  O258  1  0.25023493  0.75035141  0.11900419  1
  O  O259  1  0.23689059  0.74477207  0.60659093  1
  O  O260  1  0.77323230  0.24497529  0.13380012  1
  O  O261  1  0.74931358  0.25183597  0.60822269  1
  O  O262  1  0.76435907  0.73210696  0.14151367  1
  O  O263  1  0.74548367  0.73886734  0.61732555  1
  O  O264  1  0.25404945  0.25072974  0.36170182  1
  O  O265  1  0.24146042  0.26908744  0.86163271  1
  O  O266  1  0.25293353  0.73111727  0.37177315  1
  O  O267  1  0.21686777  0.75714183  0.89712161  1
  O  O268  1  0.70966058  0.23608621  0.41260767  1
  O  O269  1  0.76984808  0.28597222  0.92537960  1
  O  O270  1  0.74396763  0.74537535  0.38935668  1
  O  O271  1  0.72944589  0.74679964  0.87396787  1
  O  O272  1  0.02868818  0.14463288  0.02570693  1
  O  O273  1  0.02300039  0.10243289  0.50678664  1
  O  O274  1  0.00069969  0.63281764  0.02349710  1
  O  O275  1  0.02306364  0.60710744  0.47712335  1
  O  O276  1  0.48340923  0.09424481  -0.02377166  1
  O  O277  1  0.45922463  0.11774825  0.52381375  1
  O  O278  1  0.52518285  0.61792704  -0.00018014  1
  O  O279  1  0.52027828  0.61751794  0.48847466  1
  O  O280  1  0.49424726  0.38630835  0.47184331  1
  O  O281  1  0.51756376  0.38970155  0.98890998  1
  O  O282  1  0.46272916  0.85615325  0.48987107  1
  O  O283  1  0.50053441  0.88636785  0.97614023  1
  O  O284  1  1.02562928  0.37869460  0.48253782  1
  O  O285  1  0.99562088  0.37316541  0.98608445  1
  O  O286  1  0.98458612  0.86583649  0.49617599  1
  O  O287  1  0.98314612  0.88422657  0.99202389  1
  O  O288  1  0.49026009  0.50117757  0.34749094  1
  O  O289  1  0.51575235  0.50635203  0.89299660  1
  O  O290  1  0.49738713  1.00092085  0.41522285  1
  O  O291  1  0.48487039  0.97864798  0.86969441  1
  O  O292  1  1.01854835  0.48381395  0.37895972  1
  O  O293  1  0.98606245  0.51727174  0.88439727  1
  O  O294  1  1.00399386  0.97345247  0.39479593  1
  O  O295  1  0.98710491  0.94492994  0.81875211  1
  O  O296  1  0.00328121  -0.01352060  0.13344773  1
  O  O297  1  0.01340588  -0.01032429  0.62370313  1
  O  O298  1  0.01119852  0.51532148  0.14172990  1
  O  O299  1  0.00980236  0.50659784  0.59317064  1
  O  O300  1  0.48046635  -0.01788620  0.08716497  1
  O  O301  1  0.48781941  -0.02669363  0.59723718  1
  O  O302  1  0.52803042  0.49368980  0.11882856  1
  O  O303  1  0.50115576  0.51242194  0.61649202  1
  O  O304  1  0.24504670  0.39029797  0.24650271  1
  O  O305  1  0.26361532  0.41502060  0.76045782  1
  O  O306  1  0.22835394  0.85098935  0.23851928  1
  O  O307  1  0.25478595  0.83473488  0.73319391  1
  O  O308  1  0.76208309  0.38054179  0.26270611  1
  O  O309  1  0.73827942  0.37675887  0.74924212  1
  O  O310  1  0.74026848  0.90309104  0.25095549  1
  O  O311  1  0.72407523  0.87324451  0.73327597  1
  O  O312  1  0.27978849  0.12246729  0.24735401  1
  O  O313  1  0.22754552  0.08811317  0.77748706  1
  O  O314  1  0.24334215  0.61677704  0.25302249  1
  O  O315  1  0.22644259  0.61801543  0.73150360  1
  O  O316  1  0.76382903  0.12135128  0.28824622  1
  O  O317  1  0.78973879  0.16754256  0.78772989  1
  O  O318  1  0.75232794  0.64042311  0.26494599  1
  O  O319  1  0.74377244  0.62703444  0.76530569  1
  O  O320  1  0.28924999  0.19612983  0.39589391  1
  O  O321  1  0.36829052  0.14856254  0.83861626  1
  O  O322  1  0.36603885  0.61342451  0.37056193  1
  O  O323  1  0.39229288  0.63651248  0.87814106  1
  O  O324  1  0.88545874  0.11609603  0.38062231  1
  O  O325  1  0.92471963  0.11481469  0.86688778  1
  O  O326  1  0.86092885  0.63393818  0.38367253  1
  O  O327  1  0.85671022  0.63897004  0.87912281  1
  O  O328  1  0.11528136  0.39170744  0.12632301  1
  O  O329  1  0.17101134  0.34291574  0.60726762  1
  O  O330  1  0.12295636  0.87839638  0.13387946  1
  O  O331  1  0.13207877  0.86727727  0.62008086  1
  O  O332  1  0.64055712  0.37858195  0.11622112  1
  O  O333  1  0.60418977  0.38322929  0.63798390  1
  O  O334  1  0.62483468  0.87010082  0.13278182  1
  O  O335  1  0.60390890  0.85186780  0.63169449  1
  O  O336  1  0.14366125  0.26655625  0.22273171  1
  O  O337  1  0.12463051  0.24213198  0.76192624  1
  O  O338  1  0.09800223  0.75930694  0.24386531  1
  O  O339  1  0.11624959  0.74176933  0.77393186  1
  O  O340  1  0.61330324  0.23233324  0.23811321  1
  O  O341  1  0.63347934  0.27171152  0.74990278  1
  O  O342  1  0.64295826  0.79108824  0.27962203  1
  O  O343  1  0.61720213  0.75372037  0.75959283  1
  O  O344  1  0.38577069  0.23962844  0.23190110  1
  O  O345  1  0.38712761  0.26943443  0.73537076  1
  O  O346  1  0.38008372  0.74267440  0.23408068  1
  O  O347  1  0.37230639  0.68198047  0.82437892  1
  O  O348  1  0.88221532  0.21933920  0.24908041  1
  O  O349  1  0.91895254  0.22870260  0.74050526  1
  O  O350  1  0.88279158  0.75699911  0.24909408  1
  O  O351  1  0.86259600  0.73661624  0.73587307  1
  O  O352  1  0.37879499  0.49725855  0.47371042  1
  O  O353  1  0.41161821  0.51809237  1.01414895  1
  O  O354  1  0.35597456  0.97877491  0.50991897  1
  O  O355  1  0.35512615  0.99784865  0.98687632  1
  O  O356  1  0.89886815  0.48917335  0.48472444  1
  O  O357  1  0.94236278  0.41335534  1.01769771  1
  O  O358  1  0.88847176  0.98198615  0.52196096  1
  O  O359  1  0.78852648  0.98159964  1.01174318  1
  O  O360  1  0.11935357  0.00731860  0.02277418  1
  O  O361  1  0.11710321  -0.01753471  0.51716241  1
  O  O362  1  0.12007911  0.51712588  0.01639492  1
  O  O363  1  0.13686741  0.50271488  0.48552059  1
  O  O364  1  0.62983012  0.06626825  -0.07809119  1
  O  O365  1  0.61546653  0.02917974  0.51725260  1
  O  O366  1  0.63053711  0.51195472  0.01445697  1
  O  O367  1  0.64175750  0.50859680  0.49347152  1
  O  O368  1  0.38110320  0.36900798  0.12373718  1
  O  O369  1  0.38872041  0.38823125  0.59672178  1
  O  O370  1  0.34729473  0.86085757  0.13378672  1
  O  O371  1  0.35224958  0.85961063  0.61078510  1
  O  O372  1  0.91913760  0.33367916  0.13749184  1
  O  O373  1  0.90009866  0.36085158  0.58238465  1
  O  O374  1  0.86215219  0.86845383  0.13465917  1
  O  O375  1  0.88150294  0.87714209  0.63751731  1
  O  O376  1  0.14798148  0.06976282  0.39706960  1
  O  O377  1  0.11342730  0.09841454  0.89166878  1
  O  O378  1  0.14713037  0.61362045  0.37407688  1
  O  O379  1  0.09744255  0.63818102  0.89754626  1
  O  O380  1  0.71191159  0.16413023  0.41525882  1
  O  O381  1  0.60450090  0.10950029  0.86628254  1
  O  O382  1  0.64579589  0.63273768  0.39029221  1
  O  O383  1  0.62838118  0.63909732  0.87840646  1
