# generated using pymatgen
data_VZnO4
_symmetry_space_group_name_H-M   'P 1'
_cell_length_a   16.92858619
_cell_length_b   16.86948759
_cell_length_c   16.92326785
_cell_angle_alpha   89.82809410
_cell_angle_beta   90.10705009
_cell_angle_gamma   89.93013363
_symmetry_Int_Tables_number   1
_chemical_formula_structural   VZnO4
_chemical_formula_sum   'V64 Zn64 O256'
_cell_volume   4832.85505069
_cell_formula_units_Z   64
loop_
 _symmetry_equiv_pos_site_id
 _symmetry_equiv_pos_as_xyz
  1  'x, y, z'
loop_
 _atom_site_type_symbol
 _atom_site_label
 _atom_site_symmetry_multiplicity
 _atom_site_fract_x
 _atom_site_fract_y
 _atom_site_fract_z
 _atom_site_occupancy
  V  V0  1  0.49687943  0.50762180  -0.01012204  1
  V  V1  1  0.50643540  0.62173980  0.13849689  1
  V  V2  1  0.49190329  0.12309043  0.12561417  1
  V  V3  1  0.61790452  0.47660066  0.12866729  1
  V  V4  1  0.48913383  0.49241437  0.49847025  1
  V  V5  1  0.39551897  0.26630123  0.61957367  1
  V  V6  1  0.37014221  0.00788904  0.87761453  1
  V  V7  1  0.24936803  0.62969641  0.35083277  1
  V  V8  1  0.36872487  0.74365719  0.13159721  1
  V  V9  1  0.14176945  -0.00511402  0.63278374  1
  V  V10  1  0.73439815  0.49248853  0.25793259  1
  V  V11  1  0.86294682  0.62068989  0.21867629  1
  V  V12  1  0.11907128  0.37773125  0.23257231  1
  V  V13  1  -0.00137700  -0.00827563  0.50681404  1
  V  V14  1  0.12158142  0.24773415  0.37628082  1
  V  V15  1  -0.00281851  0.00136803  0.03137447  1
  V  V16  1  0.12293349  0.13621952  0.49881342  1
  V  V17  1  0.62904113  0.73970755  0.88091194  1
  V  V18  1  0.49511345  0.88503305  0.38515996  1
  V  V19  1  0.50701513  0.75758613  0.25710552  1
  V  V20  1  -0.00841206  0.74106739  0.26869148  1
  V  V21  1  0.01757549  0.35535201  0.86920452  1
  V  V22  1  0.75959858  0.62544782  0.88252604  1
  V  V23  1  0.88439981  0.49052566  0.86674739  1
  V  V24  1  0.52499384  -0.01036652  0.01221059  1
  V  V25  1  -0.00857639  0.38092387  0.37404242  1
  V  V26  1  0.61875616  0.10610019  0.50909493  1
  V  V27  1  0.13091564  0.12379296  -0.01188321  1
  V  V28  1  0.24767694  -0.00113763  0.24762616  1
  V  V29  1  0.01238951  0.61079458  0.62445346  1
  V  V30  1  0.78918760  0.08039019  0.87585576  1
  V  V31  1  0.25955818  0.48990152  0.73323663  1
  V  V32  1  0.73851049  0.50920519  0.74605355  1
  V  V33  1  0.01094428  0.75582529  0.73849741  1
  V  V34  1  0.87829793  0.25376970  0.64666487  1
  V  V35  1  0.85028074  0.87424959  0.51280217  1
  V  V36  1  0.64328777  0.87143554  0.73819051  1
  V  V37  1  0.85532531  0.00520708  0.37396946  1
  V  V38  1  0.50818521  0.87149549  0.87098057  1
  V  V39  1  0.25047451  0.73765389  -0.00856163  1
  V  V40  1  0.50568565  0.38054786  0.85837665  1
  V  V41  1  -0.00205444  0.88152963  0.87832532  1
  V  V42  1  0.36919527  0.87781949  0.00694664  1
  V  V43  1  0.37376528  0.35840156  -0.00313830  1
  V  V44  1  0.86406521  0.74687997  0.63032475  1
  V  V45  1  -0.00209126  0.50323350  0.00851616  1
  V  V46  1  0.37110040  0.63268235  0.76008122  1
  V  V47  1  0.12527935  0.61449598  0.48780922  1
  V  V48  1  0.74065239  0.37932572  0.63346306  1
  V  V49  1  0.51756645  0.22308351  0.73906191  1
  V  V50  1  0.24681645  0.76032886  0.49856706  1
  V  V51  1  0.86826317  0.51475634  0.38416516  1
  V  V52  1  0.84441134  0.26142931  0.12461816  1
  V  V53  1  0.63524050  0.62330828  0.50511037  1
  V  V54  1  0.37105253  0.49402352  0.35971454  1
  V  V55  1  0.14163288  0.51953551  0.12004146  1
  V  V56  1  0.13672816  0.74702447  0.86324694  1
  V  V57  1  -0.00122664  0.13783612  0.63562150  1
  V  V58  1  0.48321785  0.63941000  0.61727229  1
  V  V59  1  0.86951499  0.36539424  0.49988615  1
  V  V60  1  0.63558536  0.25311283  0.88773712  1
  V  V61  1  -0.01782440  0.23239563  0.24443933  1
  V  V62  1  0.64770579  0.74750208  0.37980569  1
  V  V63  1  0.60990591  0.23198300  0.38079064  1
  Zn  Zn64  1  0.16879910  0.18507507  0.19300205  1
  Zn  Zn65  1  0.17353070  0.23509526  0.66254630  1
  Zn  Zn66  1  0.16674029  0.71206816  0.18259883  1
  Zn  Zn67  1  0.19633958  0.68177522  0.67958137  1
  Zn  Zn68  1  0.64175671  0.25794128  0.17448593  1
  Zn  Zn69  1  0.70684595  0.19171531  0.70383456  1
  Zn  Zn70  1  0.68577604  0.68284639  0.19062882  1
  Zn  Zn71  1  0.67315775  0.68706639  0.69224785  1
  Zn  Zn72  1  0.29731729  0.32249184  0.31851269  1
  Zn  Zn73  1  0.33967388  0.32128439  0.79622832  1
  Zn  Zn74  1  0.31701404  0.80960875  0.32526616  1
  Zn  Zn75  1  0.33257920  0.80811298  0.81700583  1
  Zn  Zn76  1  0.80501282  0.31157994  0.30930770  1
  Zn  Zn77  1  0.81196822  0.31794528  0.81626797  1
  Zn  Zn78  1  0.84704007  0.79928947  0.33332781  1
  Zn  Zn79  1  0.81869652  0.80795767  0.81167275  1
  Zn  Zn80  1  0.17720550  0.45187868  0.41824830  1
  Zn  Zn81  1  0.18156864  0.42731811  0.94037662  1
  Zn  Zn82  1  0.16400378  0.94010173  0.42684966  1
  Zn  Zn83  1  0.18240000  0.93913246  0.93462006  1
  Zn  Zn84  1  0.68653811  0.44240948  0.44820796  1
  Zn  Zn85  1  0.68526374  0.43571635  0.93567990  1
  Zn  Zn86  1  0.67742879  0.93099471  0.43082513  1
  Zn  Zn87  1  0.70168040  0.92132708  0.94336836  1
  Zn  Zn88  1  0.33771975  0.15464429  0.00664750  1
  Zn  Zn89  1  0.31164919  0.07812337  0.54851518  1
  Zn  Zn90  1  0.31867462  0.56429198  0.05894655  1
  Zn  Zn91  1  0.30658822  0.56267733  0.55442760  1
  Zn  Zn92  1  0.81460856  0.07653871  0.05800266  1
  Zn  Zn93  1  0.83143108  0.08593018  0.53507984  1
  Zn  Zn94  1  0.79833202  0.52498755  0.05086743  1
  Zn  Zn95  1  0.82364154  0.56318779  0.56865917  1
  Zn  Zn96  1  0.41105453  0.44214139  0.17096919  1
  Zn  Zn97  1  0.43948206  0.45489862  0.68040219  1
  Zn  Zn98  1  0.43897969  0.93487725  0.18789074  1
  Zn  Zn99  1  0.49536405  1.00148701  0.73111923  1
  Zn  Zn100  1  0.92947220  0.43738402  0.19029761  1
  Zn  Zn101  1  0.93985877  0.43456610  0.69723647  1
  Zn  Zn102  1  0.94254105  0.93667701  0.20480014  1
  Zn  Zn103  1  0.95534482  0.92948266  0.67654893  1
  Zn  Zn104  1  0.04943041  0.05214502  0.32207984  1
  Zn  Zn105  1  0.06633708  0.06311918  0.80989511  1
  Zn  Zn106  1  0.05564305  0.56674243  0.29796361  1
  Zn  Zn107  1  0.06388739  0.56989324  0.81368619  1
  Zn  Zn108  1  0.57521791  0.06667535  0.30682421  1
  Zn  Zn109  1  0.63161678  0.07023913  0.80449563  1
  Zn  Zn110  1  0.55957154  0.56658004  0.32324975  1
  Zn  Zn111  1  0.55860886  0.56797683  0.79959757  1
  Zn  Zn112  1  0.44595357  0.16627349  0.45758824  1
  Zn  Zn113  1  0.49108845  0.15985189  0.91637126  1
  Zn  Zn114  1  0.42480148  0.68263437  0.43774394  1
  Zn  Zn115  1  0.43907833  0.68617316  0.93940080  1
  Zn  Zn116  1  0.93782185  0.18433269  0.43640873  1
  Zn  Zn117  1  0.93968450  0.17758989  0.94714509  1
  Zn  Zn118  1  0.93999503  0.69121721  0.45544301  1
  Zn  Zn119  1  0.95463098  0.67556302  0.92222654  1
  Zn  Zn120  1  0.04125924  0.30946907  0.05314658  1
  Zn  Zn121  1  0.05493597  0.32739758  0.56141929  1
  Zn  Zn122  1  0.08012685  0.83069934  0.05178638  1
  Zn  Zn123  1  0.08853474  0.80911753  0.55819776  1
  Zn  Zn124  1  0.54186720  0.31021820  0.05256954  1
  Zn  Zn125  1  0.56961459  0.30835347  0.55149233  1
  Zn  Zn126  1  0.55015405  0.78788947  0.04653905  1
  Zn  Zn127  1  0.56588002  0.81038092  0.55808377  1
  O  O128  1  0.12651429  0.12357048  0.11445265  1
  O  O129  1  0.11150985  0.14480678  0.61479101  1
  O  O130  1  0.12523921  0.61708909  0.12460012  1
  O  O131  1  0.11698179  0.62174259  0.61438015  1
  O  O132  1  0.54418751  0.21720783  0.11987808  1
  O  O133  1  0.67652253  0.11486283  0.61304891  1
  O  O134  1  0.60845954  0.62081798  0.12711688  1
  O  O135  1  0.61143723  0.63193721  0.60986499  1
  O  O136  1  0.36299529  0.39201472  0.37339376  1
  O  O137  1  0.39898574  0.37658680  0.87785672  1
  O  O138  1  0.39430492  0.87824444  0.36824015  1
  O  O139  1  0.39071285  0.87630924  0.88859472  1
  O  O140  1  0.87526779  0.37760752  0.38463768  1
  O  O141  1  0.87772033  0.38906906  0.87581542  1
  O  O142  1  0.86977470  0.89262811  0.40550355  1
  O  O143  1  0.89973694  0.85400447  0.87657062  1
  O  O144  1  0.24018709  0.00165347  0.35383350  1
  O  O145  1  0.27150270  -0.00898800  0.88028460  1
  O  O146  1  0.25889137  0.51231614  0.36977767  1
  O  O147  1  0.21181100  0.50325845  0.84566598  1
  O  O148  1  0.75565964  -0.00998499  0.36903374  1
  O  O149  1  0.77411386  -0.02275047  0.87855364  1
  O  O150  1  0.75747351  0.49747200  0.36831260  1
  O  O151  1  0.75700247  0.50757682  0.86193018  1
  O  O152  1  0.24161769  0.50778370  0.12131276  1
  O  O153  1  0.24429665  0.50477485  0.63399781  1
  O  O154  1  0.25414612  0.98799515  0.14470450  1
  O  O155  1  0.23784933  1.01553867  0.60763918  1
  O  O156  1  0.72014675  0.49943071  0.13952713  1
  O  O157  1  0.76185977  0.49291326  0.63815830  1
  O  O158  1  0.73500133  1.01154409  0.12798207  1
  O  O159  1  0.79745508  1.00836425  0.67562547  1
  O  O160  1  -0.00108964  0.36871889  0.26115673  1
  O  O161  1  0.00263090  0.37375053  0.76807647  1
  O  O162  1  -0.02482098  0.82947595  0.21931156  1
  O  O163  1  0.00621978  0.86123865  0.75461591  1
  O  O164  1  0.48840738  0.35158101  0.25366591  1
  O  O165  1  0.50446999  0.40095354  0.76080227  1
  O  O166  1  0.50418340  0.86012062  0.24854692  1
  O  O167  1  0.49760400  0.87524621  0.77233563  1
  O  O168  1  0.50492403  0.10557024  0.22507465  1
  O  O169  1  0.51984303  0.12151704  0.73902769  1
  O  O170  1  0.49870846  0.63402244  0.24183754  1
  O  O171  1  0.48492827  0.61522828  0.72809819  1
  O  O172  1  0.99952112  0.13380464  0.25943760  1
  O  O173  1  1.00349438  0.12760309  0.73363761  1
  O  O174  1  0.97320395  0.62901191  0.24510239  1
  O  O175  1  1.01221097  0.63790599  0.73355367  1
  O  O176  1  0.38579580  0.25741083  -0.01710833  1
  O  O177  1  0.39863676  0.25248157  0.52057682  1
  O  O178  1  0.37256247  0.75636747  0.00539027  1
  O  O179  1  0.34864247  0.75135345  0.48877591  1
  O  O180  1  0.87567378  0.23791329  0.02535736  1
  O  O181  1  0.86998739  0.26393567  0.49993311  1
  O  O182  1  0.88808924  0.74039484  0.01314237  1
  O  O183  1  0.87376251  0.76631927  0.51447862  1
  O  O184  1  0.10186781  0.24701698  0.48394950  1
  O  O185  1  0.10817115  0.22378394  1.01878741  1
  O  O186  1  0.12815860  0.73030960  0.48738400  1
  O  O187  1  0.14717411  0.75160170  0.99013371  1
  O  O188  1  0.62468964  0.22902754  0.49367011  1
  O  O189  1  0.62598462  0.26293949  0.98668370  1
  O  O190  1  0.63038870  0.73807992  0.48862514  1
  O  O191  1  0.63123682  0.74622554  0.98300161  1
  O  O192  1  0.45733533  0.28550498  0.25816392  1
  O  O193  1  0.50892515  0.25266033  0.63526957  1
  O  O194  1  0.49836631  0.73961959  0.13490228  1
  O  O195  1  0.49585749  0.73875771  0.61702779  1
  O  O196  1  0.99467298  0.25194703  0.14663704  1
  O  O197  1  0.98852202  0.24853973  0.62352758  1
  O  O198  1  0.92622650  0.76875660  0.06940195  1
  O  O199  1  1.01135424  0.75157705  0.63376782  1
  O  O200  1  -0.00690620  0.25997158  0.36451032  1
  O  O201  1  -0.01250685  0.26038562  0.88411707  1
  O  O202  1  -0.04149970  0.75922807  0.36559777  1
  O  O203  1  0.01508045  0.75181256  0.85997679  1
  O  O204  1  0.50784130  0.23392918  0.38779570  1
  O  O205  1  0.51296106  0.26548374  0.85422807  1
  O  O206  1  0.48955931  0.75086979  0.35906572  1
  O  O207  1  0.51292387  0.76035029  0.88570761  1
  O  O208  1  0.22059643  0.14105084  0.50139658  1
  O  O209  1  0.23256379  0.12473087  0.99646207  1
  O  O210  1  0.23607737  0.63187083  0.49034585  1
  O  O211  1  0.26488954  0.63885730  0.98835566  1
  O  O212  1  0.72767988  0.13213643  0.54732427  1
  O  O213  1  0.75337581  0.10993090  0.96623237  1
  O  O214  1  0.73381158  0.61121847  0.51084828  1
  O  O215  1  0.74588352  0.60973007  0.97906553  1
  O  O216  1  0.27674033  0.38170691  -0.01816177  1
  O  O217  1  0.23828266  0.36316590  0.49629014  1
  O  O218  1  0.26625995  0.86488452  -0.00337171  1
  O  O219  1  0.22290712  0.85890079  0.47402459  1
  O  O220  1  0.76224403  0.42273907  0.01268881  1
  O  O221  1  0.76457087  0.38728830  0.51930046  1
  O  O222  1  0.75861452  0.85366223  0.02928921  1
  O  O223  1  0.75259925  0.88015090  0.51415540  1
  O  O224  1  0.10566065  0.48874038  0.22536995  1
  O  O225  1  0.15398780  0.49836185  0.78382163  1
  O  O226  1  0.14501976  1.00061836  0.23365541  1
  O  O227  1  0.13454712  1.01593912  0.73116244  1
  O  O228  1  0.62728713  0.50008898  0.25292862  1
  O  O229  1  0.63948681  0.50121106  0.74978943  1
  O  O230  1  0.64955382  1.00513623  0.22781651  1
  O  O231  1  0.60866041  0.97687287  0.74818647  1
  O  O232  1  0.35361779  -0.00479348  0.24734791  1
  O  O233  1  0.39281209  0.00703223  0.77889005  1
  O  O234  1  0.37909816  0.49905414  0.25832268  1
  O  O235  1  0.36468897  0.51227005  0.74623707  1
  O  O236  1  0.88815450  0.00512789  0.27915472  1
  O  O237  1  0.85553819  0.00080549  0.72042302  1
  O  O238  1  0.86248425  0.50970809  0.26023914  1
  O  O239  1  0.86915888  0.50243549  0.76263241  1
  O  O240  1  0.10376434  0.37085649  0.37330584  1
  O  O241  1  0.11908069  0.35492395  0.87858584  1
  O  O242  1  0.08438413  0.94523576  0.34605499  1
  O  O243  1  0.11457008  0.85941028  0.87890608  1
  O  O244  1  0.65485185  0.34345945  0.38458234  1
  O  O245  1  0.61546704  0.37074835  0.87525193  1
  O  O246  1  0.61470510  0.84982482  0.37745301  1
  O  O247  1  0.62165607  0.86431923  0.87257921  1
  O  O248  1  0.39530249  0.14061533  0.10853456  1
  O  O249  1  0.34025864  0.15796028  0.63896272  1
  O  O250  1  0.39077799  0.63685485  0.11973477  1
  O  O251  1  0.38054617  0.62738174  0.61963917  1
  O  O252  1  0.86865829  0.15073153  0.12362391  1
  O  O253  1  0.88413708  0.14571083  0.62228849  1
  O  O254  1  0.85686334  0.60432265  0.12088455  1
  O  O255  1  0.89772564  0.64256523  0.61021876  1
  O  O256  1  0.26785636  0.24676002  0.16637353  1
  O  O257  1  0.28937367  0.22577355  0.63800826  1
  O  O258  1  0.26658115  0.73932201  0.11120030  1
  O  O259  1  0.23340450  0.75483788  0.60116533  1
  O  O260  1  0.74445892  0.25820536  0.13215027  1
  O  O261  1  0.76776524  0.26855312  0.63785466  1
  O  O262  1  0.74750822  0.75653407  0.11831702  1
  O  O263  1  0.76715444  0.73588196  0.63822654  1
  O  O264  1  0.22106340  0.25368959  0.37162758  1
  O  O265  1  0.25496966  0.22029005  0.81937765  1
  O  O266  1  0.24564731  0.73467309  0.37382159  1
  O  O267  1  0.24660051  0.75958157  0.87873700  1
  O  O268  1  0.72031191  0.28824241  0.38828866  1
  O  O269  1  0.73490379  0.25757001  0.86976918  1
  O  O270  1  0.74565180  0.75568245  0.36941371  1
  O  O271  1  0.74467992  0.73550073  0.87030805  1
  O  O272  1  0.00799715  0.10468365  0.00778869  1
  O  O273  1  0.00034868  0.12080892  0.51578002  1
  O  O274  1  0.01123104  0.60371112  -0.01130763  1
  O  O275  1  0.01427206  0.62601681  0.51021487  1
  O  O276  1  0.51825057  0.09807460  0.01417246  1
  O  O277  1  0.52275548  0.11595530  0.53588137  1
  O  O278  1  0.50001281  0.61222925  0.00961271  1
  O  O279  1  0.50006250  0.62372521  0.50454882  1
  O  O280  1  0.51175798  0.39422165  0.49958905  1
  O  O281  1  0.49327812  0.38649129  0.98492979  1
  O  O282  1  0.50385389  0.87046784  0.48482498  1
  O  O283  1  0.49531377  0.87557235  1.00156549  1
  O  O284  1  0.98382331  0.37636983  0.48589073  1
  O  O285  1  1.00378573  0.39156869  0.98030445  1
  O  O286  1  1.01271062  0.89177747  0.51002188  1
  O  O287  1  1.00867549  0.89043815  0.98977829  1
  O  O288  1  0.48024013  0.51101617  0.38267576  1
  O  O289  1  0.51422310  0.49933779  0.88649993  1
  O  O290  1  0.52184367  0.98017948  0.36158801  1
  O  O291  1  0.50151613  0.98165878  0.89783659  1
  O  O292  1  0.98055108  0.48839215  0.36340434  1
  O  O293  1  0.99258022  0.49717741  0.86987719  1
  O  O294  1  0.97414496  1.01402425  0.40819477  1
  O  O295  1  1.00079840  0.97968031  0.85673780  1
  O  O296  1  0.00998954  -0.01399252  0.13052860  1
  O  O297  1  0.01175815  0.01640612  0.62244602  1
  O  O298  1  -0.00856324  0.49551231  0.10988931  1
  O  O299  1  -0.00446157  0.51279631  0.63255532  1
  O  O300  1  0.49943969  -0.00061036  0.11625306  1
  O  O301  1  0.47514210  -0.02591528  0.61015922  1
  O  O302  1  0.50384886  0.50906739  0.13130268  1
  O  O303  1  0.49739356  0.51465741  0.60303202  1
  O  O304  1  0.21597975  0.37793075  0.25677514  1
  O  O305  1  0.26605934  0.38793917  0.74426652  1
  O  O306  1  0.24830798  0.89310586  0.26437357  1
  O  O307  1  0.29131436  0.89137983  0.72198644  1
  O  O308  1  0.75032590  0.39400527  0.24949085  1
  O  O309  1  0.75536262  0.38889236  0.73979690  1
  O  O310  1  0.78308503  0.87332862  0.23502051  1
  O  O311  1  0.74269176  0.87158727  0.75222777  1
  O  O312  1  0.25111695  0.10405365  0.24753712  1
  O  O313  1  0.18738906  0.22521843  0.78757916  1
  O  O314  1  0.23579390  0.63881475  0.25283508  1
  O  O315  1  0.26434579  0.61745317  0.74471473  1
  O  O316  1  0.70758437  0.04579934  0.19384250  1
  O  O317  1  0.73775353  0.11456031  0.78598572  1
  O  O318  1  0.75564212  0.60902411  0.24550052  1
  O  O319  1  0.74646349  0.61433073  0.75364425  1
  O  O320  1  0.37728396  0.07934502  0.45967545  1
  O  O321  1  0.38784649  0.10855460  0.90611888  1
  O  O322  1  0.35575330  0.61818020  0.36727465  1
  O  O323  1  0.38611558  0.62635594  0.85990088  1
  O  O324  1  0.85276591  0.10560684  0.41911274  1
  O  O325  1  0.88573947  0.10881505  0.87139883  1
  O  O326  1  0.87476841  0.61326669  0.38962426  1
  O  O327  1  0.86409913  0.62192744  0.87314578  1
  O  O328  1  0.11694123  0.36442246  0.13382683  1
  O  O329  1  0.23672517  0.37044058  0.56933081  1
  O  O330  1  0.12862028  0.81306725  0.14607738  1
  O  O331  1  0.12905125  0.89535818  0.62399570  1
  O  O332  1  0.60477477  0.37626249  0.13889733  1
  O  O333  1  0.64391027  0.37297373  0.61902309  1
  O  O334  1  0.71252461  0.82052194  0.08476906  1
  O  O335  1  0.62715738  0.85974997  0.64009202  1
  O  O336  1  0.10600847  0.25677401  0.26102043  1
  O  O337  1  0.14018060  0.33754010  0.63114181  1
  O  O338  1  0.09019938  0.72700472  0.27309277  1
  O  O339  1  0.12581538  0.75080667  0.75412903  1
  O  O340  1  0.62641012  0.22356218  0.27951864  1
  O  O341  1  0.61904569  0.25044248  0.75133597  1
  O  O342  1  0.61405556  0.74209472  0.26340560  1
  O  O343  1  0.62441761  0.76299818  0.76507260  1
  O  O344  1  0.31906656  0.24681529  0.22255850  1
  O  O345  1  0.41264323  0.25065037  0.74243865  1
  O  O346  1  0.38052894  0.75651676  0.23465173  1
  O  O347  1  0.37150617  0.73409985  0.74408321  1
  O  O348  1  0.87379740  0.24606273  0.24620148  1
  O  O349  1  0.87974977  0.25487535  0.74481011  1
  O  O350  1  0.86203152  0.72328611  0.24015496  1
  O  O351  1  0.89542214  0.75012342  0.73616254  1
  O  O352  1  0.38219141  0.50141298  0.48970136  1
  O  O353  1  0.39429211  0.49430590  1.00562856  1
  O  O354  1  0.40892037  0.97083695  0.57761024  1
  O  O355  1  0.38444884  0.97952213  0.99918447  1
  O  O356  1  0.87127932  0.49124222  0.48706857  1
  O  O357  1  0.89059958  0.50714720  0.97979444  1
  O  O358  1  0.88491373  0.98245298  0.52940588  1
  O  O359  1  0.89529611  0.99848897  1.02340401  1
  O  O360  1  0.11544834  0.00720406  -0.00169171  1
  O  O361  1  0.11310418  0.01894890  0.50625725  1
  O  O362  1  0.11888775  0.49016686  0.01826431  1
  O  O363  1  0.12761602  0.51197248  0.50119259  1
  O  O364  1  0.62270538  -0.02832481  0.01124331  1
  O  O365  1  0.63093329  0.00569958  0.50131511  1
  O  O366  1  0.60627322  0.48823296  0.02266640  1
  O  O367  1  0.60745399  0.51807457  0.48154063  1
  O  O368  1  0.39091926  0.36195690  0.10061833  1
  O  O369  1  0.38572553  0.36570748  0.62937579  1
  O  O370  1  0.38397214  0.85800010  0.11399495  1
  O  O371  1  0.31455658  0.87746505  0.65431493  1
  O  O372  1  0.87182480  0.36002494  0.13255134  1
  O  O373  1  0.88223426  0.36682737  0.61586032  1
  O  O374  1  0.81981476  0.90103631  0.17652819  1
  O  O375  1  0.87874337  0.85962953  0.62291089  1
  O  O376  1  0.10739928  0.13805551  0.38537187  1
  O  O377  1  0.11312344  0.12614093  0.88811646  1
  O  O378  1  0.13149354  0.60674431  0.37779531  1
  O  O379  1  0.12639631  0.64724791  0.87337755  1
  O  O380  1  0.62656869  0.12218133  0.39607434  1
  O  O381  1  0.60339131  0.14878427  0.88080206  1
  O  O382  1  0.62371715  0.64002294  0.38510003  1
  O  O383  1  0.63007632  0.63600077  0.86430329  1
