# generated using pymatgen
data_VZnO4
_symmetry_space_group_name_H-M   'P 1'
_cell_length_a   17.33700768
_cell_length_b   17.10806221
_cell_length_c   17.07903358
_cell_angle_alpha   90.16873251
_cell_angle_beta   89.31578153
_cell_angle_gamma   90.36525486
_symmetry_Int_Tables_number   1
_chemical_formula_structural   VZnO4
_chemical_formula_sum   'V64 Zn64 O256'
_cell_volume   5065.20089456
_cell_formula_units_Z   64
loop_
 _symmetry_equiv_pos_site_id
 _symmetry_equiv_pos_as_xyz
  1  'x, y, z'
loop_
 _atom_site_type_symbol
 _atom_site_label
 _atom_site_symmetry_multiplicity
 _atom_site_fract_x
 _atom_site_fract_y
 _atom_site_fract_z
 _atom_site_occupancy
  V  V0  1  0.35989208  0.02125795  0.33085161  1
  V  V1  1  0.09645912  0.86034433  0.75748065  1
  V  V2  1  0.50089377  0.88907791  0.38279614  1
  V  V3  1  -0.00322313  0.87853719  0.38200812  1
  V  V4  1  0.88145826  0.50414075  0.89350739  1
  V  V5  1  0.46837064  0.35688768  0.36222084  1
  V  V6  1  0.66187259  0.86909276  0.17526430  1
  V  V7  1  0.26055146  0.63676303  0.89091085  1
  V  V8  1  0.73823376  0.87550810  0.62936375  1
  V  V9  1  0.88670614  0.01201065  0.88597719  1
  V  V10  1  0.39125357  0.39290181  0.03880734  1
  V  V11  1  0.88309438  0.88220229  0.50919299  1
  V  V12  1  0.87792066  0.75585792  0.63283452  1
  V  V13  1  0.22309744  0.38898559  0.59917094  1
  V  V14  1  0.86437376  0.37648772  0.51687815  1
  V  V15  1  0.72116390  0.19774332  0.50483257  1
  V  V16  1  0.46975196  -0.03271567  0.01070560  1
  V  V17  1  0.87964731  0.63159579  0.75645540  1
  V  V18  1  0.12359600  0.75022332  0.37783266  1
  V  V19  1  0.01352062  0.50183324  0.00750217  1
  V  V20  1  0.51046359  0.65396032  0.62197460  1
  V  V21  1  0.63790786  0.49209360  0.13962170  1
  V  V22  1  0.50250149  0.01939575  0.55078536  1
  V  V23  1  0.10913875  0.37769452  0.74345910  1
  V  V24  1  0.87155890  0.75452119  0.12540841  1
  V  V25  1  0.75736534  0.00281141  0.77273718  1
  V  V26  1  0.13287588  0.88009127  0.24936526  1
  V  V27  1  0.51888888  0.49533824  0.50568293  1
  V  V28  1  0.63753804  0.34391246  0.26418019  1
  V  V29  1  0.89089110  0.86796709  -0.01108149  1
  V  V30  1  0.62894067  0.12871447  0.00008675  1
  V  V31  1  0.11739896  0.62595879  0.49568249  1
  V  V32  1  0.74403907  0.62335978  0.88272145  1
  V  V33  1  0.64107132  0.86541780  0.79523501  1
  V  V34  1  0.23342735  0.87637092  0.62584426  1
  V  V35  1  -0.00778384  0.50542804  0.49787312  1
  V  V36  1  0.23070355  0.49090167  0.25162691  1
  V  V37  1  0.11466454  0.73802859  0.88890019  1
  V  V38  1  0.36567712  0.25334028  0.61779248  1
  V  V39  1  0.74428666  0.74416954  -0.00064391  1
  V  V40  1  -0.00054247  0.62806239  0.63193138  1
  V  V41  1  -0.00160771  0.10255572  0.13268002  1
  V  V42  1  0.13497861  -0.00801960  0.11272701  1
  V  V43  1  0.86772022  -0.00328450  0.36763488  1
  V  V44  1  0.62511650  0.26321145  0.86847000  1
  V  V45  1  -0.00181214  0.74862378  0.25301357  1
  V  V46  1  0.23300367  0.52085653  0.73815054  1
  V  V47  1  0.75800376  0.24465929  -0.00703620  1
  V  V48  1  0.00998270  0.62176758  0.12532612  1
  V  V49  1  0.77091543  0.36621394  0.14185734  1
  V  V50  1  0.50438023  0.13466626  0.12912712  1
  V  V51  1  -0.02182662  0.12262981  0.64159983  1
  V  V52  1  -0.01545246  0.36775562  0.36069482  1
  V  V53  1  0.22630309  0.24060800  0.49666470  1
  V  V54  1  0.86323415  0.50922347  0.37201210  1
  V  V55  1  0.75252427  0.49629741  0.73354779  1
  V  V56  1  0.47940075  0.79248191  0.79178794  1
  V  V57  1  0.74687866  0.74704828  0.48820185  1
  V  V58  1  0.85974616  0.62973993  0.25576378  1
  V  V59  1  0.09396045  0.11335975  0.49561398  1
  V  V60  1  0.36330414  0.90694054  0.50876109  1
  V  V61  1  0.88485871  0.36705674  0.00238502  1
  V  V62  1  0.25862935  0.73826216  0.49777627  1
  V  V63  1  0.10019588  0.24202891  0.36383185  1
  Zn  Zn64  1  0.16363074  0.18882586  0.17839385  1
  Zn  Zn65  1  0.12264781  0.21801358  0.66008766  1
  Zn  Zn66  1  0.18469867  0.68500682  0.19354586  1
  Zn  Zn67  1  0.18195526  0.69380653  0.68194016  1
  Zn  Zn68  1  0.72392456  0.17916895  0.17245125  1
  Zn  Zn69  1  0.72004200  0.19601376  0.70395451  1
  Zn  Zn70  1  0.66024838  0.67733263  0.20639134  1
  Zn  Zn71  1  0.69363115  0.69248774  0.69885143  1
  Zn  Zn72  1  0.28132661  0.30359838  0.31776200  1
  Zn  Zn73  1  0.32669185  0.36813082  0.75757412  1
  Zn  Zn74  1  0.29647186  0.85079482  0.34310180  1
  Zn  Zn75  1  0.28478881  0.82553747  0.82495681  1
  Zn  Zn76  1  0.78641001  0.31510095  0.35467701  1
  Zn  Zn77  1  0.77618750  0.34516471  0.83358597  1
  Zn  Zn78  1  0.76688113  0.86489110  0.33481660  1
  Zn  Zn79  1  0.81635747  0.81006986  0.81870296  1
  Zn  Zn80  1  0.15481045  0.43058210  0.43489394  1
  Zn  Zn81  1  0.20074369  0.36035410  0.90336703  1
  Zn  Zn82  1  0.18952764  0.94434495  0.43537406  1
  Zn  Zn83  1  0.06545477  0.93225782  0.93222331  1
  Zn  Zn84  1  0.68779467  0.43873814  0.44071896  1
  Zn  Zn85  1  0.69722805  0.43981231  0.95236007  1
  Zn  Zn86  1  0.66720738  1.01144840  0.43483213  1
  Zn  Zn87  1  0.70729924  0.93431533  0.97347416  1
  Zn  Zn88  1  0.33950760  0.02986340  0.12454473  1
  Zn  Zn89  1  0.27840477  0.07566548  0.57403117  1
  Zn  Zn90  1  0.34846027  0.61477233  0.07337669  1
  Zn  Zn91  1  0.36196122  0.49619146  0.60729506  1
  Zn  Zn92  1  0.80933461  0.04949822  0.07497009  1
  Zn  Zn93  1  0.80586166  0.05343090  0.57256940  1
  Zn  Zn94  1  0.78835673  0.57411257  0.08823070  1
  Zn  Zn95  1  0.81390610  0.57286798  0.55929673  1
  Zn  Zn96  1  0.44237678  0.49067626  0.20685565  1
  Zn  Zn97  1  0.40075080  0.57018867  0.76476133  1
  Zn  Zn98  1  0.49233652  0.97178766  0.21177267  1
  Zn  Zn99  1  0.40873654  0.92961506  0.70220102  1
  Zn  Zn100  1  0.92867616  0.44614895  0.18551327  1
  Zn  Zn101  1  0.93308245  0.45215639  0.69228671  1
  Zn  Zn102  1  0.93852373  0.93198098  0.19156588  1
  Zn  Zn103  1  0.93893348  0.94653938  0.69796269  1
  Zn  Zn104  1  0.04658320  0.06127267  0.30462825  1
  Zn  Zn105  1  0.11148439  0.00494163  0.65297023  1
  Zn  Zn106  1  0.04666606  0.56699828  0.31886917  1
  Zn  Zn107  1  0.09921524  0.52986814  0.85093715  1
  Zn  Zn108  1  0.64358149  0.04561235  0.20117231  1
  Zn  Zn109  1  0.59149904  0.03715858  0.86722623  1
  Zn  Zn110  1  0.57686426  0.51253374  0.32414496  1
  Zn  Zn111  1  0.58196580  0.57448427  0.77746599  1
  Zn  Zn112  1  0.41097535  0.17110641  0.43542522  1
  Zn  Zn113  1  0.45881950  0.21360988  0.94920774  1
  Zn  Zn114  1  0.46733846  0.70305818  0.46549560  1
  Zn  Zn115  1  0.46014582  0.64471478  0.90152532  1
  Zn  Zn116  1  0.91028317  0.18964214  0.44542454  1
  Zn  Zn117  1  0.93917690  0.16590278  0.98861568  1
  Zn  Zn118  1  0.92971109  0.69537106  0.44175484  1
  Zn  Zn119  1  0.94103836  0.67998040  0.94201447  1
  Zn  Zn120  1  0.11150294  0.24687516  0.03017527  1
  Zn  Zn121  1  0.03510652  0.30784109  0.55410281  1
  Zn  Zn122  1  0.06185486  0.80840101  0.06954504  1
  Zn  Zn123  1  0.05780050  0.80976281  0.56399671  1
  Zn  Zn124  1  0.58287938  0.30651657  0.08076617  1
  Zn  Zn125  1  0.53183134  0.27810248  0.49647745  1
  Zn  Zn126  1  0.56152155  0.81011713  -0.03190062  1
  Zn  Zn127  1  0.56547090  0.82692621  0.53755639  1
  O  O128  1  0.11363605  0.09366428  0.14066442  1
  O  O129  1  0.10742390  0.11384276  0.60807059  1
  O  O130  1  0.10680999  0.63282618  0.13001724  1
  O  O131  1  0.10254039  0.63870447  0.60764037  1
  O  O132  1  0.62957333  0.13585901  0.10417298  1
  O  O133  1  0.50423335  0.15815514  0.71694896  1
  O  O134  1  0.67999045  0.58851167  0.14002725  1
  O  O135  1  0.59872226  0.63415103  0.67340548  1
  O  O136  1  0.37090188  0.35322852  0.35026094  1
  O  O137  1  0.38333343  0.41805271  0.94006393  1
  O  O138  1  0.38149825  0.85670716  0.41569519  1
  O  O139  1  0.34052177  0.98291087  0.85248715  1
  O  O140  1  0.87625695  0.39154746  0.38733762  1
  O  O141  1  0.87203139  0.39827967  0.88818350  1
  O  O142  1  0.88504037  0.87734324  0.39077551  1
  O  O143  1  0.89033865  0.86047746  0.88879524  1
  O  O144  1  0.27433195  -0.03110203  0.36138628  1
  O  O145  1  0.25006795  0.12453203  0.94896875  1
  O  O146  1  0.22409494  0.48261537  0.35635913  1
  O  O147  1  0.24848102  0.53380962  0.83993245  1
  O  O148  1  0.76683982  -0.02883780  0.38360733  1
  O  O149  1  0.77006772  -0.00943157  0.87765235  1
  O  O150  1  0.76828067  0.50688331  0.38020370  1
  O  O151  1  0.76655104  0.51394676  0.88455831  1
  O  O152  1  0.22865646  0.49589891  0.14992161  1
  O  O153  1  0.24168419  0.48787993  0.59244843  1
  O  O154  1  0.23100255  0.99959947  0.12763484  1
  O  O155  1  0.22412046  0.98091105  0.61683535  1
  O  O156  1  0.76564719  0.46879084  0.13110956  1
  O  O157  1  0.75363230  0.51989967  0.63688000  1
  O  O158  1  0.74749256  1.06608732  0.16479748  1
  O  O159  1  0.76437309  0.97679979  0.65216615  1
  O  O160  1  -0.02277948  0.38027823  0.26347425  1
  O  O161  1  0.01159343  0.39391806  0.73777631  1
  O  O162  1  0.00569029  0.85971055  0.25903299  1
  O  O163  1  -0.00015952  0.86113025  0.74551086  1
  O  O164  1  0.53825439  0.33478404  0.27914514  1
  O  O165  1  0.52429867  0.38270003  0.73207958  1
  O  O166  1  0.48323868  0.87130558  0.28760497  1
  O  O167  1  0.54053627  0.87370972  0.76380999  1
  O  O168  1  0.53485399  0.08849197  0.21766830  1
  O  O169  1  0.45998059  0.14352186  0.77127085  1
  O  O170  1  0.51394885  0.67132682  0.30213509  1
  O  O171  1  0.48341091  0.71922483  0.72805904  1
  O  O172  1  0.98720131  0.12454947  0.22935192  1
  O  O173  1  0.98432720  0.12049423  0.73785253  1
  O  O174  1  0.99424472  0.63322094  0.24275486  1
  O  O175  1  0.99108920  0.62150591  0.73241980  1
  O  O176  1  0.39818883  0.28946865  0.01678587  1
  O  O177  1  0.32627353  0.24082870  0.48918156  1
  O  O178  1  0.43675927  0.66254222  0.01559684  1
  O  O179  1  0.35221654  0.71744319  0.49026815  1
  O  O180  1  0.88000445  0.26511239  -0.01124500  1
  O  O181  1  0.89472928  0.28100721  0.51597642  1
  O  O182  1  0.88842185  0.75125537  0.01537204  1
  O  O183  1  0.86669486  0.76151093  0.51361142  1
  O  O184  1  0.10517351  0.23511779  0.48589242  1
  O  O185  1  0.10607637  0.19700472  0.90418646  1
  O  O186  1  0.11564015  0.74215161  0.48915639  1
  O  O187  1  0.11780992  0.75398916  0.98859557  1
  O  O188  1  0.63085645  0.23131142  0.48830671  1
  O  O189  1  0.64826336  0.25434809  0.99440801  1
  O  O190  1  0.65310244  0.75693995  0.51525168  1
  O  O191  1  0.64835277  0.74859803  1.00531237  1
  O  O192  1  0.51822996  0.23458631  0.13910655  1
  O  O193  1  0.45735879  0.26107642  0.57970099  1
  O  O194  1  0.51136368  0.63988642  0.05339530  1
  O  O195  1  0.49286039  0.74693788  0.58232133  1
  O  O196  1  1.02707690  0.18241814  0.05894288  1
  O  O197  1  1.01108073  0.22745884  0.62975019  1
  O  O198  1  0.99229206  0.73744397  0.13438684  1
  O  O199  1  0.98487188  0.73710757  0.61744650  1
  O  O200  1  -0.01570194  0.26193600  0.37448039  1
  O  O201  1  -0.05473692  0.25328886  0.79894103  1
  O  O202  1  0.00232845  0.75726392  0.36864999  1
  O  O203  1  0.01903517  0.72070314  0.87298729  1
  O  O204  1  0.47681143  0.25577450  0.39618326  1
  O  O205  1  0.52682916  0.27145965  0.87816282  1
  O  O206  1  0.52292284  0.79663988  0.42785958  1
  O  O207  1  0.49855149  0.75527962  0.88608863  1
  O  O208  1  0.21243774  0.13573607  0.49722124  1
  O  O209  1  0.32223707  0.13007908  0.96104681  1
  O  O210  1  0.21892703  0.63663308  0.49920212  1
  O  O211  1  0.27714556  0.61787185  0.98670665  1
  O  O212  1  0.72810378  0.09344671  0.49939036  1
  O  O213  1  0.75166076  0.14340065  1.00635198  1
  O  O214  1  0.76363506  0.64821667  0.49634643  1
  O  O215  1  0.75996165  0.63262298  0.99225296  1
  O  O216  1  0.29447117  0.37299809  0.05592938  1
  O  O217  1  0.21216844  0.36054417  0.49619856  1
  O  O218  1  0.27963923  0.93816911  -0.12812099  1
  O  O219  1  0.25351673  0.86536170  0.50271007  1
  O  O220  1  0.77410778  0.36652112  0.00643561  1
  O  O221  1  0.76581551  0.38542813  0.50107009  1
  O  O222  1  0.77859981  0.84377223  -0.00897420  1
  O  O223  1  0.76550098  0.86702622  0.52761694  1
  O  O224  1  0.12854877  0.50280023  0.25781180  1
  O  O225  1  0.13162071  0.52057383  0.73543570  1
  O  O226  1  0.12056985  0.97964655  0.25943984  1
  O  O227  1  0.12510808  0.95742335  0.75623071  1
  O  O228  1  0.64719926  0.45817461  0.25100825  1
  O  O229  1  0.65838244  0.49608514  0.76198683  1
  O  O230  1  0.60229629  0.94122361  0.22042875  1
  O  O231  1  0.65015476  0.98216139  0.78429060  1
  O  O232  1  0.37953328  -0.00211342  0.23002958  1
  O  O233  1  0.34785550  0.00415745  0.77753825  1
  O  O234  1  0.33111667  0.48563093  0.25969116  1
  O  O235  1  0.34405725  0.48039832  0.72161457  1
  O  O236  1  0.87565778  -0.01320553  0.26801282  1
  O  O237  1  0.86900456  -0.00862395  0.77749529  1
  O  O238  1  0.87534431  0.51839315  0.26151835  1
  O  O239  1  0.87070708  0.51731601  0.76429212  1
  O  O240  1  0.08873723  0.36087034  0.37469382  1
  O  O241  1  0.12463404  0.41362244  0.84296207  1
  O  O242  1  0.11469181  0.86581833  0.36852508  1
  O  O243  1  0.11275040  0.85257344  0.86645107  1
  O  O244  1  0.67820076  0.35303690  0.36012230  1
  O  O245  1  0.66157103  0.36189502  0.87777281  1
  O  O246  1  0.58848644  0.93724476  0.39142382  1
  O  O247  1  0.63761120  0.87013785  0.89662505  1
  O  O248  1  0.40572458  0.12515116  0.12336608  1
  O  O249  1  0.33839974  0.15476708  0.62426802  1
  O  O250  1  0.39012879  0.58289614  0.17123177  1
  O  O251  1  0.43244929  0.59736925  0.65281160  1
  O  O252  1  0.90560600  0.10596510  0.08751038  1
  O  O253  1  0.88071505  0.12053618  0.61898767  1
  O  O254  1  0.87860939  0.62961596  0.14311542  1
  O  O255  1  0.88030555  0.63751465  0.63528690  1
  O  O256  1  0.20291136  0.23289703  0.08672697  1
  O  O257  1  0.21681834  0.25627985  0.60206387  1
  O  O258  1  0.28144678  0.70554045  0.13750061  1
  O  O259  1  0.23687364  0.75962382  0.59962222  1
  O  O260  1  0.76733008  0.26148424  0.10534177  1
  O  O261  1  0.74568687  0.22025131  0.60046054  1
  O  O262  1  0.77259645  0.73849470  0.10980258  1
  O  O263  1  0.76404994  0.76334463  0.63871987  1
  O  O264  1  0.20620996  0.25562962  0.38288319  1
  O  O265  1  0.29430539  0.33674554  0.85993405  1
  O  O266  1  0.23262961  0.75864965  0.38980719  1
  O  O267  1  0.23921239  0.74225177  0.88145065  1
  O  O268  1  0.78664000  0.22892040  0.43000322  1
  O  O269  1  0.76324898  0.24884342  0.89018503  1
  O  O270  1  0.75290239  0.76936468  0.39044142  1
  O  O271  1  0.76449641  0.73220833  0.88917737  1
  O  O272  1  0.04629113  0.15864204  -0.11049276  1
  O  O273  1  -0.00445752  0.12369710  0.50237971  1
  O  O274  1  -0.00575573  0.61572086  0.02052605  1
  O  O275  1  -0.00076458  0.62358625  0.50110307  1
  O  O276  1  0.52335672  0.14372397  0.00908886  1
  O  O277  1  0.46654642  0.10153334  0.50716793  1
  O  O278  1  0.55781666  0.61046897  0.00435473  1
  O  O279  1  0.52237475  0.61243449  0.52443587  1
  O  O280  1  0.50974977  0.38946910  0.45372639  1
  O  O281  1  0.49552059  0.37890119  1.03769006  1
  O  O282  1  0.47478627  0.91813149  0.51321500  1
  O  O283  1  0.48813565  0.86843797  1.02265452  1
  O  O284  1  0.98769989  0.39567817  0.49406521  1
  O  O285  1  0.98421653  0.39666008  1.00292821  1
  O  O286  1  0.99273672  0.86604562  0.49140404  1
  O  O287  1  0.99119076  0.87188580  1.00623226  1
  O  O288  1  0.47475401  0.46145840  0.31201085  1
  O  O289  1  0.48907879  0.56300268  0.83189218  1
  O  O290  1  0.44286687  0.99182845  0.37500299  1
  O  O291  1  0.49880827  0.99871832  0.91661018  1
  O  O292  1  0.98640442  0.49231392  0.37992805  1
  O  O293  1  0.98808193  0.51701039  0.89609087  1
  O  O294  1  0.98966676  0.98035686  0.36774028  1
  O  O295  1  0.98269734  0.99276733  0.88841465  1
  O  O296  1  0.00933188  -0.00300255  0.12951747  1
  O  O297  1  0.00035488  0.01121602  0.63073954  1
  O  O298  1  -0.00198209  0.51246817  0.12136362  1
  O  O299  1  -0.01429471  0.52353991  0.60948999  1
  O  O300  1  0.51205188  0.01150945  0.09361219  1
  O  O301  1  0.47322053  0.00487285  0.64793425  1
  O  O302  1  0.54236631  0.51022635  0.15815316  1
  O  O303  1  0.55324975  0.46913138  0.58989713  1
  O  O304  1  0.22476601  0.38752458  0.24640631  1
  O  O305  1  0.22023322  0.40252582  0.71754150  1
  O  O306  1  0.22872448  0.85939399  0.25315577  1
  O  O307  1  0.24991734  0.86071091  0.72120898  1
  O  O308  1  0.78768524  0.34837199  0.23857252  1
  O  O309  1  0.77637439  0.39805857  0.73798130  1
  O  O310  1  0.74786837  0.87063591  0.22642607  1
  O  O311  1  0.74666893  0.87828594  0.75581442  1
  O  O312  1  0.27465373  0.16822584  0.21836852  1
  O  O313  1  0.28833310  0.15512959  0.78568324  1
  O  O314  1  0.23880610  0.59428417  0.25720811  1
  O  O315  1  0.25555859  0.61284111  0.70229121  1
  O  O316  1  0.74864590  0.11894885  0.33082257  1
  O  O317  1  0.75118813  0.09946885  0.75264673  1
  O  O318  1  0.76550848  0.64437428  0.25978487  1
  O  O319  1  0.76391054  0.62113652  0.76602572  1
  O  O320  1  0.35202051  0.11795129  0.35337802  1
  O  O321  1  0.36834179  0.16317987  0.90232151  1
  O  O322  1  0.47051511  0.63858356  0.35696459  1
  O  O323  1  0.35379761  0.64470265  0.84706140  1
  O  O324  1  0.88272730  0.09206190  0.39065376  1
  O  O325  1  0.88590024  0.10895747  0.90552124  1
  O  O326  1  0.88423629  0.62022794  0.36454178  1
  O  O327  1  0.87351456  0.61925559  0.87204888  1
  O  O328  1  0.14684003  0.34214246  -0.00577290  1
  O  O329  1  0.11678914  0.37461867  0.62337207  1
  O  O330  1  0.11691832  0.87986430  0.14221003  1
  O  O331  1  0.12552653  0.86288218  0.63436600  1
  O  O332  1  0.65508682  0.36744543  0.14559648  1
  O  O333  1  0.55600869  0.33665895  0.68779367  1
  O  O334  1  0.67143613  0.90053358  0.08014341  1
  O  O335  1  0.64165871  0.87219570  0.62485454  1
  O  O336  1  0.11250102  0.24001024  0.26473227  1
  O  O337  1  0.12336607  0.27915699  0.75627302  1
  O  O338  1  0.11518864  0.75205380  0.25845231  1
  O  O339  1  0.13127483  0.75687957  0.75927844  1
  O  O340  1  0.66067537  0.24998122  0.23950330  1
  O  O341  1  0.64881798  0.24675979  0.77044536  1
  O  O342  1  0.62096639  0.77638280  0.18378072  1
  O  O343  1  0.64793211  0.76796460  0.77455301  1
  O  O344  1  0.31658339  0.22833420  0.23333640  1
  O  O345  1  0.37799198  0.27685970  0.71533768  1
  O  O346  1  0.33391340  0.74174314  0.19644195  1
  O  O347  1  0.39115125  0.84219610  0.78285622  1
  O  O348  1  0.78117757  0.16757394  0.28188736  1
  O  O349  1  0.88622537  0.26211771  0.76130084  1
  O  O350  1  0.88641928  0.74089110  0.24014302  1
  O  O351  1  0.87324939  0.73919228  0.74706384  1
  O  O352  1  0.41811538  0.49888761  0.51201800  1
  O  O353  1  0.39450351  0.49784751  1.04600153  1
  O  O354  1  0.34095752  1.00183900  0.50526819  1
  O  O355  1  0.37227317  0.98210819  1.02528798  1
  O  O356  1  0.87953735  0.50796704  0.48693767  1
  O  O357  1  0.87545743  0.50365029  0.99570679  1
  O  O358  1  0.87153989  0.98142395  0.50379105  1
  O  O359  1  0.86056041  0.97264146  0.99554203  1
  O  O360  1  0.12365085  -0.01528347  0.01433792  1
  O  O361  1  0.11629757  0.01551906  0.47863619  1
  O  O362  1  0.10651045  0.50209359  -0.00385781  1
  O  O363  1  0.10467529  0.51948390  0.48609406  1
  O  O364  1  0.64622045  0.03090401  -0.02012779  1
  O  O365  1  0.59914193  0.01545407  0.53627429  1
  O  O366  1  0.63671960  0.47309801  0.03796478  1
  O  O367  1  0.60313379  0.50878921  0.43480146  1
  O  O368  1  0.40381703  0.39506932  0.14519120  1
  O  O369  1  0.32317915  0.35809800  0.60379185  1
  O  O370  1  0.40450312  0.72912530  0.18456571  1
  O  O371  1  0.35195729  0.87941128  0.61036253  1
  O  O372  1  0.87972807  0.37508086  0.11053335  1
  O  O373  1  0.87563727  0.40226304  0.61142777  1
  O  O374  1  0.88354896  0.85598200  0.12185227  1
  O  O375  1  0.88346379  0.86521810  0.62627278  1
  O  O376  1  0.09160298  0.13576979  0.37919367  1
  O  O377  1  0.23096076  0.12365684  0.81347027  1
  O  O378  1  0.10910963  0.63946668  0.38424395  1
  O  O379  1  0.14702502  0.63269205  0.87924314  1
  O  O380  1  0.67458332  0.09582615  0.32099399  1
  O  O381  1  0.62569809  0.15091868  0.89140055  1
  O  O382  1  0.57868237  0.62560559  0.28254511  1
  O  O383  1  0.64923500  0.62191452  0.87224722  1
