# generated using pymatgen
data_VZnO4
_symmetry_space_group_name_H-M   'P 1'
_cell_length_a   17.29755106
_cell_length_b   17.31764631
_cell_length_c   17.14324736
_cell_angle_alpha   88.29504841
_cell_angle_beta   88.55758298
_cell_angle_gamma   89.64528105
_symmetry_Int_Tables_number   1
_chemical_formula_structural   VZnO4
_chemical_formula_sum   'V64 Zn64 O256'
_cell_volume   5131.33291430
_cell_formula_units_Z   64
loop_
 _symmetry_equiv_pos_site_id
 _symmetry_equiv_pos_as_xyz
  1  'x, y, z'
loop_
 _atom_site_type_symbol
 _atom_site_label
 _atom_site_symmetry_multiplicity
 _atom_site_fract_x
 _atom_site_fract_y
 _atom_site_fract_z
 _atom_site_occupancy
  V  V0  1  0.01695247  0.40020656  0.37211087  1
  V  V1  1  -0.00718528  0.62696268  0.14823026  1
  V  V2  1  0.50050557  0.36530924  0.86486785  1
  V  V3  1  0.86434867  0.48968304  0.35204342  1
  V  V4  1  0.08647026  0.74749472  0.84406698  1
  V  V5  1  0.22761846  0.50000928  0.75303312  1
  V  V6  1  0.39122211  0.87575923  0.01080021  1
  V  V7  1  -0.02476994  0.60550311  0.62641551  1
  V  V8  1  0.54381900  0.81341194  0.76061523  1
  V  V9  1  0.62511623  -0.00335701  0.14772559  1
  V  V10  1  0.62280715  0.86891905  0.26232874  1
  V  V11  1  0.36583830  0.37930140  -0.01180430  1
  V  V12  1  0.35979407  0.24711381  0.11945426  1
  V  V13  1  0.93008761  0.19639346  0.11166692  1
  V  V14  1  0.26679183  0.25042095  0.50000899  1
  V  V15  1  0.60764202  0.26505266  0.36246456  1
  V  V16  1  0.02435201  0.88184108  0.40685032  1
  V  V17  1  0.27233313  0.74116492  -0.00855454  1
  V  V18  1  0.03819948  0.15133283  0.61728899  1
  V  V19  1  0.79181485  0.65831039  0.40579947  1
  V  V20  1  0.84360426  0.24170854  0.61466606  1
  V  V21  1  0.61102470  0.45584973  0.61248757  1
  V  V22  1  0.25511088  0.87478717  0.12973941  1
  V  V23  1  0.12217081  0.85938884  0.25177636  1
  V  V24  1  0.47714961  0.13268130  0.58528086  1
  V  V25  1  0.13768488  0.22380330  0.38014622  1
  V  V26  1  0.60062520  0.38571827  0.21920280  1
  V  V27  1  0.61285784  0.60802578  0.49836497  1
  V  V28  1  0.37626987  0.00628106  0.88471726  1
  V  V29  1  0.36317041  0.12212654  0.25708204  1
  V  V30  1  0.37412126  0.50090812  0.85139786  1
  V  V31  1  0.62996571  0.13908211  0.00898530  1
  V  V32  1  0.38334275  0.74999143  0.14171695  1
  V  V33  1  0.61553374  0.74046861  0.38902036  1
  V  V34  1  0.59547744  0.62442650  0.00676363  1
  V  V35  1  -0.01693642  0.37621157  0.86505765  1
  V  V36  1  0.37582801  0.61359100  0.25911809  1
  V  V37  1  0.47167280  0.37998794  0.35945743  1
  V  V38  1  0.63358558  0.12455937  0.47019479  1
  V  V39  1  0.87076470  -0.02600907  0.36599592  1
  V  V40  1  0.11086624  0.49372789  0.59899362  1
  V  V41  1  0.24347129  -0.00987378  0.25768387  1
  V  V42  1  0.92105653  0.81760967  0.13549240  1
  V  V43  1  0.25431969  -0.00806658  0.75624916  1
  V  V44  1  0.26108804  0.37195310  0.62605708  1
  V  V45  1  0.74055329  0.49501949  0.23648355  1
  V  V46  1  0.49306911  0.12767868  0.14005302  1
  V  V47  1  0.50326062  0.00219007  0.00953478  1
  V  V48  1  0.23348446  0.50024694  0.23527482  1
  V  V49  1  0.24395841  0.61232680  0.38260348  1
  V  V50  1  0.77360048  0.36287345  0.10312512  1
  V  V51  1  0.12773550  0.73194696  0.38796540  1
  V  V52  1  0.34877401  0.70530283  0.62053336  1
  V  V53  1  0.05301841  -0.00530445  -0.00177462  1
  V  V54  1  0.48832250  0.76110832  0.27051915  1
  V  V55  1  0.14941568  -0.05113104  0.60293372  1
  V  V56  1  0.76710768  0.18271651  0.34317911  1
  V  V57  1  0.10490634  0.64035188  0.00707782  1
  V  V58  1  0.73786180  0.47569952  0.73065993  1
  V  V59  1  0.38122416  -0.01248502  0.38394356  1
  V  V60  1  0.24624287  0.22796434  -0.01750053  1
  V  V61  1  0.47106566  0.49212263  0.48586563  1
  V  V62  1  0.48288131  0.22506763  0.75468495  1
  V  V63  1  0.82782889  0.03225649  0.87627273  1
  Zn  Zn64  1  0.19804716  0.19034253  0.20253023  1
  Zn  Zn65  1  0.31262553  0.18176697  0.68216369  1
  Zn  Zn66  1  0.19013261  0.68571988  0.18829146  1
  Zn  Zn67  1  0.17524163  0.66958729  0.68063791  1
  Zn  Zn68  1  0.68007037  0.20387927  0.17783846  1
  Zn  Zn69  1  0.64242168  0.24131386  0.64157438  1
  Zn  Zn70  1  0.76686712  0.74300427  0.22535483  1
  Zn  Zn71  1  0.62131252  0.65279981  0.70367782  1
  Zn  Zn72  1  0.28621487  0.31029057  0.29882913  1
  Zn  Zn73  1  0.30927231  0.31591446  0.80780334  1
  Zn  Zn74  1  0.30690898  0.80825590  0.33139426  1
  Zn  Zn75  1  0.35246358  0.81208690  0.79884281  1
  Zn  Zn76  1  0.95181195  0.25007183  0.29360859  1
  Zn  Zn77  1  0.82026337  0.31045892  0.75705751  1
  Zn  Zn78  1  0.92518795  0.77514219  0.32137247  1
  Zn  Zn79  1  0.76688654  0.78877068  1.02180756  1
  Zn  Zn80  1  0.20014500  0.43289545  0.43475921  1
  Zn  Zn81  1  0.11346327  0.48803243  1.11534734  1
  Zn  Zn82  1  0.21229502  0.91180691  0.43503927  1
  Zn  Zn83  1  0.17591216  0.92725753  0.89501494  1
  Zn  Zn84  1  0.66506005  0.44514008  0.40451285  1
  Zn  Zn85  1  0.69854786  0.40413556  0.91559872  1
  Zn  Zn86  1  0.67816326  0.93756907  0.41726160  1
  Zn  Zn87  1  0.68832424  0.95217861  0.95100979  1
  Zn  Zn88  1  0.30773796  0.05941889  0.06793360  1
  Zn  Zn89  1  0.29195915  0.05637958  0.55728177  1
  Zn  Zn90  1  0.33009828  0.55672227  0.06447477  1
  Zn  Zn91  1  0.29979103  0.55227985  0.57085567  1
  Zn  Zn92  1  0.80287983  0.06312613  0.08006558  1
  Zn  Zn93  1  0.84812825  0.11950272  0.50048956  1
  Zn  Zn94  1  0.79550597  0.63822235  0.08132494  1
  Zn  Zn95  1  0.76680190  0.59073655  0.60099678  1
  Zn  Zn96  1  0.41993120  0.43520946  0.17613670  1
  Zn  Zn97  1  0.44421904  0.42698430  0.68214763  1
  Zn  Zn98  1  0.43499362  0.93922312  0.19682101  1
  Zn  Zn99  1  0.49540007  1.01239277  0.72563794  1
  Zn  Zn100  1  0.96154367  0.40795161  0.17144716  1
  Zn  Zn101  1  0.92710333  0.42907069  0.67398218  1
  Zn  Zn102  1  0.95506262  1.01455424  0.17767525  1
  Zn  Zn103  1  0.88239589  1.10145048  0.72090047  1
  Zn  Zn104  1  0.08364816  0.06005659  0.45408807  1
  Zn  Zn105  1  0.06459704  0.03643202  0.75337531  1
  Zn  Zn106  1  0.05915874  0.56792141  0.30607115  1
  Zn  Zn107  1  0.05575590  0.57632316  0.81177882  1
  Zn  Zn108  1  0.55434852  0.06378082  0.31815644  1
  Zn  Zn109  1  0.62532442  0.23972107  0.84643959  1
  Zn  Zn110  1  0.55574968  0.56275953  0.30935432  1
  Zn  Zn111  1  0.59158780  0.52337624  0.82358564  1
  Zn  Zn112  1  0.43073827  0.19638939  0.41739382  1
  Zn  Zn113  1  0.44231897  0.18062545  0.94434888  1
  Zn  Zn114  1  0.42522884  0.67745989  0.44341959  1
  Zn  Zn115  1  0.47285449  0.67012632  0.85168015  1
  Zn  Zn116  1  0.97850846  0.23662895  0.47626485  1
  Zn  Zn117  1  0.93321048  0.17893773  0.93576642  1
  Zn  Zn118  1  0.96382730  0.69662327  0.47565745  1
  Zn  Zn119  1  0.92552144  0.72827078  0.96512437  1
  Zn  Zn120  1  0.08576294  0.29618374  0.07303627  1
  Zn  Zn121  1  0.08286576  0.32750599  0.55090817  1
  Zn  Zn122  1  0.08892467  0.81974920  0.05118872  1
  Zn  Zn123  1  0.07364406  0.78164713  0.57953097  1
  Zn  Zn124  1  0.53922599  0.30898527  0.05726245  1
  Zn  Zn125  1  0.52448071  0.30578818  0.53971219  1
  Zn  Zn126  1  0.58945809  0.82805481  0.05860116  1
  Zn  Zn127  1  0.51656780  0.75322402  0.57927600  1
  O  O128  1  0.10258187  0.11282468  0.19347031  1
  O  O129  1  0.13143051  0.14433473  0.63168642  1
  O  O130  1  0.10693248  0.64764578  0.12008070  1
  O  O131  1  0.11251160  0.59159457  0.62839979  1
  O  O132  1  0.60432624  0.11389901  0.14306781  1
  O  O133  1  0.63992044  0.14736132  0.56494943  1
  O  O134  1  0.57309726  0.62155194  0.10554643  1
  O  O135  1  0.59933743  0.60582882  0.59623421  1
  O  O136  1  0.37723773  0.37022003  0.34853831  1
  O  O137  1  0.37990153  0.37623020  0.87610883  1
  O  O138  1  0.38244083  0.88764482  0.37544028  1
  O  O139  1  0.38666944  0.88684974  0.91245614  1
  O  O140  1  0.86604758  0.40420006  0.39421868  1
  O  O141  1  0.88171090  0.36447331  0.83692881  1
  O  O142  1  0.92000888  0.87820402  0.38128854  1
  O  O143  1  0.84655322  0.94209771  0.94241426  1
  O  O144  1  0.26048169  -0.01131888  0.35789225  1
  O  O145  1  0.27545809  -0.01085222  0.87195985  1
  O  O146  1  0.23889299  0.51126976  0.35645035  1
  O  O147  1  0.26942381  0.48921457  0.84872767  1
  O  O148  1  0.77397361  -0.04569992  0.36363980  1
  O  O149  1  0.72724383  0.02429464  0.87763140  1
  O  O150  1  0.74612226  0.49848767  0.34463024  1
  O  O151  1  0.69874155  0.48426187  0.83459808  1
  O  O152  1  0.24460623  0.51616930  0.13317880  1
  O  O153  1  0.22828237  0.48707874  0.63204588  1
  O  O154  1  0.26342188  0.97911039  0.14032078  1
  O  O155  1  0.23593224  0.99061035  0.64038740  1
  O  O156  1  0.75285838  0.56673583  0.17073846  1
  O  O157  1  0.71333275  0.48057883  0.61489131  1
  O  O158  1  0.72155564  0.99967705  0.13500457  1
  O  O159  1  0.80685811  0.95504700  0.61043053  1
  O  O160  1  -0.01726913  0.36204070  0.28402680  1
  O  O161  1  -0.00500869  0.37635073  0.75903720  1
  O  O162  1  0.02765789  0.87351644  0.26291981  1
  O  O163  1  -0.15583619  0.70754101  0.81886720  1
  O  O164  1  0.49668527  0.39797986  0.24906348  1
  O  O165  1  0.48867389  0.35356221  0.76187621  1
  O  O166  1  0.49617412  0.86238887  0.25926975  1
  O  O167  1  0.52805858  0.90667678  0.72737572  1
  O  O168  1  0.47818884  0.11915764  0.24421174  1
  O  O169  1  0.48241965  0.12827409  0.75590157  1
  O  O170  1  0.47738015  0.63482590  0.26496845  1
  O  O171  1  0.55315475  0.62177475  0.79023432  1
  O  O172  1  1.04626261  0.10683737  0.24043692  1
  O  O173  1  0.99680994  0.11115374  0.71105148  1
  O  O174  1  0.99811648  0.64425873  0.24700974  1
  O  O175  1  0.98895783  0.60733002  0.72678661  1
  O  O176  1  0.36767890  0.23028524  0.01605172  1
  O  O177  1  0.36651884  0.25404710  0.49116646  1
  O  O178  1  0.38031653  0.76772186  0.02813883  1
  O  O179  1  0.41469493  0.73798880  0.53846989  1
  O  O180  1  0.89061976  0.23047081  0.02575211  1
  O  O181  1  0.87241411  0.23308769  0.51053951  1
  O  O182  1  0.87813255  0.80680478  0.04442898  1
  O  O183  1  0.86611027  0.72354724  0.42276103  1
  O  O184  1  0.13739132  0.25863266  0.47955143  1
  O  O185  1  0.15128755  0.25499778  0.99603270  1
  O  O186  1  0.13186965  0.73606431  0.48456325  1
  O  O187  1  0.16296956  0.73854365  1.00573987  1
  O  O188  1  0.60849871  0.25914362  0.46311104  1
  O  O189  1  0.61842182  0.23346133  1.03642563  1
  O  O190  1  0.58714555  0.72295342  0.49142404  1
  O  O191  1  0.60386303  0.72864245  1.01078774  1
  O  O192  1  0.47959307  0.22907202  0.12603188  1
  O  O193  1  0.49889843  0.22713982  0.62284541  1
  O  O194  1  0.48334942  0.75664879  0.15182426  1
  O  O195  1  0.56896251  0.75250387  0.67567366  1
  O  O196  1  1.02901650  0.20053349  0.09488168  1
  O  O197  1  1.01217583  0.24888846  0.60155693  1
  O  O198  1  1.01098635  0.77393948  0.12498301  1
  O  O199  1  0.98977224  0.71190169  0.59116834  1
  O  O200  1  0.03121961  0.23040982  0.37281666  1
  O  O201  1  -0.02117581  0.27362787  0.88116830  1
  O  O202  1  0.01764586  0.75449635  0.38463401  1
  O  O203  1  -0.00961919  0.75817575  0.87355749  1
  O  O204  1  0.49715594  0.27182393  0.35637245  1
  O  O205  1  0.48802805  0.24365825  0.86072532  1
  O  O206  1  0.48955169  0.74582873  0.37257995  1
  O  O207  1  0.46293690  0.77793737  0.82217992  1
  O  O208  1  0.24997140  0.15430649  0.51837671  1
  O  O209  1  0.24914995  0.12998746  1.00698857  1
  O  O210  1  0.24939565  0.60230247  0.47953509  1
  O  O211  1  0.28819024  0.64552163  1.00691812  1
  O  O212  1  0.73904309  0.13410621  0.43781507  1
  O  O213  1  0.72559366  0.12036872  1.02494732  1
  O  O214  1  0.72152191  0.62537414  0.49426861  1
  O  O215  1  0.69389221  0.60641333  1.02368927  1
  O  O216  1  0.27545252  0.34401856  -0.00486169  1
  O  O217  1  0.24430612  0.36675081  0.51543883  1
  O  O218  1  0.27134452  0.86688106  0.02481761  1
  O  O219  1  0.29028268  0.83434926  0.44224734  1
  O  O220  1  0.73270848  0.40333242  0.02005374  1
  O  O221  1  0.73635633  0.36381296  0.47819995  1
  O  O222  1  0.68428859  0.85604920  -0.00095171  1
  O  O223  1  0.70126919  0.86754417  0.52560374  1
  O  O224  1  0.13233744  0.50949058  0.23689529  1
  O  O225  1  0.13098428  0.50092399  0.77184307  1
  O  O226  1  0.14623487  0.97454322  0.25711431  1
  O  O227  1  0.15467002  0.98563065  0.78846355  1
  O  O228  1  0.62716649  0.49203375  0.25051415  1
  O  O229  1  0.59519189  0.47247763  0.70875128  1
  O  O230  1  0.61223894  0.98429730  0.25645402  1
  O  O231  1  0.68912258  1.01236103  0.70743138  1
  O  O232  1  0.36934726  0.00761782  0.26195224  1
  O  O233  1  0.40533278  -0.00616914  0.79091864  1
  O  O234  1  0.37006448  0.51650632  0.24900225  1
  O  O235  1  0.38863408  0.49240066  0.75295545  1
  O  O236  1  0.90508320  0.01471328  0.28049068  1
  O  O237  1  0.86210789  0.00896837  0.78376463  1
  O  O238  1  0.85205216  0.47983026  0.24989415  1
  O  O239  1  0.83570781  0.48437617  0.72487455  1
  O  O240  1  0.11440727  0.40270195  0.36534432  1
  O  O241  1  0.08034114  0.36302809  0.88043112  1
  O  O242  1  0.13009784  0.85274669  0.37110102  1
  O  O243  1  0.13933705  0.82654677  0.86917952  1
  O  O244  1  0.60089159  0.37336240  0.35033977  1
  O  O245  1  0.60123625  0.34852033  0.88349000  1
  O  O246  1  0.61222915  0.86070129  0.37032346  1
  O  O247  1  0.69242167  0.94867468  0.74001018  1
  O  O248  1  0.38072872  0.12282952  0.13559677  1
  O  O249  1  0.37883508  0.11850247  0.60440354  1
  O  O250  1  0.36934360  0.64776786  0.15115994  1
  O  O251  1  0.37339847  0.60872318  0.62923470  1
  O  O252  1  0.89274359  0.09936956  0.12717286  1
  O  O253  1  0.85706034  0.12957913  0.61246608  1
  O  O254  1  0.89861439  0.64733460  0.12699421  1
  O  O255  1  0.87723684  0.60184954  0.61324102  1
  O  O256  1  0.25806465  0.23922399  0.11713648  1
  O  O257  1  0.25864342  0.26657350  0.62114022  1
  O  O258  1  0.26721830  0.76180090  0.13556059  1
  O  O259  1  0.25082458  0.71082119  0.60458515  1
  O  O260  1  0.75476084  0.26714271  0.11856605  1
  O  O261  1  0.74700843  0.25328304  0.60928903  1
  O  O262  1  0.73772969  0.72985021  0.12105052  1
  O  O263  1  0.84513478  0.80044091  0.66733917  1
  O  O264  1  0.25032401  0.25820447  0.39422329  1
  O  O265  1  0.26681845  0.24025057  0.88397738  1
  O  O266  1  0.23309954  0.72276442  0.36537795  1
  O  O267  1  0.29139340  0.76156881  0.89672520  1
  O  O268  1  0.71675701  0.27125711  0.34914252  1
  O  O269  1  0.75813507  0.29638217  0.91401682  1
  O  O270  1  0.71157455  0.74965407  0.40204900  1
  O  O271  1  0.81789293  0.69560881  0.97790138  1
  O  O272  1  0.01913453  0.09657665  -0.05721835  1
  O  O273  1  0.01629129  0.11641487  0.52269145  1
  O  O274  1  0.00531775  0.65088863  0.01385980  1
  O  O275  1  0.00604714  0.60244656  0.51597875  1
  O  O276  1  0.50495160  0.11480055  0.02246080  1
  O  O277  1  0.50534816  0.13774366  0.48523736  1
  O  O278  1  0.50452342  0.65890980  -0.03400241  1
  O  O279  1  0.50100959  0.59451842  0.47830546  1
  O  O280  1  0.48165242  0.38111078  0.46915734  1
  O  O281  1  0.47232279  0.34812817  0.97793861  1
  O  O282  1  0.52443938  0.88170038  0.53854790  1
  O  O283  1  0.49558672  0.88884991  1.02685105  1
  O  O284  1  1.00035390  0.35673450  0.46476252  1
  O  O285  1  0.95072425  0.39889651  0.95765675  1
  O  O286  1  1.02398521  0.86374569  0.50339446  1
  O  O287  1  1.03055958  0.89658258  0.99334615  1
  O  O288  1  0.49111046  0.48719640  0.37476619  1
  O  O289  1  0.49549385  0.46803478  0.86622770  1
  O  O290  1  0.47807683  1.00790259  0.37913335  1
  O  O291  1  0.50121587  1.00068507  0.91247468  1
  O  O292  1  0.97874659  0.49995871  0.35692218  1
  O  O293  1  0.99079153  0.47855641  0.85152437  1
  O  O294  1  1.03659683  0.97830631  0.39468545  1
  O  O295  1  1.01088280  1.03128796  0.89467138  1
  O  O296  1  0.03506652  0.02055715  0.09276874  1
  O  O297  1  0.06830310  -0.01840566  0.64788860  1
  O  O298  1  -0.00129988  0.52685708  0.14433617  1
  O  O299  1  0.00209885  0.49330897  0.61905739  1
  O  O300  1  0.50053710  0.01127746  0.13212364  1
  O  O301  1  0.52405769  0.05475401  0.62415490  1
  O  O302  1  0.42507684  0.50979656  0.09559377  1
  O  O303  1  0.50232401  0.47193846  0.58870778  1
  O  O304  1  0.25834560  0.40445931  0.24390466  1
  O  O305  1  0.24978416  0.38260088  0.73497444  1
  O  O306  1  0.25389916  0.87629403  0.24751247  1
  O  O307  1  0.29336080  0.89958083  0.75330677  1
  O  O308  1  0.72044107  0.40246353  0.19197023  1
  O  O309  1  0.73036479  0.37524237  0.73620593  1
  O  O310  1  0.71580190  0.84745580  0.24843428  1
  O  O311  1  0.79549334  0.82532874  0.71270350  1
  O  O312  1  0.25925964  0.09928879  0.23824983  1
  O  O313  1  0.28199491  0.08695652  0.73896085  1
  O  O314  1  0.25687932  0.61502662  0.25467145  1
  O  O315  1  0.24477344  0.59616596  0.73819710  1
  O  O316  1  0.74015925  0.14464242  0.25708757  1
  O  O317  1  0.74777358  0.25661433  0.85172903  1
  O  O318  1  0.77903063  0.66028256  0.30779165  1
  O  O319  1  0.71725759  0.59438426  0.70594785  1
  O  O320  1  0.36892644  0.12520432  0.35690825  1
  O  O321  1  0.38068143  0.10188699  0.89999028  1
  O  O322  1  0.35404306  0.62965987  0.36647543  1
  O  O323  1  0.39100408  0.59542703  0.86756878  1
  O  O324  1  0.86370898  0.19768351  0.34597671  1
  O  O325  1  0.85432063  0.12849376  0.88280996  1
  O  O326  1  0.84828767  0.57230556  0.41862049  1
  O  O327  1  0.82876027  0.53258228  0.93862936  1
  O  O328  1  0.06346994  0.38763147  0.12003110  1
  O  O329  1  0.12583642  0.39102952  0.62699545  1
  O  O330  1  0.14965048  0.86529901  0.14108565  1
  O  O331  1  0.15112422  0.85032228  0.61111298  1
  O  O332  1  0.58178624  0.38767193  0.12314435  1
  O  O333  1  0.60821796  0.35613998  0.60090888  1
  O  O334  1  0.60589921  0.89145499  0.14949230  1
  O  O335  1  0.68505602  0.89657545  0.59002553  1
  O  O336  1  0.16333234  0.25701791  0.28152241  1
  O  O337  1  0.13916004  0.21553595  0.78643087  1
  O  O338  1  0.13335761  0.75835213  0.25993723  1
  O  O339  1  0.10268620  0.72992679  0.74579671  1
  O  O340  1  0.61463892  0.28294077  0.23695570  1
  O  O341  1  0.59149876  0.23636819  0.74051367  1
  O  O342  1  0.59880352  0.75668761  0.27069343  1
  O  O343  1  0.61993991  0.81207462  0.81593798  1
  O  O344  1  0.35077973  0.22843897  0.23467014  1
  O  O345  1  0.38058981  0.24821693  0.74114733  1
  O  O346  1  0.37788540  0.75207258  0.25644816  1
  O  O347  1  0.37069908  0.75352420  0.70231723  1
  O  O348  1  0.91238109  0.25402224  0.19019923  1
  O  O349  1  0.85536338  0.21239963  0.72212271  1
  O  O350  1  0.87460215  0.77991916  0.22498963  1
  O  O351  1  0.83077958  0.65890962  0.77082716  1
  O  O352  1  0.37604563  0.50136733  0.49518366  1
  O  O353  1  0.35490706  0.47851656  0.97517787  1
  O  O354  1  0.34939298  1.00317153  0.47842924  1
  O  O355  1  0.38764366  0.98985812  1.01599828  1
  O  O356  1  0.78394358  0.39184441  0.52153696  1
  O  O357  1  0.84871324  0.53770478  1.00707641  1
  O  O358  1  0.88247253  1.03465052  0.44236954  1
  O  O359  1  0.86527435  1.00888240  0.98373140  1
  O  O360  1  0.15156694  -0.00852183  -0.01746700  1
  O  O361  1  0.15737639  -0.01736326  0.50320338  1
  O  O362  1  0.12902744  0.54560554  0.01157812  1
  O  O363  1  0.12490458  0.49357153  0.50167622  1
  O  O364  1  0.61085228  0.00957249  0.02727470  1
  O  O365  1  0.62855990  0.02631689  0.46373087  1
  O  O366  1  0.56110489  0.53151100  0.00584992  1
  O  O367  1  0.61749609  0.49998130  0.49133010  1
  O  O368  1  0.37945701  0.34856957  0.10996820  1
  O  O369  1  0.35685130  0.39017478  0.62000723  1
  O  O370  1  0.37134211  0.86787595  0.13415720  1
  O  O371  1  0.46769666  0.92239417  0.55555420  1
  O  O372  1  0.86616108  0.39304593  0.11398801  1
  O  O373  1  0.87537535  0.33713363  0.64285601  1
  O  O374  1  0.92264763  0.91371402  0.14418681  1
  O  O375  1  0.84977260  0.91377440  0.57138563  1
  O  O376  1  0.14855146  0.12655021  0.38480043  1
  O  O377  1  0.11965987  0.16069081  0.82946671  1
  O  O378  1  0.12858207  0.62793230  0.37000217  1
  O  O379  1  0.10583503  0.64942075  0.88968014  1
  O  O380  1  0.60568729  0.15496768  0.36039913  1
  O  O381  1  0.62010298  0.14599547  0.91057157  1
  O  O382  1  0.61401714  0.63537852  0.37705901  1
  O  O383  1  0.63627277  0.61469102  0.90697389  1
