# generated using pymatgen
data_VZnO4
_symmetry_space_group_name_H-M   'P 1'
_cell_length_a   16.96157827
_cell_length_b   16.97433063
_cell_length_c   17.06781773
_cell_angle_alpha   90.11314724
_cell_angle_beta   90.07643861
_cell_angle_gamma   89.73566980
_symmetry_Int_Tables_number   1
_chemical_formula_structural   VZnO4
_chemical_formula_sum   'V64 Zn64 O256'
_cell_volume   4913.95374777
_cell_formula_units_Z   64
loop_
 _symmetry_equiv_pos_site_id
 _symmetry_equiv_pos_as_xyz
  1  'x, y, z'
loop_
 _atom_site_type_symbol
 _atom_site_label
 _atom_site_symmetry_multiplicity
 _atom_site_fract_x
 _atom_site_fract_y
 _atom_site_fract_z
 _atom_site_occupancy
  V  V0  1  0.21844974  0.41719427  0.12022359  1
  V  V1  1  0.50565008  -0.01220443  0.00200656  1
  V  V2  1  0.74913831  0.65269197  0.37170212  1
  V  V3  1  0.62030248  0.11450068  0.49688263  1
  V  V4  1  -0.00330101  0.89546765  0.32592571  1
  V  V5  1  -0.03536319  0.35020627  0.41234733  1
  V  V6  1  0.25862839  0.35851617  0.62166016  1
  V  V7  1  -0.00050352  0.87690667  0.88057386  1
  V  V8  1  0.59819742  -0.01662774  0.62991356  1
  V  V9  1  0.38199900  0.00159305  0.87867212  1
  V  V10  1  0.10390354  0.14279391  0.51019274  1
  V  V11  1  0.29505379  0.26476407  0.48237466  1
  V  V12  1  0.12037151  0.60320580  0.51426403  1
  V  V13  1  0.24164795  0.24471599  0.00022515  1
  V  V14  1  0.88474618  0.37241488  -0.00215137  1
  V  V15  1  0.73008661  0.63958061  0.88485211  1
  V  V16  1  0.11694138  0.73450073  0.87953662  1
  V  V17  1  0.08682096  0.36278119  0.29094067  1
  V  V18  1  0.46992570  0.86300896  0.37494906  1
  V  V19  1  0.47516602  0.25132187  0.75658246  1
  V  V20  1  0.38302554  0.11516420  0.73266740  1
  V  V21  1  0.48924023  0.85278325  0.85582401  1
  V  V22  1  0.13072666  0.86615910  0.74585928  1
  V  V23  1  -0.03981795  0.15240289  0.63687401  1
  V  V24  1  0.37959102  0.25098799  0.12881029  1
  V  V25  1  -0.03116704  0.51344102  0.50554245  1
  V  V26  1  0.38716792  0.60901923  0.27155165  1
  V  V27  1  0.73497082  0.87545640  0.12406141  1
  V  V28  1  0.72768319  0.51415347  0.75138301  1
  V  V29  1  0.50378071  0.62204577  0.62764096  1
  V  V30  1  0.49726731  0.39695375  0.88198350  1
  V  V31  1  0.90445418  0.63268584  0.27446076  1
  V  V32  1  0.86281261  0.87975328  0.00664721  1
  V  V33  1  0.37232311  0.11562439  0.25689300  1
  V  V34  1  0.12209689  -0.01710117  0.61234780  1
  V  V35  1  0.61602325  0.37108446  0.75352743  1
  V  V36  1  0.74557061  0.00430278  0.25304021  1
  V  V37  1  0.86941771  0.62768652  0.73700186  1
  V  V38  1  0.75700141  -0.00440067  0.74975217  1
  V  V39  1  0.50143357  0.63191701  0.10773670  1
  V  V40  1  0.25422655  0.74975706  0.00189222  1
  V  V41  1  0.01605226  0.37606327  0.86405563  1
  V  V42  1  0.25592032  -0.01037267  0.74466621  1
  V  V43  1  0.75419438  0.37451150  0.62696300  1
  V  V44  1  0.62992622  0.13259562  -0.01767377  1
  V  V45  1  0.35776858  0.74792396  0.61104103  1
  V  V46  1  0.74496008  0.50640413  0.25456464  1
  V  V47  1  0.88808767  0.20428981  0.14480244  1
  V  V48  1  -0.00409996  0.73945493  0.73327851  1
  V  V49  1  0.25605169  0.11492081  0.38202243  1
  V  V50  1  0.23681145  0.62799253  0.37645966  1
  V  V51  1  0.62538925  0.48619678  0.12074281  1
  V  V52  1  0.24657563  0.60586128  0.87684715  1
  V  V53  1  0.61749161  0.86306705  0.27067936  1
  V  V54  1  0.87770677  0.01049309  0.88041048  1
  V  V55  1  0.51248528  0.12475888  0.13040617  1
  V  V56  1  0.47319259  -0.00367947  0.49032565  1
  V  V57  1  0.36809844  0.62201266  0.74841111  1
  V  V58  1  0.86386317  0.00475609  0.38999779  1
  V  V59  1  0.23655397  0.48885453  0.73380954  1
  V  V60  1  0.88320320  0.73812423  0.11101175  1
  V  V61  1  0.62042029  0.63813428  0.48641714  1
  V  V62  1  0.38559954  0.38188492  0.00469885  1
  V  V63  1  0.88244833  0.51573363  0.88339793  1
  Zn  Zn64  1  0.19801267  0.20606568  0.19931695  1
  Zn  Zn65  1  0.20908930  0.17126324  0.66128061  1
  Zn  Zn66  1  0.24959758  0.68310294  0.19215841  1
  Zn  Zn67  1  0.18481575  0.68084065  0.68868372  1
  Zn  Zn68  1  0.70590411  0.19946772  0.18170177  1
  Zn  Zn69  1  0.78361949  0.18820425  0.70713993  1
  Zn  Zn70  1  0.69436933  0.69515231  0.17556119  1
  Zn  Zn71  1  0.68901844  0.78567600  0.60617765  1
  Zn  Zn72  1  0.30013946  0.31899426  0.28505113  1
  Zn  Zn73  1  0.25018122  0.27361044  0.79351079  1
  Zn  Zn74  1  0.32384744  0.78193866  0.32876174  1
  Zn  Zn75  1  0.31020873  0.80051943  0.81517191  1
  Zn  Zn76  1  0.79887423  0.30757861  0.29844063  1
  Zn  Zn77  1  0.80639719  0.33710554  0.82047891  1
  Zn  Zn78  1  0.82555459  0.81682094  0.29188721  1
  Zn  Zn79  1  0.73880713  0.80566058  0.77796158  1
  Zn  Zn80  1  0.14537311  0.39750110  0.48995031  1
  Zn  Zn81  1  0.21808542  0.40234139  0.91891594  1
  Zn  Zn82  1  0.17422856  0.92852780  0.41907022  1
  Zn  Zn83  1  0.19882145  0.92499519  0.92047036  1
  Zn  Zn84  1  0.80229741  0.44592238  0.43561402  1
  Zn  Zn85  1  0.67832825  0.45731699  0.93240760  1
  Zn  Zn86  1  0.66802444  0.94492247  0.42833114  1
  Zn  Zn87  1  0.68744330  0.94155340  0.91926176  1
  Zn  Zn88  1  0.32492525  0.08106803  0.04879711  1
  Zn  Zn89  1  0.30260683  -0.07840743  0.55453142  1
  Zn  Zn90  1  0.31700336  0.57352097  0.06504640  1
  Zn  Zn91  1  0.30491022  0.56178596  0.56603887  1
  Zn  Zn92  1  0.80936731  0.05688528  0.06404129  1
  Zn  Zn93  1  0.79474657  0.05095340  0.57146204  1
  Zn  Zn94  1  0.79800466  0.56063854  0.05785601  1
  Zn  Zn95  1  0.77787589  0.57250773  0.56281159  1
  Zn  Zn96  1  0.42130895  0.46416799  0.15973460  1
  Zn  Zn97  1  0.43135478  0.44321263  0.68631148  1
  Zn  Zn98  1  0.45517401  0.95677180  0.20215017  1
  Zn  Zn99  1  0.43820126  0.91749643  0.68907046  1
  Zn  Zn100  1  0.90476448  0.42577080  0.20385649  1
  Zn  Zn101  1  0.93132215  0.44476199  0.69168701  1
  Zn  Zn102  1  0.94797281  1.02784192  0.20620292  1
  Zn  Zn103  1  0.94271071  0.92933953  0.69163058  1
  Zn  Zn104  1  0.06764415  0.05156272  0.34143611  1
  Zn  Zn105  1  0.04596416  0.04553058  0.77175518  1
  Zn  Zn106  1  0.05872653  0.52424747  0.34451711  1
  Zn  Zn107  1  0.05708923  0.55500044  0.80157435  1
  Zn  Zn108  1  0.56011697  0.05355339  0.31718250  1
  Zn  Zn109  1  0.60434982  0.09997697  0.77516230  1
  Zn  Zn110  1  0.59551568  0.59977933  0.27194167  1
  Zn  Zn111  1  0.55133400  0.57556094  0.81656865  1
  Zn  Zn112  1  0.46416461  0.19606085  0.55926530  1
  Zn  Zn113  1  0.44684486  0.19227609  0.93758747  1
  Zn  Zn114  1  0.43251708  0.67532548  0.44204558  1
  Zn  Zn115  1  0.43014525  0.67619259  0.93838306  1
  Zn  Zn116  1  0.94465682  0.17159991  0.31820261  1
  Zn  Zn117  1  0.91415560  0.21718504  0.87217280  1
  Zn  Zn118  1  1.05204653  0.70187928  0.38717645  1
  Zn  Zn119  1  0.87861126  0.73755232  0.88896050  1
  Zn  Zn120  1  0.05116069  0.31494056  0.05876824  1
  Zn  Zn121  1  0.05069920  0.31737491  0.60412047  1
  Zn  Zn122  1  0.05768675  0.80064674  0.05331868  1
  Zn  Zn123  1  0.19693791  0.77153315  0.51571437  1
  Zn  Zn124  1  0.56646822  0.30853215  0.06423355  1
  Zn  Zn125  1  0.61549132  0.26455086  0.61937549  1
  Zn  Zn126  1  0.55795908  0.80522466  0.05566827  1
  Zn  Zn127  1  0.53457403  0.80918361  0.55945619  1
  O  O128  1  0.08619281  0.11450509  0.10100983  1
  O  O129  1  0.15050403  0.09795208  0.59585457  1
  O  O130  1  0.09241827  0.62691238  0.15868330  1
  O  O131  1  0.13041922  0.61177239  0.61194835  1
  O  O132  1  0.61142619  0.13483094  0.13375638  1
  O  O133  1  0.61395528  0.08552223  0.61605777  1
  O  O134  1  0.60624595  0.62337650  0.15202424  1
  O  O135  1  0.59477915  0.64021326  0.65307891  1
  O  O136  1  0.44162550  0.34671120  0.34029985  1
  O  O137  1  0.37757730  0.39209945  0.90516485  1
  O  O138  1  0.37139820  0.87845611  0.35659776  1
  O  O139  1  0.38356239  0.87856701  0.86093349  1
  O  O140  1  0.85901472  0.35760749  0.38698275  1
  O  O141  1  0.88722722  0.40051264  0.87526027  1
  O  O142  1  0.88947135  0.88342519  0.35526555  1
  O  O143  1  0.89026716  0.87480247  0.88601322  1
  O  O144  1  0.25333289  0.01839338  0.39074800  1
  O  O145  1  0.27402871  -0.01095288  0.85876929  1
  O  O146  1  0.37241045  0.45719783  0.43697447  1
  O  O147  1  0.24523844  0.50385079  0.86683064  1
  O  O148  1  0.75120831  -0.01473773  0.36322845  1
  O  O149  1  0.77627843  0.01544340  0.88068361  1
  O  O150  1  0.75443954  0.51817630  0.35973000  1
  O  O151  1  0.74965730  0.51619605  0.86514127  1
  O  O152  1  0.22842883  0.51717201  0.11277124  1
  O  O153  1  0.24620239  0.48794871  0.63072323  1
  O  O154  1  0.26533572  0.98919133  0.10769504  1
  O  O155  1  0.23736146  0.97920562  0.63738386  1
  O  O156  1  0.73435991  0.51788833  0.13974392  1
  O  O157  1  0.74985299  0.49391967  0.65135034  1
  O  O158  1  0.75373535  0.98080525  0.13680487  1
  O  O159  1  0.74349539  0.97761090  0.65023974  1
  O  O160  1  -0.01370016  0.37313703  0.26704126  1
  O  O161  1  0.00502570  0.40481991  0.76647427  1
  O  O162  1  -0.01191029  0.91821252  0.22817318  1
  O  O163  1  0.00601403  0.85525382  0.75815491  1
  O  O164  1  0.58535526  0.37537516  0.34529550  1
  O  O165  1  0.49729835  0.38043128  0.76435501  1
  O  O166  1  0.50688340  0.87895301  0.26365817  1
  O  O167  1  0.50633658  0.85643606  0.75867737  1
  O  O168  1  0.48806198  0.11224175  0.23935715  1
  O  O169  1  0.49621665  0.14661571  0.75844225  1
  O  O170  1  0.48491833  0.62008087  0.28596781  1
  O  O171  1  0.47297103  0.62249918  0.74661027  1
  O  O172  1  1.01463742  0.10504266  0.25903495  1
  O  O173  1  1.00176848  0.13670615  0.72786010  1
  O  O174  1  1.00208742  0.62757526  0.30364698  1
  O  O175  1  0.98564437  0.62871098  0.74702173  1
  O  O176  1  0.37241739  0.26093121  0.00996824  1
  O  O177  1  0.39317562  0.26207094  0.49400197  1
  O  O178  1  0.35301185  0.73507702  0.00040265  1
  O  O179  1  0.35998930  0.73507622  0.51107702  1
  O  O180  1  0.87759178  0.27497901  -0.02743736  1
  O  O181  1  0.84196917  0.23890273  0.50690148  1
  O  O182  1  0.87711950  0.77111298  0.00047597  1
  O  O183  1  0.91576162  0.84475541  0.54915283  1
  O  O184  1  0.11403402  0.23880078  0.52334985  1
  O  O185  1  0.14374956  0.25421687  1.02032255  1
  O  O186  1  0.10793602  0.70945489  0.49005861  1
  O  O187  1  0.12398451  0.74104948  0.98136608  1
  O  O188  1  0.58190764  0.21119708  0.52774878  1
  O  O189  1  0.62100613  0.23128988  1.00346227  1
  O  O190  1  0.62561627  0.73629899  0.52470864  1
  O  O191  1  0.61662082  0.79225182  0.95596774  1
  O  O192  1  0.49152166  0.23160258  0.11860873  1
  O  O193  1  0.49415186  0.26511715  0.65509259  1
  O  O194  1  0.50140891  0.73295901  0.11690969  1
  O  O195  1  0.46997866  0.73460439  0.62050009  1
  O  O196  1  0.97160384  0.24935232  0.10859472  1
  O  O197  1  0.96530264  0.25170698  0.63173866  1
  O  O198  1  0.98362286  0.75164450  0.11744278  1
  O  O199  1  0.99390246  0.74556260  0.63930427  1
  O  O200  1  -0.02608486  0.25166556  0.39242199  1
  O  O201  1  0.01177686  0.27613105  0.86297786  1
  O  O202  1  0.02483543  0.79912636  0.34186500  1
  O  O203  1  0.00934914  0.75410775  0.87222640  1
  O  O204  1  0.49034958  0.29287293  0.34229042  1
  O  O205  1  0.48278586  0.27393121  0.86321435  1
  O  O206  1  0.47447905  0.76168792  0.37725240  1
  O  O207  1  0.48226113  0.75553316  0.87856358  1
  O  O208  1  0.26353885  0.15937640  0.47829188  1
  O  O209  1  0.25733072  0.14580679  0.98557701  1
  O  O210  1  0.23206376  0.59123365  0.48478017  1
  O  O211  1  0.25247404  0.61900718  0.97846308  1
  O  O212  1  0.72016602  0.11546866  0.51339267  1
  O  O213  1  0.72382176  0.10465196  1.00979455  1
  O  O214  1  0.75059493  0.65147651  0.47516884  1
  O  O215  1  0.74006822  0.62752587  0.98283619  1
  O  O216  1  0.26424213  0.37670272  0.02740701  1
  O  O217  1  0.25821100  0.36627296  0.50579669  1
  O  O218  1  0.24402023  0.84992955  -0.00900785  1
  O  O219  1  0.23917432  0.86667893  0.48100937  1
  O  O220  1  0.75645907  0.37057607  -0.02502512  1
  O  O221  1  0.75243824  0.39161626  0.52926488  1
  O  O222  1  0.75738077  0.88786094  0.00586637  1
  O  O223  1  0.76917675  0.86920238  0.47538402  1
  O  O224  1  0.12667298  0.45442775  0.27928912  1
  O  O225  1  0.13843876  0.50204769  0.74616192  1
  O  O226  1  0.14745896  1.10574426  0.14064912  1
  O  O227  1  0.14175279  0.98530649  0.75592904  1
  O  O228  1  0.64310191  0.49160450  0.24904978  1
  O  O229  1  0.62594154  0.50595296  0.75706800  1
  O  O230  1  0.63041350  0.97632087  0.26006357  1
  O  O231  1  0.59174408  0.99252690  0.73074330  1
  O  O232  1  0.36353905  0.01719696  0.23923948  1
  O  O233  1  0.38046662  0.00157948  0.74898719  1
  O  O234  1  0.37239060  0.51021365  0.25085694  1
  O  O235  1  0.35395600  0.51339596  0.74380622  1
  O  O236  1  0.84934590  0.00039357  0.26146713  1
  O  O237  1  0.86381186  -0.01373401  0.76203465  1
  O  O238  1  0.88561946  0.54351865  0.22807391  1
  O  O239  1  0.86856896  0.51789247  0.76362006  1
  O  O240  1  0.08679663  0.35445540  0.39577183  1
  O  O241  1  0.11100015  0.40219081  0.88695283  1
  O  O242  1  0.10022784  0.94019154  0.33969845  1
  O  O243  1  0.11676701  0.85824324  0.86402482  1
  O  O244  1  0.58648078  0.37442880  0.47723760  1
  O  O245  1  0.60398169  0.39181115  0.87085645  1
  O  O246  1  0.61748756  0.85754176  0.37129605  1
  O  O247  1  0.59987071  0.85231780  0.90393794  1
  O  O248  1  0.38417282  0.13332270  0.13076568  1
  O  O249  1  0.39851695  0.12435183  0.63762477  1
  O  O250  1  0.39896565  0.61200796  0.13998802  1
  O  O251  1  0.36960902  0.62781377  0.63150739  1
  O  O252  1  0.89554184  0.09866022  0.12833171  1
  O  O253  1  0.85911326  0.12509105  0.63691794  1
  O  O254  1  0.87275184  0.64168773  0.09333896  1
  O  O255  1  0.85645600  0.62462745  0.64080148  1
  O  O256  1  0.26915607  0.24230465  0.11448427  1
  O  O257  1  0.26665603  0.25430000  0.60125986  1
  O  O258  1  0.22480181  0.72964848  0.09871093  1
  O  O259  1  0.24811193  0.73908097  0.61490567  1
  O  O260  1  0.79602346  0.22623615  0.10952166  1
  O  O261  1  0.73094986  0.26860502  0.63965140  1
  O  O262  1  0.76631455  0.76877046  0.12387926  1
  O  O263  1  0.77363641  0.80270629  0.50582010  1
  O  O264  1  0.27511035  0.27650066  0.38218134  1
  O  O265  1  0.24965595  0.28867310  0.90362905  1
  O  O266  1  0.23761074  0.72812454  0.38533184  1
  O  O267  1  0.23360801  0.73562368  0.87976610  1
  O  O268  1  0.79359041  0.23218840  0.45447476  1
  O  O269  1  0.73908480  0.31363111  0.92377002  1
  O  O270  1  0.75226729  0.74958147  0.35236969  1
  O  O271  1  0.75760730  0.74079816  0.86876538  1
  O  O272  1  0.07615364  0.12124190  -0.05301766  1
  O  O273  1  0.00536076  0.12455859  0.54043645  1
  O  O274  1  0.04859373  0.59538703  0.01652194  1
  O  O275  1  0.00119131  0.61011328  0.49311614  1
  O  O276  1  0.50956554  0.11657599  0.00855227  1
  O  O277  1  0.49119280  0.09670608  0.50013443  1
  O  O278  1  0.49768128  0.61787676  0.00887708  1
  O  O279  1  0.51421253  0.62611025  0.50825387  1
  O  O280  1  0.53841008  0.42815327  0.47824667  1
  O  O281  1  0.49522561  0.37063300  0.99072378  1
  O  O282  1  0.48584569  0.87624196  0.48076942  1
  O  O283  1  0.49012580  0.89115583  1.02081834  1
  O  O284  1  0.97483416  0.35946339  0.51131814  1
  O  O285  1  0.99038642  0.38225230  0.98224413  1
  O  O286  1  0.97940016  0.87719339  0.52926665  1
  O  O287  1  1.00737212  0.87746538  0.98205761  1
  O  O288  1  0.53903134  0.43083545  0.34623663  1
  O  O289  1  0.49009842  0.49641617  0.87634352  1
  O  O290  1  0.49139248  0.98328963  0.38378435  1
  O  O291  1  0.48981148  0.97196042  0.88760042  1
  O  O292  1  0.97468183  0.46927054  0.40266246  1
  O  O293  1  0.98345723  0.51928715  0.88208200  1
  O  O294  1  0.97252214  0.99038532  0.38496094  1
  O  O295  1  0.99596856  0.97969066  0.85451491  1
  O  O296  1  0.10787297  -0.04891880  0.12649462  1
  O  O297  1  0.02507700  0.00177663  0.65089258  1
  O  O298  1  0.07084645  0.55928330  0.17119548  1
  O  O299  1  -0.01708223  0.48996181  0.60280988  1
  O  O300  1  0.49446718  0.01433818  0.11245012  1
  O  O301  1  0.49430349  -0.02553998  0.60534500  1
  O  O302  1  0.52186811  0.51149891  0.13932947  1
  O  O303  1  0.49040451  0.52050805  0.62806116  1
  O  O304  1  0.26472973  0.38565057  0.20487646  1
  O  O305  1  0.25009014  0.38138123  0.73707204  1
  O  O306  1  0.21889218  0.88754117  0.22956332  1
  O  O307  1  0.23900184  0.87273597  0.75796294  1
  O  O308  1  0.79535795  0.41551096  0.24666416  1
  O  O309  1  0.72655922  0.39514462  0.76319932  1
  O  O310  1  0.73602924  0.87600028  0.23713033  1
  O  O311  1  0.71156790  0.91431859  0.80050492  1
  O  O312  1  0.25281245  0.13534515  0.27324641  1
  O  O313  1  0.27440710  0.10316428  0.73547057  1
  O  O314  1  0.23905987  0.60674745  0.27560212  1
  O  O315  1  0.24718141  0.60956720  0.75659768  1
  O  O316  1  0.72725902  0.10016648  0.24082837  1
  O  O317  1  0.72366298  0.09532250  0.75363916  1
  O  O318  1  0.74004592  0.62310207  0.25867408  1
  O  O319  1  0.75507568  0.61809181  0.75941998  1
  O  O320  1  0.36839729  0.12397325  0.35894362  1
  O  O321  1  0.39263625  0.10325144  0.86253426  1
  O  O322  1  0.35384732  0.61460036  0.37721513  1
  O  O323  1  0.35467604  0.62775981  0.85943240  1
  O  O324  1  0.86955210  0.10395045  0.37768207  1
  O  O325  1  0.90816828  0.10383595  0.88151324  1
  O  O326  1  0.85971968  0.63538371  0.36495426  1
  O  O327  1  0.85989055  0.62073367  0.87308709  1
  O  O328  1  0.12156267  0.39128471  0.11460621  1
  O  O329  1  0.14640232  0.37128482  0.60678984  1
  O  O330  1  0.13170220  0.88389419  0.10797741  1
  O  O331  1  0.12099141  0.87642999  0.64172117  1
  O  O332  1  0.62094102  0.38547654  0.12583499  1
  O  O333  1  0.62621757  0.38224956  0.65126136  1
  O  O334  1  0.63581494  0.86913680  0.11594808  1
  O  O335  1  0.61884107  0.87714036  0.60862979  1
  O  O336  1  0.13477303  0.28212267  0.24998064  1
  O  O337  1  0.16389294  0.23372258  0.73894004  1
  O  O338  1  0.20868798  0.82292750  0.26242976  1
  O  O339  1  0.11334891  0.74675716  0.75497382  1
  O  O340  1  0.70116759  0.27057079  0.26541610  1
  O  O341  1  0.60971078  0.27093332  0.76123865  1
  O  O342  1  0.62507369  0.76819189  0.23952075  1
  O  O343  1  0.75928627  0.76273305  0.68183335  1
  O  O344  1  0.36917074  0.23704421  0.23339011  1
  O  O345  1  0.36980798  0.22872443  0.75749660  1
  O  O346  1  0.34926557  0.71078213  0.24477831  1
  O  O347  1  0.34998450  0.72823146  0.73511082  1
  O  O348  1  0.87699145  0.23101697  0.24479528  1
  O  O349  1  0.84008938  0.23759558  0.78981052  1
  O  O350  1  0.87857616  0.72728274  0.22803256  1
  O  O351  1  0.88921388  0.73530292  0.76407659  1
  O  O352  1  0.39331108  0.49549768  0.49554897  1
  O  O353  1  0.38198226  0.47814955  1.04067280  1
  O  O354  1  0.37480108  0.99306707  0.50450428  1
  O  O355  1  0.38443863  1.00734796  0.98339381  1
  O  O356  1  0.86320561  0.51810465  0.50334559  1
  O  O357  1  0.85838375  0.49509551  0.98363605  1
  O  O358  1  0.84801295  0.99445671  0.48917977  1
  O  O359  1  0.88190977  0.98767279  0.98905725  1
  O  O360  1  0.14005200  0.00864239  -0.02214284  1
  O  O361  1  0.11140899  -0.02594186  0.51619917  1
  O  O362  1  0.04512149  0.52571027  0.03398208  1
  O  O363  1  0.09716092  0.50061471  0.49312901  1
  O  O364  1  0.60744772  0.00059901  -0.01330344  1
  O  O365  1  0.60582712  -0.00259386  0.50380259  1
  O  O366  1  0.63224539  0.50319081  0.02216339  1
  O  O367  1  0.65762779  0.55932153  0.53322735  1
  O  O368  1  0.40292646  0.35327239  0.12592926  1
  O  O369  1  0.35839879  0.37867131  0.62658886  1
  O  O370  1  0.30737670  0.92910864  0.11869172  1
  O  O371  1  0.36485840  0.85313470  0.62698690  1
  O  O372  1  0.88175170  0.38961004  0.09735694  1
  O  O373  1  0.84930205  0.37252041  0.65662972  1
  O  O374  1  0.87123841  0.87320915  0.10698064  1
  O  O375  1  0.87671428  0.87464964  0.61400267  1
  O  O376  1  0.13375202  0.11957595  0.40952117  1
  O  O377  1  0.12573035  0.07008893  0.92462208  1
  O  O378  1  0.13078429  0.60730296  0.38212807  1
  O  O379  1  0.13090932  0.62933527  0.86472867  1
  O  O380  1  0.61287817  0.11496480  0.39590134  1
  O  O381  1  0.62056540  0.12617733  0.88371727  1
  O  O382  1  0.63332151  0.63322682  0.38031373  1
  O  O383  1  0.63110657  0.63604203  0.86672493  1
