# generated using pymatgen
data_VZnO4
_symmetry_space_group_name_H-M   'P 1'
_cell_length_a   16.91513352
_cell_length_b   16.94360515
_cell_length_c   16.96795842
_cell_angle_alpha   90.00837902
_cell_angle_beta   90.32029986
_cell_angle_gamma   89.76603549
_symmetry_Int_Tables_number   1
_chemical_formula_structural   VZnO4
_chemical_formula_sum   'V64 Zn64 O256'
_cell_volume   4862.95704602
_cell_formula_units_Z   64
loop_
 _symmetry_equiv_pos_site_id
 _symmetry_equiv_pos_as_xyz
  1  'x, y, z'
loop_
 _atom_site_type_symbol
 _atom_site_label
 _atom_site_symmetry_multiplicity
 _atom_site_fract_x
 _atom_site_fract_y
 _atom_site_fract_z
 _atom_site_occupancy
  V  V0  1  0.00063048  0.63127435  0.60949835  1
  V  V1  1  0.86410457  0.24513584  0.63142675  1
  V  V2  1  0.25889789  0.36401499  0.63325390  1
  V  V3  1  0.74133333  0.75215620  0.49970059  1
  V  V4  1  0.74264214  0.12105423  0.38059265  1
  V  V5  1  0.35416826  0.26867998  0.13430946  1
  V  V6  1  -0.00696306  0.11938516  0.63325035  1
  V  V7  1  0.00546679  0.49630715  -0.00976757  1
  V  V8  1  0.63361474  0.74266384  0.90043613  1
  V  V9  1  0.76172403  0.61994602  0.37542787  1
  V  V10  1  0.47971302  0.75045178  0.24963140  1
  V  V11  1  0.61927254  0.24606260  0.37840683  1
  V  V12  1  -0.00324331  0.24547892  0.27582006  1
  V  V13  1  0.13181047  0.64050708  -0.00833359  1
  V  V14  1  0.62037300  0.12255513  -0.01659293  1
  V  V15  1  0.62915439  0.51750953  0.62257800  1
  V  V16  1  0.00835207  0.88150977  0.35924950  1
  V  V17  1  0.35725313  0.74868871  0.10197405  1
  V  V18  1  0.51645823  0.52999816  0.49840416  1
  V  V19  1  0.48111418  -0.01428288  -0.00030238  1
  V  V20  1  0.50757218  0.50431565  -0.01264817  1
  V  V21  1  0.75592914  0.51549464  0.75332526  1
  V  V22  1  -0.00306361  0.88008909  0.87615566  1
  V  V23  1  0.50878504  0.62016054  0.12480443  1
  V  V24  1  0.37236866  0.87693937  0.49864770  1
  V  V25  1  0.26485297  0.49432594  0.23711619  1
  V  V26  1  0.50457378  0.37432836  0.39259000  1
  V  V27  1  0.38460822  0.51915878  0.37576784  1
  V  V28  1  0.12742081  -0.00505495  0.62998073  1
  V  V29  1  0.38049019  0.61156602  0.74940878  1
  V  V30  1  0.11722093  0.74375338  0.39693528  1
  V  V31  1  0.12208492  0.06099043  0.13779354  1
  V  V32  1  0.62001458  -0.00748002  0.13092232  1
  V  V33  1  0.74675683  0.86306404  0.13222038  1
  V  V34  1  0.51227378  0.26902179  0.23767230  1
  V  V35  1  0.87228834  0.86725088  0.51001095  1
  V  V36  1  -0.00464374  0.00074494  0.50577090  1
  V  V37  1  0.61900610  0.37234494  0.75865384  1
  V  V38  1  0.61825707  -0.02115744  0.60750903  1
  V  V39  1  0.00355050  0.01670684  0.00247909  1
  V  V40  1  0.49108294  0.11805630  0.13714230  1
  V  V41  1  0.24698504  0.63038238  0.85751681  1
  V  V42  1  0.51192007  0.74777032  0.74023519  1
  V  V43  1  0.75029777  0.00268418  0.24915862  1
  V  V44  1  0.86932617  0.87924133  0.00224692  1
  V  V45  1  -0.01258725  0.73572874  0.75902063  1
  V  V46  1  0.63300975  0.75810840  0.34720085  1
  V  V47  1  0.75097108  0.25387014  0.49788666  1
  V  V48  1  0.89264963  0.75055060  0.13815559  1
  V  V49  1  0.87944112  0.47686479  0.87393261  1
  V  V50  1  0.84168517  0.24352957  0.13670914  1
  V  V51  1  0.37929019  -0.01226434  0.35699214  1
  V  V52  1  0.12531951  0.87018163  0.75579696  1
  V  V53  1  0.48702365  0.86079215  0.87710490  1
  V  V54  1  0.26451280  0.00321183  0.75748733  1
  V  V55  1  0.37683932  0.37992736  -0.02465020  1
  V  V56  1  0.01229584  0.62651952  0.13365284  1
  V  V57  1  0.75176324  0.38050232  0.62157155  1
  V  V58  1  0.35125445  0.74534967  0.62566178  1
  V  V59  1  0.87410856  0.00538238  0.37095223  1
  V  V60  1  0.84805319  0.11687950  0.75829464  1
  V  V61  1  0.12700133  0.47892343  0.12268055  1
  V  V62  1  0.73458915  -0.01950379  0.76022674  1
  V  V63  1  0.73451392  0.50382550  0.23491742  1
  Zn  Zn64  1  0.13640374  0.27079789  0.16028940  1
  Zn  Zn65  1  0.28713937  0.15173928  0.63499564  1
  Zn  Zn66  1  0.21494204  0.65596392  0.18372936  1
  Zn  Zn67  1  0.19962628  0.57938300  0.65823519  1
  Zn  Zn68  1  0.67612545  0.17419395  0.18763241  1
  Zn  Zn69  1  0.67807714  0.18977617  0.69394990  1
  Zn  Zn70  1  0.69577624  0.67525260  0.18131944  1
  Zn  Zn71  1  0.68677373  0.80725680  0.68601616  1
  Zn  Zn72  1  0.31925104  0.32860849  0.31490382  1
  Zn  Zn73  1  0.35094375  0.29702585  0.80228671  1
  Zn  Zn74  1  0.30041191  0.80569011  0.32602862  1
  Zn  Zn75  1  0.31169762  0.80659346  0.80669214  1
  Zn  Zn76  1  0.77239395  0.29959982  0.27817943  1
  Zn  Zn77  1  0.80005628  0.31584718  0.80834637  1
  Zn  Zn78  1  0.81922765  0.81613397  0.31510560  1
  Zn  Zn79  1  0.81193290  0.80637877  0.82064270  1
  Zn  Zn80  1  0.22195199  0.48626408  0.48208960  1
  Zn  Zn81  1  0.20538727  0.47021422  0.93289924  1
  Zn  Zn82  1  0.19437999  0.92775022  0.44933495  1
  Zn  Zn83  1  0.17961275  0.95901125  0.92956539  1
  Zn  Zn84  1  0.68929012  0.43734679  0.43360372  1
  Zn  Zn85  1  0.68393501  0.47656868  0.93307734  1
  Zn  Zn86  1  0.68171920  0.93117851  0.43488554  1
  Zn  Zn87  1  0.67532485  0.92637797  0.94226693  1
  Zn  Zn88  1  0.31331106  0.07371968  0.06555480  1
  Zn  Zn89  1  0.26949847  0.09716332  0.44735951  1
  Zn  Zn90  1  0.32399231  0.56907776  0.05149250  1
  Zn  Zn91  1  0.34343676  0.59954244  0.53779099  1
  Zn  Zn92  1  0.80275015  0.05988898  0.05930225  1
  Zn  Zn93  1  0.79836924  0.05530628  0.56575686  1
  Zn  Zn94  1  0.82996320  0.55749285  0.06652096  1
  Zn  Zn95  1  0.77220765  0.62943687  0.61443556  1
  Zn  Zn96  1  0.44123352  0.44428586  0.18283510  1
  Zn  Zn97  1  0.45118764  0.44327368  0.67762586  1
  Zn  Zn98  1  0.42766843  0.92371803  0.18630690  1
  Zn  Zn99  1  0.44058582  0.92457198  0.67962943  1
  Zn  Zn100  1  0.89075007  0.40136878  0.21392127  1
  Zn  Zn101  1  0.92388913  0.45114641  0.67670555  1
  Zn  Zn102  1  0.94083484  0.95475336  0.17989646  1
  Zn  Zn103  1  0.92015022  0.93640729  0.69213462  1
  Zn  Zn104  1  0.06780893  0.07464000  0.32077074  1
  Zn  Zn105  1  0.04001599  0.04876485  0.80559773  1
  Zn  Zn106  1  0.10301986  0.56891936  0.30323338  1
  Zn  Zn107  1  0.07628299  0.55756191  0.81585237  1
  Zn  Zn108  1  0.55946978  0.05598282  0.31803186  1
  Zn  Zn109  1  0.55445239  0.03658602  0.81062157  1
  Zn  Zn110  1  0.57324860  0.57512624  0.30943325  1
  Zn  Zn111  1  0.57078868  0.57227750  0.81203575  1
  Zn  Zn112  1  0.39311858  0.15897470  0.30410086  1
  Zn  Zn113  1  0.46362432  0.20933430  0.98717235  1
  Zn  Zn114  1  0.44964103  0.71268036  0.43999965  1
  Zn  Zn115  1  0.43165876  0.68112912  0.93600675  1
  Zn  Zn116  1  0.93163999  0.18732047  0.44286067  1
  Zn  Zn117  1  0.89052502  0.17368431  0.95163015  1
  Zn  Zn118  1  0.94111213  0.69143516  0.42521281  1
  Zn  Zn119  1  0.94592870  0.69949253  0.95163659  1
  Zn  Zn120  1  -0.05619922  0.33810973  0.04579331  1
  Zn  Zn121  1  0.05622938  0.30983262  0.61629019  1
  Zn  Zn122  1  0.06212207  0.81459991  0.05620030  1
  Zn  Zn123  1  0.05651067  0.81120076  0.57091538  1
  Zn  Zn124  1  0.58734453  0.33585048  -0.04422802  1
  Zn  Zn125  1  0.57623351  0.31646828  0.56504035  1
  Zn  Zn126  1  0.55526574  0.80474082  0.07132081  1
  Zn  Zn127  1  0.55448757  0.80854668  0.54843800  1
  O  O128  1  0.10876673  0.15938677  0.12820141  1
  O  O129  1  0.09498165  0.10607493  0.63960072  1
  O  O130  1  0.12256196  0.61723243  0.11578888  1
  O  O131  1  0.08564793  0.58665865  0.64463751  1
  O  O132  1  0.60750948  0.11107184  0.12315659  1
  O  O133  1  0.62362884  0.11035755  0.62242149  1
  O  O134  1  0.60864591  0.63591788  0.11829181  1
  O  O135  1  0.64151693  0.61349868  0.62088179  1
  O  O136  1  0.40267328  0.39173284  0.36663555  1
  O  O137  1  0.40442015  0.35162910  0.88194159  1
  O  O138  1  0.36540441  0.88084192  0.37894469  1
  O  O139  1  0.38605787  0.85518434  0.88183658  1
  O  O140  1  0.91814205  0.47894395  0.37563598  1
  O  O141  1  0.88256623  0.37780106  0.87216931  1
  O  O142  1  0.88899305  0.88843570  0.37808598  1
  O  O143  1  0.87822438  0.87308391  0.89709858  1
  O  O144  1  0.26269395  -0.00261963  0.39314948  1
  O  O145  1  0.24904158  0.00585398  0.85838578  1
  O  O146  1  0.28568929  0.50170687  0.39042470  1
  O  O147  1  0.18784990  0.52856953  0.83780125  1
  O  O148  1  0.75302213  0.00212123  0.36904056  1
  O  O149  1  0.73619393  -0.01765679  0.86074220  1
  O  O150  1  0.74768035  0.51761322  0.37850271  1
  O  O151  1  0.77185278  0.49976737  0.87029354  1
  O  O152  1  0.24291593  0.50439675  0.13208974  1
  O  O153  1  0.21834079  0.46027987  0.65456309  1
  O  O154  1  0.21591487  1.04022006  0.10181862  1
  O  O155  1  0.22562645  0.98964404  0.63731476  1
  O  O156  1  0.75591899  0.51059929  0.13567544  1
  O  O157  1  0.74512993  0.49661984  0.62946520  1
  O  O158  1  0.74013712  0.99269724  0.13398270  1
  O  O159  1  0.72617181  0.99866487  0.63215291  1
  O  O160  1  -0.00139246  0.35229488  0.21036016  1
  O  O161  1  0.02386178  0.39414937  0.71283807  1
  O  O162  1  0.00316949  0.89530780  0.26110324  1
  O  O163  1  -0.01038870  0.88174493  0.76850757  1
  O  O164  1  0.50984777  0.36924734  0.24085273  1
  O  O165  1  0.52041444  0.37193789  0.73159866  1
  O  O166  1  0.50116964  0.84808768  0.23792383  1
  O  O167  1  0.49290090  0.85719642  0.76731713  1
  O  O168  1  0.49560225  0.13147388  0.24736477  1
  O  O169  1  0.47738773  0.10472387  0.74843126  1
  O  O170  1  0.50432136  0.63367032  0.23513866  1
  O  O171  1  0.48884425  0.64209151  0.76429782  1
  O  O172  1  0.99206148  0.14359948  0.27135067  1
  O  O173  1  0.96820973  0.10847266  0.73667548  1
  O  O174  1  1.01515242  0.61545970  0.23116277  1
  O  O175  1  1.00159566  0.63727169  0.76950004  1
  O  O176  1  0.38032140  0.27699994  0.02517316  1
  O  O177  1  0.41903316  0.19742549  0.52812862  1
  O  O178  1  0.36038026  0.74390193  0.00177995  1
  O  O179  1  0.36506797  0.71162735  0.52219709  1
  O  O180  1  0.87848403  0.24699181  0.02919308  1
  O  O181  1  0.85869805  0.24495828  0.51478413  1
  O  O182  1  0.88713143  0.77251419  0.02133174  1
  O  O183  1  0.87234520  0.76512444  0.48957902  1
  O  O184  1  0.09679982  0.26025769  0.49981463  1
  O  O185  1  0.16088377  0.21940146  0.97695510  1
  O  O186  1  0.12601657  0.76260413  0.49535978  1
  O  O187  1  0.13509997  0.73725328  1.01425151  1
  O  O188  1  0.63687244  0.25315521  0.48656184  1
  O  O189  1  0.57905962  0.22459321  0.97963457  1
  O  O190  1  0.64033020  0.75721128  0.48288675  1
  O  O191  1  0.62187011  0.74627940  1.00065883  1
  O  O192  1  0.50313205  0.24014475  0.13870904  1
  O  O193  1  0.55508552  0.22245338  0.63377968  1
  O  O194  1  0.48169867  0.73821010  0.13170361  1
  O  O195  1  0.50952755  0.74800711  0.64060307  1
  O  O196  1  1.00522884  0.29284977  0.14942338  1
  O  O197  1  0.98060602  0.22974224  0.62847256  1
  O  O198  1  1.00322559  0.74392929  0.12864509  1
  O  O199  1  1.00258076  0.73593578  0.64468593  1
  O  O200  1  -0.02763047  0.26551841  0.37309712  1
  O  O201  1  0.02757133  0.21387906  0.85975723  1
  O  O202  1  0.00880151  0.77271221  0.37047979  1
  O  O203  1  -0.00609059  0.76826498  0.87180587  1
  O  O204  1  0.50440304  0.26596030  0.36117210  1
  O  O205  1  0.46396779  0.17613411  0.77901824  1
  O  O206  1  0.52301126  0.73558560  0.35050359  1
  O  O207  1  0.50532762  0.75147686  0.87918307  1
  O  O208  1  0.23335230  0.13761031  0.54067606  1
  O  O209  1  0.30638726  0.13807626  0.95163101  1
  O  O210  1  0.23692051  0.57182770  0.55095396  1
  O  O211  1  0.23968284  0.60466099  0.97440294  1
  O  O212  1  0.74845693  0.13330136  0.48699634  1
  O  O213  1  0.72015836  0.12322693  1.00414435  1
  O  O214  1  0.76136994  0.64531140  0.48783007  1
  O  O215  1  0.79306366  0.63334538  0.97384029  1
  O  O216  1  0.27432927  0.38808869  -0.03695940  1
  O  O217  1  0.24708155  0.38182114  0.52898942  1
  O  O218  1  0.21349010  0.88520780  0.02180811  1
  O  O219  1  0.27072621  0.85774458  0.49740813  1
  O  O220  1  0.75907554  0.32338478  -0.03002370  1
  O  O221  1  0.74746325  0.36729008  0.50866216  1
  O  O222  1  0.76292933  0.88517217  0.01814101  1
  O  O223  1  0.76370903  0.86422457  0.48829945  1
  O  O224  1  0.11478126  0.48534028  0.22205761  1
  O  O225  1  0.07421806  0.42618590  0.76210866  1
  O  O226  1  0.13045367  1.03787200  0.23562193  1
  O  O227  1  0.12169797  0.99291412  0.74712434  1
  O  O228  1  0.63595112  0.49569504  0.24712017  1
  O  O229  1  0.63168606  0.50195629  0.73781802  1
  O  O230  1  0.63166002  0.99958975  0.23954748  1
  O  O231  1  0.63102501  0.98792747  0.74282158  1
  O  O232  1  0.36627687  -0.00848406  0.25607771  1
  O  O233  1  0.35726494  -0.03190144  0.74329479  1
  O  O234  1  0.36884694  0.50396568  0.25752048  1
  O  O235  1  0.39841399  0.51384343  0.75075753  1
  O  O236  1  0.86384806  -0.00111061  0.25858112  1
  O  O237  1  0.84787327  0.00853399  0.74410306  1
  O  O238  1  0.94773598  0.47284927  0.30860024  1
  O  O239  1  0.87343985  0.49841597  0.76815668  1
  O  O240  1  0.11793736  0.30932145  0.44933124  1
  O  O241  1  0.12456590  0.27988487  0.95989191  1
  O  O242  1  0.10809738  0.88442265  0.38336202  1
  O  O243  1  0.10592400  0.88599143  0.86858872  1
  O  O244  1  0.61477013  0.36562755  0.37668327  1
  O  O245  1  0.62060851  0.39764048  0.86003803  1
  O  O246  1  0.63406408  0.85827240  0.36302930  1
  O  O247  1  0.60190728  0.85860630  0.88772656  1
  O  O248  1  0.38550417  0.14595911  0.12096199  1
  O  O249  1  0.40512490  0.14550617  0.57782894  1
  O  O250  1  0.37833919  0.63728646  0.12434121  1
  O  O251  1  0.37952665  0.63061080  0.64574594  1
  O  O252  1  0.84346452  0.14160514  0.12915788  1
  O  O253  1  0.86504168  0.12918564  0.63262223  1
  O  O254  1  0.89689563  0.64096157  0.11797748  1
  O  O255  1  0.89120185  0.61416100  0.63847288  1
  O  O256  1  0.25688599  0.25344424  0.14237230  1
  O  O257  1  0.29540662  0.26575021  0.62102395  1
  O  O258  1  0.25770916  0.74067986  0.13304093  1
  O  O259  1  0.25612373  0.74541163  0.63688075  1
  O  O260  1  0.74202807  0.26294933  0.16246924  1
  O  O261  1  0.74619968  0.25772192  0.61594317  1
  O  O262  1  0.76499835  0.76015433  0.13070019  1
  O  O263  1  0.74625137  0.74604831  0.60428610  1
  O  O264  1  0.27241946  0.23123804  0.36762701  1
  O  O265  1  0.25011661  0.24100317  0.84666241  1
  O  O266  1  0.20226891  0.75825197  0.34122516  1
  O  O267  1  0.23826278  0.72962739  0.85529087  1
  O  O268  1  0.74067778  0.24321999  0.37519096  1
  O  O269  1  0.73844930  0.28085407  0.90474473  1
  O  O270  1  0.74856348  0.74646142  0.37360116  1
  O  O271  1  0.73125995  0.76796518  0.88538867  1
  O  O272  1  -0.02219898  0.11213289  -0.00514348  1
  O  O273  1  -0.01553049  0.11076579  0.51562186  1
  O  O274  1  0.01609127  0.62494604  0.00581940  1
  O  O275  1  0.00344087  0.64556719  0.51187363  1
  O  O276  1  0.50216477  0.10100445  0.01498909  1
  O  O277  1  0.55796335  0.15145015  0.59491290  1
  O  O278  1  0.48672841  0.61340613  0.01169892  1
  O  O279  1  0.52259624  0.62681720  0.49141316  1
  O  O280  1  0.50195009  0.36867297  0.49304054  1
  O  O281  1  0.49574141  0.39243546  0.99965447  1
  O  O282  1  0.46783891  0.82297188  0.47943721  1
  O  O283  1  0.49590839  0.88144853  1.00411930  1
  O  O284  1  1.00798740  0.40493093  0.55549960  1
  O  O285  1  1.01679808  0.39651619  0.98806625  1
  O  O286  1  0.98673530  0.88445760  0.49759910  1
  O  O287  1  0.99588969  0.88586360  0.99386199  1
  O  O288  1  0.51269505  0.49463645  0.38611375  1
  O  O289  1  0.50326323  0.51565475  0.88833072  1
  O  O290  1  0.48229890  0.99029201  0.36494658  1
  O  O291  1  0.49253560  0.97918021  0.89184226  1
  O  O292  1  1.09236998  0.46568159  0.38409951  1
  O  O293  1  0.98868004  0.51271707  0.88189860  1
  O  O294  1  0.99571994  1.00151460  0.38579612  1
  O  O295  1  0.98668246  0.98938735  0.88806684  1
  O  O296  1  0.02245564  0.00438952  0.11340934  1
  O  O297  1  -0.01303374  0.00400425  0.62029898  1
  O  O298  1  0.01068095  0.51186971  0.10569240  1
  O  O299  1  -0.07309364  0.54270678  0.60424178  1
  O  O300  1  0.50074864  -0.00165302  0.12689636  1
  O  O301  1  0.51860874  -0.01004090  0.63364963  1
  O  O302  1  0.49835055  0.51638607  0.12292531  1
  O  O303  1  0.51765024  0.50832793  0.60909231  1
  O  O304  1  0.24294714  0.40116484  0.26914317  1
  O  O305  1  0.27794282  0.35724646  0.73805462  1
  O  O306  1  0.23704687  0.89531723  0.23728085  1
  O  O307  1  0.22789146  0.87670934  0.76012110  1
  O  O308  1  0.78722953  0.41401342  0.26683461  1
  O  O309  1  0.74249743  0.39328683  0.74200915  1
  O  O310  1  0.75684420  0.88453801  0.23695740  1
  O  O311  1  0.75672675  0.87733272  0.74422659  1
  O  O312  1  0.20203781  0.20233487  0.33383178  1
  O  O313  1  0.27090036  0.10210929  0.73239467  1
  O  O314  1  0.22020642  0.58497744  0.27157726  1
  O  O315  1  0.26508270  0.61617979  0.74816655  1
  O  O316  1  0.74153561  0.11135279  0.26498581  1
  O  O317  1  0.74345978  0.11189582  0.75071646  1
  O  O318  1  0.75705256  0.60808011  0.25596728  1
  O  O319  1  0.75699594  0.61270646  0.73538020  1
  O  O320  1  0.37002347  0.09656087  0.38824768  1
  O  O321  1  0.36818460  0.15351300  0.91156858  1
  O  O322  1  0.39700769  0.61740318  0.37461204  1
  O  O323  1  0.35539143  0.62312862  0.86365996  1
  O  O324  1  0.86159087  0.11085562  0.38285326  1
  O  O325  1  0.86342647  0.12841075  0.85680134  1
  O  O326  1  0.86314079  0.63327086  0.36865830  1
  O  O327  1  0.84537362  0.63963821  0.91774577  1
  O  O328  1  0.13677258  0.38128107  0.10846628  1
  O  O329  1  0.16223267  0.32524754  0.64175689  1
  O  O330  1  0.16039815  0.88624370  0.07593544  1
  O  O331  1  0.10197199  0.88766768  0.64650790  1
  O  O332  1  0.69916760  0.36911850  0.00080134  1
  O  O333  1  0.63847290  0.38524673  0.63348292  1
  O  O334  1  0.64085068  0.87642941  0.11950630  1
  O  O335  1  0.62359702  0.87241827  0.61360955  1
  O  O336  1  0.09749844  0.26485504  0.26983053  1
  O  O337  1  0.18945227  0.23158650  0.80531094  1
  O  O338  1  0.16961409  0.87479535  0.21943988  1
  O  O339  1  0.10047938  0.77310683  0.75565297  1
  O  O340  1  0.61513229  0.24721557  0.26076392  1
  O  O341  1  0.64554903  0.27430060  0.76298375  1
  O  O342  1  0.63726361  0.75147302  0.24640245  1
  O  O343  1  0.61344189  0.75068847  0.75888232  1
  O  O344  1  0.38989015  0.25636413  0.24500791  1
  O  O345  1  0.40207360  0.21493988  0.74027323  1
  O  O346  1  0.38067985  0.74746154  0.26670715  1
  O  O347  1  0.38311212  0.74563712  0.73759380  1
  O  O348  1  0.88020976  0.25848661  0.23716853  1
  O  O349  1  0.84897518  0.23361461  0.74044702  1
  O  O350  1  0.88250381  0.75753113  0.23670988  1
  O  O351  1  0.88732708  0.74974517  0.75689357  1
  O  O352  1  0.40805278  0.51372718  0.48993872  1
  O  O353  1  0.38664676  0.48468747  1.00275196  1
  O  O354  1  0.38857335  0.97269889  0.50503922  1
  O  O355  1  0.38311867  0.99772962  1.01396245  1
  O  O356  1  0.97475808  0.39306665  0.48911999  1
  O  O357  1  0.89238415  0.49919420  0.98815224  1
  O  O358  1  0.87437388  0.98901230  0.49233457  1
  O  O359  1  0.88620096  0.98655952  1.02069271  1
  O  O360  1  0.10470216  0.02280785  -0.01336665  1
  O  O361  1  0.10947113  -0.01200662  0.52189096  1
  O  O362  1  0.11888959  0.51105894  0.00259519  1
  O  O363  1  0.10669705  0.48342341  0.45645123  1
  O  O364  1  0.61319485  0.00131925  0.01530579  1
  O  O365  1  0.62075344  -0.00830181  0.50678825  1
  O  O366  1  0.60860794  0.50313243  0.00747452  1
  O  O367  1  0.62295235  0.49655940  0.51092765  1
  O  O368  1  0.36443758  0.36951740  0.14153669  1
  O  O369  1  0.35863615  0.40112131  0.62343489  1
  O  O370  1  0.37013274  0.84830769  0.12552595  1
  O  O371  1  0.38184368  0.84922823  0.61104385  1
  O  O372  1  0.85773587  0.35937442  0.11580970  1
  O  O373  1  0.86051130  0.36165521  0.63815777  1
  O  O374  1  0.87224052  0.86961195  0.12533593  1
  O  O375  1  0.87513007  0.87227005  0.60915567  1
  O  O376  1  0.17191975  0.14269883  0.37640774  1
  O  O377  1  0.07398446  0.15582177  0.86149382  1
  O  O378  1  0.09802841  0.64510193  0.38440991  1
  O  O379  1  0.11892965  0.64473200  0.89096055  1
  O  O380  1  0.62833462  0.13350566  0.37329794  1
  O  O381  1  0.61198422  0.10134682  0.88710976  1
  O  O382  1  0.64866518  0.64270717  0.36588688  1
  O  O383  1  0.63059745  0.64199626  0.87759403  1
