# generated using pymatgen
data_VZnO4
_symmetry_space_group_name_H-M   'P 1'
_cell_length_a   16.98109623
_cell_length_b   16.98856378
_cell_length_c   17.07440538
_cell_angle_alpha   89.42982482
_cell_angle_beta   90.50092077
_cell_angle_gamma   89.51059234
_symmetry_Int_Tables_number   1
_chemical_formula_structural   VZnO4
_chemical_formula_sum   'V64 Zn64 O256'
_cell_volume   4925.08469126
_cell_formula_units_Z   64
loop_
 _symmetry_equiv_pos_site_id
 _symmetry_equiv_pos_as_xyz
  1  'x, y, z'
loop_
 _atom_site_type_symbol
 _atom_site_label
 _atom_site_symmetry_multiplicity
 _atom_site_fract_x
 _atom_site_fract_y
 _atom_site_fract_z
 _atom_site_occupancy
  V  V0  1  0.52390681  0.24606388  0.76419190  1
  V  V1  1  0.37689143  0.11719216  0.25254599  1
  V  V2  1  0.12460283  0.73635495  0.39651801  1
  V  V3  1  0.62840460  0.12323796  0.47629033  1
  V  V4  1  0.50163670  0.24998268  0.27455872  1
  V  V5  1  0.01395403  0.64167716  0.11206759  1
  V  V6  1  0.37565809  0.49538452  0.34808275  1
  V  V7  1  -0.00402526  0.74207543  0.25931166  1
  V  V8  1  0.26303282  0.47558310  0.75602145  1
  V  V9  1  0.51652829  0.38102339  0.37733043  1
  V  V10  1  0.50572771  0.88407565  0.86754350  1
  V  V11  1  0.89664034  0.74668893  0.61674643  1
  V  V12  1  0.62197787  -0.00041677  0.14166823  1
  V  V13  1  0.37004916  0.01801007  0.87098846  1
  V  V14  1  0.39791523  0.24314817  0.61042959  1
  V  V15  1  0.62909081  0.38434842  0.75468828  1
  V  V16  1  0.25115362  0.61425438  0.38527424  1
  V  V17  1  0.29123059  0.26639851  -0.02814963  1
  V  V18  1  0.23553169  0.36645176  0.61851850  1
  V  V19  1  0.14699652  0.85937431  0.76192990  1
  V  V20  1  0.09266089  0.14535583  -0.00784704  1
  V  V21  1  -0.00703722  0.86894913  0.38868453  1
  V  V22  1  0.73990234  0.64233037  0.39758701  1
  V  V23  1  0.13689448  0.00232264  0.64076974  1
  V  V24  1  0.25515747  0.72896474  0.54173403  1
  V  V25  1  0.39080793  0.92392789  0.51319002  1
  V  V26  1  0.83865620  0.63363062  0.25381006  1
  V  V27  1  0.37371867  0.13496446  0.75115292  1
  V  V28  1  0.49289141  0.63960387  0.07229338  1
  V  V29  1  0.63701313  0.75771007  0.87839275  1
  V  V30  1  0.86126247  0.50259062  0.37914174  1
  V  V31  1  0.76021268  0.86650481  0.60705285  1
  V  V32  1  0.49757795  0.14339101  0.12397185  1
  V  V33  1  0.75246045  0.61276555  0.87716582  1
  V  V34  1  0.60785412  0.64004497  0.50666541  1
  V  V35  1  0.74941690  0.13615447  0.89063615  1
  V  V36  1  0.27339258  0.36619109  0.15057043  1
  V  V37  1  0.24824836  0.10397433  0.36331122  1
  V  V38  1  0.01870614  0.37651086  0.35888242  1
  V  V39  1  0.84938388  0.75541260  0.12676912  1
  V  V40  1  0.77931729  0.00376539  0.74341736  1
  V  V41  1  0.63289825  0.88172657  0.73880579  1
  V  V42  1  0.24847533  0.24242739  0.48805917  1
  V  V43  1  0.37964357  0.38558116  0.49759224  1
  V  V44  1  0.75019640  0.24438750  0.49934593  1
  V  V45  1  0.73465790  0.87643312  0.10060868  1
  V  V46  1  0.76044393  0.38067850  0.61592025  1
  V  V47  1  0.88115572  0.62233346  0.75168493  1
  V  V48  1  0.62008899  0.01031007  0.61250318  1
  V  V49  1  0.13143726  0.49374917  0.12346591  1
  V  V50  1  0.61238356  0.49761308  0.60827829  1
  V  V51  1  0.36315743  0.88228898  -0.00223055  1
  V  V52  1  0.35748911  0.75185662  0.11578511  1
  V  V53  1  0.87452556  0.11494437  0.25196300  1
  V  V54  1  -0.00735985  -0.06263802  -0.00192682  1
  V  V55  1  -0.00294158  -0.00949168  0.50645304  1
  V  V56  1  0.49669325  0.75360901  0.73416708  1
  V  V57  1  0.02602772  0.50285178  0.49494347  1
  V  V58  1  0.00233864  0.26310763  0.73881660  1
  V  V59  1  0.12635515  0.11890413  0.49616391  1
  V  V60  1  0.51506463  0.00818912  -0.00420668  1
  V  V61  1  0.14854775  0.86454849  0.25437626  1
  V  V62  1  0.60218579  0.51202083  0.13463354  1
  V  V63  1  0.39335442  0.68542880  0.29905499  1
  Zn  Zn64  1  0.21341891  0.15072726  0.14933192  1
  Zn  Zn65  1  0.19325616  0.18464295  0.67667177  1
  Zn  Zn66  1  0.18637439  0.67446366  0.20488772  1
  Zn  Zn67  1  0.25346996  0.68858035  0.75253930  1
  Zn  Zn68  1  0.67625650  0.18075785  0.05281330  1
  Zn  Zn69  1  0.69939779  0.18603746  0.67725284  1
  Zn  Zn70  1  0.66714665  0.68598062  0.17577386  1
  Zn  Zn71  1  0.70145626  0.68128166  0.68063383  1
  Zn  Zn72  1  0.32369176  0.30216053  0.31486203  1
  Zn  Zn73  1  0.33180626  0.32367053  0.78824690  1
  Zn  Zn74  1  0.30854895  0.82109470  0.36521164  1
  Zn  Zn75  1  0.32194490  0.82965949  0.80620921  1
  Zn  Zn76  1  0.86123559  0.29798665  0.33005500  1
  Zn  Zn77  1  0.79590095  0.30394258  0.80437688  1
  Zn  Zn78  1  0.78091200  0.84868582  0.40293025  1
  Zn  Zn79  1  0.81881277  0.81702685  0.80357276  1
  Zn  Zn80  1  0.19182188  0.42709406  0.42634484  1
  Zn  Zn81  1  0.21399408  0.45081039  0.95348286  1
  Zn  Zn82  1  0.19443032  0.91381928  0.46776739  1
  Zn  Zn83  1  0.18075926  0.97099246  0.94839860  1
  Zn  Zn84  1  0.69642419  0.44432574  0.44282884  1
  Zn  Zn85  1  0.69024709  0.43591051  0.96091718  1
  Zn  Zn86  1  0.65473566  0.98223770  0.38885206  1
  Zn  Zn87  1  0.69197776  0.95976137  0.91662519  1
  Zn  Zn88  1  0.32336189  0.08108103  0.04555905  1
  Zn  Zn89  1  0.31089125  0.06602903  0.57115778  1
  Zn  Zn90  1  0.31167116  0.55584074  0.08902532  1
  Zn  Zn91  1  0.30292908  0.55630027  0.58059550  1
  Zn  Zn92  1  0.81313902  0.04499884  0.06249223  1
  Zn  Zn93  1  0.80678605  0.05244271  0.55523585  1
  Zn  Zn94  1  0.77354467  0.57623290  0.06404735  1
  Zn  Zn95  1  0.81810502  0.56186214  0.56667278  1
  Zn  Zn96  1  0.45690449  0.43101562  0.17500749  1
  Zn  Zn97  1  0.44179044  0.43384480  0.68502474  1
  Zn  Zn98  1  0.42886510  0.93878114  0.17693537  1
  Zn  Zn99  1  0.43997574  0.95008645  0.68680030  1
  Zn  Zn100  1  0.95001220  0.47172432  0.19626747  1
  Zn  Zn101  1  0.94404914  0.44750866  0.67546882  1
  Zn  Zn102  1  0.92451675  0.91927062  0.20220237  1
  Zn  Zn103  1  0.95628923  0.92324375  0.68456515  1
  Zn  Zn104  1  0.07116435  0.04218062  0.31689664  1
  Zn  Zn105  1  0.07749852  0.01002019  0.83787293  1
  Zn  Zn106  1  0.07091558  0.55770059  0.30030987  1
  Zn  Zn107  1  -0.01264433  0.76693570  0.78711396  1
  Zn  Zn108  1  0.64800521  0.13286076  0.26309291  1
  Zn  Zn109  1  0.57487259  0.06712605  0.80297806  1
  Zn  Zn110  1  0.56118511  0.57111220  0.32219967  1
  Zn  Zn111  1  0.58830569  0.58641517  0.78076324  1
  Zn  Zn112  1  0.42486816  0.13328373  0.45501093  1
  Zn  Zn113  1  0.45504047  0.19562960  0.93553431  1
  Zn  Zn114  1  0.43592333  0.67407070  0.58366311  1
  Zn  Zn115  1  0.40799932  0.70434011  0.90615161  1
  Zn  Zn116  1  0.95252385  0.18375682  0.43088089  1
  Zn  Zn117  1  0.92385145  0.06775240  0.92543974  1
  Zn  Zn118  1  0.93405371  0.67976184  0.44210284  1
  Zn  Zn119  1  0.91943559  0.70870171  0.93741652  1
  Zn  Zn120  1  0.14005517  0.30563089  0.06575828  1
  Zn  Zn121  1  0.05520981  0.31491709  0.53850731  1
  Zn  Zn122  1  0.04943466  0.83001589  0.09376176  1
  Zn  Zn123  1  0.08432037  0.81305802  0.57626225  1
  Zn  Zn124  1  0.61378733  0.30698827  0.14789890  1
  Zn  Zn125  1  0.57560410  0.31116792  0.55072603  1
  Zn  Zn126  1  0.55696890  0.82083503  0.05536423  1
  Zn  Zn127  1  0.56212673  0.82512480  0.55463666  1
  O  O128  1  0.11741655  0.12943797  0.09036399  1
  O  O129  1  0.13068869  0.11891271  0.60127396  1
  O  O130  1  0.10658004  0.67244570  0.10201038  1
  O  O131  1  0.09097778  0.58179851  0.69151113  1
  O  O132  1  0.61493877  0.11243464  0.12622326  1
  O  O133  1  0.63434173  0.11172954  0.61508256  1
  O  O134  1  0.59944989  0.62919043  0.10374128  1
  O  O135  1  0.63178344  0.61076226  0.61632406  1
  O  O136  1  0.37700018  0.38728703  0.38043646  1
  O  O137  1  0.42865465  0.42323478  0.92012916  1
  O  O138  1  0.31048211  0.89432554  0.45136279  1
  O  O139  1  0.38734272  0.90082356  0.87652437  1
  O  O140  1  0.86236411  0.40561145  0.35819363  1
  O  O141  1  0.83463308  0.37107444  0.89625928  1
  O  O142  1  0.89549072  0.85843780  0.39343424  1
  O  O143  1  0.91028067  0.79704215  0.86668617  1
  O  O144  1  0.25340273  0.00871309  0.36528406  1
  O  O145  1  0.27407659  0.01624902  0.87474420  1
  O  O146  1  0.26185723  0.50671615  0.37153916  1
  O  O147  1  0.21529212  0.44814555  0.84012377  1
  O  O148  1  0.73220954  -0.07421591  0.33898257  1
  O  O149  1  0.77708686  -0.02792753  0.84176781  1
  O  O150  1  0.75549982  0.51856458  0.37897408  1
  O  O151  1  0.73513406  0.51502800  0.88742119  1
  O  O152  1  0.24820116  0.47370439  0.12854242  1
  O  O153  1  0.25002215  0.47258112  0.64033432  1
  O  O154  1  0.24761838  1.04617452  0.11735529  1
  O  O155  1  0.23707649  1.01379829  0.63424868  1
  O  O156  1  0.68815313  0.49823273  0.07128766  1
  O  O157  1  0.73987354  0.48585915  0.61083019  1
  O  O158  1  0.73133237  0.98656704  0.12364679  1
  O  O159  1  0.74784676  0.98738116  0.62758308  1
  O  O160  1  -0.01042589  0.38820306  0.25970063  1
  O  O161  1  0.01026075  0.37104646  0.73879666  1
  O  O162  1  -0.00338321  0.85631448  0.27218136  1
  O  O163  1  0.02925777  0.86364421  0.74808394  1
  O  O164  1  0.49409762  0.35910184  0.26898739  1
  O  O165  1  0.51989909  0.35912574  0.74204350  1
  O  O166  1  0.48034245  0.88269795  0.26802267  1
  O  O167  1  0.51341920  0.88593711  0.75200365  1
  O  O168  1  0.49451102  0.13554161  0.23819984  1
  O  O169  1  0.50543038  0.14174623  0.74921873  1
  O  O170  1  0.48167970  0.64204777  0.27785867  1
  O  O171  1  0.49938828  0.65500690  0.76158340  1
  O  O172  1  0.97874844  0.09905560  0.25189537  1
  O  O173  1  0.97357809  0.16660014  0.73068859  1
  O  O174  1  1.00119702  0.63658533  0.23708565  1
  O  O175  1  0.97713075  0.65257122  0.76715916  1
  O  O176  1  0.39105423  0.27137517  -0.01203410  1
  O  O177  1  0.37266847  0.23338217  0.50707977  1
  O  O178  1  0.36839366  0.77726841  -0.00411244  1
  O  O179  1  0.35250782  0.74803819  0.53829308  1
  O  O180  1  0.89094381  0.26973984  0.03621751  1
  O  O181  1  0.87652797  0.20265616  0.52303300  1
  O  O182  1  0.85889175  0.75608882  0.03157794  1
  O  O183  1  0.87671141  0.73942208  0.51731115  1
  O  O184  1  0.13138599  0.22873124  0.49475689  1
  O  O185  1  0.11021675  0.24696347  0.97792703  1
  O  O186  1  0.10095511  0.72185137  0.48984038  1
  O  O187  1  0.11552908  0.66642456  0.90196572  1
  O  O188  1  0.64215873  0.23830101  0.48794822  1
  O  O189  1  0.67935817  0.28824535  1.06296182  1
  O  O190  1  0.62088369  0.73861904  0.50840791  1
  O  O191  1  0.61779639  0.76606118  0.97519751  1
  O  O192  1  0.50861495  0.24043046  0.11671974  1
  O  O193  1  0.49703897  0.24747312  0.60978377  1
  O  O194  1  0.48852522  0.74087854  0.09943703  1
  O  O195  1  0.51179716  0.75164218  0.63178210  1
  O  O196  1  1.05851307  0.25379699  0.20022494  1
  O  O197  1  0.99672747  0.27856134  0.63357523  1
  O  O198  1  0.97071489  0.74778591  0.14205548  1
  O  O199  1  0.99655947  0.75474318  0.62302567  1
  O  O200  1  -0.02725077  0.27688810  0.37243895  1
  O  O201  1  0.02765838  0.26026276  0.83792943  1
  O  O202  1  0.00531500  0.74523664  0.37446650  1
  O  O203  1  0.06335751  0.72480706  0.90437451  1
  O  O204  1  0.50792194  0.25589771  0.37325256  1
  O  O205  1  0.52425077  0.24887600  0.86325564  1
  O  O206  1  0.40346204  0.75535731  0.36771608  1
  O  O207  1  0.50392937  0.77632712  0.86195334  1
  O  O208  1  0.24514739  0.12308867  0.48297039  1
  O  O209  1  0.26652270  0.17054138  0.99782564  1
  O  O210  1  0.25742113  0.62006530  0.49270851  1
  O  O211  1  0.25380189  0.63842995  0.99929076  1
  O  O212  1  0.74165495  0.13385734  0.50287062  1
  O  O213  1  0.75485604  0.12284286  0.99827474  1
  O  O214  1  0.74371734  0.62508469  0.49727423  1
  O  O215  1  0.75624005  0.64194670  0.97429753  1
  O  O216  1  0.24217659  0.35560851  0.01397908  1
  O  O217  1  0.26342509  0.36155076  0.49911504  1
  O  O218  1  0.26734765  0.90268498  -0.01111010  1
  O  O219  1  0.20038491  0.81932243  0.54165056  1
  O  O220  1  0.79568200  0.36970317  -0.03922735  1
  O  O221  1  0.74537512  0.36206120  0.50808486  1
  O  O222  1  0.74075381  0.88589295  0.00409847  1
  O  O223  1  0.75386573  0.88201134  0.50937055  1
  O  O224  1  0.14811435  0.55759536  0.21099644  1
  O  O225  1  0.10391207  0.52742150  0.73761427  1
  O  O226  1  0.12521561  0.96281361  0.26106332  1
  O  O227  1  0.11256734  1.03205205  0.73353727  1
  O  O228  1  0.62164658  0.53458014  0.22978729  1
  O  O229  1  0.62124101  0.49035412  0.73334860  1
  O  O230  1  0.62062260  1.00897870  0.23835404  1
  O  O231  1  0.63374693  0.99319993  0.73099945  1
  O  O232  1  0.38167546  0.01909203  0.24099360  1
  O  O233  1  0.38890612  0.02456171  0.76009769  1
  O  O234  1  0.38128928  0.49642316  0.25108569  1
  O  O235  1  0.36184868  0.43661837  0.76597765  1
  O  O236  1  0.86515733  0.00933510  0.25275401  1
  O  O237  1  0.87635361  -0.00339729  0.72087932  1
  O  O238  1  0.87406441  0.53288211  0.26010115  1
  O  O239  1  0.89267835  0.52259576  0.74052168  1
  O  O240  1  0.11907660  0.36922279  0.35889533  1
  O  O241  1  -0.00687229  0.42171453  0.95056623  1
  O  O242  1  0.12092806  0.84673894  0.38194327  1
  O  O243  1  0.13971989  0.90654571  0.85448135  1
  O  O244  1  0.61409132  0.38923707  0.37975245  1
  O  O245  1  0.64366909  0.38459776  0.85104968  1
  O  O246  1  0.55489712  0.91634544  0.37157676  1
  O  O247  1  0.62070471  0.88110591  0.86000289  1
  O  O248  1  0.39326105  0.12902304  0.13135881  1
  O  O249  1  0.37833801  0.13818055  0.63788104  1
  O  O250  1  0.38394478  0.64062817  0.10422287  1
  O  O251  1  0.38882002  0.59160834  0.64022940  1
  O  O252  1  0.86820368  0.11201083  0.14783855  1
  O  O253  1  0.88092952  0.14883872  0.57915207  1
  O  O254  1  0.83479883  0.63997934  0.14252725  1
  O  O255  1  0.86845436  0.63732478  0.63611072  1
  O  O256  1  0.23144691  0.26750366  0.13635130  1
  O  O257  1  0.25772430  0.24989971  0.60372761  1
  O  O258  1  0.26179833  0.73304957  0.12646754  1
  O  O259  1  0.23993113  0.69120006  0.63390243  1
  O  O260  1  0.79195073  0.30092254  0.16338408  1
  O  O261  1  0.75369776  0.26056039  0.60913805  1
  O  O262  1  0.73543678  0.76602514  0.13039057  1
  O  O263  1  0.74263379  0.76730135  0.62012965  1
  O  O264  1  0.25994667  0.24206110  0.38677196  1
  O  O265  1  0.27982155  0.27647955  0.87295546  1
  O  O266  1  0.23423069  0.73511702  0.41099470  1
  O  O267  1  0.31644936  0.72266190  0.84318179  1
  O  O268  1  0.78999812  0.25594577  0.40762166  1
  O  O269  1  0.73394149  0.23219172  0.86499205  1
  O  O270  1  0.74641371  0.74088120  0.38910732  1
  O  O271  1  0.73461307  0.77192762  0.86983016  1
  O  O272  1  -0.00767053  0.13732485  -0.01597757  1
  O  O273  1  0.02069118  0.10420813  0.47874440  1
  O  O274  1  -0.02886459  0.64386760  0.02193317  1
  O  O275  1  0.00490886  0.60168642  0.48029834  1
  O  O276  1  0.50000787  0.11648929  0.01076213  1
  O  O277  1  0.53014426  0.13485687  0.48648247  1
  O  O278  1  0.47856034  0.63848939  -0.02657115  1
  O  O279  1  0.50941812  0.63081164  0.50486084  1
  O  O280  1  0.49271223  0.36418360  0.48138932  1
  O  O281  1  0.52832902  0.37667223  0.98355875  1
  O  O282  1  0.47944018  0.87857300  0.49687512  1
  O  O283  1  0.49239680  0.89476110  0.98749685  1
  O  O284  1  1.00333146  0.38972555  0.46981321  1
  O  O285  1  0.95072635  0.29750881  1.06503528  1
  O  O286  1  1.01634445  0.87983483  0.49745474  1
  O  O287  1  0.99875055  0.83575769  0.99016533  1
  O  O288  1  0.48889088  0.48650455  0.36621841  1
  O  O289  1  0.45729847  0.48575095  0.89845406  1
  O  O290  1  0.50201333  0.93984372  0.31979851  1
  O  O291  1  0.50590623  1.00315960  0.88299372  1
  O  O292  1  1.00078438  0.49355590  0.36861148  1
  O  O293  1  0.96499492  0.47401725  0.90845568  1
  O  O294  1  1.00750306  0.97409296  0.38660394  1
  O  O295  1  0.98689252  0.97844914  0.89456993  1
  O  O296  1  -0.01404052  -0.06946616  0.11231699  1
  O  O297  1  0.01675116  -0.00541570  0.60828158  1
  O  O298  1  0.02059237  0.53119909  0.12701227  1
  O  O299  1  0.00547063  0.48656474  0.59281691  1
  O  O300  1  0.51004392  -0.00139560  0.11256247  1
  O  O301  1  0.52176072  0.00083325  0.62032942  1
  O  O302  1  0.49348570  0.53315643  0.11111539  1
  O  O303  1  0.51250088  0.49179280  0.61972463  1
  O  O304  1  0.26235381  0.37159103  0.24955322  1
  O  O305  1  0.23878558  0.34754112  0.71883133  1
  O  O306  1  0.24710334  0.85285761  0.27560024  1
  O  O307  1  0.24536606  0.88609301  0.74765436  1
  O  O308  1  0.77831032  0.32913120  0.22924882  1
  O  O309  1  0.73552715  0.36417169  0.72674970  1
  O  O310  1  0.62809411  0.80449809  0.29364262  1
  O  O311  1  0.74640156  0.88147929  0.73148941  1
  O  O312  1  0.26467505  0.13423062  0.25720196  1
  O  O313  1  0.27533608  0.14872314  0.75090914  1
  O  O314  1  0.28064890  0.65729008  0.28628011  1
  O  O315  1  0.26496625  0.57384054  0.76096337  1
  O  O316  1  0.77017973  0.12739971  0.25645882  1
  O  O317  1  0.75385425  0.10419547  0.73968629  1
  O  O318  1  0.73717358  0.64153461  0.26525527  1
  O  O319  1  0.75967276  0.63110862  0.76337956  1
  O  O320  1  0.36701227  0.12077544  0.35977093  1
  O  O321  1  0.39085536  0.12599773  0.86376773  1
  O  O322  1  0.37242953  0.59832950  0.37821214  1
  O  O323  1  0.28415175  0.59725430  0.94249022  1
  O  O324  1  0.87936664  0.11625728  0.35623713  1
  O  O325  1  0.84570907  0.11870930  0.86673221  1
  O  O326  1  0.85376715  0.62774095  0.36917632  1
  O  O327  1  0.86098865  0.62753743  0.86494967  1
  O  O328  1  0.11421805  0.39477009  0.13435646  1
  O  O329  1  0.13964416  0.36557518  0.59715303  1
  O  O330  1  0.13995702  0.84345480  0.15604987  1
  O  O331  1  0.12959851  0.89680020  0.65046244  1
  O  O332  1  0.57131020  0.41244029  0.14436890  1
  O  O333  1  0.62977199  0.38666551  0.61954213  1
  O  O334  1  0.62699281  0.88534515  0.12397685  1
  O  O335  1  0.63553758  0.88733353  0.62224710  1
  O  O336  1  0.09543238  0.21961284  0.25276970  1
  O  O337  1  0.10336911  0.24279986  0.72195025  1
  O  O338  1  0.11433656  0.74617815  0.27062556  1
  O  O339  1  0.15676939  0.75863435  0.76812432  1
  O  O340  1  0.60553344  0.24089322  0.24446415  1
  O  O341  1  0.62356362  0.25469718  0.73625521  1
  O  O342  1  0.59548556  0.75796230  0.24769098  1
  O  O343  1  0.61651801  0.77074200  0.75377070  1
  O  O344  1  0.39495811  0.23697738  0.25514601  1
  O  O345  1  0.40288106  0.24710924  0.73548671  1
  O  O346  1  0.38588517  0.75469231  0.21494747  1
  O  O347  1  0.40153395  0.78441742  0.73142728  1
  O  O348  1  0.88840759  0.21711373  0.24439227  1
  O  O349  1  0.90038975  0.28303866  0.75887786  1
  O  O350  1  0.87671931  0.73273134  0.25240898  1
  O  O351  1  0.86823487  0.74609764  0.72515079  1
  O  O352  1  0.37144602  0.48274042  0.50558842  1
  O  O353  1  0.31239092  0.52160373  0.97172086  1
  O  O354  1  0.39253815  1.02875388  0.50079564  1
  O  O355  1  0.38926972  1.00547234  0.98531387  1
  O  O356  1  0.87941758  0.50998171  0.47922559  1
  O  O357  1  0.86236252  0.48916901  1.05083714  1
  O  O358  1  0.89823128  1.00191370  0.50562708  1
  O  O359  1  0.89420054  0.99160095  1.01115664  1
  O  O360  1  0.08989953  -0.03740212  0.01565275  1
  O  O361  1  0.13045430  0.00241392  0.50821798  1
  O  O362  1  0.14252696  0.51136780  0.02484318  1
  O  O363  1  0.12753031  0.49661613  0.48804546  1
  O  O364  1  0.61488718  -0.00085606  0.00310236  1
  O  O365  1  0.63707252  0.01285649  0.50345431  1
  O  O366  1  0.56801127  0.43849967  -0.02125039  1
  O  O367  1  0.62080875  0.50807525  0.50629826  1
  O  O368  1  0.37187343  0.36823417  0.13370579  1
  O  O369  1  0.37598268  0.35315801  0.61100446  1
  O  O370  1  0.37526996  0.86983044  0.10540778  1
  O  O371  1  0.36718003  0.91233181  0.60958523  1
  O  O372  1  0.87213541  0.43783680  0.10620185  1
  O  O373  1  0.85879776  0.38694013  0.62580624  1
  O  O374  1  0.83592581  0.86334393  0.14978586  1
  O  O375  1  0.86841898  0.85988044  0.62327439  1
  O  O376  1  0.13988719  0.11404668  0.37650720  1
  O  O377  1  0.13280413  0.08074253  0.91913995  1
  O  O378  1  0.14572874  0.62507651  0.36634269  1
  O  O379  1  0.09217321  0.59785543  0.88297442  1
  O  O380  1  0.64071114  0.10222304  0.37558313  1
  O  O381  1  0.66241981  0.07892620  0.87457774  1
  O  O382  1  0.63069600  0.62344397  0.39582698  1
  O  O383  1  0.63974864  0.64931863  0.86120961  1
