# generated using pymatgen
data_VZnO4
_symmetry_space_group_name_H-M   'P 1'
_cell_length_a   17.02383821
_cell_length_b   16.99890037
_cell_length_c   17.07067193
_cell_angle_alpha   90.32747792
_cell_angle_beta   89.94109237
_cell_angle_gamma   89.61950774
_symmetry_Int_Tables_number   1
_chemical_formula_structural   VZnO4
_chemical_formula_sum   'V64 Zn64 O256'
_cell_volume   4939.83008395
_cell_formula_units_Z   64
loop_
 _symmetry_equiv_pos_site_id
 _symmetry_equiv_pos_as_xyz
  1  'x, y, z'
loop_
 _atom_site_type_symbol
 _atom_site_label
 _atom_site_symmetry_multiplicity
 _atom_site_fract_x
 _atom_site_fract_y
 _atom_site_fract_z
 _atom_site_occupancy
  V  V0  1  0.86574013  0.63024538  0.73578434  1
  V  V1  1  0.62383260  0.48920061  0.12386146  1
  V  V2  1  -0.00793830  0.87858048  0.39602828  1
  V  V3  1  0.22606693  0.28055705  0.50945862  1
  V  V4  1  -0.00509828  0.75614930  0.23284708  1
  V  V5  1  0.50296792  0.51292810  0.50221065  1
  V  V6  1  0.12314284  0.29870972  0.86507242  1
  V  V7  1  0.32925738  0.12475016  0.73331956  1
  V  V8  1  0.88774189  0.13492464  0.75019116  1
  V  V9  1  0.66452135  0.88744073  0.25250858  1
  V  V10  1  0.00054161  0.28008757  0.74496242  1
  V  V11  1  0.52832432  0.22509921  0.28768920  1
  V  V12  1  0.73512100  0.64256045  0.37619369  1
  V  V13  1  0.75632667  0.37027655  0.62173878  1
  V  V14  1  0.62353910  0.12167788  0.00860447  1
  V  V15  1  0.00351795  0.12427717  0.61894983  1
  V  V16  1  0.75394789  0.74808056  0.52171027  1
  V  V17  1  0.35285834  0.71504654  0.15367313  1
  V  V18  1  0.62456308  0.36652347  0.76098893  1
  V  V19  1  0.39737232  0.36469549  0.50442691  1
  V  V20  1  0.14771761  0.89785932  0.73631125  1
  V  V21  1  0.40814414  0.23754464  0.16034222  1
  V  V22  1  0.37406823  0.36121060  -0.02048438  1
  V  V23  1  0.86410827  0.62994266  0.24024774  1
  V  V24  1  0.87397631  0.38845460  -0.01017114  1
  V  V25  1  0.74728992  0.36040103  0.12573873  1
  V  V26  1  0.22733931  0.26320389  0.01373613  1
  V  V27  1  0.48814899  0.84198071  0.37354584  1
  V  V28  1  0.62444210  0.51014111  0.61987661  1
  V  V29  1  0.26346863  0.89244301  0.14709804  1
  V  V30  1  0.12862357  0.10046826  -0.03389625  1
  V  V31  1  0.76030855  0.24579410  -0.01393046  1
  V  V32  1  0.89256072  0.88597189  0.00475541  1
  V  V33  1  0.11610316  -0.00019803  0.15137876  1
  V  V34  1  0.58788370  0.86966205  0.72502555  1
  V  V35  1  0.62691984  0.12984640  0.52274816  1
  V  V36  1  0.62273484  0.36609483  0.26197740  1
  V  V37  1  0.85554068  0.49751949  0.37823356  1
  V  V38  1  0.11923747  0.10309227  0.50035180  1
  V  V39  1  0.71828084  0.74007252  -0.00308261  1
  V  V40  1  0.85209074  0.11082910  0.23854326  1
  V  V41  1  0.39266665  0.83710114  0.02201794  1
  V  V42  1  0.76115004  0.25001623  0.48600638  1
  V  V43  1  0.02514504  0.74312526  0.73277013  1
  V  V44  1  0.37391771  0.49170027  0.36582229  1
  V  V45  1  0.07213365  0.50933484  0.13518808  1
  V  V46  1  0.11729322  0.73700256  0.39583349  1
  V  V47  1  0.24115349  0.87042159  0.58697791  1
  V  V48  1  0.49472360  0.48341946  -0.00331678  1
  V  V49  1  0.37897895  0.66103649  0.76374241  1
  V  V50  1  0.09964697  0.64371862  -0.01554238  1
  V  V51  1  -0.02211848  0.26679987  0.25798293  1
  V  V52  1  0.74392336  0.51190602  0.76608194  1
  V  V53  1  0.25566150  0.67584698  0.89219205  1
  V  V54  1  0.25184839  0.11971056  0.38150771  1
  V  V55  1  -0.00198834  0.50883601  0.48429302  1
  V  V56  1  0.74704943  0.12592198  0.86052928  1
  V  V57  1  0.12151480  0.50764316  0.65466256  1
  V  V58  1  0.76806736  0.89456645  0.63866744  1
  V  V59  1  0.39068046  0.24471672  0.62933928  1
  V  V60  1  0.49498614  0.60655999  0.14412950  1
  V  V61  1  0.88020763  -0.00327736  0.86294521  1
  V  V62  1  0.03070346  0.88042958  0.86771884  1
  V  V63  1  0.36319140  0.03418297  0.88139946  1
  Zn  Zn64  1  0.18420263  0.17865536  0.19362280  1
  Zn  Zn65  1  0.17241787  0.21502220  0.67638291  1
  Zn  Zn66  1  0.14100354  0.69689331  0.15151683  1
  Zn  Zn67  1  0.22726856  0.68644147  0.67636251  1
  Zn  Zn68  1  0.69192412  0.18623267  0.17986051  1
  Zn  Zn69  1  0.69038360  0.19029189  0.68723784  1
  Zn  Zn70  1  0.73286311  0.74531827  0.19454241  1
  Zn  Zn71  1  0.67014041  0.69268436  0.69437349  1
  Zn  Zn72  1  0.33474619  0.27823035  0.34365037  1
  Zn  Zn73  1  0.33116864  0.25540375  0.84891161  1
  Zn  Zn74  1  0.30009444  0.80296915  0.32392274  1
  Zn  Zn75  1  0.33106212  0.83776749  0.82916574  1
  Zn  Zn76  1  0.80776663  0.30590915  0.31010800  1
  Zn  Zn77  1  0.81369955  0.32074470  0.80715468  1
  Zn  Zn78  1  0.82377830  0.81048884  0.32526839  1
  Zn  Zn79  1  0.78298752  0.80862788  0.81670314  1
  Zn  Zn80  1  0.20830750  0.47650824  0.47581654  1
  Zn  Zn81  1  0.16138553  0.43120282  0.99128822  1
  Zn  Zn82  1  0.17122405  0.93274843  0.40831881  1
  Zn  Zn83  1  0.21924917  0.91843402  0.94650186  1
  Zn  Zn84  1  0.69319315  0.43993791  0.44296619  1
  Zn  Zn85  1  0.68723555  0.43559557  0.94038288  1
  Zn  Zn86  1  0.66150548  0.88759279  0.46147301  1
  Zn  Zn87  1  0.69423816  0.92793717  0.92795593  1
  Zn  Zn88  1  0.27649503  0.07865355  0.07510537  1
  Zn  Zn89  1  0.30180245  0.05619868  0.56312345  1
  Zn  Zn90  1  0.32241632  0.55908817  0.04587368  1
  Zn  Zn91  1  0.34555469  0.54134000  0.61085396  1
  Zn  Zn92  1  0.83260323  0.06813434  0.04490355  1
  Zn  Zn93  1  0.80384121  0.08200773  0.58381986  1
  Zn  Zn94  1  0.79956625  0.57110389  0.05171041  1
  Zn  Zn95  1  0.80346383  0.56863761  0.55752753  1
  Zn  Zn96  1  0.44416744  0.41252206  0.18992493  1
  Zn  Zn97  1  0.45139756  0.41378982  0.67648886  1
  Zn  Zn98  1  0.46369388  0.87847328  0.18738545  1
  Zn  Zn99  1  0.40021938  0.94540014  0.68093611  1
  Zn  Zn100  1  0.90981059  0.44631110  0.19007014  1
  Zn  Zn101  1  0.94093937  0.45632776  0.66058045  1
  Zn  Zn102  1  0.93961689  0.94097977  0.20268474  1
  Zn  Zn103  1  0.95224212  0.93876034  0.68667003  1
  Zn  Zn104  1  0.05840289  0.06435190  0.32665536  1
  Zn  Zn105  1  0.06584243  0.06189809  0.79408485  1
  Zn  Zn106  1  0.04047528  0.57146905  0.31506846  1
  Zn  Zn107  1  0.11876504  0.52722439  0.85350728  1
  Zn  Zn108  1  0.65046291  0.06332113  0.29369917  1
  Zn  Zn109  1  0.56578331  0.04180409  0.86990872  1
  Zn  Zn110  1  0.57055081  0.53839013  0.32090045  1
  Zn  Zn111  1  0.52371731  0.51596838  0.78905765  1
  Zn  Zn112  1  0.44302335  0.17015531  0.45148818  1
  Zn  Zn113  1  0.41495154  0.15503491  1.00963177  1
  Zn  Zn114  1  0.44511821  0.66758032  0.31980919  1
  Zn  Zn115  1  0.43985208  0.66800885  0.95727387  1
  Zn  Zn116  1  0.94870909  0.20660737  0.43534474  1
  Zn  Zn117  1  0.95439148  0.19444371  0.93204571  1
  Zn  Zn118  1  0.92865014  0.68663057  0.43752338  1
  Zn  Zn119  1  0.92169424  0.71639143  0.90105759  1
  Zn  Zn120  1  0.04962746  0.32213539  0.08035671  1
  Zn  Zn121  1  0.05168415  0.34318860  0.57306867  1
  Zn  Zn122  1  0.06942597  0.82978274  0.06158729  1
  Zn  Zn123  1  0.05780044  0.81166065  0.56226797  1
  Zn  Zn124  1  0.56757318  0.30000233  0.05334487  1
  Zn  Zn125  1  0.57702228  0.30808581  0.57535484  1
  Zn  Zn126  1  0.56869622  0.78637893  0.09792152  1
  Zn  Zn127  1  0.56696579  0.81487864  0.55639684  1
  O  O128  1  0.16323298  0.08979625  0.12036943  1
  O  O129  1  0.11059119  0.13577410  0.61221753  1
  O  O130  1  0.11339560  0.59889708  0.09582103  1
  O  O131  1  0.17707143  0.59521737  0.60345294  1
  O  O132  1  0.63669516  0.11508444  0.10594304  1
  O  O133  1  0.63998428  0.11385490  0.62188356  1
  O  O134  1  0.60415723  0.59188290  0.12779181  1
  O  O135  1  0.62162997  0.60827086  0.62955135  1
  O  O136  1  0.38416526  0.36752001  0.40181534  1
  O  O137  1  0.37735059  0.35898923  0.88117053  1
  O  O138  1  0.38716224  0.84750157  0.38094618  1
  O  O139  1  0.41401540  0.84130197  0.92659934  1
  O  O140  1  0.84820270  0.39872063  0.36214961  1
  O  O141  1  0.86648372  0.37505100  0.89039912  1
  O  O142  1  0.88851928  0.87218708  0.38705167  1
  O  O143  1  0.87080546  0.89594371  0.85771574  1
  O  O144  1  0.23629791  0.01962339  0.37702288  1
  O  O145  1  0.30389641  -0.05070580  0.87298005  1
  O  O146  1  0.27528396  0.48496673  0.38791815  1
  O  O147  1  0.27051983  0.44571371  0.80479759  1
  O  O148  1  0.83150697  -0.00245532  0.42434620  1
  O  O149  1  0.77215958  0.01927933  0.86795587  1
  O  O150  1  0.74967936  0.52007409  0.38281125  1
  O  O151  1  0.73945605  0.50577623  0.86371891  1
  O  O152  1  0.26735503  0.48388265  0.14217752  1
  O  O153  1  0.22628591  0.52584177  0.58884674  1
  O  O154  1  0.29009415  0.98806563  0.14915633  1
  O  O155  1  0.30741070  0.95128876  0.61422931  1
  O  O156  1  0.72629661  0.48359088  0.10814040  1
  O  O157  1  0.73485204  0.49479027  0.61954635  1
  O  O158  1  0.76929367  0.97402112  0.07570561  1
  O  O159  1  0.76103890  0.99464905  0.63575846  1
  O  O160  1  -0.02318708  0.36232179  0.22784849  1
  O  O161  1  -0.01755350  0.37673531  0.74217419  1
  O  O162  1  -0.01444631  0.85678443  0.26181438  1
  O  O163  1  0.03746037  0.87312825  0.74365176  1
  O  O164  1  0.51959642  0.34755356  0.25551358  1
  O  O165  1  0.52191088  0.39745295  0.75999782  1
  O  O166  1  0.51366379  0.89101893  0.28414838  1
  O  O167  1  0.48734096  0.88753121  0.71495529  1
  O  O168  1  0.55197646  0.12793583  0.27546780  1
  O  O169  1  0.51005306  0.18023735  0.80537210  1
  O  O170  1  0.49702756  0.59077611  0.24546474  1
  O  O171  1  0.46757579  0.60963706  0.76060678  1
  O  O172  1  0.96921900  0.13325195  0.27980154  1
  O  O173  1  1.00094927  0.13948047  0.73829512  1
  O  O174  1  0.97331910  0.63933860  0.24808577  1
  O  O175  1  0.97205170  0.65272551  0.75143141  1
  O  O176  1  0.34816702  0.25245193  -0.01184989  1
  O  O177  1  0.38443584  0.25359237  0.51522703  1
  O  O178  1  0.38349481  0.73423215  0.03695109  1
  O  O179  1  0.30997050  0.69039310  0.46138148  1
  O  O180  1  0.86270477  0.24392578  -0.00623991  1
  O  O181  1  0.86178177  0.25127804  0.49324899  1
  O  O182  1  0.87554113  0.79035037  -0.02176474  1
  O  O183  1  0.85399350  0.74690299  0.50215997  1
  O  O184  1  0.12557778  0.28281430  0.51011278  1
  O  O185  1  0.12588556  0.28934169  0.98733398  1
  O  O186  1  0.11868912  0.74233933  0.49739261  1
  O  O187  1  0.12789183  0.73362223  1.03391224  1
  O  O188  1  0.63933164  0.23658290  0.51252619  1
  O  O189  1  0.64401080  0.23233293  0.99526808  1
  O  O190  1  0.64939817  0.76940956  0.49439557  1
  O  O191  1  0.61793939  0.73383401  1.01293291  1
  O  O192  1  0.50388156  0.23226404  0.12968467  1
  O  O193  1  0.48901947  0.24524837  0.63628547  1
  O  O194  1  0.49017235  0.70829175  0.14358901  1
  O  O195  1  0.47302082  0.74923142  0.59804306  1
  O  O196  1  1.02778302  0.23099401  0.15064774  1
  O  O197  1  1.00723758  0.25479305  0.64321258  1
  O  O198  1  1.00195612  0.76751199  0.13335539  1
  O  O199  1  0.99098926  0.76671423  0.64313145  1
  O  O200  1  -0.00373454  0.27138293  0.35689570  1
  O  O201  1  0.02039654  0.26147084  0.86282985  1
  O  O202  1  0.00022290  0.75603007  0.37874568  1
  O  O203  1  -0.00013929  0.78070265  0.84100921  1
  O  O204  1  0.51672997  0.23583066  0.38424593  1
  O  O205  1  0.49354077  0.23973343  0.84384203  1
  O  O206  1  0.51180061  0.74480539  0.36213703  1
  O  O207  1  0.53383419  0.71816624  0.88516459  1
  O  O208  1  0.22703984  0.11846432  0.50425987  1
  O  O209  1  0.21872255  0.15627567  0.99432989  1
  O  O210  1  0.27208793  0.64038339  0.49541249  1
  O  O211  1  0.25784842  0.62124401  0.98151335  1
  O  O212  1  0.75014394  0.14488480  0.51025148  1
  O  O213  1  0.74996860  0.13111067  0.97956609  1
  O  O214  1  0.74155550  0.63921677  0.48932088  1
  O  O215  1  0.75556770  0.64608290  0.97914028  1
  O  O216  1  0.26230876  0.36998357  0.00122875  1
  O  O217  1  0.26366967  0.37548499  0.50753417  1
  O  O218  1  0.29197051  0.87983138  0.03089748  1
  O  O219  1  0.23490300  0.87874939  0.48942951  1
  O  O220  1  0.75260742  0.35819837  0.00053766  1
  O  O221  1  0.74029490  0.36192882  0.51373879  1
  O  O222  1  0.77839258  0.91736511  0.01915523  1
  O  O223  1  0.75206357  0.86859906  0.53401730  1
  O  O224  1  0.08853143  0.50828700  0.23322073  1
  O  O225  1  0.14591344  0.52605677  0.75071837  1
  O  O226  1  0.12484092  1.00797681  0.24945039  1
  O  O227  1  0.14512954  0.99589317  0.74118895  1
  O  O228  1  0.61843964  0.47331132  0.23347647  1
  O  O229  1  0.63546838  0.49939253  0.74100971  1
  O  O230  1  0.65092312  0.98031432  0.21570801  1
  O  O231  1  0.61203578  0.96964175  0.78421936  1
  O  O232  1  0.36967201  -0.01492518  0.29224770  1
  O  O233  1  0.36658957  0.02913049  0.75230239  1
  O  O234  1  0.38344388  0.46320069  0.27070702  1
  O  O235  1  0.36652662  0.48812376  0.71780846  1
  O  O236  1  0.86376301  0.01180354  0.24730599  1
  O  O237  1  0.89141444  0.02354144  0.75508480  1
  O  O238  1  0.86578186  0.52055030  0.26421518  1
  O  O239  1  0.85682770  0.52261764  0.74612412  1
  O  O240  1  0.19724021  0.37970331  0.27836569  1
  O  O241  1  0.12437049  0.39881916  0.87339685  1
  O  O242  1  0.10295524  0.85272666  0.37321721  1
  O  O243  1  0.13218788  0.88258060  0.86206310  1
  O  O244  1  0.63869364  0.38365447  0.35760607  1
  O  O245  1  0.63878106  0.37377463  0.85953461  1
  O  O246  1  0.66282585  0.89974925  0.35207032  1
  O  O247  1  0.61170220  0.90117724  0.83569426  1
  O  O248  1  0.35809246  0.15764255  0.11808182  1
  O  O249  1  0.36527026  0.13130526  0.62877968  1
  O  O250  1  0.37809103  0.60971958  0.13525478  1
  O  O251  1  0.34131162  0.64094811  0.66462683  1
  O  O252  1  0.86005082  0.12271825  0.13829119  1
  O  O253  1  0.88882134  0.13555813  0.64102370  1
  O  O254  1  0.84788463  0.61830531  0.14235002  1
  O  O255  1  0.86041815  0.63655313  0.63853991  1
  O  O256  1  0.21812923  0.25818387  0.11192640  1
  O  O257  1  0.25377356  0.24831353  0.60414561  1
  O  O258  1  0.25508455  0.71517735  0.14198664  1
  O  O259  1  0.26682589  0.77725410  0.60988260  1
  O  O260  1  0.74808309  0.25633131  0.10666685  1
  O  O261  1  0.75576679  0.26862459  0.63210363  1
  O  O262  1  0.75299542  0.76774595  0.08639773  1
  O  O263  1  0.74465491  0.73918771  0.62161836  1
  O  O264  1  0.25146172  0.24206415  0.41345532  1
  O  O265  1  0.21969517  0.26504683  0.87573578  1
  O  O266  1  0.21650703  0.74795813  0.36881917  1
  O  O267  1  0.26100981  0.77531355  0.90353466  1
  O  O268  1  0.74532415  0.25231792  0.38818020  1
  O  O269  1  0.75734258  0.23959459  0.87858784  1
  O  O270  1  0.74789951  0.74524315  0.38468600  1
  O  O271  1  0.72460579  0.81370774  0.91693244  1
  O  O272  1  0.03538862  0.13456704  -0.01083715  1
  O  O273  1  0.00464349  0.13899770  0.51195069  1
  O  O274  1  0.00368030  0.65813056  -0.03696847  1
  O  O275  1  -0.01754721  0.60649098  0.50555184  1
  O  O276  1  0.52413599  0.13771117  -0.01257858  1
  O  O277  1  0.52703077  0.12664036  0.51043438  1
  O  O278  1  0.48459286  0.58906719  0.02438515  1
  O  O279  1  0.49332117  0.60739878  0.50756945  1
  O  O280  1  0.49754631  0.36665913  0.51274041  1
  O  O281  1  0.48159306  0.36445721  1.00490085  1
  O  O282  1  0.53417812  0.87720775  0.46112549  1
  O  O283  1  0.48444398  0.86584431  1.07194632  1
  O  O284  1  0.97647352  0.42370707  0.54660720  1
  O  O285  1  0.96874384  0.36449983  1.01392337  1
  O  O286  1  1.00020174  0.88070429  0.49705561  1
  O  O287  1  1.00754517  0.87600934  0.97198534  1
  O  O288  1  0.49480786  0.49022747  0.39751836  1
  O  O289  1  0.50113349  0.49671599  0.89976017  1
  O  O290  1  0.42018228  1.03554970  0.29802710  1
  O  O291  1  0.45973230  1.01185285  0.87748305  1
  O  O292  1  0.97395373  0.50174942  0.38026723  1
  O  O293  1  0.97588700  0.50689845  0.86741235  1
  O  O294  1  1.00542643  0.97729569  0.37108087  1
  O  O295  1  0.99950436  0.98149948  0.85147946  1
  O  O296  1  0.01871402  0.00001788  0.13559900  1
  O  O297  1  -0.00030338  0.02517621  0.62706602  1
  O  O298  1  -0.02517615  0.50893520  0.11924571  1
  O  O299  1  0.02432303  0.53357904  0.64836090  1
  O  O300  1  0.48709110  0.01302949  0.16371455  1
  O  O301  1  0.46197884  -0.01774953  0.56119146  1
  O  O302  1  0.50210267  0.48373366  0.12208438  1
  O  O303  1  0.51584308  0.49089541  0.61752799  1
  O  O304  1  0.25395657  0.33773753  0.25772817  1
  O  O305  1  0.29780081  0.43262213  0.73829103  1
  O  O306  1  0.24933302  0.86875618  0.24242432  1
  O  O307  1  0.24169074  0.86419408  0.74840481  1
  O  O308  1  0.73784683  0.35998346  0.22983000  1
  O  O309  1  0.74397965  0.39185753  0.74403164  1
  O  O310  1  0.76300724  0.85622926  0.23812071  1
  O  O311  1  0.72926827  0.86083074  0.73171602  1
  O  O312  1  0.24294172  0.15410551  0.28538340  1
  O  O313  1  0.23202178  0.12467347  0.72346346  1
  O  O314  1  0.24612946  0.51511859  0.20481714  1
  O  O315  1  0.26229134  0.65290330  0.78753555  1
  O  O316  1  0.74794239  0.12380041  0.25905906  1
  O  O317  1  0.77608587  0.14238273  0.75609719  1
  O  O318  1  0.75422464  0.65284228  0.26056362  1
  O  O319  1  0.74455906  0.61629916  0.74728352  1
  O  O320  1  0.35259952  0.12488595  0.40241416  1
  O  O321  1  0.34235248  0.13620169  0.84565512  1
  O  O322  1  0.38187387  0.59224556  0.36952228  1
  O  O323  1  0.36653820  0.64788269  0.87648147  1
  O  O324  1  0.91075299  0.12838833  0.34331956  1
  O  O325  1  0.88676844  0.12132736  0.86316795  1
  O  O326  1  0.85412790  0.62245224  0.36619686  1
  O  O327  1  0.92267293  0.55329906  0.88528787  1
  O  O328  1  0.11318731  0.41887297  0.09632601  1
  O  O329  1  0.12554000  0.40827516  0.63664368  1
  O  O330  1  0.15339914  0.89966070  0.11632819  1
  O  O331  1  0.14094719  0.88072605  0.62659294  1
  O  O332  1  0.63032532  0.36899096  0.12701774  1
  O  O333  1  0.63669090  0.38425072  0.63931745  1
  O  O334  1  0.47545575  1.02879722  0.09378360  1
  O  O335  1  0.61823932  0.88996440  0.62841447  1
  O  O336  1  0.08127613  0.23338186  0.21842856  1
  O  O337  1  0.11537138  0.27633773  0.75669739  1
  O  O338  1  0.09637419  0.73378704  0.24879394  1
  O  O339  1  0.12245661  0.72465832  0.72056234  1
  O  O340  1  0.62988921  0.25441488  0.25391627  1
  O  O341  1  0.62803247  0.26790021  0.74319599  1
  O  O342  1  0.62331376  0.80653241  0.19565825  1
  O  O343  1  0.59518760  0.76756922  0.73251495  1
  O  O344  1  0.41241239  0.23104242  0.26646423  1
  O  O345  1  0.35825715  0.23451219  0.73409816  1
  O  O346  1  0.36464064  0.72312201  0.25512352  1
  O  O347  1  0.39128377  0.76095665  0.76516096  1
  O  O348  1  0.87520950  0.24043111  0.24563552  1
  O  O349  1  0.89564300  0.24541851  0.76482021  1
  O  O350  1  0.87916816  0.74138408  0.24801158  1
  O  O351  1  0.84586836  0.71105573  0.80973073  1
  O  O352  1  0.39229383  0.48072478  0.51987307  1
  O  O353  1  0.38125081  0.46865410  1.00717182  1
  O  O354  1  0.41737113  1.00768711  0.50836650  1
  O  O355  1  0.35045844  1.06003231  0.98201200  1
  O  O356  1  0.86661034  0.50749193  0.48299351  1
  O  O357  1  0.85687417  0.48720464  1.00037843  1
  O  O358  1  0.87191001  1.01971403  0.47992109  1
  O  O359  1  0.89575290  0.99976461  0.97083188  1
  O  O360  1  0.14880001  0.00148341  -0.01416511  1
  O  O361  1  0.11462930  0.00664439  0.49980998  1
  O  O362  1  0.11501382  0.53295130  -0.03680450  1
  O  O363  1  0.09884599  0.49464094  0.47896787  1
  O  O364  1  0.63177346  0.02135562  -0.03374852  1
  O  O365  1  0.65049107  0.02486025  0.47429057  1
  O  O366  1  0.60403452  0.47216550  0.01332849  1
  O  O367  1  0.61431488  0.49398230  0.51086893  1
  O  O368  1  0.37683979  0.33097040  0.13744045  1
  O  O369  1  0.37593759  0.35224109  0.61977076  1
  O  O370  1  0.36221937  0.83342017  0.14866623  1
  O  O371  1  0.41433443  0.75459002  0.55427923  1
  O  O372  1  0.84654814  0.38234972  0.11478893  1
  O  O373  1  0.85141968  0.39298785  0.63298673  1
  O  O374  1  0.90869666  0.89135803  0.10006878  1
  O  O375  1  0.86630602  0.87712063  0.65292473  1
  O  O376  1  0.12237805  0.13063620  0.39878066  1
  O  O377  1  0.13400394  0.11223562  0.86758263  1
  O  O378  1  0.10516883  0.63660150  0.37797901  1
  O  O379  1  0.14432322  0.66189363  0.88896623  1
  O  O380  1  0.64885593  0.07822313  0.41252532  1
  O  O381  1  0.64945965  0.12368010  0.84796520  1
  O  O382  1  0.63789331  0.62001430  0.36161704  1
  O  O383  1  0.58567658  0.67053657  0.86480201  1
