# generated using pymatgen
data_VZnO4
_symmetry_space_group_name_H-M   'P 1'
_cell_length_a   16.97658521
_cell_length_b   16.97309744
_cell_length_c   17.05443660
_cell_angle_alpha   90.38362570
_cell_angle_beta   89.88932820
_cell_angle_gamma   90.01824583
_symmetry_Int_Tables_number   1
_chemical_formula_structural   VZnO4
_chemical_formula_sum   'V64 Zn64 O256'
_cell_volume   4914.03509156
_cell_formula_units_Z   64
loop_
 _symmetry_equiv_pos_site_id
 _symmetry_equiv_pos_as_xyz
  1  'x, y, z'
loop_
 _atom_site_type_symbol
 _atom_site_label
 _atom_site_symmetry_multiplicity
 _atom_site_fract_x
 _atom_site_fract_y
 _atom_site_fract_z
 _atom_site_occupancy
  V  V0  1  0.13068318  0.37372443  0.76308590  1
  V  V1  1  0.49684849  0.48114985  0.49603376  1
  V  V2  1  -0.01240256  0.24680614  0.75454669  1
  V  V3  1  0.74199859  0.60056772  0.36827297  1
  V  V4  1  0.86201238  0.74674339  0.11829434  1
  V  V5  1  0.88869832  -0.00681775  0.90031386  1
  V  V6  1  0.24389577  0.74939113  -0.00388952  1
  V  V7  1  0.75914007  0.23772134  0.00444651  1
  V  V8  1  0.12135724  0.62422637  0.51942298  1
  V  V9  1  0.13288520  0.74725510  0.86627871  1
  V  V10  1  0.01713104  0.65030303  0.15166824  1
  V  V11  1  0.14688723  0.00998220  0.62402313  1
  V  V12  1  0.38750207  0.86343192  0.49142049  1
  V  V13  1  0.62556802  0.61269527  0.50289968  1
  V  V14  1  -0.00014240  0.13484514  0.61162470  1
  V  V15  1  0.48449682  -0.01125740  0.00864109  1
  V  V16  1  0.26428332  0.85273244  0.62560931  1
  V  V17  1  0.24356850  0.13185663  0.86630918  1
  V  V18  1  0.63831402  0.87205908  0.70809442  1
  V  V19  1  0.27332994  0.49870584  0.75186736  1
  V  V20  1  0.23095490  0.86864431  0.14293333  1
  V  V21  1  0.64622691  0.08898684  -0.02251000  1
  V  V22  1  0.36256826  0.24791201  0.62036231  1
  V  V23  1  0.86343273  0.62050066  0.25021805  1
  V  V24  1  0.87115883  0.10003415  0.73398193  1
  V  V25  1  0.52168852  0.11894312  0.65417555  1
  V  V26  1  0.38109049  0.00053035  0.38037815  1
  V  V27  1  0.24211308  0.38440766  0.60540560  1
  V  V28  1  0.50618304  0.36951231  0.33452190  1
  V  V29  1  0.14488976  0.14810066  0.49984359  1
  V  V30  1  0.75219771  -0.00607707  0.27265761  1
  V  V31  1  0.00940973  0.24818748  0.25905403  1
  V  V32  1  0.62003559  0.87847824  0.25545135  1
  V  V33  1  0.75280653  0.26434763  0.52778805  1
  V  V34  1  0.48937764  0.62324640  0.61741517  1
  V  V35  1  0.66239728  0.39514026  0.22405305  1
  V  V36  1  0.36753859  0.48873061  0.36897881  1
  V  V37  1  0.38244769  0.64169971  0.74726075  1
  V  V38  1  -0.02019552  0.54038334  -0.01682635  1
  V  V39  1  0.52348446  0.10849668  0.14021433  1
  V  V40  1  0.63074278  0.74650914  0.37805392  1
  V  V41  1  0.35723595  0.23929995  0.11500924  1
  V  V42  1  0.87766141  0.24876279  0.12917007  1
  V  V43  1  -0.00480770  0.38191579  0.37257553  1
  V  V44  1  0.75472060  0.87728309  0.12703765  1
  V  V45  1  0.13076884  0.39384887  0.23648258  1
  V  V46  1  0.37598935  0.75960547  0.12012360  1
  V  V47  1  0.25815758  0.14336469  0.37658799  1
  V  V48  1  0.36928652  0.61685251  0.24974037  1
  V  V49  1  0.01471083  -0.01456936  0.48987119  1
  V  V50  1  0.02699701  0.89440227  0.90226431  1
  V  V51  1  0.50524209  0.87944480  0.86069526  1
  V  V52  1  0.87992469  0.11468056  0.25849627  1
  V  V53  1  0.49847043  0.74734724  0.25768541  1
  V  V54  1  -0.03491266  0.36748547  0.88540690  1
  V  V55  1  0.36707688  0.11748137  0.24333686  1
  V  V56  1  0.50337803  0.61833938  0.11501014  1
  V  V57  1  0.24137346  0.62818347  0.38153577  1
  V  V58  1  0.61698065  0.12503908  0.49648813  1
  V  V59  1  0.63054877  0.64921896  -0.00562690  1
  V  V60  1  0.62042122  0.24761880  0.87887413  1
  V  V61  1  0.12673364  0.87849622  0.74013498  1
  V  V62  1  0.74861235  0.14992499  0.37766931  1
  V  V63  1  0.00521779  0.49522195  0.50381195  1
  Zn  Zn64  1  0.18478050  0.17220332  0.18794525  1
  Zn  Zn65  1  0.18294420  0.20543738  0.68503757  1
  Zn  Zn66  1  0.20196225  0.71591285  0.21578762  1
  Zn  Zn67  1  0.19567864  0.68229195  0.69259264  1
  Zn  Zn68  1  0.69599704  0.19621377  0.20038267  1
  Zn  Zn69  1  0.68894221  0.18396397  0.69181895  1
  Zn  Zn70  1  0.68278714  0.68440574  0.18644509  1
  Zn  Zn71  1  0.64266340  0.73456047  0.83532378  1
  Zn  Zn72  1  0.31912788  0.31620990  0.27644854  1
  Zn  Zn73  1  0.33042688  0.31924644  0.80314734  1
  Zn  Zn74  1  0.31442870  0.80909948  0.32111046  1
  Zn  Zn75  1  0.32376096  0.81848120  0.81277770  1
  Zn  Zn76  1  0.82203962  0.31790673  0.30743242  1
  Zn  Zn77  1  0.79020032  0.28414870  0.80824667  1
  Zn  Zn78  1  0.80431710  0.79455350  0.30501776  1
  Zn  Zn79  1  0.79005072  0.92800833  0.75542978  1
  Zn  Zn80  1  0.17633715  0.43927655  0.41824920  1
  Zn  Zn81  1  0.17307571  0.45988423  0.92986839  1
  Zn  Zn82  1  0.23145852  0.97356551  0.46837221  1
  Zn  Zn83  1  0.18672921  0.94028909  0.96514586  1
  Zn  Zn84  1  0.67166929  0.42227441  0.42802673  1
  Zn  Zn85  1  0.63084161  0.37878228  1.01535923  1
  Zn  Zn86  1  0.66639978  0.94193800  0.43567023  1
  Zn  Zn87  1  0.70447054  0.89569676  0.91895111  1
  Zn  Zn88  1  0.29951010  0.03504198  0.07510693  1
  Zn  Zn89  1  0.35506232  0.05297988  0.58201887  1
  Zn  Zn90  1  0.31642785  0.57464727  0.05445429  1
  Zn  Zn91  1  0.30905510  0.54941261  0.56050677  1
  Zn  Zn92  1  0.81339577  0.05426156  0.08252188  1
  Zn  Zn93  1  0.83022424  0.06552203  0.52581220  1
  Zn  Zn94  1  0.78625638  0.52998404  -0.02498391  1
  Zn  Zn95  1  0.82352173  0.44143593  0.52322661  1
  Zn  Zn96  1  0.44742670  0.41462079  0.11707973  1
  Zn  Zn97  1  0.44140031  0.40500107  0.67082074  1
  Zn  Zn98  1  0.43641393  0.93895097  0.19911876  1
  Zn  Zn99  1  0.47008974  0.92497649  0.65362423  1
  Zn  Zn100  1  0.87410847  0.46056290  0.13197490  1
  Zn  Zn101  1  0.99053315  0.45968119  0.70830844  1
  Zn  Zn102  1  0.93741240  0.92932063  0.20707259  1
  Zn  Zn103  1  0.95624433  0.92827412  0.65207971  1
  Zn  Zn104  1  0.06100027  0.08593814  0.33889984  1
  Zn  Zn105  1  0.06350328  0.06330896  0.79848677  1
  Zn  Zn106  1  0.05957883  0.55716891  0.30744339  1
  Zn  Zn107  1  0.06482758  0.54940974  0.84086105  1
  Zn  Zn108  1  0.56017735  0.06792327  0.32318080  1
  Zn  Zn109  1  0.58539622  0.03421019  0.81952327  1
  Zn  Zn110  1  0.55712880  0.55393424  0.30288769  1
  Zn  Zn111  1  0.51618256  0.57807259  0.83919354  1
  Zn  Zn112  1  0.43397488  0.20509466  0.43365498  1
  Zn  Zn113  1  0.46504942  0.29350200  0.96409644  1
  Zn  Zn114  1  0.43700759  0.67886358  0.43530163  1
  Zn  Zn115  1  0.43779825  0.70737718  0.93337216  1
  Zn  Zn116  1  0.93106649  0.20214947  0.44020401  1
  Zn  Zn117  1  0.90598789  0.18258568  0.91909235  1
  Zn  Zn118  1  0.90097606  0.63208586  0.47075956  1
  Zn  Zn119  1  0.93052560  0.74001442  0.93202521  1
  Zn  Zn120  1  0.03106192  0.31958229  0.07935390  1
  Zn  Zn121  1  0.06460622  0.32435763  0.56786546  1
  Zn  Zn122  1  0.06810467  0.80858323  0.06436489  1
  Zn  Zn123  1  0.13370676  0.82892792  0.50583906  1
  Zn  Zn124  1  0.54703655  0.29146051  0.14755580  1
  Zn  Zn125  1  0.56349756  0.29926724  0.57342834  1
  Zn  Zn126  1  0.56455517  0.81635292  0.07515898  1
  Zn  Zn127  1  0.55783902  0.80102966  0.55363723  1
  O  O128  1  0.11034083  0.08714325  0.14128599  1
  O  O129  1  0.12694300  0.12571372  0.61774345  1
  O  O130  1  0.11375058  0.66909374  0.16537450  1
  O  O131  1  0.12997552  0.62525537  0.61843600  1
  O  O132  1  0.62069318  0.11865973  0.15637171  1
  O  O133  1  0.62228064  0.12360168  0.61632641  1
  O  O134  1  0.61042688  0.63307118  0.11235351  1
  O  O135  1  0.61348552  0.61293814  0.60108175  1
  O  O136  1  0.37931365  0.38875492  0.34826655  1
  O  O137  1  0.40262687  0.36856280  0.88517709  1
  O  O138  1  0.36661634  0.88847580  0.38259609  1
  O  O139  1  0.36401510  0.94449461  0.81871666  1
  O  O140  1  0.89393235  0.37317238  0.37402928  1
  O  O141  1  0.86881287  0.35085619  0.87680588  1
  O  O142  1  0.88180049  0.83674060  0.39969364  1
  O  O143  1  0.92393382  0.88762861  0.92239924  1
  O  O144  1  0.26611332  0.02515906  0.37741667  1
  O  O145  1  0.22941138  0.02920197  0.87566780  1
  O  O146  1  0.26472392  0.50489589  0.37275701  1
  O  O147  1  0.24264142  0.50393036  0.84820335  1
  O  O148  1  0.74839953  0.00110589  0.37464857  1
  O  O149  1  0.79667716  -0.04036540  0.86804336  1
  O  O150  1  0.74159248  0.50289058  0.37347692  1
  O  O151  1  0.80347412  0.51666817  0.85853760  1
  O  O152  1  0.23096163  0.46821065  0.03101725  1
  O  O153  1  0.24310985  0.49332766  0.64307271  1
  O  O154  1  0.25547688  0.96434073  0.15576695  1
  O  O155  1  0.24726124  1.01114617  0.61677590  1
  O  O156  1  0.67285806  0.48536086  -0.01601118  1
  O  O157  1  0.81902249  0.46264309  0.64553602  1
  O  O158  1  0.75793918  0.98303438  0.15515283  1
  O  O159  1  0.76443763  0.96767542  0.56596525  1
  O  O160  1  0.00578969  0.35521109  0.25753191  1
  O  O161  1  -0.01127553  0.35914103  0.76579888  1
  O  O162  1  0.00196906  0.84646591  0.25822019  1
  O  O163  1  0.02775403  0.87207971  0.72779412  1
  O  O164  1  0.50075367  0.37595926  0.23368961  1
  O  O165  1  0.46286730  0.41295170  0.84245843  1
  O  O166  1  0.51378469  0.86535707  0.24955267  1
  O  O167  1  0.50423823  0.89244633  0.76086401  1
  O  O168  1  0.48824042  0.10652170  0.24190055  1
  O  O169  1  0.53276232  0.10876419  0.75201329  1
  O  O170  1  0.49388456  0.63118907  0.23760106  1
  O  O171  1  0.49159091  0.60823421  0.72584872  1
  O  O172  1  0.98356027  0.12996259  0.27374501  1
  O  O173  1  0.99977855  0.13006535  0.73014353  1
  O  O174  1  0.98422309  0.62509974  0.24846855  1
  O  O175  1  0.96796575  0.60786958  0.77707871  1
  O  O176  1  0.37503942  0.24824549  0.01640960  1
  O  O177  1  0.38745700  0.25669669  0.52279159  1
  O  O178  1  0.37186983  0.75623443  0.01789436  1
  O  O179  1  0.37639558  0.76402113  0.48198936  1
  O  O180  1  0.87866562  0.21690227  0.02772902  1
  O  O181  1  0.85171839  0.25494158  0.50205969  1
  O  O182  1  0.86160618  0.75252073  0.01830869  1
  O  O183  1  0.86566851  0.72686688  0.53456219  1
  O  O184  1  0.12721861  0.24409490  0.50960713  1
  O  O185  1  0.06419002  0.18239640  1.01625390  1
  O  O186  1  0.11895974  0.72058082  0.49212517  1
  O  O187  1  0.13704006  0.74787472  0.98614246  1
  O  O188  1  0.64328133  0.24224903  0.51188236  1
  O  O189  1  0.65061659  0.21967010  0.98506435  1
  O  O190  1  0.61446270  0.73010578  0.48283309  1
  O  O191  1  0.62741336  0.74890083  1.01002356  1
  O  O192  1  0.48068119  0.20081536  0.11875487  1
  O  O193  1  0.48646676  0.21079143  0.63043624  1
  O  O194  1  0.48903996  0.74566760  0.13710060  1
  O  O195  1  0.49846403  0.72189743  0.61186248  1
  O  O196  1  0.98775399  0.23486960  0.14802010  1
  O  O197  1  1.00217672  0.23939228  0.62836320  1
  O  O198  1  0.98527773  0.74434577  0.11200244  1
  O  O199  1  0.92147318  0.77152845  0.57175333  1
  O  O200  1  -0.00249258  0.25649223  0.36705697  1
  O  O201  1  -0.01194884  0.24311685  0.85842216  1
  O  O202  1  -0.05719952  0.79607259  0.40695672  1
  O  O203  1  0.02603367  0.78157925  0.88291377  1
  O  O204  1  0.48435889  0.27586765  0.36165785  1
  O  O205  1  0.52071803  0.23694492  0.87968613  1
  O  O206  1  0.51002629  0.73569623  0.36214272  1
  O  O207  1  0.42732086  0.81115056  0.87797843  1
  O  O208  1  0.24823022  0.13916312  0.49228301  1
  O  O209  1  0.23050597  0.15824036  0.96320599  1
  O  O210  1  0.23551302  0.60836336  0.48904063  1
  O  O211  1  0.26115707  0.64820659  0.99432736  1
  O  O212  1  0.74741516  0.13903438  0.49022956  1
  O  O213  1  0.73661789  0.11297654  1.02474344  1
  O  O214  1  0.72922686  0.61439923  0.47996204  1
  O  O215  1  0.72871455  0.63040348  0.98743212  1
  O  O216  1  0.29763416  0.42126337  0.02575381  1
  O  O217  1  0.22113043  0.38871194  0.50931842  1
  O  O218  1  0.24487745  0.86025030  0.02519103  1
  O  O219  1  0.24238727  0.87010748  0.51337249  1
  O  O220  1  0.75305041  0.33521782  0.00567646  1
  O  O221  1  0.73989358  0.37167233  0.50446840  1
  O  O222  1  0.74840677  0.88230630  0.03036326  1
  O  O223  1  0.75187513  0.90972331  0.51876593  1
  O  O224  1  0.11600374  0.49332971  0.23092830  1
  O  O225  1  0.09587155  0.47823510  0.75638423  1
  O  O226  1  0.07761360  1.02928856  0.18346888  1
  O  O227  1  0.12955200  0.99449707  0.73058642  1
  O  O228  1  0.62829471  0.49054857  0.24558966  1
  O  O229  1  0.74569099  0.55270122  0.81472622  1
  O  O230  1  0.62901681  0.98182811  0.27063863  1
  O  O231  1  0.65301554  0.95153472  0.77789230  1
  O  O232  1  0.37516557  0.00518652  0.26921708  1
  O  O233  1  0.37284190  -0.01612253  0.75737573  1
  O  O234  1  0.38018785  0.51607820  0.25462685  1
  O  O235  1  0.37234561  0.48463714  0.74729721  1
  O  O236  1  0.87068904  0.00728091  0.26610621  1
  O  O237  1  0.88217451  -0.00727532  0.71875117  1
  O  O238  1  0.87139371  0.52167715  0.22467586  1
  O  O239  1  0.92466701  0.55609352  0.74189115  1
  O  O240  1  0.11048911  0.37916574  0.34929323  1
  O  O241  1  0.12635196  0.37253383  0.86590947  1
  O  O242  1  0.06551272  0.87141373  0.30404580  1
  O  O243  1  0.13169770  0.88680308  0.85270237  1
  O  O244  1  0.60897751  0.37518476  0.34826674  1
  O  O245  1  0.63200102  0.34483851  0.90106363  1
  O  O246  1  0.62582591  0.85552479  0.37233575  1
  O  O247  1  0.59572953  0.83941087  0.88564013  1
  O  O248  1  0.36045193  0.10932227  0.13970517  1
  O  O249  1  0.34207535  0.15069852  0.63651024  1
  O  O250  1  0.37956456  0.63508510  0.13562898  1
  O  O251  1  0.38350345  0.61502562  0.62472505  1
  O  O252  1  0.87536537  0.11823332  0.15609536  1
  O  O253  1  0.89563813  0.11485614  0.61926952  1
  O  O254  1  0.87034587  0.64276551  0.13638981  1
  O  O255  1  0.84389393  0.67876183  0.69341608  1
  O  O256  1  0.25662465  0.22288215  0.11964376  1
  O  O257  1  0.25348241  0.27356890  0.62800159  1
  O  O258  1  0.26327732  0.74873710  0.11466963  1
  O  O259  1  0.25347559  0.75488423  0.62171705  1
  O  O260  1  0.77044607  0.23325391  0.12276160  1
  O  O261  1  0.75350221  0.25623644  0.62594185  1
  O  O262  1  0.75516065  0.76169182  0.13753165  1
  O  O263  1  0.78132679  0.70752565  0.67301996  1
  O  O264  1  0.27078792  0.24091377  0.36509906  1
  O  O265  1  0.26415119  0.23522931  0.85160561  1
  O  O266  1  0.25507834  0.72678909  0.37907998  1
  O  O267  1  0.24474932  0.76913192  0.88643958  1
  O  O268  1  0.74631756  0.24841960  0.36922502  1
  O  O269  1  0.79227442  0.21736559  0.90613262  1
  O  O270  1  0.73274076  0.73654062  0.37460571  1
  O  O271  1  0.74241273  0.79390754  0.86626928  1
  O  O272  1  0.02047311  0.13096083  -0.01258160  1
  O  O273  1  0.01441789  0.13159476  0.50469473  1
  O  O274  1  -0.04675867  0.62635162  -0.05821735  1
  O  O275  1  0.01136054  0.60865280  0.50191387  1
  O  O276  1  0.54393041  0.08655975  0.01937048  1
  O  O277  1  0.52007460  0.14358719  0.48474158  1
  O  O278  1  0.49334092  0.64018898  0.01376297  1
  O  O279  1  0.50365298  0.61135432  0.49908977  1
  O  O280  1  0.51083119  0.38259925  0.48962761  1
  O  O281  1  0.52151806  0.34973541  1.04911413  1
  O  O282  1  0.48606455  0.87297981  0.49453249  1
  O  O283  1  0.50224000  0.88873041  1.01576650  1
  O  O284  1  1.01288479  0.38073996  0.48084354  1
  O  O285  1  0.99689724  0.34978619  0.97989251  1
  O  O286  1  1.03688247  0.88808916  0.50663652  1
  O  O287  1  1.06797433  0.90633277  0.99337448  1
  O  O288  1  0.48910594  0.48507496  0.37075382  1
  O  O289  1  0.49371632  0.46978945  0.88628813  1
  O  O290  1  0.48129932  1.01025392  0.38400735  1
  O  O291  1  0.50491781  0.98227906  0.89559829  1
  O  O292  1  0.99937549  0.48815548  0.37743349  1
  O  O293  1  0.96632976  0.47413088  0.88670849  1
  O  O294  1  1.03025029  0.99491098  0.38996701  1
  O  O295  1  1.00352579  0.99186150  0.86446244  1
  O  O296  1  0.01459685  -0.00378221  0.14514925  1
  O  O297  1  0.02469533  0.01488216  0.60990902  1
  O  O298  1  0.00974753  0.56994745  0.08588298  1
  O  O299  1  0.00008774  0.47166202  0.60023403  1
  O  O300  1  0.49396572  0.00263146  0.12284059  1
  O  O301  1  0.46423212  0.03612916  0.62313932  1
  O  O302  1  0.49087936  0.52073608  0.12037724  1
  O  O303  1  0.48913174  0.50063224  0.59688610  1
  O  O304  1  0.22944929  0.37624959  0.24713777  1
  O  O305  1  0.23947401  0.38388891  0.75266996  1
  O  O306  1  0.23586964  0.82418955  0.24172855  1
  O  O307  1  0.25442035  0.86965255  0.73023343  1
  O  O308  1  0.75965822  0.39025103  0.25153229  1
  O  O309  1  0.76615710  0.38449088  0.73942985  1
  O  O310  1  0.74014894  0.87787976  0.26045280  1
  O  O311  1  0.73455043  0.86925803  0.67615109  1
  O  O312  1  0.25874044  0.12134533  0.26474866  1
  O  O313  1  0.24065017  0.13222966  0.76020003  1
  O  O314  1  0.26585059  0.62757842  0.25683861  1
  O  O315  1  0.27644546  0.61312319  0.74100023  1
  O  O316  1  0.75642171  0.11717696  0.26793167  1
  O  O317  1  0.77353400  0.10792539  0.72519440  1
  O  O318  1  0.75112827  0.62309001  0.25734238  1
  O  O319  1  0.75271112  0.62765050  0.80887819  1
  O  O320  1  0.37286967  0.12246881  0.37220667  1
  O  O321  1  0.34209744  0.10979677  0.87054814  1
  O  O322  1  0.37010213  0.61456580  0.36411545  1
  O  O323  1  0.40709212  0.63109586  0.84971810  1
  O  O324  1  0.85758102  0.13281447  0.37450389  1
  O  O325  1  0.88949401  0.09052489  0.84384833  1
  O  O326  1  0.85181907  0.62456825  0.36409847  1
  O  O327  1  0.82297626  0.77383621  0.84196163  1
  O  O328  1  0.11250145  0.35855590  0.14121227  1
  O  O329  1  0.13380698  0.37368995  0.64428670  1
  O  O330  1  0.13062546  0.86401040  0.13922223  1
  O  O331  1  0.15014688  0.88942476  0.62968535  1
  O  O332  1  0.66458098  0.40110299  0.12428987  1
  O  O333  1  0.54489583  0.36394052  0.66039935  1
  O  O334  1  0.63913626  0.86813308  0.15057076  1
  O  O335  1  0.57995894  0.88965194  0.62180258  1
  O  O336  1  0.10726373  0.22751401  0.25069425  1
  O  O337  1  0.10392862  0.26536013  0.74702048  1
  O  O338  1  0.10104471  0.81603741  0.33954057  1
  O  O339  1  0.14178269  0.76595830  0.75851259  1
  O  O340  1  0.63029274  0.28487878  0.22260002  1
  O  O341  1  0.67647889  0.24505654  0.78644155  1
  O  O342  1  0.61863418  0.75465989  0.26044628  1
  O  O343  1  0.62245237  0.77553267  0.73389401  1
  O  O344  1  0.37824623  0.21980835  0.24097367  1
  O  O345  1  0.39277272  0.29714888  0.71351232  1
  O  O346  1  0.38448166  0.73870805  0.25009350  1
  O  O347  1  0.37504592  0.73879600  0.73984477  1
  O  O348  1  0.87849922  0.23534088  0.24676716  1
  O  O349  1  0.88330077  0.22283379  0.74564364  1
  O  O350  1  0.87310020  0.73321019  0.24293783  1
  O  O351  1  0.85273197  0.81685554  0.78548806  1
  O  O352  1  0.38479311  0.49962993  0.47648358  1
  O  O353  1  0.36363846  0.46960651  1.04204903  1
  O  O354  1  0.36178852  0.98612126  0.49004067  1
  O  O355  1  0.38695108  1.00313386  1.00563969  1
  O  O356  1  0.89637629  0.51607408  0.49366249  1
  O  O357  1  0.88439365  0.49876282  1.02433132  1
  O  O358  1  0.91388752  0.99463059  0.49900433  1
  O  O359  1  0.88111614  1.02792313  0.99219727  1
  O  O360  1  0.19982801  0.03294600  0.02633540  1
  O  O361  1  0.13110738  0.02168431  0.51049463  1
  O  O362  1  0.08248767  0.52778116  -0.04243897  1
  O  O363  1  0.11272677  0.51142693  0.48885562  1
  O  O364  1  0.65536416  -0.01000884  -0.03398068  1
  O  O365  1  0.62231614  0.02406279  0.49711993  1
  O  O366  1  0.60821366  0.53275554  -0.01546567  1
  O  O367  1  0.60679826  0.50690959  0.48058253  1
  O  O368  1  0.36902008  0.33565241  0.15069863  1
  O  O369  1  0.34558059  0.38843111  0.60391477  1
  O  O370  1  0.37254364  0.85775505  0.14476020  1
  O  O371  1  0.36900802  0.87801448  0.60577800  1
  O  O372  1  0.88627177  0.34939100  0.12482219  1
  O  O373  1  0.82946869  0.40333681  0.69776476  1
  O  O374  1  0.86434419  0.86198632  0.14426487  1
  O  O375  1  0.89021591  0.83872163  0.60018264  1
  O  O376  1  0.14549840  0.13513638  0.38997482  1
  O  O377  1  0.13742709  0.13571553  0.85440214  1
  O  O378  1  0.14336265  0.61608279  0.36036672  1
  O  O379  1  0.12237481  0.65091602  0.85240373  1
  O  O380  1  0.64036151  0.12780531  0.38214720  1
  O  O381  1  0.64036383  0.11802718  0.87961004  1
  O  O382  1  0.62937249  0.62743092  0.36755658  1
  O  O383  1  0.59117408  0.64995429  0.88840958  1
