# generated using pymatgen
data_VZnO4
_symmetry_space_group_name_H-M   'P 1'
_cell_length_a   16.96253472
_cell_length_b   16.93509628
_cell_length_c   16.97045562
_cell_angle_alpha   89.90343527
_cell_angle_beta   90.05902162
_cell_angle_gamma   89.81657044
_symmetry_Int_Tables_number   1
_chemical_formula_structural   VZnO4
_chemical_formula_sum   'V64 Zn64 O256'
_cell_volume   4874.93519456
_cell_formula_units_Z   64
loop_
 _symmetry_equiv_pos_site_id
 _symmetry_equiv_pos_as_xyz
  1  'x, y, z'
loop_
 _atom_site_type_symbol
 _atom_site_label
 _atom_site_symmetry_multiplicity
 _atom_site_fract_x
 _atom_site_fract_y
 _atom_site_fract_z
 _atom_site_occupancy
  V  V0  1  0.62385347  0.61742342  0.49584306  1
  V  V1  1  0.36919032  0.51484993  0.36709987  1
  V  V2  1  0.49545534  0.63589868  0.14256726  1
  V  V3  1  0.13998357  0.12537737  0.49303998  1
  V  V4  1  0.74299445  0.38866545  0.13042345  1
  V  V5  1  -0.00152989  0.01451958  0.50202123  1
  V  V6  1  0.75861857  0.15719644  0.89836054  1
  V  V7  1  0.61988069  0.50822838  0.16800974  1
  V  V8  1  0.50747865  0.22729459  0.25816093  1
  V  V9  1  0.88370442  0.75142763  0.13178666  1
  V  V10  1  0.23894376  0.62264135  0.89101231  1
  V  V11  1  0.75071273  0.87359629  0.64197872  1
  V  V12  1  0.64257259  0.02535395  0.14164952  1
  V  V13  1  0.49530911  0.37122207  0.36435524  1
  V  V14  1  0.74740478  0.50365225  0.75444993  1
  V  V15  1  0.01639401  0.73814353  0.74090974  1
  V  V16  1  0.37368753  0.24372974  0.11729895  1
  V  V17  1  0.86728391  0.48650633  0.38591125  1
  V  V18  1  0.24501109  0.53190738  0.24555081  1
  V  V19  1  0.13657022  0.37238239  0.24255685  1
  V  V20  1  0.64095334  0.12504452  0.50717861  1
  V  V21  1  0.49234837  0.87444774  0.37797679  1
  V  V22  1  0.87818253  0.73797693  0.61717725  1
  V  V23  1  0.50627983  0.49972126  -0.01652400  1
  V  V24  1  0.35868152  0.85808013  0.50323269  1
  V  V25  1  0.62418972  0.75905312  0.36263214  1
  V  V26  1  0.00456696  0.37471009  0.38632401  1
  V  V27  1  0.00450255  0.25313904  0.25255974  1
  V  V28  1  0.24827284  0.25670679  0.49261064  1
  V  V29  1  0.61150963  -0.00382682  0.64454122  1
  V  V30  1  0.45139244  0.82113139  0.19319697  1
  V  V31  1  -0.01828116  0.25142180  0.73928843  1
  V  V32  1  0.87092948  0.25322487  0.11045079  1
  V  V33  1  0.10777700  0.48488728  0.60003754  1
  V  V34  1  0.86956596  0.60695887  0.24284247  1
  V  V35  1  -0.01524397  -0.00153849  -0.00910990  1
  V  V36  1  0.75655229  0.74830135  0.48362690  1
  V  V37  1  0.00415121  0.85366748  0.87070056  1
  V  V38  1  0.34399521  0.12387168  0.26807113  1
  V  V39  1  0.12640050  0.37873755  0.75120418  1
  V  V40  1  0.23577870  0.86107062  0.63882383  1
  V  V41  1  0.87069122  0.88988954  0.49716137  1
  V  V42  1  0.75410793  0.76211244  -0.01052166  1
  V  V43  1  0.52579742  -0.00771771  0.00672214  1
  V  V44  1  0.36386039  0.22841906  0.63616159  1
  V  V45  1  0.13406201  0.87980348  0.25590360  1
  V  V46  1  0.36838021  0.39301703  0.50098142  1
  V  V47  1  0.11554967  0.24804197  0.89201176  1
  V  V48  1  0.63012778  0.62922053  -0.02036776  1
  V  V49  1  0.74463304  0.87353856  0.14140877  1
  V  V50  1  0.00373265  0.12495614  0.11763318  1
  V  V51  1  0.12130315  0.51644654  0.11199803  1
  V  V52  1  -0.02963048  0.49195819  0.00285796  1
  V  V53  1  0.48571910  0.00659962  0.50489381  1
  V  V54  1  -0.00671604  0.87266630  0.36983628  1
  V  V55  1  0.25546769  0.13621529  0.85931706  1
  V  V56  1  0.87467089  0.62182766  0.77376781  1
  V  V57  1  0.36840532  0.48041691  0.85155318  1
  V  V58  1  0.13279883  0.00298296  0.12782985  1
  V  V59  1  0.37539746  0.65058786  0.75974108  1
  V  V60  1  0.78943602  0.02382138  0.75375052  1
  V  V61  1  0.12588661  0.00354192  0.63573973  1
  V  V62  1  0.62592640  0.35674320  0.76493794  1
  V  V63  1  0.87073731  0.12548571  0.26520274  1
  Zn  Zn64  1  0.19064910  0.19302280  0.17649856  1
  Zn  Zn65  1  0.17913383  0.19243186  0.68745146  1
  Zn  Zn66  1  0.17916705  0.70366135  0.17310832  1
  Zn  Zn67  1  0.22179220  0.66414461  0.67557664  1
  Zn  Zn68  1  0.69608530  0.21281517  0.20031235  1
  Zn  Zn69  1  0.67818659  0.16639085  0.71668045  1
  Zn  Zn70  1  0.69496761  0.69038423  0.19049969  1
  Zn  Zn71  1  0.69686528  0.67756130  0.66980593  1
  Zn  Zn72  1  0.31887454  0.30673117  0.31260259  1
  Zn  Zn73  1  0.30201086  0.31292985  0.81973769  1
  Zn  Zn74  1  0.31325454  0.94234305  0.31959103  1
  Zn  Zn75  1  0.26007525  0.78393822  0.81096256  1
  Zn  Zn76  1  0.81728168  0.33535308  0.29481084  1
  Zn  Zn77  1  0.80371429  0.32626905  0.82296806  1
  Zn  Zn78  1  0.80237522  0.94521050  0.31142000  1
  Zn  Zn79  1  0.82993033  0.80970524  0.81427010  1
  Zn  Zn80  1  0.19017264  0.43992599  0.42475421  1
  Zn  Zn81  1  0.18849429  0.42469899  0.93131474  1
  Zn  Zn82  1  0.17736567  0.93523098  0.44189157  1
  Zn  Zn83  1  0.16743577  0.94657002  0.93998527  1
  Zn  Zn84  1  0.67406826  0.46100338  0.36594770  1
  Zn  Zn85  1  0.64619318  0.40266787  0.96322741  1
  Zn  Zn86  1  0.67760626  0.94625494  0.44791636  1
  Zn  Zn87  1  0.73756312  0.97397623  0.96209556  1
  Zn  Zn88  1  0.31924627  0.06437759  0.06474549  1
  Zn  Zn89  1  0.30695535  0.05439873  0.57096843  1
  Zn  Zn90  1  0.29418113  0.49401281  0.04161026  1
  Zn  Zn91  1  0.33473635  0.51084611  0.64718064  1
  Zn  Zn92  1  0.81430137  0.07287700  0.07664565  1
  Zn  Zn93  1  0.81018909  0.07323506  0.44057290  1
  Zn  Zn94  1  0.80049754  0.57146624  0.06759515  1
  Zn  Zn95  1  0.79025693  0.56394568  0.55323927  1
  Zn  Zn96  1  0.42410928  0.43860414  0.19102133  1
  Zn  Zn97  1  0.43716054  0.36477758  0.70108413  1
  Zn  Zn98  1  0.43500690  1.01468983  0.16585018  1
  Zn  Zn99  1  0.44287102  0.89886478  0.66633612  1
  Zn  Zn100  1  0.94376694  0.43247557  0.16996801  1
  Zn  Zn101  1  0.94567818  0.44567667  0.69799825  1
  Zn  Zn102  1  0.92751378  0.94306862  0.18343785  1
  Zn  Zn103  1  0.95128601  0.92601481  0.68504489  1
  Zn  Zn104  1  0.06301153  0.06170308  0.31576033  1
  Zn  Zn105  1  0.05777509  0.07847385  0.81030291  1
  Zn  Zn106  1  0.04929162  0.55220538  0.31409347  1
  Zn  Zn107  1  0.05765412  0.55504348  0.82339897  1
  Zn  Zn108  1  0.57343646  0.05985574  0.32646716  1
  Zn  Zn109  1  0.61899959  0.04104139  0.84695976  1
  Zn  Zn110  1  0.54251519  0.57898473  0.32774351  1
  Zn  Zn111  1  0.55440060  0.57148211  0.80428119  1
  Zn  Zn112  1  0.42706502  0.18884213  0.44013010  1
  Zn  Zn113  1  0.43259170  0.12569791  0.94767122  1
  Zn  Zn114  1  0.44675374  0.68638635  0.44872807  1
  Zn  Zn115  1  0.38866387  0.63608202  0.98950095  1
  Zn  Zn116  1  0.94982177  0.19691985  0.43996439  1
  Zn  Zn117  1  0.93474091  0.18667505  0.92376365  1
  Zn  Zn118  1  1.00792817  0.73248308  0.26285321  1
  Zn  Zn119  1  0.93891696  0.68331709  0.95079035  1
  Zn  Zn120  1  0.06254987  0.32201161  0.06405807  1
  Zn  Zn121  1  0.06225981  0.30101975  0.57375453  1
  Zn  Zn122  1  0.04088591  0.84023665  0.07636991  1
  Zn  Zn123  1  0.05794633  0.81192837  0.55755786  1
  Zn  Zn124  1  0.52282371  0.34016811  0.10341839  1
  Zn  Zn125  1  0.53709349  0.29595147  0.54546399  1
  Zn  Zn126  1  0.57383275  0.81625059  0.05723085  1
  Zn  Zn127  1  0.58181493  0.82967103  0.53265725  1
  O  O128  1  0.11051108  0.11661167  0.13537741  1
  O  O129  1  0.13079630  0.10918734  0.61405368  1
  O  O130  1  0.12630177  0.61697038  0.11973589  1
  O  O131  1  0.17382656  0.57956420  0.61177688  1
  O  O132  1  0.65694757  0.12306726  0.13415550  1
  O  O133  1  0.62992302  0.09832873  0.63316372  1
  O  O134  1  0.62217258  0.61467416  0.13524696  1
  O  O135  1  0.67750335  0.60069337  0.58701772  1
  O  O136  1  0.37188122  0.38623123  0.37876494  1
  O  O137  1  0.37581670  0.38336336  0.87840475  1
  O  O138  1  0.38574945  0.87644811  0.38943113  1
  O  O139  1  0.41218986  0.79297601  0.93121367  1
  O  O140  1  0.89831450  0.36782515  0.37049431  1
  O  O141  1  0.80598379  0.42985176  0.88870465  1
  O  O142  1  0.87763713  0.88873182  0.39193997  1
  O  O143  1  0.90375019  0.87788620  0.86486497  1
  O  O144  1  0.24771857  0.00062826  0.38781586  1
  O  O145  1  0.24934168  0.02752461  0.91058028  1
  O  O146  1  0.25391828  0.50851683  0.35686659  1
  O  O147  1  0.26674026  0.49476501  0.86914864  1
  O  O148  1  0.74351221  0.00512022  0.38215995  1
  O  O149  1  0.73821449  -0.00502818  0.84447532  1
  O  O150  1  0.77978750  0.44422569  0.33936774  1
  O  O151  1  0.76260701  0.49124656  0.86441044  1
  O  O152  1  0.23836497  0.50351732  0.14379925  1
  O  O153  1  0.21603008  0.50795808  0.63352199  1
  O  O154  1  0.23090108  1.00828395  0.11791362  1
  O  O155  1  0.23241817  0.98466934  0.62465942  1
  O  O156  1  0.73273489  0.49519605  0.13657375  1
  O  O157  1  0.78725793  0.48256769  0.64330489  1
  O  O158  1  0.74899481  0.98703144  0.12372467  1
  O  O159  1  0.74036604  0.98169075  0.66291559  1
  O  O160  1  0.00480982  0.36262642  0.24521015  1
  O  O161  1  0.00853744  0.36643009  0.74901543  1
  O  O162  1  -0.01161866  0.89063196  0.26833484  1
  O  O163  1  0.00439201  0.84654271  0.75406359  1
  O  O164  1  0.48645950  0.36310435  0.26065432  1
  O  O165  1  0.54118950  0.40027441  0.72848720  1
  O  O166  1  0.50109755  0.87779562  0.27529125  1
  O  O167  1  0.50726446  0.81647501  0.72018529  1
  O  O168  1  0.49298579  0.12633799  0.27097926  1
  O  O169  1  0.42370199  0.02137218  0.78544065  1
  O  O170  1  0.49385616  0.63797217  0.24261719  1
  O  O171  1  0.47442444  0.62709472  0.75017604  1
  O  O172  1  0.99751973  0.13800984  0.24899394  1
  O  O173  1  0.98894985  0.14972611  0.75632347  1
  O  O174  1  0.98196836  0.62294877  0.25853471  1
  O  O175  1  0.98595742  0.63289821  0.76065712  1
  O  O176  1  0.40232629  0.21200645  0.02558124  1
  O  O177  1  0.35877649  0.25527647  0.51239418  1
  O  O178  1  0.38227328  0.75673123  -0.00448435  1
  O  O179  1  0.37675175  0.75954984  0.50083859  1
  O  O180  1  0.89622015  0.24886622  0.01496474  1
  O  O181  1  0.87812979  0.26666029  0.50045189  1
  O  O182  1  0.85809640  0.73982601  0.01166509  1
  O  O183  1  0.86756128  0.77093887  0.50803883  1
  O  O184  1  0.13833135  0.23569437  0.51246240  1
  O  O185  1  0.11852240  0.25436790  0.99214006  1
  O  O186  1  0.10714296  0.71665344  0.50284119  1
  O  O187  1  0.20465948  0.80719151  1.03909914  1
  O  O188  1  0.61462498  0.22004094  0.53292335  1
  O  O189  1  0.58691059  0.22333622  0.99133418  1
  O  O190  1  0.64529808  0.73828707  0.50572180  1
  O  O191  1  0.63969014  0.73984987  1.00315779  1
  O  O192  1  0.50020600  0.23928125  0.15246620  1
  O  O193  1  0.46138079  0.27018424  0.62336008  1
  O  O194  1  0.50936172  0.75013037  0.13089774  1
  O  O195  1  0.55189474  0.76721221  0.67543292  1
  O  O196  1  0.99914988  0.23986415  0.13209868  1
  O  O197  1  0.98403644  0.25319405  0.63656704  1
  O  O198  1  0.98471351  0.75080900  0.10769372  1
  O  O199  1  0.98679564  0.75226061  0.63150336  1
  O  O200  1  0.00743902  0.25711372  0.35808663  1
  O  O201  1  0.01266927  0.24915838  0.87135041  1
  O  O202  1  -0.00893716  0.77387616  0.37425977  1
  O  O203  1  0.00549234  0.74884409  0.86876237  1
  O  O204  1  0.48354897  0.26111836  0.36885417  1
  O  O205  1  0.54697469  0.21730393  0.93070601  1
  O  O206  1  0.50891457  0.76459247  0.38394916  1
  O  O207  1  0.46803686  0.75631454  0.89610985  1
  O  O208  1  0.24378303  0.12887768  0.50048761  1
  O  O209  1  0.24745392  0.08912426  0.97072205  1
  O  O210  1  0.24777810  0.68264361  0.43674643  1
  O  O211  1  0.27543709  0.59954837  0.99000051  1
  O  O212  1  0.74201571  0.12394103  0.51473852  1
  O  O213  1  0.74850935  0.10145209  0.98607061  1
  O  O214  1  0.76563201  0.65021285  0.47288221  1
  O  O215  1  0.73523780  0.63406750  0.99874329  1
  O  O216  1  0.26475729  0.39179667  0.00635016  1
  O  O217  1  0.25632604  0.36654964  0.49416485  1
  O  O218  1  0.24250038  0.86715017  0.00465312  1
  O  O219  1  0.25746805  0.86714092  0.49237489  1
  O  O220  1  0.71945788  0.35888506  0.03852575  1
  O  O221  1  0.72561090  0.29869524  0.44774291  1
  O  O222  1  0.74948902  0.86610734  0.00808849  1
  O  O223  1  0.76257834  0.88060027  0.50981689  1
  O  O224  1  0.13343336  0.49957405  0.24704942  1
  O  O225  1  0.11086944  0.48136812  0.75436222  1
  O  O226  1  0.11833346  0.99300059  0.24175022  1
  O  O227  1  0.10661386  1.00536608  0.73335414  1
  O  O228  1  0.62464860  0.51438803  0.26915857  1
  O  O229  1  0.64941732  0.52477198  0.75515957  1
  O  O230  1  0.63006641  1.01020888  0.24084473  1
  O  O231  1  0.59762377  0.99149059  0.74330498  1
  O  O232  1  0.36813215  0.01763392  0.25637927  1
  O  O233  1  0.38631385  -0.03738349  0.76172065  1
  O  O234  1  0.35408306  0.50514450  0.25358428  1
  O  O235  1  0.38078036  0.47181126  0.75025918  1
  O  O236  1  0.87380236  0.02071444  0.25276617  1
  O  O237  1  0.88316208  -0.00789893  0.74796730  1
  O  O238  1  0.87683848  0.50730723  0.22359600  1
  O  O239  1  0.87469891  0.51685722  0.76211254  1
  O  O240  1  0.11066234  0.38528095  0.35298444  1
  O  O241  1  0.12613390  0.35861945  0.86457545  1
  O  O242  1  0.10675079  0.88219050  0.36422080  1
  O  O243  1  0.10232777  0.88852314  0.86965259  1
  O  O244  1  0.59330640  0.38166209  0.38076577  1
  O  O245  1  0.62332318  0.35318551  0.86519118  1
  O  O246  1  0.60779603  0.86472362  0.40399480  1
  O  O247  1  0.60903927  0.80635775  0.84682114  1
  O  O248  1  0.37276830  0.12441936  0.15041961  1
  O  O249  1  0.37012420  0.12832914  0.63531238  1
  O  O250  1  0.40104902  0.63145480  0.11398718  1
  O  O251  1  0.34268010  0.62259931  0.66059307  1
  O  O252  1  0.89085205  0.13412479  0.14032297  1
  O  O253  1  0.84432082  0.23240361  0.56716329  1
  O  O254  1  0.86661234  0.63924883  0.13257681  1
  O  O255  1  0.87110296  0.64025298  0.60395302  1
  O  O256  1  0.27189515  0.24472802  0.11765594  1
  O  O257  1  0.25848119  0.24577526  0.61598157  1
  O  O258  1  0.24569429  0.77344989  0.09864991  1
  O  O259  1  0.22928265  0.76260952  0.61891158  1
  O  O260  1  0.77556205  0.22654789  0.10923188  1
  O  O261  1  0.79261992  0.27491297  0.59905666  1
  O  O262  1  0.75758881  0.76238357  0.12210197  1
  O  O263  1  0.76100718  0.75870952  0.61042420  1
  O  O264  1  0.25047489  0.25156813  0.39399248  1
  O  O265  1  0.23440274  0.24190042  0.87652142  1
  O  O266  1  0.23670627  0.72505871  0.37977427  1
  O  O267  1  0.23920518  0.72687277  0.90167368  1
  O  O268  1  0.74574204  0.25982219  0.38952405  1
  O  O269  1  0.76329873  0.25786682  0.90773151  1
  O  O270  1  0.73296061  0.77560831  0.38653174  1
  O  O271  1  0.75902620  0.76236270  0.89033939  1
  O  O272  1  -0.00478180  0.12035652  0.01572145  1
  O  O273  1  0.00500104  0.11784398  0.50524667  1
  O  O274  1  0.00309118  0.59993167  -0.01054620  1
  O  O275  1  0.06254886  0.66248323  0.46385722  1
  O  O276  1  0.52777708  0.04858586  -0.08577024  1
  O  O277  1  0.48439659  0.10741611  0.50243502  1
  O  O278  1  0.51959869  0.61487405  0.01393340  1
  O  O279  1  0.52501309  0.62700711  0.51219995  1
  O  O280  1  0.47282237  0.37046182  0.48437023  1
  O  O281  1  0.53054170  0.39988747  1.00602798  1
  O  O282  1  0.48313789  0.87740563  0.50346099  1
  O  O283  1  0.51512187  0.89317458  0.99385141  1
  O  O284  1  1.01364201  0.35461740  0.48215145  1
  O  O285  1  0.99435748  0.39257627  1.00910437  1
  O  O286  1  0.98635156  0.88064658  0.49378612  1
  O  O287  1  0.99798069  0.88778740  0.98391328  1
  O  O288  1  0.47582486  0.48848176  0.35940932  1
  O  O289  1  0.49205286  0.50173284  0.88036270  1
  O  O290  1  0.50827914  0.98461761  0.39810400  1
  O  O291  1  0.58431225  0.87408427  0.84865149  1
  O  O292  1  0.98444844  0.48169223  0.37874188  1
  O  O293  1  0.98467779  0.50999486  0.89899014  1
  O  O294  1  1.00230133  0.99684638  0.39735560  1
  O  O295  1  1.00009686  1.02030676  0.89474843  1
  O  O296  1  -0.00261807  0.01486022  0.12347396  1
  O  O297  1  0.01263224  -0.01297832  0.60908583  1
  O  O298  1  0.01346004  0.50448123  0.11272284  1
  O  O299  1  0.01246840  0.50806944  0.62381512  1
  O  O300  1  0.53520161  0.01749893  0.11587665  1
  O  O301  1  0.50555900  -0.01725859  0.61800792  1
  O  O302  1  0.51245178  0.51414087  0.14438869  1
  O  O303  1  0.62205515  0.44685761  0.59512399  1
  O  O304  1  0.23539749  0.36690910  0.25523311  1
  O  O305  1  0.22738426  0.36974142  0.74780988  1
  O  O306  1  0.23186028  0.87731600  0.26248474  1
  O  O307  1  0.23855803  0.86599950  0.73944904  1
  O  O308  1  0.73105011  0.32944757  0.21801885  1
  O  O309  1  0.73069339  0.39261535  0.75045924  1
  O  O310  1  0.75598976  0.87333670  0.24062986  1
  O  O311  1  0.75108014  0.84663143  0.73713996  1
  O  O312  1  0.24468909  0.13329325  0.25797136  1
  O  O313  1  0.24044610  0.12258637  0.76066519  1
  O  O314  1  0.24002038  0.63073671  0.24422989  1
  O  O315  1  0.25815102  0.63253704  0.78004680  1
  O  O316  1  0.77479154  0.14699784  0.25852716  1
  O  O317  1  0.78381109  0.11865248  0.72257235  1
  O  O318  1  0.77028181  0.63138423  0.25226678  1
  O  O319  1  0.76886916  0.61576000  0.73835357  1
  O  O320  1  0.36166796  0.13316801  0.36724470  1
  O  O321  1  0.35702100  0.14392423  0.86632008  1
  O  O322  1  0.38769149  0.61225010  0.38122432  1
  O  O323  1  0.37097883  0.60338023  0.86535613  1
  O  O324  1  0.88281728  0.13219378  0.37114518  1
  O  O325  1  0.85230846  0.13001499  0.86892012  1
  O  O326  1  0.86700828  0.58412588  0.35703974  1
  O  O327  1  0.86465097  0.63864428  0.86916501  1
  O  O328  1  0.12174752  0.39056194  0.14026592  1
  O  O329  1  0.11853226  0.38251017  0.63181351  1
  O  O330  1  0.11381892  0.89339361  0.14190170  1
  O  O331  1  0.13101225  0.88370002  0.61031397  1
  O  O332  1  0.61971343  0.40481640  0.14511339  1
  O  O333  1  0.63821874  0.38411092  0.56104404  1
  O  O334  1  0.64281685  0.87495596  0.13105209  1
  O  O335  1  0.64360602  0.88589393  0.61474541  1
  O  O336  1  0.11562391  0.26257848  0.23603632  1
  O  O337  1  0.10736181  0.26020878  0.74704792  1
  O  O338  1  0.11152247  0.77451561  0.23679640  1
  O  O339  1  0.11142626  0.72229140  0.72975305  1
  O  O340  1  0.60646572  0.23539789  0.26751539  1
  O  O341  1  0.63124596  0.26690061  0.72062956  1
  O  O342  1  0.62990894  0.75838372  0.26484383  1
  O  O343  1  0.60258685  0.72428704  0.72067424  1
  O  O344  1  0.37691766  0.23470272  0.24413165  1
  O  O345  1  0.36584199  0.27297410  0.73295886  1
  O  O346  1  0.37700942  0.77623960  0.23294474  1
  O  O347  1  0.36558877  0.75083834  0.76754199  1
  O  O348  1  0.89208925  0.24767500  0.24105431  1
  O  O349  1  0.88457823  0.27701020  0.76478284  1
  O  O350  1  0.88950340  0.74154274  0.23381923  1
  O  O351  1  0.87713415  0.73383130  0.73201924  1
  O  O352  1  0.35641484  0.49354291  0.47762396  1
  O  O353  1  0.40735057  0.50576930  1.00981841  1
  O  O354  1  0.38281401  0.98692041  0.51082484  1
  O  O355  1  0.42100420  1.03127448  1.01755968  1
  O  O356  1  0.84341842  0.49181498  0.48215085  1
  O  O357  1  0.87257073  0.49693317  1.02427367  1
  O  O358  1  0.88578587  0.99748354  0.50992662  1
  O  O359  1  0.88550381  1.00336131  1.00876163  1
  O  O360  1  0.10281853  -0.00398956  0.02376769  1
  O  O361  1  0.11512390  0.01128867  0.50735341  1
  O  O362  1  0.13681035  0.49353763  0.01580610  1
  O  O363  1  0.11619322  0.48213515  0.50024275  1
  O  O364  1  0.63288712  -0.00206497  0.01740267  1
  O  O365  1  0.60966337  0.00983126  0.51957397  1
  O  O366  1  0.62278567  0.51719433  -0.00998211  1
  O  O367  1  0.64388158  0.52707120  0.45444023  1
  O  O368  1  0.40009254  0.35028929  0.12030014  1
  O  O369  1  0.37300195  0.41008356  0.60404135  1
  O  O370  1  0.41738998  0.89747623  0.13845646  1
  O  O371  1  0.34771953  0.87224029  0.61332814  1
  O  O372  1  0.85504619  0.36262733  0.13072036  1
  O  O373  1  0.84245298  0.42536157  0.63568711  1
  O  O374  1  0.86701350  0.86294469  0.12800446  1
  O  O375  1  0.86447749  0.87175658  0.62069210  1
  O  O376  1  0.12001381  0.12383206  0.39539130  1
  O  O377  1  0.13135098  0.14186619  0.87333732  1
  O  O378  1  0.09891830  0.63460621  0.40109059  1
  O  O379  1  0.14251338  0.59854018  0.88628639  1
  O  O380  1  0.62103145  0.12160249  0.40841976  1
  O  O381  1  0.67298427  0.14230022  0.83536708  1
  O  O382  1  0.61491036  0.65418984  0.38276451  1
  O  O383  1  0.61725214  0.63456857  0.88200691  1
