# generated using pymatgen
data_VZnO4
_symmetry_space_group_name_H-M   'P 1'
_cell_length_a   16.96773438
_cell_length_b   16.94109947
_cell_length_c   16.94830844
_cell_angle_alpha   90.08738923
_cell_angle_beta   89.87084501
_cell_angle_gamma   89.85863323
_symmetry_Int_Tables_number   1
_chemical_formula_structural   VZnO4
_chemical_formula_sum   'V64 Zn64 O256'
_cell_volume   4871.79353104
_cell_formula_units_Z   64
loop_
 _symmetry_equiv_pos_site_id
 _symmetry_equiv_pos_as_xyz
  1  'x, y, z'
loop_
 _atom_site_type_symbol
 _atom_site_label
 _atom_site_symmetry_multiplicity
 _atom_site_fract_x
 _atom_site_fract_y
 _atom_site_fract_z
 _atom_site_occupancy
  V  V0  1  0.26364168  -0.04994599  0.77344433  1
  V  V1  1  0.37604314  0.39028950  0.00067915  1
  V  V2  1  0.32385440  0.02604105  0.34003432  1
  V  V3  1  0.50610138  0.37405489  0.36750672  1
  V  V4  1  0.61497334  0.12274805  0.50878416  1
  V  V5  1  0.25572286  0.24301185  -0.02216390  1
  V  V6  1  0.50176992  0.91215712  0.37028108  1
  V  V7  1  0.01280278  0.00671575  0.50427363  1
  V  V8  1  0.75639684  0.26973728  0.00128616  1
  V  V9  1  0.02528396  0.62369027  0.11692189  1
  V  V10  1  0.77002455  0.12432984  0.36998668  1
  V  V11  1  0.48599164  0.13178025  0.12267771  1
  V  V12  1  -0.00552915  0.72190350  0.74934237  1
  V  V13  1  0.10685874  0.12224036  -0.01164965  1
  V  V14  1  0.76103515  0.62312463  0.86139292  1
  V  V15  1  0.89916017  0.86947884  0.50649398  1
  V  V16  1  0.37269139  0.35740549  0.49658985  1
  V  V17  1  0.74155865  0.11954073  0.86835117  1
  V  V18  1  0.26514267  0.61771590  0.87920156  1
  V  V19  1  0.89450483  0.37985470  0.50723787  1
  V  V20  1  0.73523455  0.48802844  0.23776827  1
  V  V21  1  0.51410198  -0.03563500  -0.03353565  1
  V  V22  1  0.62311201  0.61954281  -0.01431708  1
  V  V23  1  0.12065704  0.00244789  0.64515418  1
  V  V24  1  0.63364806  0.50228421  0.62300254  1
  V  V25  1  -0.00600668  0.47982219  0.00459260  1
  V  V26  1  0.86392930  0.73637162  0.62878606  1
  V  V27  1  0.24466330  0.89022367  0.12827891  1
  V  V28  1  0.74597478  0.61918354  0.39302590  1
  V  V29  1  0.01536283  0.23892376  0.75425863  1
  V  V30  1  0.37558211  0.50832538  0.36323016  1
  V  V31  1  0.10288464  0.86575727  0.75756705  1
  V  V32  1  0.38360420  0.76605363  0.11938696  1
  V  V33  1  0.25396198  0.36162192  0.62841351  1
  V  V34  1  0.88949550  0.25254336  0.13556816  1
  V  V35  1  0.62377301  0.14415261  0.00126373  1
  V  V36  1  0.09842654  0.00678048  0.12481076  1
  V  V37  1  0.63024285  -0.00301278  0.13748043  1
  V  V38  1  0.10448179  0.74571371  0.89063939  1
  V  V39  1  0.02571627  0.36722479  0.87162598  1
  V  V40  1  0.24256879  0.36553285  0.12382419  1
  V  V41  1  0.88919025  0.87409958  0.00789026  1
  V  V42  1  0.49221859  0.64023382  0.63087063  1
  V  V43  1  0.47483972  0.24715058  0.24906848  1
  V  V44  1  0.74420991  0.75587072  0.01034182  1
  V  V45  1  0.62910874  0.38458369  0.74940231  1
  V  V46  1  0.50367517  0.51486525  0.49485298  1
  V  V47  1  0.50892101  0.62486179  0.12715798  1
  V  V48  1  0.87766473  -0.00537614  0.86736452  1
  V  V49  1  0.61970257  0.75954202  0.36686049  1
  V  V50  1  0.48252753  0.38934343  0.86571404  1
  V  V51  1  0.10713219  0.49935100  0.66736715  1
  V  V52  1  0.50180974  0.25108204  0.73549144  1
  V  V53  1  0.36854183  0.13279687  0.76270769  1
  V  V54  1  0.87660923  0.24322732  0.63301198  1
  V  V55  1  0.24993749  0.75558492  -0.00234073  1
  V  V56  1  0.01531801  0.74544290  0.26014496  1
  V  V57  1  0.24995514  0.50486321  0.23381906  1
  V  V58  1  0.63569781  0.25524028  0.35388793  1
  V  V59  1  0.88901619  0.49232563  0.37387812  1
  V  V60  1  0.37916371  0.64286188  0.25033763  1
  V  V61  1  0.74391035  0.26328349  0.50937543  1
  V  V62  1  0.87103456  0.62167842  0.22879348  1
  V  V63  1  0.34432270  0.76873663  0.60230398  1
  Zn  Zn64  1  0.23199559  0.15163538  0.12494450  1
  Zn  Zn65  1  0.19950585  0.18212958  0.68961792  1
  Zn  Zn66  1  0.19433275  0.69244029  0.18845583  1
  Zn  Zn67  1  0.18206959  0.67601230  0.69253478  1
  Zn  Zn68  1  0.72446787  0.17022335  0.16722848  1
  Zn  Zn69  1  0.67918065  0.19313760  0.68710360  1
  Zn  Zn70  1  0.69646580  0.69331098  0.19675363  1
  Zn  Zn71  1  0.68487439  0.67698179  0.67121201  1
  Zn  Zn72  1  0.31247714  0.32614361  0.30942678  1
  Zn  Zn73  1  0.31717104  0.31023596  0.80896236  1
  Zn  Zn74  1  0.34235299  0.85394898  0.29734769  1
  Zn  Zn75  1  0.29821598  0.75854024  0.78207427  1
  Zn  Zn76  1  0.81850428  0.31549635  0.31307820  1
  Zn  Zn77  1  0.79142659  0.30099465  0.81000886  1
  Zn  Zn78  1  0.80134625  0.79848587  0.31207857  1
  Zn  Zn79  1  0.83000356  0.78959062  0.83861955  1
  Zn  Zn80  1  0.20077902  0.44227155  0.43275229  1
  Zn  Zn81  1  0.18264896  0.44321231  0.94805601  1
  Zn  Zn82  1  0.20592291  1.05484363  0.47977442  1
  Zn  Zn83  1  0.17324740  0.93210604  0.94435850  1
  Zn  Zn84  1  0.68969945  0.43965217  0.43315236  1
  Zn  Zn85  1  0.67637352  0.44678736  0.93110200  1
  Zn  Zn86  1  0.67345753  0.95623732  0.41090288  1
  Zn  Zn87  1  0.71639419  0.96706354  0.98494718  1
  Zn  Zn88  1  0.33143463  0.04889268  0.02718399  1
  Zn  Zn89  1  0.33971246  -0.00896101  0.61973343  1
  Zn  Zn90  1  0.31608584  0.57192680  0.06295986  1
  Zn  Zn91  1  0.32490063  0.56820999  0.55600860  1
  Zn  Zn92  1  0.83105122  0.06328921  0.06632248  1
  Zn  Zn93  1  0.82261568  0.06860751  0.53712635  1
  Zn  Zn94  1  0.80328032  0.54904439  0.04873529  1
  Zn  Zn95  1  0.81975687  0.55696028  0.56400305  1
  Zn  Zn96  1  0.46850004  0.42399303  0.16317000  1
  Zn  Zn97  1  0.43572417  0.43685391  0.67417781  1
  Zn  Zn98  1  0.43546650  0.95584203  0.19090253  1
  Zn  Zn99  1  0.42921659  0.87133884  0.70606537  1
  Zn  Zn100  1  0.92316432  0.42586196  0.17985646  1
  Zn  Zn101  1  0.93666668  0.42055800  0.69652195  1
  Zn  Zn102  1  0.93990835  0.91480683  0.18490692  1
  Zn  Zn103  1  0.93032734  0.93190998  0.68915588  1
  Zn  Zn104  1  0.11630014  -0.00354117  0.32957338  1
  Zn  Zn105  1  0.05576845  0.06174979  0.82022027  1
  Zn  Zn106  1  0.04244205  0.51169589  0.26684464  1
  Zn  Zn107  1  0.07129182  0.55430548  0.85351452  1
  Zn  Zn108  1  0.57488282  0.08258582  0.30616222  1
  Zn  Zn109  1  0.52946868  0.08223885  0.83317729  1
  Zn  Zn110  1  0.56576465  0.57220734  0.30829924  1
  Zn  Zn111  1  0.55325237  0.56679806  0.80454999  1
  Zn  Zn112  1  0.40852908  0.14597250  0.47622325  1
  Zn  Zn113  1  0.44259991  0.20571819  0.92989569  1
  Zn  Zn114  1  0.43805596  0.69997492  0.43291369  1
  Zn  Zn115  1  0.43757057  0.68534829  0.94696775  1
  Zn  Zn116  1  0.94136186  0.18659148  0.45815430  1
  Zn  Zn117  1  0.92319256  0.18801041  0.92978431  1
  Zn  Zn118  1  0.90298493  0.70223863  0.42286672  1
  Zn  Zn119  1  0.92269946  0.67896193  0.94991856  1
  Zn  Zn120  1  0.06656775  0.29930774  0.06365775  1
  Zn  Zn121  1  0.06507943  0.32953492  0.58845292  1
  Zn  Zn122  1  0.06342249  0.81037748  0.07558870  1
  Zn  Zn123  1  0.05369327  0.81275840  0.58174466  1
  Zn  Zn124  1  0.55927967  0.31573695  0.05851353  1
  Zn  Zn125  1  0.55945662  0.31931406  0.55940397  1
  Zn  Zn126  1  0.57374386  0.81092351  0.06727180  1
  Zn  Zn127  1  0.55458313  0.81137809  0.52824153  1
  O  O128  1  0.12503429  0.11115012  0.11086126  1
  O  O129  1  0.12515141  0.10092109  0.65345808  1
  O  O130  1  0.12412910  0.62127560  0.12320689  1
  O  O131  1  0.13756167  0.59108012  0.63502631  1
  O  O132  1  0.62256756  0.12489517  0.11207923  1
  O  O133  1  0.63685243  0.12682835  0.60756435  1
  O  O134  1  0.60756210  0.63999859  0.14569474  1
  O  O135  1  0.60807053  0.61021413  0.61979276  1
  O  O136  1  0.38381166  0.38739761  0.38051801  1
  O  O137  1  0.37544685  0.38085228  0.87763247  1
  O  O138  1  0.35917673  0.93914983  0.38228379  1
  O  O139  1  0.47176230  0.79917629  0.83659473  1
  O  O140  1  0.87529380  0.38400251  0.38989952  1
  O  O141  1  0.85005975  0.41180676  0.84128290  1
  O  O142  1  0.85332694  0.85951075  0.41744608  1
  O  O143  1  0.86265284  0.88664008  0.88774407  1
  O  O144  1  0.21791013  0.02708001  0.37209204  1
  O  O145  1  0.23751081  -0.01467226  0.86439393  1
  O  O146  1  0.27227020  0.49429250  0.35679850  1
  O  O147  1  0.24272523  0.52087295  0.88719200  1
  O  O148  1  0.75909915  0.02395274  0.38907865  1
  O  O149  1  0.74260267  0.01443503  0.88315776  1
  O  O150  1  0.75035624  0.50854543  0.36574490  1
  O  O151  1  0.73836244  0.52428616  0.87542689  1
  O  O152  1  0.25641086  0.49606407  0.12934303  1
  O  O153  1  0.28566762  0.49748841  0.64572720  1
  O  O154  1  0.26561129  0.98687879  0.10388869  1
  O  O155  1  0.23349129  0.98791955  0.67398017  1
  O  O156  1  0.75376062  0.49774897  0.13819520  1
  O  O157  1  0.73214188  0.50471845  0.61960342  1
  O  O158  1  0.72839033  1.00397815  0.10111069  1
  O  O159  1  0.74559629  0.97588936  0.58316578  1
  O  O160  1  0.01615615  0.40776863  0.23654743  1
  O  O161  1  0.00534913  0.35846664  0.76401481  1
  O  O162  1  -0.00125324  0.84617069  0.25028179  1
  O  O163  1  0.00132890  0.85437483  0.75665054  1
  O  O164  1  0.48605081  0.36353332  0.26101618  1
  O  O165  1  0.49192381  0.37558289  0.75086310  1
  O  O166  1  0.45767927  0.88019948  0.27852903  1
  O  O167  1  0.51476234  0.83738023  0.78282358  1
  O  O168  1  0.50142853  0.14377617  0.24055850  1
  O  O169  1  0.52427215  0.15206682  0.74521476  1
  O  O170  1  0.48553512  0.63104012  0.24402391  1
  O  O171  1  0.49812917  0.63525683  0.73052833  1
  O  O172  1  1.02453732  0.18737054  0.28806396  1
  O  O173  1  0.99383466  0.14103298  0.76426531  1
  O  O174  1  0.99006274  0.61279465  0.22960455  1
  O  O175  1  1.00305273  0.62642162  0.77150296  1
  O  O176  1  0.35970039  0.26230353  -0.01057374  1
  O  O177  1  0.37399239  0.26012445  0.48172890  1
  O  O178  1  0.36789245  0.75440308  0.01469531  1
  O  O179  1  0.36594334  0.74859177  0.50269603  1
  O  O180  1  0.85919904  0.24870510  0.00521425  1
  O  O181  1  0.87105252  0.26523440  0.50847778  1
  O  O182  1  0.86004188  0.76751366  -0.01021591  1
  O  O183  1  0.89678932  0.75521027  0.52341638  1
  O  O184  1  0.10325866  0.24568024  0.49823227  1
  O  O185  1  0.14469063  0.23088722  1.00658069  1
  O  O186  1  0.13537659  0.73777536  0.50594392  1
  O  O187  1  0.13413994  0.75602307  0.99529464  1
  O  O188  1  0.63791189  0.25366267  0.50235784  1
  O  O189  1  0.62665228  0.24830631  0.99668656  1
  O  O190  1  0.64460973  0.77527262  0.46359003  1
  O  O191  1  0.63557777  0.73210496  1.01133240  1
  O  O192  1  0.49622707  0.24746714  0.14244972  1
  O  O193  1  0.49516255  0.26369449  0.63493463  1
  O  O194  1  0.48553290  0.75298110  0.12588193  1
  O  O195  1  0.50906280  0.73738369  0.60172629  1
  O  O196  1  0.98933069  0.24113556  0.12172782  1
  O  O197  1  0.98943867  0.25839930  0.64298735  1
  O  O198  1  1.01003363  0.73046346  0.14010498  1
  O  O199  1  1.00589593  0.73067757  0.64678242  1
  O  O200  1  0.05697394  0.24069856  0.43895504  1
  O  O201  1  -0.01239527  0.26131786  0.86573967  1
  O  O202  1  -0.00802895  0.72506973  0.35779295  1
  O  O203  1  0.00342944  0.73828077  0.87873670  1
  O  O204  1  0.51732827  0.25715376  0.35467559  1
  O  O205  1  0.49534483  0.27365216  0.85195719  1
  O  O206  1  0.51920359  0.74522967  0.36301277  1
  O  O207  1  0.51189862  0.74272845  0.87397176  1
  O  O208  1  0.26689246  0.11713267  0.54966721  1
  O  O209  1  0.26169983  0.13787045  1.00817253  1
  O  O210  1  0.23202655  0.59541081  0.48924346  1
  O  O211  1  0.25457748  0.64419973  0.99707015  1
  O  O212  1  0.74682694  0.14510900  0.48921773  1
  O  O213  1  0.73049994  0.13617023  0.99543401  1
  O  O214  1  0.74048241  0.60545441  0.49100057  1
  O  O215  1  0.73874301  0.62879336  0.99038109  1
  O  O216  1  0.25646673  0.36780709  0.00465318  1
  O  O217  1  0.26904246  0.38501094  0.50392515  1
  O  O218  1  0.24806541  0.86261036  0.00924141  1
  O  O219  1  0.22839314  0.84648427  0.44103803  1
  O  O220  1  0.74334398  0.36629781  -0.02519915  1
  O  O221  1  0.75278195  0.36495815  0.49705911  1
  O  O222  1  0.73092223  0.85593673  0.00007006  1
  O  O223  1  0.73961561  0.91793725  0.53612818  1
  O  O224  1  0.15505555  0.51536130  0.25889503  1
  O  O225  1  0.12262584  0.49679760  0.76511381  1
  O  O226  1  0.12852294  1.00522318  0.22211017  1
  O  O227  1  0.10641426  0.97574602  0.75886849  1
  O  O228  1  0.63585698  0.50443613  0.25226107  1
  O  O229  1  0.61454432  0.49729172  0.73172217  1
  O  O230  1  0.63781187  1.01757994  0.23618358  1
  O  O231  1  0.57149382  0.98159361  0.67846791  1
  O  O232  1  0.35013828  0.01731000  0.24291822  1
  O  O233  1  0.36319772  -0.06220350  0.77491308  1
  O  O234  1  0.37972819  0.51018520  0.25724556  1
  O  O235  1  0.33918017  0.50305035  0.70442826  1
  O  O236  1  0.84582141  -0.04171800  0.25732190  1
  O  O237  1  0.86917261  -0.01197371  0.76599229  1
  O  O238  1  0.86905505  0.50348020  0.26067124  1
  O  O239  1  0.85869686  0.45926021  0.78405857  1
  O  O240  1  0.15683636  0.35241051  0.37047931  1
  O  O241  1  0.12429064  0.36658315  0.87933826  1
  O  O242  1  0.12463930  0.71615298  0.43697344  1
  O  O243  1  0.11802688  0.85417072  0.87244822  1
  O  O244  1  0.61543960  0.36479268  0.38048032  1
  O  O245  1  0.60538648  0.39182818  0.85427669  1
  O  O246  1  0.60575534  0.88201184  0.35819157  1
  O  O247  1  0.66407004  0.90919655  0.78402961  1
  O  O248  1  0.38811166  0.12355344  0.11642335  1
  O  O249  1  0.39646927  0.06941582  0.68905198  1
  O  O250  1  0.38459307  0.64338161  0.13272665  1
  O  O251  1  0.38735280  0.64286267  0.61183114  1
  O  O252  1  0.84069931  0.15119975  0.13022565  1
  O  O253  1  0.87361193  0.14486913  0.61206531  1
  O  O254  1  0.86984545  0.61474547  0.13024547  1
  O  O255  1  0.87426624  0.63540822  0.62255635  1
  O  O256  1  0.25749686  0.26527470  0.12612132  1
  O  O257  1  0.22961039  0.26526679  0.61491082  1
  O  O258  1  0.25743139  0.76213317  0.11768990  1
  O  O259  1  0.24836328  0.74314467  0.61875220  1
  O  O260  1  0.73615333  0.26584138  0.10168124  1
  O  O261  1  0.75884470  0.25232040  0.61389680  1
  O  O262  1  0.75608087  0.73886465  0.10951015  1
  O  O263  1  0.76512822  0.74539094  0.62595127  1
  O  O264  1  0.20993154  0.29551967  0.36827148  1
  O  O265  1  0.24778931  0.24951437  0.87999783  1
  O  O266  1  0.25415431  0.80041399  0.39034644  1
  O  O267  1  0.25825457  0.75294899  0.89411806  1
  O  O268  1  0.74362493  0.25406873  0.38444841  1
  O  O269  1  0.75337572  0.23213122  0.88845201  1
  O  O270  1  0.78480234  0.71623991  0.39130211  1
  O  O271  1  0.74562613  0.73433259  0.89043610  1
  O  O272  1  0.00872849  0.13639456  -0.00942610  1
  O  O273  1  0.00391441  0.10607889  0.51071334  1
  O  O274  1  -0.00263925  0.63077133  0.01810044  1
  O  O275  1  -0.00347056  0.62723823  0.51650747  1
  O  O276  1  0.50779745  0.15018928  0.01546295  1
  O  O277  1  0.51668067  0.14498731  0.50167624  1
  O  O278  1  0.51453955  0.63846408  0.01705268  1
  O  O279  1  0.50393495  0.61511992  0.48747449  1
  O  O280  1  0.48704890  0.38160668  0.48736900  1
  O  O281  1  0.48304890  0.37016515  0.97929741  1
  O  O282  1  0.48657799  0.87655528  0.46580946  1
  O  O283  1  0.51709153  0.86592076  0.98465912  1
  O  O284  1  0.99365707  0.37492216  0.50643015  1
  O  O285  1  1.00644211  0.37333066  0.99167840  1
  O  O286  1  1.00378197  0.87284331  0.49952138  1
  O  O287  1  0.98878253  0.86631012  1.00661201  1
  O  O288  1  0.49868400  0.49560959  0.37703207  1
  O  O289  1  0.48768637  0.49015956  0.85972653  1
  O  O290  1  0.51058881  1.01161382  0.36885241  1
  O  O291  1  0.52724329  0.97601754  0.86615340  1
  O  O292  1  0.98756760  0.49969033  0.37110329  1
  O  O293  1  0.99123900  0.46610242  0.87515886  1
  O  O294  1  1.03635115  0.99594898  0.40483050  1
  O  O295  1  0.97582865  1.00434447  0.88008583  1
  O  O296  1  -0.00106126  -0.00109765  0.13154963  1
  O  O297  1  0.01500648  -0.01303775  0.62716475  1
  O  O298  1  0.00303826  0.50502873  0.10847310  1
  O  O299  1  0.00835738  0.49197142  0.64654352  1
  O  O300  1  0.50972402  0.02607112  0.13809830  1
  O  O301  1  0.51791712  -0.05237304  0.64102380  1
  O  O302  1  0.48919051  0.52825509  0.12500450  1
  O  O303  1  0.49004209  0.51628059  0.60464393  1
  O  O304  1  0.26297442  0.39164923  0.23030072  1
  O  O305  1  0.26384207  0.36710983  0.72725666  1
  O  O306  1  0.25113265  0.87872448  0.22893573  1
  O  O307  1  0.22774223  0.85345731  0.76601775  1
  O  O308  1  0.75092687  0.39054462  0.25895813  1
  O  O309  1  0.72757751  0.37684953  0.75081611  1
  O  O310  1  0.78842425  0.90957380  0.26109891  1
  O  O311  1  0.72262091  0.91935020  0.74316394  1
  O  O312  1  0.24092866  0.14036937  0.24677373  1
  O  O313  1  0.26799774  0.13096836  0.76494454  1
  O  O314  1  0.27253189  0.61545072  0.23637035  1
  O  O315  1  0.25569098  0.64856215  0.77664670  1
  O  O316  1  0.75211888  0.13418568  0.27187472  1
  O  O317  1  0.72772180  0.13136002  0.76983301  1
  O  O318  1  0.76409146  0.61226087  0.25401819  1
  O  O319  1  0.73398198  0.63988057  0.76428622  1
  O  O320  1  0.36549212  0.10939342  0.37796228  1
  O  O321  1  0.41170750  0.11608874  0.85793249  1
  O  O322  1  0.38131398  0.62030190  0.36113131  1
  O  O323  1  0.36616361  0.62506232  0.88549323  1
  O  O324  1  0.86982104  0.14126882  0.38392859  1
  O  O325  1  0.85297438  0.10842117  0.88211386  1
  O  O326  1  0.86629538  0.59870647  0.38118876  1
  O  O327  1  0.86276331  0.62709047  0.86934931  1
  O  O328  1  0.14379001  0.37256624  0.11519505  1
  O  O329  1  0.14855478  0.40605434  0.61615596  1
  O  O330  1  0.13550723  0.89413172  0.11473268  1
  O  O331  1  0.12288187  0.86923240  0.65322414  1
  O  O332  1  0.57451598  0.39600288  0.13063741  1
  O  O333  1  0.61070861  0.39562332  0.63173498  1
  O  O334  1  0.60815076  0.89817043  0.13228597  1
  O  O335  1  0.63383258  0.84114546  0.62856816  1
  O  O336  1  0.04875609  0.25482882  0.28079853  1
  O  O337  1  0.11388408  0.24129357  0.74613047  1
  O  O338  1  0.11631263  0.73354816  0.26000119  1
  O  O339  1  0.10808514  0.74828423  0.76529057  1
  O  O340  1  0.64213993  0.25296173  0.25758945  1
  O  O341  1  0.61339904  0.27687666  0.73606319  1
  O  O342  1  0.68485477  0.77275276  0.28144402  1
  O  O343  1  0.62789961  0.79427083  0.68637273  1
  O  O344  1  0.37636719  0.24452914  0.26175242  1
  O  O345  1  0.38591282  0.23732063  0.74455884  1
  O  O346  1  0.36441924  0.74507365  0.24512949  1
  O  O347  1  0.38127692  0.76453860  0.70685029  1
  O  O348  1  0.87900383  0.25893250  0.23804906  1
  O  O349  1  0.86491813  0.25552419  0.73385630  1
  O  O350  1  0.87901996  0.72347855  0.25043000  1
  O  O351  1  0.88656405  0.74968333  0.74293351  1
  O  O352  1  0.38823103  0.50393121  0.47998837  1
  O  O353  1  0.36745513  0.48953233  0.99765942  1
  O  O354  1  0.33829710  1.06858251  0.53365465  1
  O  O355  1  0.42181108  0.99854617  0.99102904  1
  O  O356  1  0.87480090  0.48622457  0.49274403  1
  O  O357  1  0.89541382  0.50460677  0.99391836  1
  O  O358  1  0.90250855  0.98510395  0.51341557  1
  O  O359  1  0.85877180  0.98292309  0.99311225  1
  O  O360  1  0.11924274  0.01060525  0.00880113  1
  O  O361  1  0.12718442  -0.00709328  0.53519142  1
  O  O362  1  0.09104520  0.51342235  -0.02945893  1
  O  O363  1  0.17754733  0.54001080  0.49209972  1
  O  O364  1  0.60237604  0.01181477  0.00980246  1
  O  O365  1  0.62219828  0.02382603  0.48919811  1
  O  O366  1  0.62670211  0.52110716  0.00728269  1
  O  O367  1  0.60789997  0.48929632  0.50654815  1
  O  O368  1  0.37585681  0.37817640  0.10454519  1
  O  O369  1  0.36906714  0.36820582  0.60472060  1
  O  O370  1  0.37123857  0.86858918  0.13071102  1
  O  O371  1  0.36223340  0.87667529  0.60484675  1
  O  O372  1  0.87189719  0.35418085  0.11411585  1
  O  O373  1  0.87492975  0.36997318  0.61263610  1
  O  O374  1  0.86741126  0.87669279  0.10682539  1
  O  O375  1  0.87996276  0.85986011  0.61587984  1
  O  O376  1  0.18992623  0.18088130  0.28299731  1
  O  O377  1  0.12894352  0.11439516  0.89056095  1
  O  O378  1  0.04442401  0.58742172  0.47958835  1
  O  O379  1  0.13973855  0.64829419  0.88027054  1
  O  O380  1  0.63459716  0.14849287  0.38310232  1
  O  O381  1  0.62349071  0.12220595  0.89480922  1
  O  O382  1  0.64202922  0.64414587  0.36410902  1
  O  O383  1  0.61194728  0.62388064  0.88580051  1
